data_PCOD9425188
_publ_section_title
;
Structure prediction by ZEFSAII (Michael W. Deem and Ramdas Pophale) SiO2 
 PCOD9425188
Probable space group: P B A M
;
_chemical_formula_sum "Si O2"
_cell_formula_units_Z 56
_cell_length_a 19.335765
_cell_length_b 16.551250
_cell_length_c 9.175452
_cell_angle_alpha 90.000000
_cell_angle_beta 90.000000
_cell_angle_gamma 90.000000
_cell_volume 2936.429817
_symmetry_space_group_name_H-M "P B A M"
_symmetry_group_IT_number 55
_symmetry_cell_setting 'orthorhombic'
loop_
_space_group_symop_operation_xyz
x,y,z
-x,-y,z
1/2+x,1/2-y,-z
1/2-x,1/2+y,-z
-x,-y,-z
x,y,-z
1/2-x,1/2+y,z
1/2+x,1/2-y,z
loop_
_atom_site_type_symbol
_atom_site_label
_atom_site_fract_x
_atom_site_fract_y
_atom_site_fract_z
Si Si1 0.732727 0.328896 0.834313
Si Si2 0.629688 0.480462 0.835427
Si Si3 0.106095 0.279407 0.175716
Si Si4 0.867819 0.316189 0.675273
Si Si5 0.631351 0.632411 0.666941
Si Si6 0.533428 0.367848 0.333291
Si Si7 0.489506 0.904756 0.675852
O O1 0.683468 0.406974 0.838119
O O2 0.683304 0.253912 0.784857
O O3 0.797809 0.352905 0.737137
O O4 0.755442 0.311591 0.000000
O O5 0.660015 0.561827 0.767383
O O6 0.569514 0.446021 0.733229
O O7 0.605059 0.495136 0.000000
O O8 0.056330 0.208533 0.236852
O O9 0.075462 0.361147 0.246173
O O10 0.103125 0.282776 0.000000
O O11 0.868468 0.317219 0.500000
O O12 0.859432 0.223066 0.722315
O O13 0.939747 0.357767 0.720333
O O14 0.656347 0.625617 0.500000
O O15 0.548393 0.623440 0.665558
O O16 0.556788 0.354568 0.500000
O O17 0.481469 0.896179 0.500000
O O18 0.500000 0.000000 0.707517
#
# Coordination Sequence:
#
# PCOD9425188 Si02
#       7
#     8   8   8   8   8   8   8
#     4   9  21  40  57  80 115 154 192 237 291 350
#     4  10  21  35  52  80 115 148 189 229 276 345
#     4  10  20  36  59  86 116 149 194 239 287 354
#     4  10  21  39  60  85 114 149 195 243 290 351
#     4  10  20  34  53  81 113 143 183 230 282 341
#     4  10  18  32  55  81 114 147 179 227 280 330
#     4  10  21  40  64  89 118 152 196 249 302 352
#
# _framework density 19.070779000000002
#
# number of rings (size 3 to 8) (size 9 to 14) (size 15 to 20)
#    0.000    2.143    1.429    2.571    0.000    7.714 
#    2.571    0.000    0.000    0.000    0.000    0.000 
#    0.000    0.000    0.000    0.000    0.000    0.000 
#
# Total GULP energy -312178.660446 kJ/mol
# GULP energy per Si atom -5574.618937 kJ/mol
# Density = 1.902737 g / cm^3
# Si number density = 19.070779 Si / 1000 Ang^3
#
#
#
# Elastic Constant Matrix: (Units=GPa)
#
#
# Indices 1 2 3 4 5 6 
#
# 1 42.8117 1.5969 8.1157 0.0000 0.0000 0.0000
# 2 1.5969 74.9227 20.7769 0.0000 0.0000 0.0000
# 3 8.1157 20.7769 38.2368 0.0000 0.0000 0.0000
# 4 0.0000 0.0000 0.0000 14.3549 0.0000 0.0000
# 5 0.0000 0.0000 0.0000 0.0000 32.7942 0.0000
# 6 0.0000 0.0000 0.0000 0.0000 0.0000 8.3417
#
#
#
# Elastic Compliance Matrix: (Units=1/GPa)
#
#
# Indices 1 2 3 4 5 6 
#
# 1 0.024411 0.001079 -0.005768 0.000000 0.000000 0.000000
# 2 0.001079 0.015763 -0.008794 0.000000 0.000000 0.000000
# 3 -0.005768 -0.008794 0.032155 0.000000 0.000000 0.000000
# 4 0.000000 0.000000 0.000000 0.069663 0.000000 0.000000
# 5 0.000000 0.000000 0.000000 0.000000 0.030493 0.000000
# 6 0.000000 0.000000 0.000000 0.000000 0.000000 0.119880
#
#
# Mechanical properties :
#
#
# Convention : Reuss Voigt Hill
#
# Bulk Modulus (GPa) = 22.04380 24.10558 23.07469
# Shear Modulus (GPa) = 14.94983 19.46360 17.20671
#
# Velocity S-wave (km/s) = 2.80288 3.19815 3.00702
# Velocity P-wave (km/s) = 4.69669 5.12884 4.91752
#
# Compressibility (1/GPa) = 0.04536424
#
# Stress axis : x y z
#
# Youngs Moduli (GPa) = 40.96485 63.44057 31.09891
#
# Poissons Ratio (x) = -0.06846 0.17937
# Poissons Ratio (y) = -0.04421 0.27349
# Poissons Ratio (z) = 0.23627 0.55790
#
# Static dielectric constant tensor:
#      x y z
#    x 1.688160 0.000000 0.000000 
#    y 0.000000 1.706310 0.000000 
#    z 0.000000 0.000000 1.662790 
# 
# From -- ./inp_files/8710.got.cif
#   From: 2010.05.17/outbox.cif.g08.bks.cpg/sg55_5_cif.got.tgz:8710.got - 2010.06.03 13:27:54.
