data_PCOD9425277
_publ_section_title
;
Structure prediction by ZEFSAII (Michael W. Deem and Ramdas Pophale) SiO2 
 PCOD9425277
Probable space group: P B A M
;
_chemical_formula_sum "Si O2"
_cell_formula_units_Z 64
_cell_length_a 20.406857
_cell_length_b 19.512343
_cell_length_c 7.579275
_cell_angle_alpha 90.000000
_cell_angle_beta 90.000000
_cell_angle_gamma 90.000000
_cell_volume 3017.958113
_symmetry_space_group_name_H-M "P B A M"
_symmetry_group_IT_number 55
_symmetry_cell_setting 'orthorhombic'
loop_
_space_group_symop_operation_xyz
x,y,z
-x,-y,z
1/2+x,1/2-y,-z
1/2-x,1/2+y,-z
-x,-y,-z
x,y,-z
1/2-x,1/2+y,z
1/2+x,1/2-y,z
loop_
_atom_site_type_symbol
_atom_site_label
_atom_site_fract_x
_atom_site_fract_y
_atom_site_fract_z
Si Si1 0.238835 0.188778 0.211020
Si Si2 0.200971 0.544252 0.784513
Si Si3 0.154108 0.798539 0.216454
Si Si4 0.532217 0.789184 0.797411
Si Si5 0.948876 0.442666 0.216281
Si Si6 0.317127 0.452286 0.215495
Si Si7 0.561598 0.454746 0.213634
Si Si8 0.413695 0.700955 0.298144
O O1 0.265281 0.115304 0.275536
O O2 0.286106 0.249678 0.272310
O O3 0.162610 0.200611 0.248231
O O4 0.245509 0.186524 0.000000
O O5 0.125653 0.541527 0.729829
O O6 0.246650 0.481120 0.729267
O O7 0.201306 0.545138 0.000000
O O8 0.086649 0.762930 0.277468
O O9 0.164588 0.876335 0.276073
O O10 0.153370 0.801540 0.000000
O O11 0.533345 0.865777 0.722506
O O12 0.461736 0.753524 0.797584
O O13 0.553495 0.798668 0.000000
O O14 0.000000 0.500000 0.276239
O O15 0.950587 0.443667 0.000000
O O16 0.372214 0.506997 0.269772
O O17 0.317865 0.451350 0.000000
O O18 0.500000 0.500000 0.271810
O O19 0.560717 0.376491 0.272747
O O20 0.560922 0.453107 0.000000
O O21 0.418892 0.720430 0.500000
#
# Coordination Sequence:
#
# PCOD9425277 Si02
#       8
#     8   8   8   8   8   8   8   8
#     4  10  18  34  58  80 105 141 183 230 286 334
#     4   9  15  27  48  75 108 138 168 221 283 336
#     4   9  17  30  54  86 110 137 181 232 283 333
#     4  10  19  35  57  81 112 149 190 238 289 342
#     4   9  17  29  51  85 116 141 176 233 296 341
#     4   9  16  26  47  81 112 133 169 224 278 331
#     4  10  19  34  57  82 108 141 182 231 284 336
#     4  12  25  37  52  79 116 155 192 228 272 335
#
# _framework density 21.206389999999999
#
# number of rings (size 3 to 8) (size 9 to 14) (size 15 to 20)
#    0.000    2.250    2.500    1.875    0.000    3.250 
#    0.000    4.375    0.000    1.125    0.000    0.000 
#    0.000    0.000    0.000    0.000    0.000    0.000 
#
# Total GULP energy -357436.335695 kJ/mol
# GULP energy per Si atom -5584.942745 kJ/mol
# Density = 2.115812 g / cm^3
# Si number density = 21.206390 Si / 1000 Ang^3
#
#
#
# Elastic Constant Matrix: (Units=GPa)
#
#
# Indices 1 2 3 4 5 6 
#
# 1 166.3813 84.5241 -4.3707 0.0000 0.0000 0.0000
# 2 84.5241 158.6871 2.6212 0.0000 0.0000 0.0000
# 3 -4.3707 2.6212 41.8175 0.0000 0.0000 0.0000
# 4 0.0000 0.0000 0.0000 -33.6806 0.0000 0.0000
# 5 0.0000 0.0000 0.0000 0.0000 27.9488 0.0000
# 6 0.0000 0.0000 0.0000 0.0000 0.0000 40.1813
#
#
#
# Elastic Compliance Matrix: (Units=1/GPa)
#
#
# Indices 1 2 3 4 5 6 
#
# 1 0.008294 -0.004437 0.001145 0.000000 0.000000 0.000000
# 2 -0.004437 0.008682 -0.001008 0.000000 0.000000 0.000000
# 3 0.001145 -0.001008 0.024096 0.000000 0.000000 0.000000
# 4 0.000000 0.000000 0.000000 -0.029691 0.000000 0.000000
# 5 0.000000 0.000000 0.000000 0.000000 0.035780 0.000000
# 6 0.000000 0.000000 0.000000 0.000000 0.000000 0.024887
#
#
# Mechanical properties :
#
#
# Convention : Reuss Voigt Hill
#
# Bulk Modulus (GPa) = 30.79503 59.15947 44.97725
# Shear Modulus (GPa) = 54.66130 25.83064 40.24597
#
# Velocity S-wave (km/s) = 5.08250 3.49386 4.36113
# Velocity P-wave (km/s) = 6.99968 6.65084 6.82749
#
# Compressibility (1/GPa) = 0.03247278
#
# Stress axis : x y z
#
# Youngs Moduli (GPa) = 120.56371 115.18552 41.50013
#
# Poissons Ratio (x) = 0.51106 -0.04752
# Poissons Ratio (y) = 0.53493 0.04183
# Poissons Ratio (z) = -0.13805 0.11610
#
# Static dielectric constant tensor:
#      x y z
#    x 1.786930 0.000000 0.000000 
#    y 0.000000 1.732830 0.000000 
#    z 0.000000 0.000000 1.797560 
# 
# From -- ./inp_files/9031.got.cif
#   From: 2010.05.17/outbox.cif.g08.bks.cpg/sg55_5_cif.got.tgz:9031.got - 2010.06.03 13:27:54.
