data_PCOD9425137
_publ_section_title
;
Structure prediction by ZEFSAII (Michael W. Deem and Ramdas Pophale) SiO2 
 PCOD9425137
Probable space group: P B A M
;
_chemical_formula_sum "Si O2"
_cell_formula_units_Z 64
_cell_length_a 29.665983
_cell_length_b 11.593216
_cell_length_c 7.431234
_cell_angle_alpha 90.000000
_cell_angle_beta 90.000000
_cell_angle_gamma 90.000000
_cell_volume 2555.780828
_symmetry_space_group_name_H-M "P B A M"
_symmetry_group_IT_number 55
_symmetry_cell_setting 'orthorhombic'
loop_
_space_group_symop_operation_xyz
x,y,z
-x,-y,z
1/2+x,1/2-y,-z
1/2-x,1/2+y,-z
-x,-y,-z
x,y,-z
1/2-x,1/2+y,z
1/2+x,1/2-y,z
loop_
_atom_site_type_symbol
_atom_site_label
_atom_site_fract_x
_atom_site_fract_y
_atom_site_fract_z
Si Si1 0.352700 0.613549 0.204802
Si Si2 0.769895 0.754692 0.781693
Si Si3 0.361706 0.120401 0.212971
Si Si4 0.050977 0.491711 0.716217
Si Si5 0.627737 0.630527 0.778599
Si Si6 0.436496 0.744436 0.708431
Si Si7 0.224373 0.501470 0.219485
Si Si8 0.023742 0.881884 0.216708
O O1 0.321810 0.717281 0.271750
O O2 0.349387 0.486847 0.287247
O O3 0.404874 0.649697 0.202511
O O4 0.337189 0.598813 0.000000
O O5 0.758425 0.624596 0.719151
O O6 0.746828 0.876164 0.725832
O O7 0.763909 0.749188 0.000000
O O8 0.351499 0.248752 0.281794
O O9 0.413949 0.091449 0.241555
O O10 0.327642 0.022275 0.277203
O O11 0.354724 0.125798 0.000000
O O12 0.048301 0.483384 0.500000
O O13 0.071565 0.371300 0.783458
O O14 0.000000 0.500000 0.784359
O O15 0.575122 0.628375 0.723707
O O16 0.628525 0.628519 0.000000
O O17 0.424106 0.740029 0.500000
O O18 0.489390 0.717484 0.725006
O O19 0.227326 0.497947 0.000000
O O20 0.024211 0.882468 0.000000
O O21 0.000000 0.000000 0.278927
#
# Coordination Sequence:
#
# PCOD9425137 Si02
#       8
#     8   8   8   8   8   8   8   8
#     4  10  19  34  54  76 106 143 179 215 268 326
#     4   9  18  30  50  77 107 141 175 215 271 328
#     4  10  20  34  55  81 110 138 181 229 268 319
#     4  10  22  39  55  74 106 145 183 222 270 326
#     4   9  18  31  50  77 105 140 177 220 268 313
#     4  11  22  34  52  77 104 137 178 225 273 316
#     4   9  18  31  49  80 112 139 175 223 274 326
#     4  10  18  32  50  72 104 141 181 220 265 324
#
# _framework density 25.041273
#
# number of rings (size 3 to 8) (size 9 to 14) (size 15 to 20)
#    0.000    2.250    1.250    1.875    1.750    2.500 
#    0.000    0.625    0.000    0.750    0.000    0.000 
#    0.000    0.000    0.000    0.000    0.000    0.000 
#
# Total GULP energy -357423.818337 kJ/mol
# GULP energy per Si atom -5584.747162 kJ/mol
# Density = 2.498428 g / cm^3
# Si number density = 25.041273 Si / 1000 Ang^3
#
#
#
# Elastic Constant Matrix: (Units=GPa)
#
#
# Indices 1 2 3 4 5 6 
#
# 1 77.3889 45.2141 -4.5457 0.0000 0.0000 0.0000
# 2 45.2141 211.4020 5.5250 0.0000 0.0000 0.0000
# 3 -4.5457 5.5250 76.9717 0.0000 0.0000 0.0000
# 4 0.0000 0.0000 0.0000 -0.5522 0.0000 0.0000
# 5 0.0000 0.0000 0.0000 0.0000 -119.2168 0.0000
# 6 0.0000 0.0000 0.0000 0.0000 0.0000 41.8624
#
#
#
# Elastic Compliance Matrix: (Units=1/GPa)
#
#
# Indices 1 2 3 4 5 6 
#
# 1 0.014861 -0.003207 0.001108 0.000000 0.000000 0.000000
# 2 -0.003207 0.005431 -0.000579 0.000000 0.000000 0.000000
# 3 0.001108 -0.000579 0.013099 0.000000 0.000000 0.000000
# 4 0.000000 0.000000 0.000000 -1.810930 0.000000 0.000000
# 5 0.000000 0.000000 0.000000 0.000000 -0.008388 0.000000
# 6 0.000000 0.000000 0.000000 0.000000 0.000000 0.023888
#
#
# Mechanical properties :
#
#
# Convention : Reuss Voigt Hill
#
# Bulk Modulus (GPa) = 35.67171 50.90548 43.28859
# Shear Modulus (GPa) = -2.86150 5.72330 1.43090
#
# Velocity S-wave (km/s) = -1.07014 1.51344 0.75674
# Velocity P-wave (km/s) = 3.57060 4.84012 4.25300
#
# Compressibility (1/GPa) = 0.02803342
#
# Stress axis : x y z
#
# Youngs Moduli (GPa) = 67.29165 184.11342 76.34288
#
# Poissons Ratio (x) = 0.59051 -0.08458
# Poissons Ratio (y) = 0.21583 0.04422
# Poissons Ratio (z) = -0.07455 0.10665
#
# Static dielectric constant tensor:
#      x y z
#    x 1.982190 0.000000 0.000000 
#    y 0.000000 1.991360 0.000000 
#    z 0.000000 0.000000 1.957060 
# 
# From -- ./inp_files/10848.got.cif
#   From: 2010.05.17/outbox.cif.g08.bks.cpg/sg55_6_cif.got.tgz:10848.got - 2010.06.03 13:27:54.
