data_PCOD9425766
_publ_section_title
;
Structure prediction by ZEFSAII (Michael W. Deem and Ramdas Pophale) SiO2 
 PCOD9425766
Probable space group: P B A M
;
_chemical_formula_sum "Si O2"
_cell_formula_units_Z 38
_cell_length_a 10.024387
_cell_length_b 5.198655
_cell_length_c 27.595818
_cell_angle_alpha 90.000000
_cell_angle_beta 90.000000
_cell_angle_gamma 90.000000
_cell_volume 1438.109959
_symmetry_space_group_name_H-M "P B A M"
_symmetry_group_IT_number 55
_symmetry_cell_setting 'orthorhombic'
loop_
_space_group_symop_operation_xyz
x,y,z
-x,-y,z
1/2+x,1/2-y,-z
1/2-x,1/2+y,-z
-x,-y,-z
x,y,-z
1/2-x,1/2+y,z
1/2+x,1/2-y,z
loop_
_atom_site_type_symbol
_atom_site_label
_atom_site_fract_x
_atom_site_fract_y
_atom_site_fract_z
Si Si1 0.595787 0.750127 0.500000
Si Si2 0.160230 0.686797 0.189318
Si Si3 0.824263 0.173128 0.287732
Si Si4 0.410146 0.250962 0.397649
Si Si5 0.343366 0.264725 0.084542
Si Si6 0.000000 0.500000 0.000000
O O1 0.500000 0.500000 0.500000
O O2 0.672091 0.755710 0.448290
O O3 0.500000 0.000000 0.500000
O O4 0.278495 0.901657 0.188791
O O5 0.409543 0.239869 0.240941
O O6 0.091851 0.738230 0.137957
O O7 0.700367 0.371016 0.282439
O O8 0.855018 0.227544 0.343670
O O9 0.500000 0.500000 0.401956
O O10 0.500000 0.000000 0.397448
O O11 0.229759 0.039942 0.080319
O O12 0.444368 0.197009 0.042341
#
# Coordination Sequence:
#
# PCOD9425766 Si02
#       6
#     4   8   8   8   8   2
#     4   8  16  30  48  66  98 140 174 208 268 330
#     4   8  16  33  55  73 103 144 175 207 268 333
#     4  10  19  33  54  77 104 139 175 219 275 327
#     4  10  19  33  51  75 102 137 179 223 266 324
#     4  10  22  40  60  85 118 155 189 234 288 338
#     4  12  24  38  64  92 116 150 200 240 280 340
#
# _framework density 26.423572
#
# number of rings (size 3 to 8) (size 9 to 14) (size 15 to 20)
#    0.000    2.526    0.000    1.895    0.000    1.684 
#    1.895    1.053    0.000    0.000    0.000    0.000 
#    0.000    0.000    0.000    0.000    0.000    0.000 
#
# Total GULP energy -211641.108993 kJ/mol
# GULP energy per Si atom -5569.502868 kJ/mol
# Density = 2.636343 g / cm^3
# Si number density = 26.423572 Si / 1000 Ang^3
#
#
#
# Elastic Constant Matrix: (Units=GPa)
#
#
# Indices 1 2 3 4 5 6 
#
# 1 39.5848 43.9999 35.2231 0.0000 0.0000 0.0000
# 2 43.9999 181.2917 7.4251 0.0000 0.0000 0.0000
# 3 35.2231 7.4251 340.7755 0.0000 0.0000 0.0000
# 4 0.0000 0.0000 0.0000 -52.3192 0.0000 0.0000
# 5 0.0000 0.0000 0.0000 0.0000 41.7618 0.0000
# 6 0.0000 0.0000 0.0000 0.0000 0.0000 52.2278
#
#
#
# Elastic Compliance Matrix: (Units=1/GPa)
#
#
# Indices 1 2 3 4 5 6 
#
# 1 0.039024 -0.009314 -0.003831 0.000000 0.000000 0.000000
# 2 -0.009314 0.007744 0.000794 0.000000 0.000000 0.000000
# 3 -0.003831 0.000794 0.003313 0.000000 0.000000 0.000000
# 4 0.000000 0.000000 0.000000 -0.019113 0.000000 0.000000
# 5 0.000000 0.000000 0.000000 0.000000 0.023945 0.000000
# 6 0.000000 0.000000 0.000000 0.000000 0.000000 0.019147
#
#
# Mechanical properties :
#
#
# Convention : Reuss Voigt Hill
#
# Bulk Modulus (GPa) = 39.40225 81.66090 60.53158
# Shear Modulus (GPa) = 46.63248 40.00102 43.31675
#
# Velocity S-wave (km/s) = 4.20552 3.89503 4.05325
# Velocity P-wave (km/s) = 6.20693 7.15542 6.69798
#
# Compressibility (1/GPa) = 0.02537926
#
# Stress axis : x y z
#
# Youngs Moduli (GPa) = 25.62532 129.13144 301.83011
#
# Poissons Ratio (x) = 1.20277 1.15620
# Poissons Ratio (y) = 0.23868 -0.23965
# Poissons Ratio (z) = 0.09816 -0.10253
#
# Static dielectric constant tensor:
#      x y z
#    x 2.246700 0.000000 0.000000 
#    y 0.000000 1.971150 0.000000 
#    z 0.000000 0.000000 2.178730 
# 
# From -- ./inp_files/23915.got.cif
#   From: 2010.05.17/outbox.cif.g08.bks.cpg/sg55_12_cif.got.tgz:23915.got - 2010.06.03 13:27:54.
