data_PCOD9425019
_publ_section_title
;
Structure prediction by ZEFSAII (Michael W. Deem and Ramdas Pophale) SiO2 
 PCOD9425019
Probable space group: P B A M
;
_chemical_formula_sum "Si O2"
_cell_formula_units_Z 42
_cell_length_a 19.518570
_cell_length_b 6.971325
_cell_length_c 12.160247
_cell_angle_alpha 90.000000
_cell_angle_beta 90.000000
_cell_angle_gamma 90.000000
_cell_volume 1654.648397
_symmetry_space_group_name_H-M "P B A M"
_symmetry_group_IT_number 55
_symmetry_cell_setting 'orthorhombic'
loop_
_space_group_symop_operation_xyz
x,y,z
-x,-y,z
1/2+x,1/2-y,-z
1/2-x,1/2+y,-z
-x,-y,-z
x,y,-z
1/2-x,1/2+y,z
1/2+x,1/2-y,z
loop_
_atom_site_type_symbol
_atom_site_label
_atom_site_fract_x
_atom_site_fract_y
_atom_site_fract_z
Si Si1 0.905033 0.524310 0.377708
Si Si2 0.571841 0.298107 0.811140
Si Si3 0.251915 0.942024 0.297730
Si Si4 0.397978 0.422393 0.381434
Si Si5 0.000000 0.000000 0.000000
Si Si6 0.268300 0.694255 0.872907
O O1 0.925956 0.589263 0.500000
O O2 0.824017 0.563595 0.361140
O O3 0.916011 0.298839 0.374009
O O4 0.936004 0.618932 0.269115
O O5 0.574401 0.468637 0.723010
O O6 0.517779 0.340851 0.904197
O O7 0.648062 0.296731 0.866777
O O8 0.183724 0.944403 0.370327
O O9 0.252489 0.191916 0.264442
O O10 0.248182 0.943001 0.154437
O O11 0.420157 0.495414 0.500000
O O12 0.243734 0.692265 0.000000
#
# Coordination Sequence:
#
# PCOD9425019 Si02
#       6
#     8   8   8   8   2   8
#     4  10  20  37  59  91 130 162 199 244 293 365
#     4  10  23  40  64  87 112 160 209 261 315 358
#     4  10  18  30  50  84 126 167 201 224 284 352
#     4  10  20  37  59  91 130 162 199 244 293 365
#     4  12  24  52  72  80 120 150 208 282 326 354
#     4  10  18  31  49  81 120 159 199 235 283 352
#
# _framework density 25.383036000000001
#
# number of rings (size 3 to 8) (size 9 to 14) (size 15 to 20)
#    0.000    1.905    2.857    1.714    0.000    0.000 
#    0.000    4.762    0.000    2.286    0.000    0.000 
#    0.000    0.000    0.000    0.000    0.000    0.000 
#
# Total GULP energy -233958.651166 kJ/mol
# GULP energy per Si atom -5570.444075 kJ/mol
# Density = 2.532526 g / cm^3
# Si number density = 25.383036 Si / 1000 Ang^3
#
#
#
# Elastic Constant Matrix: (Units=GPa)
#
#
# Indices 1 2 3 4 5 6 
#
# 1 93.3943 5.7544 20.9600 0.0000 0.0000 0.0000
# 2 5.7544 192.7862 71.9014 0.0000 0.0000 0.0000
# 3 20.9600 71.9014 212.2661 0.0000 0.0000 0.0000
# 4 0.0000 0.0000 0.0000 -56.8649 0.0000 0.0000
# 5 0.0000 0.0000 0.0000 0.0000 5.8120 0.0000
# 6 0.0000 0.0000 0.0000 0.0000 0.0000 29.3323
#
#
#
# Elastic Compliance Matrix: (Units=1/GPa)
#
#
# Indices 1 2 3 4 5 6 
#
# 1 0.010951 0.000087 -0.001111 0.000000 0.000000 0.000000
# 2 0.000087 0.005938 -0.002020 0.000000 0.000000 0.000000
# 3 -0.001111 -0.002020 0.005505 0.000000 0.000000 0.000000
# 4 0.000000 0.000000 0.000000 -0.017586 0.000000 0.000000
# 5 0.000000 0.000000 0.000000 0.000000 0.172057 0.000000
# 6 0.000000 0.000000 0.000000 0.000000 0.000000 0.034092
#
#
# Mechanical properties :
#
#
# Convention : Reuss Voigt Hill
#
# Bulk Modulus (GPa) = 61.32302 77.29757 69.31030
# Shear Modulus (GPa) = 22.47392 22.31127 22.39260
#
# Velocity S-wave (km/s) = 2.97878 2.96798 2.97339
# Velocity P-wave (km/s) = 6.00353 6.50106 6.25724
#
# Compressibility (1/GPa) = 0.01630709
#
# Stress axis : x y z
#
# Youngs Moduli (GPa) = 91.31388 168.41106 181.65289
#
# Poissons Ratio (x) = -0.01473 0.20182
# Poissons Ratio (y) = -0.00799 0.36694
# Poissons Ratio (z) = 0.10145 0.34019
#
# Static dielectric constant tensor:
#      x y z
#    x 1.964180 0.000000 0.000000 
#    y 0.000000 2.498350 0.000000 
#    z 0.000000 0.000000 1.876480 
# 
# From -- ./inp_files/12176.got.cif
#   From: 2010.05.17/outbox.cif.g08.bks.cpg/sg55_7_cif.got.tgz:12176.got - 2010.06.03 13:27:54.
