data_PCOD9425505
_publ_section_title
;
Structure prediction by ZEFSAII (Michael W. Deem and Ramdas Pophale) SiO2 
 PCOD9425505
Probable space group: P B A M
;
_chemical_formula_sum "Si O2"
_cell_formula_units_Z 48
_cell_length_a 18.805197
_cell_length_b 16.809717
_cell_length_c 9.173751
_cell_angle_alpha 90.000000
_cell_angle_beta 90.000000
_cell_angle_gamma 90.000000
_cell_volume 2899.914793
_symmetry_space_group_name_H-M "P B A M"
_symmetry_group_IT_number 55
_symmetry_cell_setting 'orthorhombic'
loop_
_space_group_symop_operation_xyz
x,y,z
-x,-y,z
1/2+x,1/2-y,-z
1/2-x,1/2+y,-z
-x,-y,-z
x,y,-z
1/2-x,1/2+y,z
1/2+x,1/2-y,z
loop_
_atom_site_type_symbol
_atom_site_label
_atom_site_fract_x
_atom_site_fract_y
_atom_site_fract_z
Si Si1 0.411647 0.162394 0.675561
Si Si2 0.412140 0.343382 0.673811
Si Si3 0.959738 0.914501 0.833520
Si Si4 0.170161 0.986691 0.175610
Si Si5 0.165557 0.515427 0.826001
Si Si6 0.450003 0.921180 0.666597
O O1 0.407268 0.150472 0.500000
O O2 0.391679 0.252781 0.709724
O O3 0.363964 0.096345 0.753878
O O4 0.494556 0.146272 0.715208
O O5 0.410485 0.353208 0.500000
O O6 0.491856 0.360192 0.732116
O O7 0.361267 0.408289 0.748478
O O8 0.880611 0.938568 0.784486
O O9 0.958577 0.884304 0.000000
O O10 0.000000 0.000000 0.836199
O O11 0.252096 0.001478 0.211174
O O12 0.163163 0.977486 0.000000
O O13 0.116398 0.443951 0.765647
O O14 0.158582 0.520558 0.000000
O O15 0.427049 0.906329 0.500000
O O16 0.500000 0.000000 0.665277
#
# Coordination Sequence:
#
# PCOD9425505 Si02
#       6
#     8   8   8   8   8   8
#     4   9  19  34  49  69  98 127 156 195 243 286
#     4  10  19  31  50  74  95 120 160 203 237 278
#     4   8  15  30  49  66  90 124 155 186 232 283
#     4   9  19  34  49  69  99 130 157 192 240 286
#     4  10  19  31  50  74  97 124 162 199 230 279
#     4   8  15  30  49  66  91 125 154 187 234 280
#
# _framework density 16.552209999999999
#
# number of rings (size 3 to 8) (size 9 to 14) (size 15 to 20)
#    0.000    3.000    0.000    3.000    0.000    8.667 
#    0.000    1.667    0.000    8.000    0.000    0.000 
#    0.000    0.000    0.000    0.000    0.000    0.000 
#
# Total GULP energy -267273.063513 kJ/mol
# GULP energy per Si atom -5568.188823 kJ/mol
# Density = 1.651454 g / cm^3
# Si number density = 16.552210 Si / 1000 Ang^3
#
#
#
# Elastic Constant Matrix: (Units=GPa)
#
#
# Indices 1 2 3 4 5 6 
#
# 1 138.2635 47.1810 53.6649 0.0000 0.0000 0.0000
# 2 47.1810 77.0897 39.5906 0.0000 0.0000 0.0000
# 3 53.6649 39.5906 46.8980 0.0000 0.0000 0.0000
# 4 0.0000 0.0000 0.0000 11.4807 0.0000 0.0000
# 5 0.0000 0.0000 0.0000 0.0000 12.9491 0.0000
# 6 0.0000 0.0000 0.0000 0.0000 0.0000 16.0477
#
#
#
# Elastic Compliance Matrix: (Units=1/GPa)
#
#
# Indices 1 2 3 4 5 6 
#
# 1 0.013025 -0.000560 -0.014432 0.000000 0.000000 0.000000
# 2 -0.000560 0.022924 -0.018711 0.000000 0.000000 0.000000
# 3 -0.014432 -0.018711 0.053633 0.000000 0.000000 0.000000
# 4 0.000000 0.000000 0.000000 0.087103 0.000000 0.000000
# 5 0.000000 0.000000 0.000000 0.000000 0.077225 0.000000
# 6 0.000000 0.000000 0.000000 0.000000 0.000000 0.062314
#
#
# Mechanical properties :
#
#
# Convention : Reuss Voigt Hill
#
# Bulk Modulus (GPa) = 45.09420 60.34713 52.72067
# Shear Modulus (GPa) = 12.78698 16.21648 14.50173
#
# Velocity S-wave (km/s) = 2.78245 3.13344 2.96314
# Velocity P-wave (km/s) = 6.13396 7.04479 6.60509
#
# Compressibility (1/GPa) = 0.02217580
#
# Stress axis : x y z
#
# Youngs Moduli (GPa) = 76.77453 43.62194 18.64529
#
# Poissons Ratio (x) = 0.02443 0.26908
# Poissons Ratio (y) = 0.04300 0.34888
# Poissons Ratio (z) = 1.10799 0.81623
#
# Static dielectric constant tensor:
#      x y z
#    x 1.571730 0.000000 0.000000 
#    y 0.000000 1.559080 0.000000 
#    z 0.000000 0.000000 1.554570 
# 
# From -- ./inp_files/7557.got.cif
#   From: 2010.05.17/outbox.cif.g08.bks.cpg/sg55_4_cif.got.tgz:7557.got - 2010.06.03 13:27:54.
