data_PCOD9425977
_publ_section_title
;
Structure prediction by ZEFSAII (Michael W. Deem and Ramdas Pophale) SiO2 
 PCOD9425977
Probable space group: P B A M
;
_chemical_formula_sum "Si O2"
_cell_formula_units_Z 56
_cell_length_a 21.301773
_cell_length_b 15.163590
_cell_length_c 7.635680
_cell_angle_alpha 90.000000
_cell_angle_beta 90.000000
_cell_angle_gamma 90.000000
_cell_volume 2466.411321
_symmetry_space_group_name_H-M "P B A M"
_symmetry_group_IT_number 55
_symmetry_cell_setting 'orthorhombic'
loop_
_space_group_symop_operation_xyz
x,y,z
-x,-y,z
1/2+x,1/2-y,-z
1/2-x,1/2+y,-z
-x,-y,-z
x,y,-z
1/2-x,1/2+y,z
1/2+x,1/2-y,z
loop_
_atom_site_type_symbol
_atom_site_label
_atom_site_fract_x
_atom_site_fract_y
_atom_site_fract_z
Si Si1 0.753723 0.805780 0.699899
Si Si2 0.218545 0.505858 0.300753
Si Si3 0.455253 0.581869 0.788134
Si Si4 0.377475 0.267085 0.797056
Si Si5 0.512072 0.221933 0.301320
Si Si6 0.650214 0.541728 0.789685
Si Si7 0.354243 0.840245 0.283604
O O1 0.774579 0.823037 0.500000
O O2 0.684496 0.763100 0.698029
O O3 0.805484 0.737297 0.773304
O O4 0.739272 0.901498 0.784494
O O5 0.197989 0.525870 0.500000
O O6 0.283257 0.451710 0.300694
O O7 0.169238 0.436642 0.224335
O O8 0.500000 0.500000 0.742986
O O9 0.471683 0.674166 0.704974
O O10 0.386643 0.546186 0.738723
O O11 0.459031 0.592794 0.000000
O O12 0.442171 0.214429 0.775125
O O13 0.388743 0.369795 0.751381
O O14 0.359709 0.263702 0.000000
O O15 0.507071 0.190921 0.500000
O O16 0.574671 0.177886 0.224206
O O17 0.658489 0.538896 0.000000
O O18 0.352624 0.840065 0.500000
#
# Coordination Sequence:
#
# PCOD9425977 Si02
#       7
#     8   8   8   8   8   8   8
#     4  10  20  37  61  87 112 146 191 234 282 339
#     4  10  20  36  60  84 112 145 183 238 291 332
#     4  10  19  34  51  74 113 149 179 222 279 341
#     4  11  22  38  57  81 115 153 189 232 284 336
#     4  11  22  36  56  83 115 151 193 238 284 342
#     4  10  20  34  54  79 111 148 185 226 280 343
#     4   9  19  36  56  84 118 145 181 237 289 336
#
# _framework density 22.705051999999998
#
# number of rings (size 3 to 8) (size 9 to 14) (size 15 to 20)
#    0.000    1.857    2.857    1.714    0.000    3.143 
#    0.000    3.571    0.000    4.286    0.000    0.000 
#    0.000    0.000    0.000    0.000    0.000    0.000 
#
# Total GULP energy -312475.110475 kJ/mol
# GULP energy per Si atom -5579.912687 kJ/mol
# Density = 2.265337 g / cm^3
# Si number density = 22.705052 Si / 1000 Ang^3
#
#
#
# Elastic Constant Matrix: (Units=GPa)
#
#
# Indices 1 2 3 4 5 6 
#
# 1 74.5386 -11.6512 2.7089 0.0000 0.0000 0.0000
# 2 -11.6512 50.9585 1.5270 0.0000 0.0000 0.0000
# 3 2.7089 1.5270 41.4754 0.0000 0.0000 0.0000
# 4 0.0000 0.0000 0.0000 12.5201 0.0000 0.0000
# 5 0.0000 0.0000 0.0000 0.0000 33.4063 0.0000
# 6 0.0000 0.0000 0.0000 0.0000 0.0000 35.3057
#
#
#
# Elastic Compliance Matrix: (Units=1/GPa)
#
#
# Indices 1 2 3 4 5 6 
#
# 1 0.013957 0.003222 -0.001030 0.000000 0.000000 0.000000
# 2 0.003222 0.020389 -0.000961 0.000000 0.000000 0.000000
# 3 -0.001030 -0.000961 0.024213 0.000000 0.000000 0.000000
# 4 0.000000 0.000000 0.000000 0.079872 0.000000 0.000000
# 5 0.000000 0.000000 0.000000 0.000000 0.029935 0.000000
# 6 0.000000 0.000000 0.000000 0.000000 0.000000 0.028324
#
#
# Mechanical properties :
#
#
# Convention : Reuss Voigt Hill
#
# Bulk Modulus (GPa) = 16.38782 16.90466 16.64624
# Shear Modulus (GPa) = 23.30254 27.87224 25.58739
#
# Velocity S-wave (km/s) = 3.20709 3.50748 3.36065
# Velocity P-wave (km/s) = 4.57682 4.88516 4.73350
#
# Compressibility (1/GPa) = 0.06102095
#
# Stress axis : x y z
#
# Youngs Moduli (GPa) = 71.64889 49.04531 41.29951
#
# Poissons Ratio (x) = -0.15802 0.04255
# Poissons Ratio (y) = -0.23085 0.03969
# Poissons Ratio (z) = 0.07381 0.04714
#
# Static dielectric constant tensor:
#      x y z
#    x 1.864040 0.000000 0.000000 
#    y 0.000000 1.873630 0.000000 
#    z 0.000000 0.000000 1.852090 
# 
# From -- ./inp_files/8698.got.cif
#   From: 2010.05.17/outbox.cif.g08.bks.cpg/sg55_5_cif.got.tgz:8698.got - 2010.06.03 13:27:54.
