data_PCOD9425867
_publ_section_title
;
Structure prediction by ZEFSAII (Michael W. Deem and Ramdas Pophale) SiO2 
 PCOD9425867
Probable space group: P B A M
;
_chemical_formula_sum "Si O2"
_cell_formula_units_Z 48
_cell_length_a 30.329451
_cell_length_b 10.407352
_cell_length_c 8.073458
_cell_angle_alpha 90.000000
_cell_angle_beta 90.000000
_cell_angle_gamma 90.000000
_cell_volume 2548.381144
_symmetry_space_group_name_H-M "P B A M"
_symmetry_group_IT_number 55
_symmetry_cell_setting 'orthorhombic'
loop_
_space_group_symop_operation_xyz
x,y,z
-x,-y,z
1/2+x,1/2-y,-z
1/2-x,1/2+y,-z
-x,-y,-z
x,y,-z
1/2-x,1/2+y,z
1/2+x,1/2-y,z
loop_
_atom_site_type_symbol
_atom_site_label
_atom_site_fract_x
_atom_site_fract_y
_atom_site_fract_z
Si Si1 0.784714 0.460389 0.303879
Si Si2 0.527818 0.381693 0.196915
Si Si3 0.475233 0.132384 0.700098
Si Si4 0.384293 0.024734 0.299563
Si Si5 0.383425 0.732105 0.199083
Si Si6 0.284703 0.750805 0.196232
O O1 0.784799 0.439555 0.500000
O O2 0.835037 0.441211 0.241255
O O3 0.750685 0.359434 0.229223
O O4 0.773263 0.609708 0.270705
O O5 0.500000 0.500000 0.268315
O O6 0.499964 0.252582 0.223138
O O7 0.577064 0.356531 0.265036
O O8 0.532775 0.403985 0.000000
O O9 0.476989 0.144875 0.500000
O O10 0.424256 0.116390 0.751956
O O11 0.500000 0.000000 0.743339
O O12 0.383718 0.022518 0.500000
O O13 0.394117 0.879939 0.241497
O O14 0.333465 0.710232 0.259972
O O15 0.382914 0.719153 0.000000
O O16 0.288315 0.770958 0.000000
#
# Coordination Sequence:
#
# PCOD9425867 Si02
#       6
#     8   8   8   8   8   8
#     4  10  20  36  57  80 109 141 178 222 271 322
#     4  10  21  36  52  75 109 142 176 215 259 311
#     4  10  19  33  55  80 105 134 174 217 259 307
#     4   9  18  33  54  79 106 134 172 221 263 309
#     4   9  18  33  54  76 103 139 178 215 257 312
#     4  10  20  36  57  80 107 140 180 224 271 320
#
# _framework density 18.835487000000001
#
# number of rings (size 3 to 8) (size 9 to 14) (size 15 to 20)
#    0.000    2.333    1.667    1.000    0.000    2.667 
#    3.000    0.000    0.000    0.000    0.000    0.000 
#    0.000    0.000    0.000    0.000    0.000    0.000 
#
# Total GULP energy -267709.883806 kJ/mol
# GULP energy per Si atom -5577.289246 kJ/mol
# Density = 1.879262 g / cm^3
# Si number density = 18.835487 Si / 1000 Ang^3
#
#
#
# Elastic Constant Matrix: (Units=GPa)
#
#
# Indices 1 2 3 4 5 6 
#
# 1 105.0913 35.2058 -5.5216 0.0000 0.0000 0.0000
# 2 35.2058 46.1169 -11.4175 0.0000 0.0000 0.0000
# 3 -5.5216 -11.4175 6.5921 0.0000 0.0000 0.0000
# 4 0.0000 0.0000 0.0000 27.0034 0.0000 0.0000
# 5 0.0000 0.0000 0.0000 0.0000 63.0241 0.0000
# 6 0.0000 0.0000 0.0000 0.0000 0.0000 34.1716
#
#
#
# Elastic Compliance Matrix: (Units=1/GPa)
#
#
# Indices 1 2 3 4 5 6 
#
# 1 0.013244 -0.012893 -0.011237 0.000000 0.000000 0.000000
# 2 -0.012893 0.050513 0.076690 0.000000 0.000000 0.000000
# 3 -0.011237 0.076690 0.275112 0.000000 0.000000 0.000000
# 4 0.000000 0.000000 0.000000 0.037032 0.000000 0.000000
# 5 0.000000 0.000000 0.000000 0.000000 0.015867 0.000000
# 6 0.000000 0.000000 0.000000 0.000000 0.000000 0.029264
#
#
# Mechanical properties :
#
#
# Convention : Reuss Voigt Hill
#
# Bulk Modulus (GPa) = 2.25230 21.59264 11.92247
# Shear Modulus (GPa) = 10.77798 34.14204 22.46001
#
# Velocity S-wave (km/s) = 2.39470 4.26214 3.45691
# Velocity P-wave (km/s) = 2.97397 5.97576 4.71986
#
# Compressibility (1/GPa) = 0.44399123
#
# Stress axis : x y z
#
# Youngs Moduli (GPa) = 75.50464 19.79679 3.63488
#
# Poissons Ratio (x) = 0.25523 0.04084
# Poissons Ratio (y) = 0.97346 -0.27876
# Poissons Ratio (z) = 0.84843 -1.51822
#
# Static dielectric constant tensor:
#      x y z
#    x 1.704460 0.000000 0.000000 
#    y 0.000000 1.604760 0.000000 
#    z 0.000000 0.000000 1.688180 
# 
# From -- ./inp_files/2796.got.cif
#   From: 2010.05.17/outbox.cif.g08.bks.cpg/sg55_2_cif.got.tgz:2796.got - 2010.06.03 13:27:54.
