data_PCOD9425556
_publ_section_title
;
Structure prediction by ZEFSAII (Michael W. Deem and Ramdas Pophale) SiO2 
 PCOD9425556
Probable space group: P B A M
;
_chemical_formula_sum "Si O2"
_cell_formula_units_Z 64
_cell_length_a 19.749738
_cell_length_b 20.584117
_cell_length_c 9.050938
_cell_angle_alpha 90.000000
_cell_angle_beta 90.000000
_cell_angle_gamma 90.000000
_cell_volume 3679.486131
_symmetry_space_group_name_H-M "P B A M"
_symmetry_group_IT_number 55
_symmetry_cell_setting 'orthorhombic'
loop_
_space_group_symop_operation_xyz
x,y,z
-x,-y,z
1/2+x,1/2-y,-z
1/2-x,1/2+y,-z
-x,-y,-z
x,y,-z
1/2-x,1/2+y,z
1/2+x,1/2-y,z
loop_
_atom_site_type_symbol
_atom_site_label
_atom_site_fract_x
_atom_site_fract_y
_atom_site_fract_z
Si Si1 0.967110 0.810363 0.676323
Si Si2 0.538156 0.812583 0.824335
Si Si3 0.037781 0.431275 0.325254
Si Si4 0.538430 0.568386 0.825062
Si Si5 0.819014 0.512453 0.323757
Si Si6 0.824947 0.866748 0.322743
Si Si7 0.328292 0.141045 0.323776
Si Si8 0.321213 0.492529 0.176358
O O1 0.972626 0.803000 0.500000
O O2 0.887616 0.820349 0.713918
O O3 0.001177 0.749724 0.756104
O O4 0.004772 0.875504 0.729708
O O5 0.497519 0.875920 0.768897
O O6 0.614275 0.820434 0.762180
O O7 0.539073 0.808983 0.000000
O O8 0.032763 0.414510 0.500000
O O9 0.116106 0.444133 0.287412
O O10 0.000000 0.500000 0.306275
O O11 0.500000 0.500000 0.803623
O O12 0.616642 0.554790 0.787046
O O13 0.533209 0.584614 0.000000
O O14 0.807378 0.516173 0.500000
O O15 0.835108 0.436396 0.292312
O O16 0.750716 0.530067 0.239314
O O17 0.825434 0.877668 0.500000
O O18 0.749502 0.841942 0.285546
O O19 0.834623 0.936350 0.245331
O O20 0.338018 0.149530 0.500000
O O21 0.318615 0.498945 0.000000
#
# Coordination Sequence:
#
# PCOD9425556 Si02
#       8
#     8   8   8   8   8   8   8   8
#     4  11  23  39  60  84 111 149 195 238 278 330
#     4  12  25  38  55  84 119 151 186 232 284 340
#     4  10  19  37  61  82 109 147 187 229 280 330
#     4  10  20  36  56  82 117 151 182 224 283 337
#     4   9  18  33  56  83 112 146 186 234 279 326
#     4   9  19  35  57  83 109 141 187 235 276 327
#     4   9  17  35  58  81 110 145 186 228 276 333
#     4  10  19  31  53  83 117 151 181 225 283 337
#
# _framework density 17.393733000000001
#
# number of rings (size 3 to 8) (size 9 to 14) (size 15 to 20)
#    0.000    2.000    2.500    2.625    0.000    4.500 
#    0.000    1.250    0.000    1.500    0.000    0.000 
#    0.000    0.000    0.000    0.000    0.000    0.000 
#
# Total GULP energy -357238.934665 kJ/mol
# GULP energy per Si atom -5581.858354 kJ/mol
# Density = 1.735414 g / cm^3
# Si number density = 17.393733 Si / 1000 Ang^3
#
#
#
# Elastic Constant Matrix: (Units=GPa)
#
#
# Indices 1 2 3 4 5 6 
#
# 1 168.4904 63.1439 72.3870 0.0000 0.0000 0.0000
# 2 63.1439 66.5323 48.1197 0.0000 0.0000 0.0000
# 3 72.3870 48.1197 65.8531 0.0000 0.0000 0.0000
# 4 0.0000 0.0000 0.0000 37.8927 0.0000 0.0000
# 5 0.0000 0.0000 0.0000 0.0000 14.2131 0.0000
# 6 0.0000 0.0000 0.0000 0.0000 0.0000 24.1113
#
#
#
# Elastic Compliance Matrix: (Units=1/GPa)
#
#
# Indices 1 2 3 4 5 6 
#
# 1 0.011686 -0.003818 -0.010055 0.000000 0.000000 0.000000
# 2 -0.003818 0.033124 -0.020007 0.000000 0.000000 0.000000
# 3 -0.010055 -0.020007 0.040858 0.000000 0.000000 0.000000
# 4 0.000000 0.000000 0.000000 0.026390 0.000000 0.000000
# 5 0.000000 0.000000 0.000000 0.000000 0.070358 0.000000
# 6 0.000000 0.000000 0.000000 0.000000 0.000000 0.041474
#
#
# Mechanical properties :
#
#
# Convention : Reuss Voigt Hill
#
# Bulk Modulus (GPa) = 55.84587 74.24190 65.04389
# Shear Modulus (GPa) = 16.79984 23.05845 19.92915
#
# Velocity S-wave (km/s) = 3.11119 3.64493 3.38859
# Velocity P-wave (km/s) = 6.71436 7.77752 7.26541
#
# Compressibility (1/GPa) = 0.01790643
#
# Stress axis : x y z
#
# Youngs Moduli (GPa) = 85.57231 30.18916 24.47491
#
# Poissons Ratio (x) = 0.11527 0.24611
# Poissons Ratio (y) = 0.32673 0.48968
# Poissons Ratio (z) = 0.86047 0.60401
#
# Static dielectric constant tensor:
#      x y z
#    x 1.612580 0.000000 0.000000 
#    y 0.000000 1.555880 0.000000 
#    z 0.000000 0.000000 1.574930 
# 
# From -- ./inp_files/8973.got.cif
#   From: 2010.05.17/outbox.cif.g08.bks.cpg/sg55_5_cif.got.tgz:8973.got - 2010.06.03 13:27:54.
