data_PCOD9425564
_publ_section_title
;
Structure prediction by ZEFSAII (Michael W. Deem and Ramdas Pophale) SiO2 
 PCOD9425564
Probable space group: P B A M
;
_chemical_formula_sum "Si O2"
_cell_formula_units_Z 58
_cell_length_a 14.595587
_cell_length_b 23.857854
_cell_length_c 7.462075
_cell_angle_alpha 90.000000
_cell_angle_beta 90.000000
_cell_angle_gamma 90.000000
_cell_volume 2598.439158
_symmetry_space_group_name_H-M "P B A M"
_symmetry_group_IT_number 55
_symmetry_cell_setting 'orthorhombic'
loop_
_space_group_symop_operation_xyz
x,y,z
-x,-y,z
1/2+x,1/2-y,-z
1/2-x,1/2+y,-z
-x,-y,-z
x,y,-z
1/2-x,1/2+y,z
1/2+x,1/2-y,z
loop_
_atom_site_type_symbol
_atom_site_label
_atom_site_fract_x
_atom_site_fract_y
_atom_site_fract_z
Si Si1 0.845076 0.604046 0.783005
Si Si2 0.698470 0.812104 0.791900
Si Si3 0.190448 0.816121 0.294109
Si Si4 0.355478 0.608997 0.781133
Si Si5 0.446066 0.098481 0.218685
Si Si6 0.438280 0.415912 0.705655
Si Si7 0.500000 0.500000 0.000000
Si Si8 0.788656 0.484765 0.217492
O O1 0.792229 0.659095 0.722248
O O2 0.790169 0.548678 0.722242
O O3 0.949625 0.599640 0.720453
O O4 0.845069 0.604347 0.000000
O O5 0.686280 0.746107 0.781406
O O6 0.795307 0.837010 0.725640
O O7 0.612905 0.847688 0.719555
O O8 0.701423 0.828287 0.000000
O O9 0.163976 0.810279 0.500000
O O10 0.124498 0.864996 0.222265
O O11 0.456748 0.605919 0.706473
O O12 0.292922 0.556120 0.725681
O O13 0.367661 0.605326 0.000000
O O14 0.384581 0.044970 0.268904
O O15 0.450699 0.098250 0.000000
O O16 0.413224 0.430230 0.500000
O O17 0.440387 0.467391 0.842615
O O18 0.786383 0.484756 0.000000
#
# Coordination Sequence:
#
# PCOD9425564 Si02
#       8
#     8   8   8   8   8   8   2   8
#     4  10  19  31  57  87 115 149 189 232 296 362
#     4   9  19  37  63  85 116 156 207 255 303 368
#     4  11  26  42  54  81 120 158 202 257 315 368
#     4   9  18  36  61  91 118 162 210 254 306 367
#     4   8  15  31  54  89 117 145 190 243 286 345
#     4  11  26  43  64  95 128 167 215 262 319 383
#     4  12  26  44  72  86 128 166 218 264 322 378
#     4   8  15  28  54  87 122 149 184 233 291 356
#
# _framework density 22.321093000000001
#
# number of rings (size 3 to 8) (size 9 to 14) (size 15 to 20)
#    0.000    2.483    0.690    2.690    3.862    3.310 
#    0.000    4.828    0.000    3.310    0.000    0.000 
#    0.000    0.000    0.000    0.000    0.000    0.000 
#
# Total GULP energy -323499.427384 kJ/mol
# GULP energy per Si atom -5577.576334 kJ/mol
# Density = 2.227029 g / cm^3
# Si number density = 22.321093 Si / 1000 Ang^3
#
#
#
# Elastic Constant Matrix: (Units=GPa)
#
#
# Indices 1 2 3 4 5 6 
#
# 1 95.8616 19.4442 -0.2830 0.0000 0.0000 0.0000
# 2 19.4442 99.0326 7.6405 0.0000 0.0000 0.0000
# 3 -0.2830 7.6405 85.0270 0.0000 0.0000 0.0000
# 4 0.0000 0.0000 0.0000 -36.4452 0.0000 0.0000
# 5 0.0000 0.0000 0.0000 0.0000 15.6162 0.0000
# 6 0.0000 0.0000 0.0000 0.0000 0.0000 28.1706
#
#
#
# Elastic Compliance Matrix: (Units=1/GPa)
#
#
# Indices 1 2 3 4 5 6 
#
# 1 0.010869 -0.002152 0.000230 0.000000 0.000000 0.000000
# 2 -0.002152 0.010594 -0.000959 0.000000 0.000000 0.000000
# 3 0.000230 -0.000959 0.011848 0.000000 0.000000 0.000000
# 4 0.000000 0.000000 0.000000 -0.027438 0.000000 0.000000
# 5 0.000000 0.000000 0.000000 0.000000 0.064036 0.000000
# 6 0.000000 0.000000 0.000000 0.000000 0.000000 0.035498
#
#
# Mechanical properties :
#
#
# Convention : Reuss Voigt Hill
#
# Bulk Modulus (GPa) = 36.29996 37.05829 36.67913
# Shear Modulus (GPa) = 41.54485 18.34296 29.94391
#
# Velocity S-wave (km/s) = 4.31889 2.86978 3.66663
# Velocity P-wave (km/s) = 6.41625 5.25540 5.86462
#
# Compressibility (1/GPa) = 0.02754824
#
# Stress axis : x y z
#
# Youngs Moduli (GPa) = 92.00621 94.39169 84.40300
#
# Poissons Ratio (x) = 0.20310 -0.01937
# Poissons Ratio (y) = 0.19797 0.08096
# Poissons Ratio (z) = -0.02112 0.09054
#
# Static dielectric constant tensor:
#      x y z
#    x 1.847310 0.000000 0.000000 
#    y 0.000000 1.818890 0.000000 
#    z 0.000000 0.000000 1.870210 
# 
# From -- ./inp_files/6442.got.cif
#   From: 2010.05.17/outbox.cif.g08.bks.cpg/sg55_4_cif.got.tgz:6442.got - 2010.06.03 13:27:54.
