data_PCOD9425109
_publ_section_title
;
Structure prediction by ZEFSAII (Michael W. Deem and Ramdas Pophale) SiO2 
 PCOD9425109
Probable space group: P B A M
;
_chemical_formula_sum "Si O2"
_cell_formula_units_Z 58
_cell_length_a 26.565111
_cell_length_b 14.817316
_cell_length_c 7.590975
_cell_angle_alpha 90.000000
_cell_angle_beta 90.000000
_cell_angle_gamma 90.000000
_cell_volume 2987.987243
_symmetry_space_group_name_H-M "P B A M"
_symmetry_group_IT_number 55
_symmetry_cell_setting 'orthorhombic'
loop_
_space_group_symop_operation_xyz
x,y,z
-x,-y,z
1/2+x,1/2-y,-z
1/2-x,1/2+y,-z
-x,-y,-z
x,y,-z
1/2-x,1/2+y,z
1/2+x,1/2-y,z
loop_
_atom_site_type_symbol
_atom_site_label
_atom_site_fract_x
_atom_site_fract_y
_atom_site_fract_z
Si Si1 0.605021 0.282466 0.796610
Si Si2 0.109044 0.828657 0.712346
Si Si3 0.146872 0.021847 0.713699
Si Si4 0.002791 0.153170 0.701009
Si Si5 0.203932 0.313079 0.206898
Si Si6 0.802741 0.297707 0.705510
Si Si7 0.736050 0.987301 0.713298
Si Si8 0.500000 0.500000 0.000000
O O1 0.623994 0.385953 0.783997
O O2 0.550553 0.280961 0.708600
O O3 0.650886 0.223316 0.721120
O O4 0.598309 0.257073 0.000000
O O5 0.116176 0.832658 0.500000
O O6 0.151391 0.760693 0.782342
O O7 0.051424 0.803317 0.744836
O O8 0.118469 0.931377 0.775278
O O9 0.144023 0.026316 0.500000
O O10 0.205269 0.013886 0.765921
O O11 0.999227 0.117453 0.500000
O O12 0.010660 0.076001 0.844854
O O13 0.251868 0.261447 0.286569
O O14 0.211072 0.419474 0.230076
O O15 0.205007 0.290611 0.000000
O O16 0.814897 0.312285 0.500000
O O17 0.790739 0.396496 0.780076
O O18 0.736123 0.985636 0.500000
#
# Coordination Sequence:
#
# PCOD9425109 Si02
#       8
#     8   8   8   8   8   8   8   2
#     4  11  23  38  54  79 116 158 201 248 287 345
#     4   9  19  35  56  82 114 150 193 236 286 351
#     4  10  18  31  54  82 113 149 185 231 287 350
#     4  11  23  39  59  84 120 164 199 243 302 351
#     4  11  23  36  54  82 118 153 190 240 294 352
#     4  10  19  37  60  83 112 148 195 243 289 351
#     4  10  20  34  57  84 112 149 192 237 289 352
#     4  12  22  40  60  90 124 154 202 256 280 364
#
# _framework density 19.411059000000002
#
# number of rings (size 3 to 8) (size 9 to 14) (size 15 to 20)
#    0.000    1.655    3.448    1.862    0.000    3.862 
#    1.241    0.000    0.000    0.828    0.000    5.793 
#    0.000    0.000    0.000    0.000    0.000    0.000 
#
# Total GULP energy -323409.187371 kJ/mol
# GULP energy per Si atom -5576.020472 kJ/mol
# Density = 1.936688 g / cm^3
# Si number density = 19.411059 Si / 1000 Ang^3
#
#
#
# Elastic Constant Matrix: (Units=GPa)
#
#
# Indices 1 2 3 4 5 6 
#
# 1 72.4890 46.6582 10.8983 0.0000 0.0000 0.0000
# 2 46.6582 99.9575 -6.2892 0.0000 0.0000 0.0000
# 3 10.8983 -6.2892 68.1922 0.0000 0.0000 0.0000
# 4 0.0000 0.0000 0.0000 64.6314 0.0000 0.0000
# 5 0.0000 0.0000 0.0000 0.0000 36.7489 0.0000
# 6 0.0000 0.0000 0.0000 0.0000 0.0000 5.2381
#
#
#
# Elastic Compliance Matrix: (Units=1/GPa)
#
#
# Indices 1 2 3 4 5 6 
#
# 1 0.020883 -0.010016 -0.004261 0.000000 0.000000 0.000000
# 2 -0.010016 0.014866 0.002972 0.000000 0.000000 0.000000
# 3 -0.004261 0.002972 0.015620 0.000000 0.000000 0.000000
# 4 0.000000 0.000000 0.000000 0.015472 0.000000 0.000000
# 5 0.000000 0.000000 0.000000 0.000000 0.027212 0.000000
# 6 0.000000 0.000000 0.000000 0.000000 0.000000 0.190908
#
#
# Mechanical properties :
#
#
# Convention : Reuss Voigt Hill
#
# Bulk Modulus (GPa) = 34.77248 38.13036 36.45142
# Shear Modulus (GPa) = 15.76508 33.94844 24.85676
#
# Velocity S-wave (km/s) = 2.85295 4.18655 3.58235
# Velocity P-wave (km/s) = 5.36704 6.56170 5.99420
#
# Compressibility (1/GPa) = 0.02875837
#
# Stress axis : x y z
#
# Youngs Moduli (GPa) = 47.88698 67.26600 64.02249
#
# Poissons Ratio (x) = 0.67371 0.27281
# Poissons Ratio (y) = 0.47962 -0.19026
# Poissons Ratio (z) = 0.20405 -0.19990
#
# Static dielectric constant tensor:
#      x y z
#    x 1.714320 0.000000 0.000000 
#    y 0.000000 1.651650 0.000000 
#    z 0.000000 0.000000 1.717460 
# 
# From -- ./inp_files/10271.got.cif
#   From: 2010.05.17/outbox.cif.g08.bks.cpg/sg55_6_cif.got.tgz:10271.got - 2010.06.03 13:27:54.
