data_PCOD9425485
_publ_section_title
;
Structure prediction by ZEFSAII (Michael W. Deem and Ramdas Pophale) SiO2 
 PCOD9425485
Probable space group: P B A M
;
_chemical_formula_sum "Si O2"
_cell_formula_units_Z 56
_cell_length_a 18.663711
_cell_length_b 19.760061
_cell_length_c 7.834410
_cell_angle_alpha 90.000000
_cell_angle_beta 90.000000
_cell_angle_gamma 90.000000
_cell_volume 2889.299602
_symmetry_space_group_name_H-M "P B A M"
_symmetry_group_IT_number 55
_symmetry_cell_setting 'orthorhombic'
loop_
_space_group_symop_operation_xyz
x,y,z
-x,-y,z
1/2+x,1/2-y,-z
1/2-x,1/2+y,-z
-x,-y,-z
x,y,-z
1/2-x,1/2+y,z
1/2+x,1/2-y,z
loop_
_atom_site_type_symbol
_atom_site_label
_atom_site_fract_x
_atom_site_fract_y
_atom_site_fract_z
Si Si1 0.512416 0.791436 0.304958
Si Si2 0.618048 0.391772 0.706116
Si Si3 0.645041 0.248654 0.798216
Si Si4 0.963009 0.566999 0.798323
Si Si5 0.956574 0.147741 0.709472
Si Si6 0.340989 0.460422 0.702324
Si Si7 0.194906 0.391732 0.794092
O O1 0.534751 0.800693 0.500000
O O2 0.429502 0.766734 0.297183
O O3 0.510437 0.865251 0.222289
O O4 0.552748 0.725606 0.231410
O O5 0.619234 0.391701 0.500000
O O6 0.663133 0.326369 0.764169
O O7 0.535412 0.379141 0.759453
O O8 0.645220 0.464145 0.770319
O O9 0.698507 0.188259 0.748828
O O10 0.630079 0.240519 0.000000
O O11 0.882896 0.582282 0.731619
O O12 0.000000 0.500000 0.725012
O O13 0.953646 0.556056 0.000000
O O14 0.955850 0.150112 0.500000
O O15 0.896317 0.095831 0.770057
O O16 0.355507 0.464384 0.500000
O O17 0.260864 0.434469 0.727456
O O18 0.196308 0.396177 0.000000
#
# Coordination Sequence:
#
# PCOD9425485 Si02
#       7
#     8   8   8   8   8   8   8
#     4   9  16  28  49  74  96 118 151 197 240 280
#     4   9  17  30  50  74  96 123 163 203 235 274
#     4   9  17  31  50  68  90 123 159 194 235 284
#     4   9  18  34  54  72  93 125 163 203 248 294
#     4   8  15  29  48  70  97 128 159 192 234 282
#     4  10  19  31  49  72 100 132 160 192 239 291
#     4   9  19  34  49  68  95 126 160 197 240 289
#
# _framework density 19.381861000000001
#
# number of rings (size 3 to 8) (size 9 to 14) (size 15 to 20)
#    0.000    3.000    0.000    3.000    0.000    5.429 
#    0.000    5.000    0.000   11.143    0.000    0.000 
#    0.000    0.000    0.000    0.000    0.000    0.000 
#
# Total GULP energy -311886.567494 kJ/mol
# GULP energy per Si atom -5569.402991 kJ/mol
# Density = 1.933775 g / cm^3
# Si number density = 19.381861 Si / 1000 Ang^3
#
#
#
# Elastic Constant Matrix: (Units=GPa)
#
#
# Indices 1 2 3 4 5 6 
#
# 1 54.5082 70.5922 2.1653 0.0000 0.0000 0.0000
# 2 70.5922 201.7242 0.3236 0.0000 0.0000 0.0000
# 3 2.1653 0.3236 19.5380 0.0000 0.0000 0.0000
# 4 0.0000 0.0000 0.0000 36.1833 0.0000 0.0000
# 5 0.0000 0.0000 0.0000 0.0000 31.6772 0.0000
# 6 0.0000 0.0000 0.0000 0.0000 0.0000 18.2117
#
#
#
# Elastic Compliance Matrix: (Units=1/GPa)
#
#
# Indices 1 2 3 4 5 6 
#
# 1 0.033796 -0.011821 -0.003550 0.000000 0.000000 0.000000
# 2 -0.011821 0.009092 0.001159 0.000000 0.000000 0.000000
# 3 -0.003550 0.001159 0.051556 0.000000 0.000000 0.000000
# 4 0.000000 0.000000 0.000000 0.027637 0.000000 0.000000
# 5 0.000000 0.000000 0.000000 0.000000 0.031568 0.000000
# 6 0.000000 0.000000 0.000000 0.000000 0.000000 0.054910
#
#
# Mechanical properties :
#
#
# Convention : Reuss Voigt Hill
#
# Bulk Modulus (GPa) = 15.14644 46.88140 31.01392
# Shear Modulus (GPa) = 19.30579 30.72706 25.01642
#
# Velocity S-wave (km/s) = 3.15949 3.98597 3.59655
# Velocity P-wave (km/s) = 4.59799 6.73979 5.76915
#
# Compressibility (1/GPa) = 0.06602213
#
# Stress axis : x y z
#
# Youngs Moduli (GPa) = 29.58927 109.98548 19.39621
#
# Poissons Ratio (x) = 1.30014 0.06885
# Poissons Ratio (y) = 0.34978 -0.02249
# Poissons Ratio (z) = 0.10503 -0.12753
#
# Static dielectric constant tensor:
#      x y z
#    x 1.643310 0.000000 0.000000 
#    y 0.000000 1.729210 0.000000 
#    z 0.000000 0.000000 1.715640 
# 
# From -- ./inp_files/8908.got.cif
#   From: 2010.05.17/outbox.cif.g08.bks.cpg/sg55_5_cif.got.tgz:8908.got - 2010.06.03 13:27:54.
