data_PCOD9425951
_publ_section_title
;
Structure prediction by ZEFSAII (Michael W. Deem and Ramdas Pophale) SiO2 
 PCOD9425951
Probable space group: P B A M
;
_chemical_formula_sum "Si O2"
_cell_formula_units_Z 64
_cell_length_a 9.908916
_cell_length_b 31.303234
_cell_length_c 8.753810
_cell_angle_alpha 90.000000
_cell_angle_beta 90.000000
_cell_angle_gamma 90.000000
_cell_volume 2715.266557
_symmetry_space_group_name_H-M "P B A M"
_symmetry_group_IT_number 55
_symmetry_cell_setting 'orthorhombic'
loop_
_space_group_symop_operation_xyz
x,y,z
-x,-y,z
1/2+x,1/2-y,-z
1/2-x,1/2+y,-z
-x,-y,-z
x,y,-z
1/2-x,1/2+y,z
1/2+x,1/2-y,z
loop_
_atom_site_type_symbol
_atom_site_label
_atom_site_fract_x
_atom_site_fract_y
_atom_site_fract_z
Si Si1 0.980892 0.931674 0.317758
Si Si2 0.465746 0.341178 0.823223
Si Si3 0.071500 0.242095 0.323745
Si Si4 0.771095 0.002566 0.681252
Si Si5 0.598784 0.872313 0.327058
Si Si6 0.540647 0.052627 0.827689
Si Si7 0.329810 0.211450 0.177302
Si Si8 0.655717 0.141893 0.169091
O O1 0.971657 0.923072 0.500000
O O2 0.989345 0.888292 0.225098
O O3 0.114852 0.960642 0.296874
O O4 0.851674 0.960063 0.272585
O O5 0.523708 0.306091 0.710388
O O6 0.303292 0.340441 0.812277
O O7 0.501762 0.331967 0.000000
O O8 0.054229 0.253590 0.500000
O O9 0.052267 0.352162 0.307636
O O10 0.977738 0.270774 0.216252
O O11 0.743460 0.000676 0.500000
O O12 0.630094 0.013811 0.762525
O O13 0.645756 0.872374 0.500000
O O14 0.571386 0.920545 0.267956
O O15 0.681710 0.838500 0.226554
O O16 0.655261 0.090316 0.836933
O O17 0.492406 0.046240 0.000000
O O18 0.226830 0.240333 0.273973
O O19 0.300405 0.216159 0.000000
O O20 0.600717 0.154953 0.000000
#
# Coordination Sequence:
#
# PCOD9425951 Si02
#       8
#     8   8   8   8   8   8   8   8
#     4   9  17  28  44  70 109 157 204 256 312 371
#     4  11  21  36  56  83 118 162 211 256 314 378
#     4  12  28  48  70  96 128 164 210 261 315 381
#     4   9  16  26  42  70 111 156 205 256 313 369
#     4  10  19  33  57  85 117 154 198 246 300 362
#     4   9  16  27  43  73 111 152 197 248 302 359
#     4  12  26  48  71  97 129 165 206 259 319 378
#     4   8  17  30  48  78 114 153 197 245 297 358
#
# _framework density 23.570432
#
# number of rings (size 3 to 8) (size 9 to 14) (size 15 to 20)
#    0.750    1.250    1.250    4.500    1.750    1.500 
#    0.000    1.250    0.000    0.000    0.000    0.875 
#    0.000    7.000    0.000    0.000    0.000    0.000 
#
# Total GULP energy -357454.190162 kJ/mol
# GULP energy per Si atom -5585.221721 kJ/mol
# Density = 2.351678 g / cm^3
# Si number density = 23.570432 Si / 1000 Ang^3
#
#
#
# Elastic Constant Matrix: (Units=GPa)
#
#
# Indices 1 2 3 4 5 6 
#
# 1 67.7175 3.5297 6.1433 0.0000 0.0000 0.0000
# 2 3.5297 72.9247 7.2879 0.0000 0.0000 0.0000
# 3 6.1433 7.2879 76.1698 0.0000 0.0000 0.0000
# 4 0.0000 0.0000 0.0000 36.8122 0.0000 0.0000
# 5 0.0000 0.0000 0.0000 0.0000 20.3140 0.0000
# 6 0.0000 0.0000 0.0000 0.0000 0.0000 29.2432
#
#
#
# Elastic Compliance Matrix: (Units=1/GPa)
#
#
# Indices 1 2 3 4 5 6 
#
# 1 0.014903 -0.000607 -0.001144 0.000000 0.000000 0.000000
# 2 -0.000607 0.013870 -0.001278 0.000000 0.000000 0.000000
# 3 -0.001144 -0.001278 0.013343 0.000000 0.000000 0.000000
# 4 0.000000 0.000000 0.000000 0.027165 0.000000 0.000000
# 5 0.000000 0.000000 0.000000 0.000000 0.049227 0.000000
# 6 0.000000 0.000000 0.000000 0.000000 0.000000 0.034196
#
#
# Mechanical properties :
#
#
# Convention : Reuss Voigt Hill
#
# Bulk Modulus (GPa) = 27.73334 27.85931 27.79633
# Shear Modulus (GPa) = 29.27729 30.59728 29.93729
#
# Velocity S-wave (km/s) = 3.52819 3.60685 3.56774
# Velocity P-wave (km/s) = 5.32816 5.40288 5.36565
#
# Compressibility (1/GPa) = 0.03605768
#
# Stress axis : x y z
#
# Youngs Moduli (GPa) = 67.10225 72.09865 74.94506
#
# Poissons Ratio (x) = 0.04376 0.08573
# Poissons Ratio (y) = 0.04073 0.09579
# Poissons Ratio (z) = 0.07675 0.09215
#
# Static dielectric constant tensor:
#      x y z
#    x 1.924170 0.000000 0.000000 
#    y 0.000000 1.983970 0.000000 
#    z 0.000000 0.000000 1.818530 
# 
# From -- ./inp_files/6910.got.cif
#   From: 2010.05.17/outbox.cif.g08.bks.cpg/sg55_4_cif.got.tgz:6910.got - 2010.06.03 13:27:54.
