data_PCOD9425573
_publ_section_title
;
Structure prediction by ZEFSAII (Michael W. Deem and Ramdas Pophale) SiO2 
 PCOD9425573
Probable space group: P B A M
;
_chemical_formula_sum "Si O2"
_cell_formula_units_Z 64
_cell_length_a 20.054800
_cell_length_b 20.608944
_cell_length_c 9.283369
_cell_angle_alpha 90.000000
_cell_angle_beta 90.000000
_cell_angle_gamma 90.000000
_cell_volume 3836.892997
_symmetry_space_group_name_H-M "P B A M"
_symmetry_group_IT_number 55
_symmetry_cell_setting 'orthorhombic'
loop_
_space_group_symop_operation_xyz
x,y,z
-x,-y,z
1/2+x,1/2-y,-z
1/2-x,1/2+y,-z
-x,-y,-z
x,y,-z
1/2-x,1/2+y,z
1/2+x,1/2-y,z
loop_
_atom_site_type_symbol
_atom_site_label
_atom_site_fract_x
_atom_site_fract_y
_atom_site_fract_z
Si Si1 0.700977 0.678031 0.173209
Si Si2 0.223445 0.434183 0.328411
Si Si3 0.942460 0.231857 0.828412
Si Si4 0.576027 0.115996 0.669085
Si Si5 0.310462 0.076801 0.670957
Si Si6 0.723754 0.295743 0.326875
Si Si7 0.575568 0.271665 0.669064
Si Si8 0.557901 0.885561 0.828328
O O1 0.727630 0.611136 0.238627
O O2 0.624342 0.693768 0.212573
O O3 0.745010 0.735387 0.242583
O O4 0.706805 0.679041 0.000000
O O5 0.232416 0.422150 0.500000
O O6 0.146839 0.415170 0.293434
O O7 0.229124 0.510576 0.299824
O O8 0.933924 0.308472 0.792784
O O9 0.009927 0.207997 0.754271
O O10 0.950075 0.228005 0.000000
O O11 0.562791 0.103538 0.500000
O O12 0.583159 0.193758 0.688160
O O13 0.512892 0.093735 0.761776
O O14 0.326004 0.077479 0.500000
O O15 0.266375 0.140024 0.703684
O O16 0.379312 0.079265 0.757591
O O17 0.726364 0.283016 0.500000
O O18 0.645955 0.302667 0.287656
O O19 0.565042 0.283617 0.500000
O O20 0.557746 0.892788 0.000000
#
# Coordination Sequence:
#
# PCOD9425573 Si02
#       8
#     8   8   8   8   8   8   8   8
#     4  11  21  34  54  79 104 135 172 214 261 306
#     4  10  21  37  53  75 105 139 177 216 258 308
#     4   9  19  33  49  75 106 133 167 212 256 305
#     4   9  17  31  49  70 101 137 175 211 250 303
#     4  10  21  35  54  76 104 141 176 213 261 310
#     4  10  19  34  55  80 105 133 173 217 257 306
#     4   9  17  30  51  77 101 129 167 212 256 300
#     4  10  19  32  49  72 106 139 174 214 252 302
#
# _framework density 16.680163
#
# number of rings (size 3 to 8) (size 9 to 14) (size 15 to 20)
#    0.000    2.250    2.500    0.750    0.000    3.500 
#    0.000    2.500    0.000    0.750    0.000    5.250 
#    0.000    0.000    0.000    0.000    0.000    0.000 
#
# Total GULP energy -357075.878793 kJ/mol
# GULP energy per Si atom -5579.310606 kJ/mol
# Density = 1.664220 g / cm^3
# Si number density = 16.680163 Si / 1000 Ang^3
#
#
#
# Elastic Constant Matrix: (Units=GPa)
#
#
# Indices 1 2 3 4 5 6 
#
# 1 77.2464 -0.9508 22.6553 0.0000 0.0000 0.0000
# 2 -0.9508 19.6481 10.6910 0.0000 0.0000 0.0000
# 3 22.6553 10.6910 20.0285 0.0000 0.0000 0.0000
# 4 0.0000 0.0000 0.0000 16.0960 0.0000 0.0000
# 5 0.0000 0.0000 0.0000 0.0000 18.1367 0.0000
# 6 0.0000 0.0000 0.0000 0.0000 0.0000 17.2462
#
#
#
# Elastic Compliance Matrix: (Units=1/GPa)
#
#
# Indices 1 2 3 4 5 6 
#
# 1 0.025371 0.023738 -0.041369 0.000000 0.000000 0.000000
# 2 0.023738 0.093939 -0.076994 0.000000 0.000000 0.000000
# 3 -0.041369 -0.076994 0.137823 0.000000 0.000000 0.000000
# 4 0.000000 0.000000 0.000000 0.062127 0.000000 0.000000
# 5 0.000000 0.000000 0.000000 0.000000 0.055137 0.000000
# 6 0.000000 0.000000 0.000000 0.000000 0.000000 0.057984
#
#
# Mechanical properties :
#
#
# Convention : Reuss Voigt Hill
#
# Bulk Modulus (GPa) = 14.73183 20.19043 17.46113
# Shear Modulus (GPa) = 7.76086 15.93096 11.84591
#
# Velocity S-wave (km/s) = 2.15936 3.09380 2.66781
# Velocity P-wave (km/s) = 3.88178 4.98927 4.46996
#
# Compressibility (1/GPa) = 0.06788023
#
# Stress axis : x y z
#
# Youngs Moduli (GPa) = 39.41547 10.64524 7.25570
#
# Poissons Ratio (x) = -0.25269 0.30016
# Poissons Ratio (y) = -0.93563 0.55865
# Poissons Ratio (z) = 1.63058 0.81962
#
# Static dielectric constant tensor:
#      x y z
#    x 1.550520 0.000000 0.000000 
#    y 0.000000 1.562870 0.000000 
#    z 0.000000 0.000000 1.556980 
# 
# From -- ./inp_files/7970.got.cif
#   From: 2010.05.17/outbox.cif.g08.bks.cpg/sg55_4_cif.got.tgz:7970.got - 2010.06.03 13:27:54.
