data_PCOD9425275
_publ_section_title
;
Structure prediction by ZEFSAII (Michael W. Deem and Ramdas Pophale) SiO2 
 PCOD9425275
Probable space group: P B A M
;
_chemical_formula_sum "Si O2"
_cell_formula_units_Z 40
_cell_length_a 8.035665
_cell_length_b 29.220090
_cell_length_c 8.419888
_cell_angle_alpha 90.000000
_cell_angle_beta 90.000000
_cell_angle_gamma 90.000000
_cell_volume 1977.013737
_symmetry_space_group_name_H-M "P B A M"
_symmetry_group_IT_number 55
_symmetry_cell_setting 'orthorhombic'
loop_
_space_group_symop_operation_xyz
x,y,z
-x,-y,z
1/2+x,1/2-y,-z
1/2-x,1/2+y,-z
-x,-y,-z
x,y,-z
1/2-x,1/2+y,z
1/2+x,1/2-y,z
loop_
_atom_site_type_symbol
_atom_site_label
_atom_site_fract_x
_atom_site_fract_y
_atom_site_fract_z
Si Si1 0.230929 0.303395 0.806427
Si Si2 0.349442 0.203577 0.191785
Si Si3 0.542328 0.051800 0.691978
Si Si4 0.127977 0.899989 0.810012
Si Si5 0.775070 0.889526 0.689334
O O1 0.300539 0.254385 0.753570
O O2 0.328587 0.348294 0.752734
O O3 0.038363 0.306892 0.759113
O O4 0.236569 0.303164 0.000000
O O5 0.234200 0.162787 0.251983
O O6 0.341586 0.203560 0.000000
O O7 0.547764 0.053707 0.500000
O O8 0.719790 0.068536 0.755037
O O9 0.391293 0.084530 0.747410
O O10 0.500000 0.000000 0.738969
O O11 0.945663 0.912276 0.747502
O O12 0.123425 0.899624 0.000000
O O13 0.772769 0.890250 0.500000
#
# Coordination Sequence:
#
# PCOD9425275 Si02
#       5
#     8   8   8   8   8
#     4   9  18  32  56  86 118 157 199 244 292 352
#     4  10  18  34  57  84 118 157 203 243 289 352
#     4  10  23  44  66  87 119 163 206 252 310 370
#     4  11  22  39  64  92 122 158 202 253 303 358
#     4  11  23  39  60  88 122 159 199 247 304 363
#
# _framework density 20.232537000000001
#
# number of rings (size 3 to 8) (size 9 to 14) (size 15 to 20)
#    0.000    1.800    2.000    2.400    0.000    5.200 
#    0.000    9.000    0.000    0.000    0.000    0.000 
#    0.000    0.000    0.000    0.000    0.000    0.000 
#
# Total GULP energy -223485.290323 kJ/mol
# GULP energy per Si atom -5587.132258 kJ/mol
# Density = 2.018649 g / cm^3
# Si number density = 20.232537 Si / 1000 Ang^3
#
#
#
# Elastic Constant Matrix: (Units=GPa)
#
#
# Indices 1 2 3 4 5 6 
#
# 1 71.7571 -20.6555 3.5385 0.0000 0.0000 0.0000
# 2 -20.6555 50.3954 2.3293 0.0000 0.0000 0.0000
# 3 3.5385 2.3293 15.0525 0.0000 0.0000 0.0000
# 4 0.0000 0.0000 0.0000 26.3497 0.0000 0.0000
# 5 0.0000 0.0000 0.0000 0.0000 28.0151 0.0000
# 6 0.0000 0.0000 0.0000 0.0000 0.0000 26.5409
#
#
#
# Elastic Compliance Matrix: (Units=1/GPa)
#
#
# Indices 1 2 3 4 5 6 
#
# 1 0.016145 0.006842 -0.004854 0.000000 0.000000 0.000000
# 2 0.006842 0.022885 -0.005150 0.000000 0.000000 0.000000
# 3 -0.004854 -0.005150 0.068372 0.000000 0.000000 0.000000
# 4 0.000000 0.000000 0.000000 0.037951 0.000000 0.000000
# 5 0.000000 0.000000 0.000000 0.000000 0.035695 0.000000
# 6 0.000000 0.000000 0.000000 0.000000 0.000000 0.037678
#
#
# Mechanical properties :
#
#
# Convention : Reuss Voigt Hill
#
# Bulk Modulus (GPa) = 9.89337 11.95886 10.92611
# Shear Modulus (GPa) = 19.32423 26.31398 22.81910
#
# Velocity S-wave (km/s) = 3.09383 3.61026 3.36198
# Velocity P-wave (km/s) = 4.20272 4.82724 4.52576
#
# Compressibility (1/GPa) = 0.10107777
#
# Stress axis : x y z
#
# Youngs Moduli (GPa) = 61.94023 43.69634 14.62586
#
# Poissons Ratio (x) = -0.29895 0.07099
# Poissons Ratio (y) = -0.42376 0.07532
# Poissons Ratio (z) = 0.30065 0.22502
#
# Static dielectric constant tensor:
#      x y z
#    x 1.713640 0.000000 0.000000 
#    y 0.000000 1.715830 0.000000 
#    z 0.000000 0.000000 1.701090 
# 
# From -- ./inp_files/2292.got.cif
#   From: 2010.05.17/outbox.cif.g08.bks.cpg/sg55_2_cif.got.tgz:2292.got - 2010.06.03 13:27:54.
