data_PCOD9425819
_publ_section_title
;
Structure prediction by ZEFSAII (Michael W. Deem and Ramdas Pophale) SiO2 
 PCOD9425819
Probable space group: P B A M
;
_chemical_formula_sum "Si O2"
_cell_formula_units_Z 48
_cell_length_a 16.295046
_cell_length_b 5.455858
_cell_length_c 23.178299
_cell_angle_alpha 90.000000
_cell_angle_beta 90.000000
_cell_angle_gamma 90.000000
_cell_volume 2060.630910
_symmetry_space_group_name_H-M "P B A M"
_symmetry_group_IT_number 55
_symmetry_cell_setting 'orthorhombic'
loop_
_space_group_symop_operation_xyz
x,y,z
-x,-y,z
1/2+x,1/2-y,-z
1/2-x,1/2+y,-z
-x,-y,-z
x,y,-z
1/2-x,1/2+y,z
1/2+x,1/2-y,z
loop_
_atom_site_type_symbol
_atom_site_label
_atom_site_fract_x
_atom_site_fract_y
_atom_site_fract_z
Si Si1 0.802061 0.749999 0.373890
Si Si2 0.447401 0.250000 0.000000
Si Si3 0.804058 0.749999 0.500000
Si Si4 0.727705 0.250000 0.792861
Si Si5 0.465933 0.750000 0.683858
Si Si6 0.296401 0.250000 0.082323
Si Si7 0.963529 0.750000 0.819280
O O1 0.750000 0.499999 0.371619
O O2 0.846276 0.750000 0.437283
O O3 0.869179 0.750000 0.324011
O O4 0.500000 0.500000 0.000000
O O5 0.385358 0.250000 0.945545
O O6 0.500000 0.000000 0.000000
O O7 0.750000 0.499999 0.500000
O O8 0.750000 0.500000 0.761283
O O9 0.789621 0.250000 0.848160
O O10 0.635242 0.250000 0.817353
O O11 0.500000 0.500000 0.657893
O O12 0.489366 0.750000 0.751536
O O13 0.500000 0.000000 0.657893
O O14 0.250000 0.500000 0.064702
O O15 0.000000 0.500000 0.844863
O O16 0.000000 0.000000 0.844863
#
# Coordination Sequence:
#
# PCOD9425819 Si02
#       7
#     8   4   4   8   8   8   8
#     4  10  19  33  54  78 103 140 186 226 268 329
#     4  12  24  40  64  92 118 150 190 228 272 328
#     4   8  16  30  48  72 104 136 174 226 274 316
#     4  10  21  38  59  85 114 148 183 226 275 322
#     4  10  21  36  53  78 113 142 174 228 284 325
#     4  10  21  41  62  85 118 152 183 226 275 318
#     4  10  21  38  58  81 110 146 184 226 276 329
#
# _framework density 23.293835000000001
#
# number of rings (size 3 to 8) (size 9 to 14) (size 15 to 20)
#    0.000    2.000    0.000    3.500    0.000    1.333 
#    0.000   20.833    0.000    0.000    0.000    0.000 
#    0.000    0.000    0.000    0.000    0.000    0.000 
#
# Total GULP energy -268235.851235 kJ/mol
# GULP energy per Si atom -5588.246901 kJ/mol
# Density = 2.324082 g / cm^3
# Si number density = 23.293835 Si / 1000 Ang^3
#
#
#
# Elastic Constant Matrix: (Units=GPa)
#
#
# Indices 1 2 3 4 5 6 
#
# 1 114.8416 103.0053 -9.5244 0.0000 0.0000 0.0000
# 2 103.0053 291.2805 15.7964 0.0000 0.0000 0.0000
# 3 -9.5244 15.7964 60.1936 0.0000 0.0000 0.0000
# 4 0.0000 0.0000 0.0000 -69.4293 0.0000 0.0000
# 5 0.0000 0.0000 0.0000 0.0000 10.3633 0.0000
# 6 0.0000 0.0000 0.0000 0.0000 0.0000 51.4901
#
#
#
# Elastic Compliance Matrix: (Units=1/GPa)
#
#
# Indices 1 2 3 4 5 6 
#
# 1 0.013411 -0.004928 0.003415 0.000000 0.000000 0.000000
# 2 -0.004928 0.005293 -0.002169 0.000000 0.000000 0.000000
# 3 0.003415 -0.002169 0.017723 0.000000 0.000000 0.000000
# 4 0.000000 0.000000 0.000000 -0.014403 0.000000 0.000000
# 5 0.000000 0.000000 0.000000 0.000000 0.096495 0.000000
# 6 0.000000 0.000000 0.000000 0.000000 0.000000 0.019421
#
#
# Mechanical properties :
#
#
# Convention : Reuss Voigt Hill
#
# Bulk Modulus (GPa) = 34.40702 76.09671 55.25186
# Shear Modulus (GPa) = 32.26023 22.28739 27.27381
#
# Velocity S-wave (km/s) = 3.72550 3.09656 3.42549
# Velocity P-wave (km/s) = 5.77137 6.74715 6.27825
#
# Compressibility (1/GPa) = 0.02906384
#
# Stress axis : x y z
#
# Youngs Moduli (GPa) = 74.56802 188.91937 56.42526
#
# Poissons Ratio (x) = 0.93091 -0.19270
# Poissons Ratio (y) = 0.36744 0.12237
# Poissons Ratio (z) = -0.25465 0.40972
#
# Static dielectric constant tensor:
#      x y z
#    x 1.847530 0.000000 0.000000 
#    y 0.000000 1.912030 0.000000 
#    z 0.000000 0.000000 1.927660 
# 
# From -- ./inp_files/23991.got.cif
#   From: 2010.05.17/outbox.cif.g08.bks.cpg/sg55_12_cif.got.tgz:23991.got - 2010.06.03 13:27:54.
