data_PCOD9425359
_publ_section_title
;
Structure prediction by ZEFSAII (Michael W. Deem and Ramdas Pophale) SiO2 
 PCOD9425359
Probable space group: P B A M
;
_chemical_formula_sum "Si O2"
_cell_formula_units_Z 64
_cell_length_a 21.418234
_cell_length_b 19.963588
_cell_length_c 7.479458
_cell_angle_alpha 90.000000
_cell_angle_beta 90.000000
_cell_angle_gamma 90.000000
_cell_volume 3198.102548
_symmetry_space_group_name_H-M "P B A M"
_symmetry_group_IT_number 55
_symmetry_cell_setting 'orthorhombic'
loop_
_space_group_symop_operation_xyz
x,y,z
-x,-y,z
1/2+x,1/2-y,-z
1/2-x,1/2+y,-z
-x,-y,-z
x,y,-z
1/2-x,1/2+y,z
1/2+x,1/2-y,z
loop_
_atom_site_type_symbol
_atom_site_label
_atom_site_fract_x
_atom_site_fract_y
_atom_site_fract_z
Si Si1 0.577644 0.307854 0.220215
Si Si2 0.303348 0.531595 0.287378
Si Si3 0.712648 0.314363 0.202802
Si Si4 0.020810 0.700360 0.791428
Si Si5 0.955095 0.560987 0.717067
Si Si6 0.827733 0.502931 0.290160
Si Si7 0.154069 0.654376 0.217932
Si Si8 0.060295 0.039066 0.785601
O O1 0.647664 0.287611 0.281519
O O2 0.523762 0.258090 0.282611
O O3 0.563864 0.383988 0.277406
O O4 0.579608 0.307035 0.000000
O O5 0.295808 0.541869 0.500000
O O6 0.298989 0.605121 0.200084
O O7 0.243169 0.490451 0.221309
O O8 0.372904 0.505460 0.255779
O O9 0.782064 0.310091 0.282296
O O10 0.716710 0.288841 0.000000
O O11 0.090164 0.687972 0.717541
O O12 0.983805 0.630636 0.778108
O O13 0.029898 0.716837 0.000000
O O14 0.954730 0.561472 0.500000
O O15 0.885192 0.545501 0.783865
O O16 0.000000 0.500000 0.772743
O O17 0.825414 0.518936 0.500000
O O18 0.844337 0.423929 0.271346
O O19 0.155218 0.654723 0.000000
O O20 0.055359 0.041933 0.000000
O O21 0.000000 0.000000 0.716812
#
# Coordination Sequence:
#
# PCOD9425359 Si02
#       8
#     8   8   8   8   8   8   8   8
#     4   8  15  29  47  65  89 118 147 183 227 271
#     4   9  16  26  44  70  93 113 144 189 231 265
#     4   8  14  27  45  62  84 116 151 184 221 271
#     4  10  19  29  44  67  93 118 148 190 236 270
#     4  10  19  31  46  64  90 126 161 187 220 271
#     4   9  17  29  44  63  89 120 152 187 224 263
#     4   9  16  25  42  67  87 110 148 191 226 262
#     4   9  17  31  52  72  93 121 152 185 227 280
#
# _framework density 20.011865
#
# number of rings (size 3 to 8) (size 9 to 14) (size 15 to 20)
#    0.000    3.000    1.250    1.125    0.000    1.500 
#    0.000    2.500    2.750    0.000    0.000    0.000 
#    0.000    0.000    0.000    0.000    0.000    0.000 
#
# Total GULP energy -356529.257023 kJ/mol
# GULP energy per Si atom -5570.769641 kJ/mol
# Density = 1.996632 g / cm^3
# Si number density = 20.011865 Si / 1000 Ang^3
#
#
#
# Elastic Constant Matrix: (Units=GPa)
#
#
# Indices 1 2 3 4 5 6 
#
# 1 243.1404 60.6390 -0.1853 0.0000 0.0000 0.0000
# 2 60.6390 43.0405 -2.1140 0.0000 0.0000 0.0000
# 3 -0.1853 -2.1140 56.7061 0.0000 0.0000 0.0000
# 4 0.0000 0.0000 0.0000 22.4095 0.0000 0.0000
# 5 0.0000 0.0000 0.0000 0.0000 13.7820 0.0000
# 6 0.0000 0.0000 0.0000 0.0000 0.0000 28.0270
#
#
#
# Elastic Compliance Matrix: (Units=1/GPa)
#
#
# Indices 1 2 3 4 5 6 
#
# 1 0.006346 -0.008957 -0.000313 0.000000 0.000000 0.000000
# 2 -0.008957 0.035917 0.001310 0.000000 0.000000 0.000000
# 3 -0.000313 0.001310 0.017683 0.000000 0.000000 0.000000
# 4 0.000000 0.000000 0.000000 0.044624 0.000000 0.000000
# 5 0.000000 0.000000 0.000000 0.000000 0.072558 0.000000
# 6 0.000000 0.000000 0.000000 0.000000 0.000000 0.035680
#
#
# Mechanical properties :
#
#
# Convention : Reuss Voigt Hill
#
# Bulk Modulus (GPa) = 22.71394 51.06296 36.88845
# Shear Modulus (GPa) = 20.54198 31.81351 26.17775
#
# Velocity S-wave (km/s) = 3.20736 3.99147 3.62071
# Velocity P-wave (km/s) = 5.00910 6.84209 5.99605
#
# Compressibility (1/GPa) = 0.04402582
#
# Stress axis : x y z
#
# Youngs Moduli (GPa) = 157.56936 27.84181 56.55279
#
# Poissons Ratio (x) = 0.24937 0.01771
# Poissons Ratio (y) = 1.41131 -0.07407
# Poissons Ratio (z) = 0.04934 -0.03646
#
# Static dielectric constant tensor:
#      x y z
#    x 1.781110 0.000000 0.000000 
#    y 0.000000 1.650140 0.000000 
#    z 0.000000 0.000000 1.742290 
# 
# From -- ./inp_files/9177.got.cif
#   From: 2010.05.17/outbox.cif.g08.bks.cpg/sg55_5_cif.got.tgz:9177.got - 2010.06.03 13:27:54.
