data_PCOD9425245
_publ_section_title
;
Structure prediction by ZEFSAII (Michael W. Deem and Ramdas Pophale) SiO2 
 PCOD9425245
Probable space group: P B A M
;
_chemical_formula_sum "Si O2"
_cell_formula_units_Z 48
_cell_length_a 18.480181
_cell_length_b 8.461335
_cell_length_c 14.358944
_cell_angle_alpha 90.000000
_cell_angle_beta 90.000000
_cell_angle_gamma 90.000000
_cell_volume 2245.265029
_symmetry_space_group_name_H-M "P B A M"
_symmetry_group_IT_number 55
_symmetry_cell_setting 'orthorhombic'
loop_
_space_group_symop_operation_xyz
x,y,z
-x,-y,z
1/2+x,1/2-y,-z
1/2-x,1/2+y,-z
-x,-y,-z
x,y,-z
1/2-x,1/2+y,z
1/2+x,1/2-y,z
loop_
_atom_site_type_symbol
_atom_site_label
_atom_site_fract_x
_atom_site_fract_y
_atom_site_fract_z
Si Si1 0.708165 0.458620 0.605252
Si Si2 0.771192 0.345785 0.202795
Si Si3 0.158512 0.350080 0.107345
Si Si4 0.034566 0.323900 0.240259
Si Si5 0.368996 0.950836 0.397128
Si Si6 0.108163 0.798312 0.310640
O O1 0.703588 0.388193 0.500000
O O2 0.725797 0.367400 0.701494
O O3 0.782188 0.562950 0.601735
O O4 0.636995 0.561980 0.624820
O O5 0.812898 0.503034 0.170090
O O6 0.717653 0.285233 0.124154
O O7 0.832932 0.218690 0.228072
O O8 0.082310 0.293741 0.149575
O O9 0.152868 0.394998 0.000000
O O10 0.090127 0.338842 0.326015
O O11 0.000000 0.500000 0.229830
O O12 0.971238 0.203664 0.267120
O O13 0.397981 0.926035 0.500000
O O14 0.384277 0.132281 0.366651
#
# Coordination Sequence:
#
# PCOD9425245 Si02
#       6
#     8   8   8   8   8   8
#     4  10  19  34  61  89 122 163 201 241 302 369
#     4  11  21  42  62  91 122 155 204 261 302 361
#     4  12  24  42  65  89 116 160 211 261 316 360
#     4  10  19  36  56  87 125 160 196 252 300 360
#     4   9  17  29  50  83 120 156 197 237 286 351
#     4  10  18  33  58  84 126 156 192 240 305 350
#
# _framework density 21.378323000000002
#
# number of rings (size 3 to 8) (size 9 to 14) (size 15 to 20)
#    0.000    1.667    6.667    1.000    0.000    4.667 
#    0.000    1.667    0.000    2.000    0.000    0.000 
#    0.000    0.000    0.000    0.000    0.000    0.000 
#
# Total GULP energy -267974.128718 kJ/mol
# GULP energy per Si atom -5582.794348 kJ/mol
# Density = 2.132966 g / cm^3
# Si number density = 21.378323 Si / 1000 Ang^3
#
#
#
# Elastic Constant Matrix: (Units=GPa)
#
#
# Indices 1 2 3 4 5 6 
#
# 1 90.1345 10.3914 24.0075 0.0000 0.0000 0.0000
# 2 10.3914 25.6668 7.2204 0.0000 0.0000 0.0000
# 3 24.0075 7.2204 121.6910 0.0000 0.0000 0.0000
# 4 0.0000 0.0000 0.0000 20.7443 0.0000 0.0000
# 5 0.0000 0.0000 0.0000 0.0000 14.3312 0.0000
# 6 0.0000 0.0000 0.0000 0.0000 0.0000 23.4651
#
#
#
# Elastic Compliance Matrix: (Units=1/GPa)
#
#
# Indices 1 2 3 4 5 6 
#
# 1 0.012164 -0.004322 -0.002143 0.000000 0.000000 0.000000
# 2 -0.004322 0.041158 -0.001589 0.000000 0.000000 0.000000
# 3 -0.002143 -0.001589 0.008735 0.000000 0.000000 0.000000
# 4 0.000000 0.000000 0.000000 0.048206 0.000000 0.000000
# 5 0.000000 0.000000 0.000000 0.000000 0.069778 0.000000
# 6 0.000000 0.000000 0.000000 0.000000 0.000000 0.042616
#
#
# Mechanical properties :
#
#
# Convention : Reuss Voigt Hill
#
# Bulk Modulus (GPa) = 21.76408 35.63679 28.70044
# Shear Modulus (GPa) = 19.67877 24.76630 22.22254
#
# Velocity S-wave (km/s) = 3.03727 3.40733 3.22761
# Velocity P-wave (km/s) = 4.74368 5.67324 5.22916
#
# Compressibility (1/GPa) = 0.04594726
#
# Stress axis : x y z
#
# Youngs Moduli (GPa) = 82.21235 24.29682 114.48633
#
# Poissons Ratio (x) = 0.10500 0.24537
# Poissons Ratio (y) = 0.35529 0.18197
# Poissons Ratio (z) = 0.17620 0.03862
#
# Static dielectric constant tensor:
#      x y z
#    x 1.796220 0.000000 0.000000 
#    y 0.000000 1.840130 0.000000 
#    z 0.000000 0.000000 1.735190 
# 
# From -- ./inp_files/19335.got.cif
#   From: 2010.05.17/outbox.cif.g08.bks.cpg/sg55_10_cif.got.tgz:19335.got - 2010.06.03 13:27:54.
