data_PCOD9425663
_publ_section_title
;
Structure prediction by ZEFSAII (Michael W. Deem and Ramdas Pophale) SiO2 
 PCOD9425663
Probable space group: P B A M
;
_chemical_formula_sum "Si O2"
_cell_formula_units_Z 56
_cell_length_a 14.734369
_cell_length_b 23.333689
_cell_length_c 8.644400
_cell_angle_alpha 90.000000
_cell_angle_beta 90.000000
_cell_angle_gamma 90.000000
_cell_volume 2972.006820
_symmetry_space_group_name_H-M "P B A M"
_symmetry_group_IT_number 55
_symmetry_cell_setting 'orthorhombic'
loop_
_space_group_symop_operation_xyz
x,y,z
-x,-y,z
1/2+x,1/2-y,-z
1/2-x,1/2+y,-z
-x,-y,-z
x,y,-z
1/2-x,1/2+y,z
1/2+x,1/2-y,z
loop_
_atom_site_type_symbol
_atom_site_label
_atom_site_fract_x
_atom_site_fract_y
_atom_site_fract_z
Si Si1 0.713460 0.388046 0.812816
Si Si2 0.109572 0.221329 0.317450
Si Si3 0.892923 0.652471 0.814733
Si Si4 0.396025 0.277755 0.316808
Si Si5 0.394782 0.498745 0.812818
Si Si6 0.712635 0.609985 0.685360
Si Si7 0.902113 0.347402 0.185533
O O1 0.666897 0.330624 0.750158
O O2 0.657727 0.443793 0.762362
O O3 0.818923 0.387139 0.762830
O O4 0.710981 0.386352 0.000000
O O5 0.127621 0.227905 0.500000
O O6 0.127119 0.282061 0.235928
O O7 0.002544 0.208318 0.296192
O O8 0.815696 0.612586 0.743775
O O9 0.995803 0.639655 0.758461
O O10 0.890365 0.648562 0.000000
O O11 0.379911 0.269381 0.500000
O O12 0.335958 0.330886 0.262310
O O13 0.378872 0.217681 0.233522
O O14 0.500000 0.500000 0.763406
O O15 0.342992 0.443451 0.749918
O O16 0.393321 0.496845 0.000000
O O17 0.710419 0.608948 0.500000
O O18 0.905839 0.349814 0.000000
#
# Coordination Sequence:
#
# PCOD9425663 Si02
#       7
#     8   8   8   8   8   8   8
#     4  10  20  35  54  77 105 138 178 219 261 312
#     4  10  19  32  52  80 111 140 171 210 261 315
#     4  10  20  35  54  77 106 139 175 215 261 311
#     4   9  19  33  50  76 109 140 169 208 259 315
#     4  10  22  39  58  80 106 138 177 220 265 316
#     4  11  22  36  55  79 107 141 180 220 266 316
#     4   9  19  34  53  77 104 136 173 214 259 309
#
# _framework density 18.842486000000001
#
# number of rings (size 3 to 8) (size 9 to 14) (size 15 to 20)
#    0.000    2.143    0.000    3.000    0.000    6.000 
#    0.000    0.714    0.000    4.286    0.000    0.000 
#    0.000    0.000    0.000    0.000    0.000    0.000 
#
# Total GULP energy -312696.758410 kJ/mol
# GULP energy per Si atom -5583.870686 kJ/mol
# Density = 1.879960 g / cm^3
# Si number density = 18.842486 Si / 1000 Ang^3
#
#
#
# Elastic Constant Matrix: (Units=GPa)
#
#
# Indices 1 2 3 4 5 6 
#
# 1 163.8469 96.0191 31.2882 0.0000 0.0000 0.0000
# 2 96.0191 71.9437 16.8744 0.0000 0.0000 0.0000
# 3 31.2882 16.8744 14.7826 0.0000 0.0000 0.0000
# 4 0.0000 0.0000 0.0000 -132.1209 0.0000 0.0000
# 5 0.0000 0.0000 0.0000 0.0000 13.7775 0.0000
# 6 0.0000 0.0000 0.0000 0.0000 0.0000 34.9332
#
#
#
# Elastic Compliance Matrix: (Units=1/GPa)
#
#
# Indices 1 2 3 4 5 6 
#
# 1 0.034971 -0.040030 -0.028323 0.000000 0.000000 0.000000
# 2 -0.040030 0.064804 0.010753 0.000000 0.000000 0.000000
# 3 -0.028323 0.010753 0.115320 0.000000 0.000000 0.000000
# 4 0.000000 0.000000 0.000000 -0.007569 0.000000 0.000000
# 5 0.000000 0.000000 0.000000 0.000000 0.072582 0.000000
# 6 0.000000 0.000000 0.000000 0.000000 0.000000 0.028626
#
#
# Mechanical properties :
#
#
# Convention : Reuss Voigt Hill
#
# Bulk Modulus (GPa) = 10.01067 59.88185 34.94626
# Shear Modulus (GPa) = 10.93537 -9.58926 0.67305
#
# Velocity S-wave (km/s) = 2.41167 -2.25837 0.59831
# Velocity P-wave (km/s) = 3.61652 5.00489 4.36624
#
# Compressibility (1/GPa) = 0.09989344
#
# Stress axis : x y z
#
# Youngs Moduli (GPa) = 28.59548 15.43126 8.67151
#
# Poissons Ratio (x) = 0.61771 0.24560
# Poissons Ratio (y) = 1.14468 -0.09324
# Poissons Ratio (z) = 0.80990 -0.16592
#
# Static dielectric constant tensor:
#      x y z
#    x 1.687460 0.000000 0.000000 
#    y 0.000000 1.610460 0.000000 
#    z 0.000000 0.000000 1.631800 
# 
# From -- ./inp_files/6042.got.cif
#   From: 2010.05.17/outbox.cif.g08.bks.cpg/sg55_4_cif.got.tgz:6042.got - 2010.06.03 13:27:54.
