data_PCOD9425319
_publ_section_title
;
Structure prediction by ZEFSAII (Michael W. Deem and Ramdas Pophale) SiO2 
 PCOD9425319
Probable space group: P B A M
;
_chemical_formula_sum "Si O2"
_cell_formula_units_Z 48
_cell_length_a 8.281234
_cell_length_b 14.328520
_cell_length_c 16.550685
_cell_angle_alpha 90.000000
_cell_angle_beta 90.000000
_cell_angle_gamma 90.000000
_cell_volume 1963.868317
_symmetry_space_group_name_H-M "P B A M"
_symmetry_group_IT_number 55
_symmetry_cell_setting 'orthorhombic'
loop_
_space_group_symop_operation_xyz
x,y,z
-x,-y,z
1/2+x,1/2-y,-z
1/2-x,1/2+y,-z
-x,-y,-z
x,y,-z
1/2-x,1/2+y,z
1/2+x,1/2-y,z
loop_
_atom_site_type_symbol
_atom_site_label
_atom_site_fract_x
_atom_site_fract_y
_atom_site_fract_z
Si Si1 0.348562 0.557218 0.141144
Si Si2 0.835987 0.873412 0.678982
Si Si3 0.048427 0.340089 0.327665
Si Si4 0.148841 0.123711 0.500000
Si Si5 0.665239 0.115835 0.162440
Si Si6 0.030541 0.334321 0.500000
Si Si7 0.143017 0.723502 0.906932
O O1 0.500000 0.500000 0.108352
O O2 0.374611 0.575861 0.237035
O O3 0.200771 0.485554 0.128883
O O4 0.296245 0.654117 0.102199
O O5 0.642103 0.857562 0.680412
O O6 0.915344 0.769996 0.681760
O O7 0.879976 0.915988 0.590585
O O8 0.141441 0.392680 0.257853
O O9 0.102576 0.371226 0.416813
O O10 0.056523 0.223112 0.500000
O O11 0.340582 0.145684 0.500000
O O12 0.508791 0.167348 0.127569
O O13 0.814196 0.184530 0.143402
O O14 0.119567 0.747273 0.000000
#
# Coordination Sequence:
#
# PCOD9425319 Si02
#       7
#     8   8   8   4   8   4   8
#     4  12  27  43  67  99 135 174 223 269 328 399
#     4  10  20  37  62  97 131 179 224 273 328 388
#     4  10  18  35  64  91 132 171 219 267 321 385
#     4   8  16  32  56  87 134 169 221 275 319 379
#     4  12  24  44  71 100 134 172 219 271 329 407
#     4   8  16  28  53  95 121 168 217 264 315 374
#     4  12  27  48  73 100 130 169 216 275 342 402
#
# _framework density 24.441555000000001
#
# number of rings (size 3 to 8) (size 9 to 14) (size 15 to 20)
#    0.000    1.333    3.333    2.000    2.333    2.333 
#    0.000    1.250    0.000    3.000    0.000    0.000 
#    0.000    0.000    0.000    0.000    0.000    0.000 
#
# Total GULP energy -268636.335645 kJ/mol
# GULP energy per Si atom -5596.590326 kJ/mol
# Density = 2.438593 g / cm^3
# Si number density = 24.441555 Si / 1000 Ang^3
#
#
#
# Elastic Constant Matrix: (Units=GPa)
#
#
# Indices 1 2 3 4 5 6 
#
# 1 40.2319 15.4717 22.6432 0.0000 0.0000 0.0000
# 2 15.4717 70.0196 -7.5620 0.0000 0.0000 0.0000
# 3 22.6432 -7.5620 109.1788 0.0000 0.0000 0.0000
# 4 0.0000 0.0000 0.0000 -52.7055 0.0000 0.0000
# 5 0.0000 0.0000 0.0000 0.0000 -3.5493 0.0000
# 6 0.0000 0.0000 0.0000 0.0000 0.0000 37.3630
#
#
#
# Elastic Compliance Matrix: (Units=1/GPa)
#
#
# Indices 1 2 3 4 5 6 
#
# 1 0.031890 -0.007819 -0.007155 0.000000 0.000000 0.000000
# 2 -0.007819 0.016307 0.002751 0.000000 0.000000 0.000000
# 3 -0.007155 0.002751 0.010834 0.000000 0.000000 0.000000
# 4 0.000000 0.000000 0.000000 -0.018973 0.000000 0.000000
# 5 0.000000 0.000000 0.000000 0.000000 -0.281744 0.000000
# 6 0.000000 0.000000 0.000000 0.000000 0.000000 0.026764
#
#
# Mechanical properties :
#
#
# Convention : Reuss Voigt Hill
#
# Bulk Modulus (GPa) = 28.91568 31.17069 30.04318
# Shear Modulus (GPa) = -27.94122 8.81345 -9.56389
#
# Velocity S-wave (km/s) = -3.38477 1.90099 -1.98027
# Velocity P-wave (km/s) = 1.84914 4.19514 2.66269
#
# Compressibility (1/GPa) = 0.03458331
#
# Stress axis : x y z
#
# Youngs Moduli (GPa) = 31.35763 61.32479 92.30324
#
# Poissons Ratio (x) = 0.47952 0.66047
# Poissons Ratio (y) = 0.24520 -0.25394
# Poissons Ratio (z) = 0.22438 -0.16871
#
# Static dielectric constant tensor:
#      x y z
#    x 1.952590 0.000000 0.000000 
#    y 0.000000 1.778090 0.000000 
#    z 0.000000 0.000000 1.953710 
# 
# From -- ./inp_files/20855.got.cif
#   From: 2010.05.17/outbox.cif.g08.bks.cpg/sg55_11_cif.got.tgz:20855.got - 2010.06.03 13:27:54.
