data_PCOD9425004
_publ_section_title
;
Structure prediction by ZEFSAII (Michael W. Deem and Ramdas Pophale) SiO2 
 PCOD9425004
Probable space group: P B A M
;
_chemical_formula_sum "Si O2"
_cell_formula_units_Z 64
_cell_length_a 22.274793
_cell_length_b 12.241440
_cell_length_c 13.319599
_cell_angle_alpha 90.000000
_cell_angle_beta 90.000000
_cell_angle_gamma 90.000000
_cell_volume 3631.928877
_symmetry_space_group_name_H-M "P B A M"
_symmetry_group_IT_number 55
_symmetry_cell_setting 'orthorhombic'
loop_
_space_group_symop_operation_xyz
x,y,z
-x,-y,z
1/2+x,1/2-y,-z
1/2-x,1/2+y,-z
-x,-y,-z
x,y,-z
1/2-x,1/2+y,z
1/2+x,1/2-y,z
loop_
_atom_site_type_symbol
_atom_site_label
_atom_site_fract_x
_atom_site_fract_y
_atom_site_fract_z
Si Si1 0.126643 0.077852 0.613515
Si Si2 0.887728 0.176751 0.616314
Si Si3 0.313137 0.649555 0.185483
Si Si4 0.575997 0.218001 0.884409
Si Si5 0.217700 0.915712 0.884496
Si Si6 0.175908 0.712213 0.216281
Si Si7 0.508454 0.376877 0.267565
Si Si8 0.851217 0.513264 0.121456
O O1 0.138442 0.114248 0.500000
O O2 0.164066 0.134217 0.700984
O O3 0.058001 0.102121 0.645392
O O4 0.137658 0.947404 0.618633
O O5 0.899234 0.203236 0.500000
O O6 0.844334 0.263094 0.670618
O O7 0.948432 0.167851 0.681264
O O8 0.359015 0.724169 0.125265
O O9 0.311210 0.533791 0.130486
O O10 0.245913 0.691238 0.195051
O O11 0.533629 0.289146 0.812033
O O12 0.593500 0.093912 0.854225
O O13 0.555548 0.219270 0.000000
O O14 0.171541 0.829981 0.836433
O O15 0.286555 0.934231 0.844776
O O16 0.224588 0.884518 0.000000
O O17 0.143565 0.606790 0.169717
O O18 0.500000 0.500000 0.223145
O O19 0.847972 0.502965 0.000000
#
# Coordination Sequence:
#
# PCOD9425004 Si02
#       8
#     8   8   8   8   8   8   8   8
#     4   9  17  32  55  78 102 133 173 222 275 324
#     4  10  20  36  56  78 104 136 178 227 276 316
#     4  10  19  31  50  80 112 138 172 217 267 314
#     4  10  19  34  55  79 111 145 176 216 270 320
#     4  10  18  30  49  76 108 141 175 211 254 314
#     4  11  20  32  53  77 111 144 179 214 259 317
#     4   9  19  35  56  80 105 134 180 229 275 312
#     4   9  19  33  51  76 107 145 179 206 250 315
#
# _framework density 17.621490000000001
#
# number of rings (size 3 to 8) (size 9 to 14) (size 15 to 20)
#    0.000    2.250    2.500    1.125    0.000    3.250 
#    0.000    1.875    0.000    6.000    0.000    0.000 
#    0.000    0.000    0.000    0.000    0.000    0.000 
#
# Total GULP energy -356360.213046 kJ/mol
# GULP energy per Si atom -5568.128329 kJ/mol
# Density = 1.758138 g / cm^3
# Si number density = 17.621490 Si / 1000 Ang^3
#
#
#
# Elastic Constant Matrix: (Units=GPa)
#
#
# Indices 1 2 3 4 5 6 
#
# 1 3.0319 2.5993 -3.1949 0.0000 0.0000 0.0000
# 2 2.5993 65.4816 10.3872 0.0000 0.0000 0.0000
# 3 -3.1949 10.3872 59.0450 0.0000 0.0000 0.0000
# 4 0.0000 0.0000 0.0000 18.9792 0.0000 0.0000
# 5 0.0000 0.0000 0.0000 0.0000 8.4718 0.0000
# 6 0.0000 0.0000 0.0000 0.0000 0.0000 16.1518
#
#
#
# Elastic Compliance Matrix: (Units=1/GPa)
#
#
# Indices 1 2 3 4 5 6 
#
# 1 0.370088 -0.018380 0.023259 0.000000 0.000000 0.000000
# 2 -0.018380 0.016623 -0.003919 0.000000 0.000000 0.000000
# 3 0.023259 -0.003919 0.018884 0.000000 0.000000 0.000000
# 4 0.000000 0.000000 0.000000 0.052689 0.000000 0.000000
# 5 0.000000 0.000000 0.000000 0.000000 0.118039 0.000000
# 6 0.000000 0.000000 0.000000 0.000000 0.000000 0.061913
#
#
# Mechanical properties :
#
#
# Convention : Reuss Voigt Hill
#
# Bulk Modulus (GPa) = 2.45390 16.34907 9.40148
# Shear Modulus (GPa) = 6.47539 16.57169 11.52354
#
# Velocity S-wave (km/s) = 1.91903 3.06996 2.56001
# Velocity P-wave (km/s) = 2.51114 4.67593 3.75301
#
# Compressibility (1/GPa) = 0.40751524
#
# Stress axis : x y z
#
# Youngs Moduli (GPa) = 2.70206 60.15878 52.95446
#
# Poissons Ratio (x) = 1.10571 -1.23165
# Poissons Ratio (y) = 0.04966 0.20752
# Poissons Ratio (z) = -0.06285 0.23575
#
# Static dielectric constant tensor:
#      x y z
#    x 1.626730 0.000000 0.000000 
#    y 0.000000 1.637250 0.000000 
#    z 0.000000 0.000000 1.573910 
# 
# From -- ./inp_files/13573.got.cif
#   From: 2010.05.17/outbox.cif.g08.bks.cpg/sg55_7_cif.got.tgz:13573.got - 2010.06.03 13:27:54.
