data_PCOD9425373
_publ_section_title
;
Structure prediction by ZEFSAII (Michael W. Deem and Ramdas Pophale) SiO2 
 PCOD9425373
Probable space group: P B A M
;
_chemical_formula_sum "Si O2"
_cell_formula_units_Z 64
_cell_length_a 20.007939
_cell_length_b 21.144558
_cell_length_c 7.780631
_cell_angle_alpha 90.000000
_cell_angle_beta 90.000000
_cell_angle_gamma 90.000000
_cell_volume 3291.666178
_symmetry_space_group_name_H-M "P B A M"
_symmetry_group_IT_number 55
_symmetry_cell_setting 'orthorhombic'
loop_
_space_group_symop_operation_xyz
x,y,z
-x,-y,z
1/2+x,1/2-y,-z
1/2-x,1/2+y,-z
-x,-y,-z
x,y,-z
1/2-x,1/2+y,z
1/2+x,1/2-y,z
loop_
_atom_site_type_symbol
_atom_site_label
_atom_site_fract_x
_atom_site_fract_y
_atom_site_fract_z
Si Si1 0.033688 0.813300 0.707673
Si Si2 0.677928 0.129244 0.702921
Si Si3 0.325005 0.499024 0.204714
Si Si4 0.326038 0.355798 0.299460
Si Si5 0.958566 0.684621 0.795405
Si Si6 0.458605 0.561045 0.292596
Si Si7 0.040368 0.562750 0.789379
Si Si8 0.322590 0.013350 0.799069
O O1 0.037015 0.817633 0.500000
O O2 0.110117 0.818810 0.773868
O O3 0.995374 0.749487 0.752104
O O4 0.992124 0.874375 0.769416
O O5 0.685858 0.117151 0.500000
O O6 0.750683 0.150912 0.772151
O O7 0.616952 0.176891 0.728758
O O8 0.660191 0.061331 0.784994
O O9 0.342315 0.430756 0.285181
O O10 0.382436 0.549222 0.240584
O O11 0.252139 0.519388 0.272863
O O12 0.319896 0.488523 0.000000
O O13 0.321579 0.338369 0.500000
O O14 0.002569 0.625412 0.730007
O O15 0.954422 0.678923 0.000000
O O16 0.500000 0.500000 0.230588
O O17 0.461408 0.561180 0.500000
O O18 0.116313 0.553761 0.726735
O O19 0.000000 0.500000 0.739214
O O20 0.041537 0.563772 0.000000
O O21 0.318144 0.029716 0.000000
#
# Coordination Sequence:
#
# PCOD9425373 Si02
#       8
#     8   8   8   8   8   8   8   8
#     4  10  21  38  57  77 105 141 180 223 266 318
#     4  10  19  32  54  81 107 138 179 222 264 317
#     4  10  19  29  50  83 113 135 169 227 273 311
#     4   9  18  35  56  76 104 143 181 216 264 325
#     4  11  22  36  55  79 109 144 179 220 269 323
#     4  10  19  35  57  76 101 140 179 214 263 323
#     4   9  16  31  55  76 100 138 177 209 255 319
#     4   9  17  32  52  77 108 141 176 217 270 319
#
# _framework density 19.44304
#
# number of rings (size 3 to 8) (size 9 to 14) (size 15 to 20)
#    0.000    2.250    2.500    1.125    0.000    2.250 
#    0.000    3.125    0.000    3.000    0.000    0.000 
#    0.000    0.000    0.000    0.000    0.000    0.000 
#
# Total GULP energy -357017.302605 kJ/mol
# GULP energy per Si atom -5578.395353 kJ/mol
# Density = 1.939879 g / cm^3
# Si number density = 19.443040 Si / 1000 Ang^3
#
#
#
# Elastic Constant Matrix: (Units=GPa)
#
#
# Indices 1 2 3 4 5 6 
#
# 1 166.4120 73.6022 -2.0106 0.0000 0.0000 0.0000
# 2 73.6022 107.1520 -4.7678 0.0000 0.0000 0.0000
# 3 -2.0106 -4.7678 25.8194 0.0000 0.0000 0.0000
# 4 0.0000 0.0000 0.0000 19.1257 0.0000 0.0000
# 5 0.0000 0.0000 0.0000 0.0000 13.1689 0.0000
# 6 0.0000 0.0000 0.0000 0.0000 0.0000 30.6073
#
#
#
# Elastic Compliance Matrix: (Units=1/GPa)
#
#
# Indices 1 2 3 4 5 6 
#
# 1 0.008636 -0.005951 -0.000426 0.000000 0.000000 0.000000
# 2 -0.005951 0.013511 0.002031 0.000000 0.000000 0.000000
# 3 -0.000426 0.002031 0.039073 0.000000 0.000000 0.000000
# 4 0.000000 0.000000 0.000000 0.052286 0.000000 0.000000
# 5 0.000000 0.000000 0.000000 0.000000 0.075936 0.000000
# 6 0.000000 0.000000 0.000000 0.000000 0.000000 0.032672
#
#
# Mechanical properties :
#
#
# Convention : Reuss Voigt Hill
#
# Bulk Modulus (GPa) = 19.03773 48.11454 33.57613
# Shear Modulus (GPa) = 20.13574 28.08435 24.11005
#
# Velocity S-wave (km/s) = 3.22161 3.80471 3.52523
# Velocity P-wave (km/s) = 4.86324 6.64087 5.82032
#
# Compressibility (1/GPa) = 0.05252728
#
# Stress axis : x y z
#
# Youngs Moduli (GPa) = 115.79259 74.01537 25.59344
#
# Poissons Ratio (x) = 0.44047 0.01091
# Poissons Ratio (y) = 0.68909 -0.05199
# Poissons Ratio (z) = 0.04938 -0.15036
#
# Static dielectric constant tensor:
#      x y z
#    x 1.728570 0.000000 0.000000 
#    y 0.000000 1.635040 0.000000 
#    z 0.000000 0.000000 1.722410 
# 
# From -- ./inp_files/8999.got.cif
#   From: 2010.05.17/outbox.cif.g08.bks.cpg/sg55_5_cif.got.tgz:8999.got - 2010.06.03 13:27:54.
