data_PCOD9425489
_publ_section_title
;
Structure prediction by ZEFSAII (Michael W. Deem and Ramdas Pophale) SiO2 
 PCOD9425489
Probable space group: P B A M
;
_chemical_formula_sum "Si O2"
_cell_formula_units_Z 52
_cell_length_a 5.110449
_cell_length_b 15.515758
_cell_length_c 35.580564
_cell_angle_alpha 90.000000
_cell_angle_beta 90.000000
_cell_angle_gamma 90.000000
_cell_volume 2821.271514
_symmetry_space_group_name_H-M "P B A M"
_symmetry_group_IT_number 55
_symmetry_cell_setting 'orthorhombic'
loop_
_space_group_symop_operation_xyz
x,y,z
-x,-y,z
1/2+x,1/2-y,-z
1/2-x,1/2+y,-z
-x,-y,-z
x,y,-z
1/2-x,1/2+y,z
1/2+x,1/2-y,z
loop_
_atom_site_type_symbol
_atom_site_label
_atom_site_fract_x
_atom_site_fract_y
_atom_site_fract_z
Si Si1 0.169834 0.690022 0.500000
Si Si2 0.818158 0.308752 0.120470
Si Si3 0.792118 0.810015 0.040704
Si Si4 0.251420 0.561281 0.188306
Si Si5 0.211527 0.190725 0.579097
Si Si6 0.321589 0.191652 0.659554
Si Si7 0.251417 0.561238 0.272856
O O1 0.379486 0.769708 0.500000
O O2 0.227762 0.644061 0.460338
O O3 0.608793 0.230528 0.121341
O O4 0.764663 0.355618 0.080316
O O5 0.767635 0.368388 0.155980
O O6 0.580450 0.731758 0.041328
O O7 0.757880 0.854397 0.000000
O O8 0.500000 0.500000 0.182928
O O9 0.266453 0.599301 0.230584
O O10 0.000000 0.500000 0.186621
O O11 0.418710 0.271009 0.578869
O O12 0.268931 0.146888 0.619044
O O13 0.613374 0.229848 0.660624
O O14 0.268310 0.131411 0.694769
O O15 0.500000 0.500000 0.278232
O O16 0.000000 0.500000 0.274459
#
# Coordination Sequence:
#
# PCOD9425489 Si02
#       7
#     4   8   8   8   8   8   8
#     4   8  12  20  34  54  84 116 140 170 218 272
#     4  10  19  31  51  76  96 120 160 200 230 269
#     4   8  14  25  42  66  94 120 148 186 228 268
#     4  10  21  36  51  68  96 129 156 189 237 286
#     4   8  14  23  37  60  88 114 142 180 226 267
#     4  10  19  31  49  73  96 118 152 200 239 265
#     4  10  21  36  51  68  93 128 161 186 229 292
#
# _framework density 18.431405999999999
#
# number of rings (size 3 to 8) (size 9 to 14) (size 15 to 20)
#    0.000    2.769    0.000    1.846    0.000    1.231 
#    0.000    0.000    0.000    0.923    0.000    1.077 
#    0.000    0.000    0.000    0.000    0.000    0.000 
#
# Total GULP energy -289499.091355 kJ/mol
# GULP energy per Si atom -5567.290218 kJ/mol
# Density = 1.838946 g / cm^3
# Si number density = 18.431406 Si / 1000 Ang^3
#
#
#
# Elastic Constant Matrix: (Units=GPa)
#
#
# Indices 1 2 3 4 5 6 
#
# 1 97.3684 -1.5949 -9.7830 0.0000 0.0000 0.0000
# 2 -1.5949 10.2829 39.0940 0.0000 0.0000 0.0000
# 3 -9.7830 39.0940 185.1274 0.0000 0.0000 0.0000
# 4 0.0000 0.0000 0.0000 -16.4946 0.0000 0.0000
# 5 0.0000 0.0000 0.0000 0.0000 26.7529 0.0000
# 6 0.0000 0.0000 0.0000 0.0000 0.0000 6.9947
#
#
#
# Elastic Compliance Matrix: (Units=1/GPa)
#
#
# Indices 1 2 3 4 5 6 
#
# 1 0.010337 -0.002402 0.001053 0.000000 0.000000 0.000000
# 2 -0.002402 0.493831 -0.104411 0.000000 0.000000 0.000000
# 3 0.001053 -0.104411 0.027506 0.000000 0.000000 0.000000
# 4 0.000000 0.000000 0.000000 -0.060626 0.000000 0.000000
# 5 0.000000 0.000000 0.000000 0.000000 0.037379 0.000000
# 6 0.000000 0.000000 0.000000 0.000000 0.000000 0.142965
#
#
# Mechanical properties :
#
#
# Convention : Reuss Voigt Hill
#
# Bulk Modulus (GPa) = 3.12348 38.69010 20.90679
# Shear Modulus (GPa) = 5.15661 21.12143 13.13902
#
# Velocity S-wave (km/s) = 1.67446 3.38886 2.67284
# Velocity P-wave (km/s) = 2.33168 6.02905 4.57090
#
# Compressibility (1/GPa) = 0.32015572
#
# Stress axis : x y z
#
# Youngs Moduli (GPa) = 96.74196 2.02498 36.35547
#
# Poissons Ratio (x) = 0.00486 -0.03830
# Poissons Ratio (y) = 0.23235 3.79591
# Poissons Ratio (z) = -0.10191 0.21143
#
# Static dielectric constant tensor:
#      x y z
#    x 1.621630 0.000000 0.000000 
#    y 0.000000 1.569670 0.000000 
#    z 0.000000 0.000000 1.737960 
# 
# From -- ./inp_files/24064.got.cif
#   From: 2010.05.17/outbox.cif.g08.bks.cpg/sg55_13_cif.got.tgz:24064.got - 2010.06.03 13:27:54.
