data_PCOD9425589
_publ_section_title
;
Structure prediction by ZEFSAII (Michael W. Deem and Ramdas Pophale) SiO2 
 PCOD9425589
Probable space group: P B A M
;
_chemical_formula_sum "Si O2"
_cell_formula_units_Z 56
_cell_length_a 19.756937
_cell_length_b 19.781494
_cell_length_c 8.758881
_cell_angle_alpha 90.000000
_cell_angle_beta 90.000000
_cell_angle_gamma 90.000000
_cell_volume 3423.161032
_symmetry_space_group_name_H-M "P B A M"
_symmetry_group_IT_number 55
_symmetry_cell_setting 'orthorhombic'
loop_
_space_group_symop_operation_xyz
x,y,z
-x,-y,z
1/2+x,1/2-y,-z
1/2-x,1/2+y,-z
-x,-y,-z
x,y,-z
1/2-x,1/2+y,z
1/2+x,1/2-y,z
loop_
_atom_site_type_symbol
_atom_site_label
_atom_site_fract_x
_atom_site_fract_y
_atom_site_fract_z
Si Si1 0.738221 0.343398 0.317156
Si Si2 0.264346 0.870118 0.816044
Si Si3 0.946176 0.442003 0.815788
Si Si4 0.022283 0.705677 0.316830
Si Si5 0.708740 0.977507 0.184204
Si Si6 0.629870 0.234938 0.683727
Si Si7 0.844878 0.237759 0.817064
O O1 0.744725 0.342675 0.500000
O O2 0.745943 0.418685 0.255433
O O3 0.669433 0.303756 0.274383
O O4 0.798882 0.299146 0.245412
O O5 0.326189 0.826400 0.750742
O O6 0.195675 0.830339 0.773842
O O7 0.269361 0.947597 0.766538
O O8 0.269261 0.868813 0.000000
O O9 0.964359 0.370275 0.742414
O O10 0.869841 0.463862 0.774166
O O11 0.000000 0.500000 0.772489
O O12 0.948635 0.434740 0.000000
O O13 0.025372 0.705781 0.500000
O O14 0.081163 0.753141 0.251600
O O15 0.947698 0.729510 0.267164
O O16 0.713006 0.973784 0.000000
O O17 0.631588 0.229873 0.500000
O O18 0.847903 0.242351 0.000000
#
# Coordination Sequence:
#
# PCOD9425589 Si02
#       7
#     8   8   8   8   8   8   8
#     4  10  19  33  52  73  98 131 170 208 251 299
#     4   9  19  34  53  75 100 132 168 207 251 300
#     4  10  20  32  48  72 105 139 166 196 244 305
#     4  11  21  33  50  73 102 135 169 208 252 297
#     4  10  19  32  50  74 103 132 165 205 250 299
#     4   9  20  35  50  72 102 133 168 210 249 296
#     4  10  19  33  52  74  99 130 171 211 248 298
#
# _framework density 16.359148999999999
#
# number of rings (size 3 to 8) (size 9 to 14) (size 15 to 20)
#    0.000    2.143    1.429    2.143    0.000    4.286 
#    0.000    0.000    0.000    0.857    0.000    6.000 
#    0.000    0.000    0.000    0.000    0.000    0.000 
#
# Total GULP energy -312481.548315 kJ/mol
# GULP energy per Si atom -5580.027648 kJ/mol
# Density = 1.632191 g / cm^3
# Si number density = 16.359149 Si / 1000 Ang^3
#
#
#
# Elastic Constant Matrix: (Units=GPa)
#
#
# Indices 1 2 3 4 5 6 
#
# 1 139.4203 104.1073 37.0544 0.0000 0.0000 0.0000
# 2 104.1073 144.0142 36.9854 0.0000 0.0000 0.0000
# 3 37.0544 36.9854 22.2285 0.0000 0.0000 0.0000
# 4 0.0000 0.0000 0.0000 16.0021 0.0000 0.0000
# 5 0.0000 0.0000 0.0000 0.0000 21.5479 0.0000
# 6 0.0000 0.0000 0.0000 0.0000 0.0000 20.8112
#
#
#
# Elastic Compliance Matrix: (Units=1/GPa)
#
#
# Indices 1 2 3 4 5 6 
#
# 1 0.017922 -0.009225 -0.014526 0.000000 0.000000 0.000000
# 2 -0.009225 0.016873 -0.012697 0.000000 0.000000 0.000000
# 3 -0.014526 -0.012697 0.090328 0.000000 0.000000 0.000000
# 4 0.000000 0.000000 0.000000 0.062492 0.000000 0.000000
# 5 0.000000 0.000000 0.000000 0.000000 0.046408 0.000000
# 6 0.000000 0.000000 0.000000 0.000000 0.000000 0.048051
#
#
# Mechanical properties :
#
#
# Convention : Reuss Voigt Hill
#
# Bulk Modulus (GPa) = 19.14724 73.55078 46.34901
# Shear Modulus (GPa) = 13.42722 20.17331 16.80027
#
# Velocity S-wave (km/s) = 2.86803 3.51544 3.20811
# Velocity P-wave (km/s) = 4.76415 7.84445 6.48970
#
# Compressibility (1/GPa) = 0.05222686
#
# Stress axis : x y z
#
# Youngs Moduli (GPa) = 55.79883 59.26519 11.07082
#
# Poissons Ratio (x) = 0.54672 0.16081
# Poissons Ratio (y) = 0.51474 0.14057
# Poissons Ratio (z) = 0.81051 0.75250
#
# Static dielectric constant tensor:
#      x y z
#    x 1.545330 0.000000 0.000000 
#    y 0.000000 1.535850 0.000000 
#    z 0.000000 0.000000 1.550670 
# 
# From -- ./inp_files/7821.got.cif
#   From: 2010.05.17/outbox.cif.g08.bks.cpg/sg55_4_cif.got.tgz:7821.got - 2010.06.03 13:27:54.
