data_PCOD9425475
_publ_section_title
;
Structure prediction by ZEFSAII (Michael W. Deem and Ramdas Pophale) SiO2 
 PCOD9425475
Probable space group: P B A M
;
_chemical_formula_sum "Si O2"
_cell_formula_units_Z 64
_cell_length_a 22.276768
_cell_length_b 18.968106
_cell_length_c 8.928825
_cell_angle_alpha 90.000000
_cell_angle_beta 90.000000
_cell_angle_gamma 90.000000
_cell_volume 3772.858010
_symmetry_space_group_name_H-M "P B A M"
_symmetry_group_IT_number 55
_symmetry_cell_setting 'orthorhombic'
loop_
_space_group_symop_operation_xyz
x,y,z
-x,-y,z
1/2+x,1/2-y,-z
1/2-x,1/2+y,-z
-x,-y,-z
x,y,-z
1/2-x,1/2+y,z
1/2+x,1/2-y,z
loop_
_atom_site_type_symbol
_atom_site_label
_atom_site_fract_x
_atom_site_fract_y
_atom_site_fract_z
Si Si1 0.933342 0.026089 0.680528
Si Si2 0.092503 0.678964 0.320427
Si Si3 0.892341 0.173362 0.176275
Si Si4 0.810407 0.965512 0.676620
Si Si5 0.769881 0.108517 0.175802
Si Si6 0.983513 0.578761 0.319950
Si Si7 0.357970 0.926659 0.823116
Si Si8 0.806784 0.416698 0.178816
O O1 0.929786 0.035897 0.500000
O O2 0.918548 0.100248 0.759559
O O3 0.880831 0.969517 0.720153
O O4 0.000000 0.000000 0.718074
O O5 0.096202 0.677287 0.500000
O O6 0.085825 0.758241 0.262855
O O7 0.151650 0.642380 0.252445
O O8 0.035093 0.632594 0.271583
O O9 0.819765 0.167953 0.193420
O O10 0.905497 0.178507 0.000000
O O11 0.805782 0.952168 0.500000
O O12 0.761704 0.918007 0.762124
O O13 0.789254 0.044813 0.717288
O O14 0.700140 0.122336 0.204783
O O15 0.773474 0.084285 0.000000
O O16 0.983137 0.578003 0.500000
O O17 0.917189 0.595092 0.263060
O O18 0.000000 0.500000 0.266793
O O19 0.336594 0.006581 0.783472
O O20 0.370624 0.926491 0.000000
O O21 0.807015 0.409958 0.000000
#
# Coordination Sequence:
#
# PCOD9425475 Si02
#       8
#     8   8   8   8   8   8   8   8
#     4   9  18  34  57  83 109 138 174 218 266 316
#     4  11  22  35  52  73 103 140 179 221 266 318
#     4  10  20  35  55  78 106 136 174 218 267 323
#     4   9  16  27  48  77 103 128 162 205 252 301
#     4   8  16  31  49  72  99 127 159 204 254 299
#     4  10  20  33  48  72 105 139 176 217 258 302
#     4   9  17  29  49  74  99 128 166 209 250 299
#     4  10  19  31  48  73 103 134 169 211 261 306
#
# _framework density 16.963266999999998
#
# number of rings (size 3 to 8) (size 9 to 14) (size 15 to 20)
#    0.000    2.500    1.250    2.250    0.000    4.500 
#    0.000    0.000    2.750    0.000    0.000    0.000 
#    0.000    0.000    0.000    0.000    0.000    0.000 
#
# Total GULP energy -356539.444911 kJ/mol
# GULP energy per Si atom -5570.928827 kJ/mol
# Density = 1.692466 g / cm^3
# Si number density = 16.963267 Si / 1000 Ang^3
#
#
#
# Elastic Constant Matrix: (Units=GPa)
#
#
# Indices 1 2 3 4 5 6 
#
# 1 144.3197 44.7064 41.1919 0.0000 0.0000 0.0000
# 2 44.7064 61.3862 27.5414 0.0000 0.0000 0.0000
# 3 41.1919 27.5414 38.9540 0.0000 0.0000 0.0000
# 4 0.0000 0.0000 0.0000 19.8516 0.0000 0.0000
# 5 0.0000 0.0000 0.0000 0.0000 27.0252 0.0000
# 6 0.0000 0.0000 0.0000 0.0000 0.0000 18.6491
#
#
#
# Elastic Compliance Matrix: (Units=1/GPa)
#
#
# Indices 1 2 3 4 5 6 
#
# 1 0.010530 -0.003915 -0.008367 0.000000 0.000000 0.000000
# 2 -0.003915 0.025314 -0.013758 0.000000 0.000000 0.000000
# 3 -0.008367 -0.013758 0.044246 0.000000 0.000000 0.000000
# 4 0.000000 0.000000 0.000000 0.050374 0.000000 0.000000
# 5 0.000000 0.000000 0.000000 0.000000 0.037003 0.000000
# 6 0.000000 0.000000 0.000000 0.000000 0.000000 0.053622
#
#
# Mechanical properties :
#
#
# Convention : Reuss Voigt Hill
#
# Bulk Modulus (GPa) = 35.70067 52.39325 44.04696
# Shear Modulus (GPa) = 17.69884 21.85319 19.77601
#
# Velocity S-wave (km/s) = 3.23362 3.59314 3.41811
# Velocity P-wave (km/s) = 5.91889 6.94028 6.44984
#
# Compressibility (1/GPa) = 0.02801068
#
# Stress axis : x y z
#
# Youngs Moduli (GPa) = 94.96806 39.50383 22.60084
#
# Poissons Ratio (x) = 0.15465 0.18910
# Poissons Ratio (y) = 0.37178 0.31094
# Poissons Ratio (z) = 0.79459 0.54349
#
# Static dielectric constant tensor:
#      x y z
#    x 1.604470 0.000000 0.000000 
#    y 0.000000 1.555930 0.000000 
#    z 0.000000 0.000000 1.570060 
# 
# From -- ./inp_files/9882.got.cif
#   From: 2010.05.17/outbox.cif.g08.bks.cpg/sg55_5_cif.got.tgz:9882.got - 2010.06.03 13:27:54.
