data_PCOD9425159
_publ_section_title
;
Structure prediction by ZEFSAII (Michael W. Deem and Ramdas Pophale) SiO2 
 PCOD9425159
Probable space group: P B A M
;
_chemical_formula_sum "Si O2"
_cell_formula_units_Z 40
_cell_length_a 16.101598
_cell_length_b 7.943124
_cell_length_c 13.753359
_cell_angle_alpha 90.000000
_cell_angle_beta 90.000000
_cell_angle_gamma 90.000000
_cell_volume 1759.013212
_symmetry_space_group_name_H-M "P B A M"
_symmetry_group_IT_number 55
_symmetry_cell_setting 'orthorhombic'
loop_
_space_group_symop_operation_xyz
x,y,z
-x,-y,z
1/2+x,1/2-y,-z
1/2-x,1/2+y,-z
-x,-y,-z
x,y,-z
1/2-x,1/2+y,z
1/2+x,1/2-y,z
loop_
_atom_site_type_symbol
_atom_site_label
_atom_site_fract_x
_atom_site_fract_y
_atom_site_fract_z
Si Si1 0.620735 0.328175 0.500000
Si Si2 0.878987 0.900087 0.297928
Si Si3 0.305546 0.047543 0.500000
Si Si4 0.953146 0.769356 0.105601
Si Si5 0.202596 0.733846 0.698965
Si Si6 0.131164 0.595339 0.105865
O O1 0.574442 0.365958 0.600571
O O2 0.704079 0.447219 0.500000
O O3 0.655425 0.137298 0.500000
O O4 0.929223 0.872305 0.200151
O O5 0.802407 0.767669 0.303492
O O6 0.837350 0.082951 0.296966
O O7 0.327804 0.142361 0.399712
O O8 0.900145 0.596626 0.108768
O O9 0.048355 0.709690 0.108816
O O10 0.936566 0.850459 0.000000
O O11 0.181683 0.638009 0.798538
O O12 0.172589 0.623631 0.000000
#
# Coordination Sequence:
#
# PCOD9425159 Si02
#       6
#     4   8   4   8   8   8
#     4  10  18  32  53  76 105 138 173 213 261 313
#     4  11  21  34  54  80 109 139 175 217 260 309
#     4  10  18  32  53  76 105 138 173 213 261 313
#     4   9  19  37  58  78 104 139 176 215 263 316
#     4  11  21  34  54  80 109 139 175 217 260 309
#     4   9  19  37  58  78 104 139 176 215 263 316
#
# _framework density 22.740022
#
# number of rings (size 3 to 8) (size 9 to 14) (size 15 to 20)
#    0.000    2.000    0.000    9.000    0.000    2.400 
#    0.000    3.000    0.000    6.000    0.000    0.000 
#    0.000    0.000    0.000    0.000    0.000    0.000 
#
# Total GULP energy -223655.046335 kJ/mol
# GULP energy per Si atom -5591.376158 kJ/mol
# Density = 2.268826 g / cm^3
# Si number density = 22.740022 Si / 1000 Ang^3
#
#
#
# Elastic Constant Matrix: (Units=GPa)
#
#
# Indices 1 2 3 4 5 6 
#
# 1 18.5573 21.0562 46.8865 0.0000 0.0000 0.0000
# 2 21.0562 98.0250 59.8240 0.0000 0.0000 0.0000
# 3 46.8865 59.8240 270.9934 0.0000 0.0000 0.0000
# 4 0.0000 0.0000 0.0000 -13.1660 0.0000 0.0000
# 5 0.0000 0.0000 0.0000 0.0000 78.0581 0.0000
# 6 0.0000 0.0000 0.0000 0.0000 0.0000 27.4153
#
#
#
# Elastic Compliance Matrix: (Units=1/GPa)
#
#
# Indices 1 2 3 4 5 6 
#
# 1 0.109964 -0.013879 -0.015962 0.000000 0.000000 0.000000
# 2 -0.013879 0.013542 -0.000588 0.000000 0.000000 0.000000
# 3 -0.015962 -0.000588 0.006582 0.000000 0.000000 0.000000
# 4 0.000000 0.000000 0.000000 -0.075953 0.000000 0.000000
# 5 0.000000 0.000000 0.000000 0.000000 0.012811 0.000000
# 6 0.000000 0.000000 0.000000 0.000000 0.000000 0.036476
#
#
# Mechanical properties :
#
#
# Convention : Reuss Voigt Hill
#
# Bulk Modulus (GPa) = 14.44479 71.45656 42.95067
# Shear Modulus (GPa) = 26.68713 35.78207 31.23460
#
# Velocity S-wave (km/s) = 3.42946 3.97108 3.71017
# Velocity P-wave (km/s) = 4.69548 7.24689 6.10594
#
# Compressibility (1/GPa) = 0.06922911
#
# Stress axis : x y z
#
# Youngs Moduli (GPa) = 9.09387 73.84584 151.93899
#
# Poissons Ratio (x) = 1.02494 2.42520
# Poissons Ratio (y) = 0.12622 0.08935
# Poissons Ratio (z) = 0.14515 0.04343
#
# Static dielectric constant tensor:
#      x y z
#    x 1.824840 0.000000 0.000000 
#    y 0.000000 1.845770 0.000000 
#    z 0.000000 0.000000 1.904320 
# 
# From -- ./inp_files/15227.got.cif
#   From: 2010.05.17/outbox.cif.g08.bks.cpg/sg55_8_cif.got.tgz:15227.got - 2010.06.03 13:27:54.
