data_PCOD9425017
_publ_section_title
;
Structure prediction by ZEFSAII (Michael W. Deem and Ramdas Pophale) SiO2 
 PCOD9425017
Probable space group: P B A M
;
_chemical_formula_sum "Si O2"
_cell_formula_units_Z 64
_cell_length_a 14.519491
_cell_length_b 24.376642
_cell_length_c 7.588317
_cell_angle_alpha 90.000000
_cell_angle_beta 90.000000
_cell_angle_gamma 90.000000
_cell_volume 2685.781860
_symmetry_space_group_name_H-M "P B A M"
_symmetry_group_IT_number 55
_symmetry_cell_setting 'orthorhombic'
loop_
_space_group_symop_operation_xyz
x,y,z
-x,-y,z
1/2+x,1/2-y,-z
1/2-x,1/2+y,-z
-x,-y,-z
x,y,-z
1/2-x,1/2+y,z
1/2+x,1/2-y,z
loop_
_atom_site_type_symbol
_atom_site_label
_atom_site_fract_x
_atom_site_fract_y
_atom_site_fract_z
Si Si1 0.569020 0.325936 0.282941
Si Si2 0.964278 0.439812 0.696222
Si Si3 0.266965 0.177470 0.701043
Si Si4 0.995634 0.060952 0.298774
Si Si5 0.792275 0.067259 0.791785
Si Si6 0.120593 0.359533 0.287768
Si Si7 0.735011 0.945521 0.196742
Si Si8 0.464637 0.223280 0.714487
O O1 0.571051 0.326861 0.500000
O O2 0.668821 0.303421 0.221768
O O3 0.550469 0.387925 0.220341
O O4 0.484759 0.285920 0.234131
O O5 0.940170 0.416614 0.500000
O O6 0.875039 0.443702 0.811191
O O7 0.000000 0.500000 0.672347
O O8 0.048840 0.406345 0.768411
O O9 0.269029 0.197408 0.500000
O O10 0.250236 0.111633 0.702874
O O11 0.367297 0.195961 0.775555
O O12 0.030107 0.054567 0.500000
O O13 0.889351 0.078356 0.297827
O O14 0.000000 0.000000 0.217106
O O15 0.719158 0.116381 0.767076
O O16 0.760342 0.005824 0.728994
O O17 0.807229 0.061936 0.000000
O O18 0.126264 0.356629 0.500000
O O19 0.059520 0.307446 0.230544
O O20 0.773865 0.941031 0.000000
O O21 0.462812 0.220023 0.500000
#
# Coordination Sequence:
#
# PCOD9425017 Si02
#       8
#     8   8   8   8   8   8   8   8
#     4   9  19  35  59  89 115 142 184 238 288 332
#     4  10  18  30  50  77 110 147 187 230 278 327
#     4  10  19  35  59  83 111 148 190 236 282 336
#     4  10  21  39  62  88 113 143 189 242 291 343
#     4  11  24  37  53  82 118 157 193 231 286 343
#     4  10  19  33  54  83 115 148 187 230 277 332
#     4  11  22  33  50  79 114 151 192 233 278 333
#     4   9  18  33  56  88 117 145 186 233 285 336
#
# _framework density 23.829189
#
# number of rings (size 3 to 8) (size 9 to 14) (size 15 to 20)
#    0.000    2.000    2.500    1.500    0.000    4.500 
#    0.000    4.375    0.000    4.500    0.000    0.000 
#    0.000    0.000    0.000    0.000    0.000    0.000 
#
# Total GULP energy -356638.589397 kJ/mol
# GULP energy per Si atom -5572.477959 kJ/mol
# Density = 2.377495 g / cm^3
# Si number density = 23.829189 Si / 1000 Ang^3
#
#
#
# Elastic Constant Matrix: (Units=GPa)
#
#
# Indices 1 2 3 4 5 6 
#
# 1 159.0473 53.5279 5.5548 0.0000 0.0000 0.0000
# 2 53.5279 119.9879 3.3533 0.0000 0.0000 0.0000
# 3 5.5548 3.3533 56.7400 0.0000 0.0000 0.0000
# 4 0.0000 0.0000 0.0000 -2.2361 0.0000 0.0000
# 5 0.0000 0.0000 0.0000 0.0000 -18.4649 0.0000
# 6 0.0000 0.0000 0.0000 0.0000 0.0000 28.5746
#
#
#
# Elastic Compliance Matrix: (Units=1/GPa)
#
#
# Indices 1 2 3 4 5 6 
#
# 1 0.007414 -0.003293 -0.000531 0.000000 0.000000 0.000000
# 2 -0.003293 0.009810 -0.000257 0.000000 0.000000 0.000000
# 3 -0.000531 -0.000257 0.017691 0.000000 0.000000 0.000000
# 4 0.000000 0.000000 0.000000 -0.447216 0.000000 0.000000
# 5 0.000000 0.000000 0.000000 0.000000 -0.054157 0.000000
# 6 0.000000 0.000000 0.000000 0.000000 0.000000 0.034996
#
#
# Mechanical properties :
#
#
# Convention : Reuss Voigt Hill
#
# Bulk Modulus (GPa) = 37.37871 51.18299 44.28085
# Shear Modulus (GPa) = -12.06620 19.79736 3.86558
#
# Velocity S-wave (km/s) = -2.25269 2.88549 1.27504
# Velocity P-wave (km/s) = 2.99232 5.71202 4.55967
#
# Compressibility (1/GPa) = 0.02675320
#
# Stress axis : x y z
#
# Youngs Moduli (GPa) = 134.87711 101.93395 56.52439
#
# Poissons Ratio (x) = 0.33564 0.03003
# Poissons Ratio (y) = 0.44411 0.01455
# Poissons Ratio (z) = 0.07165 0.02624
#
# Static dielectric constant tensor:
#      x y z
#    x 1.899750 0.000000 0.000000 
#    y 0.000000 1.915940 0.000000 
#    z 0.000000 0.000000 2.894450 
# 
# From -- ./inp_files/6664.got.cif
#   From: 2010.05.17/outbox.cif.g08.bks.cpg/sg55_4_cif.got.tgz:6664.got - 2010.06.03 13:27:54.
