data_PCOD9425274
_publ_section_title
;
Structure prediction by ZEFSAII (Michael W. Deem and Ramdas Pophale) SiO2 
 PCOD9425274
Probable space group: P B A M
;
_chemical_formula_sum "Si O2"
_cell_formula_units_Z 64
_cell_length_a 25.335200
_cell_length_b 14.541243
_cell_length_c 8.726451
_cell_angle_alpha 90.000000
_cell_angle_beta 90.000000
_cell_angle_gamma 90.000000
_cell_volume 3214.870796
_symmetry_space_group_name_H-M "P B A M"
_symmetry_group_IT_number 55
_symmetry_cell_setting 'orthorhombic'
loop_
_space_group_symop_operation_xyz
x,y,z
-x,-y,z
1/2+x,1/2-y,-z
1/2-x,1/2+y,-z
-x,-y,-z
x,y,-z
1/2-x,1/2+y,z
1/2+x,1/2-y,z
loop_
_atom_site_type_symbol
_atom_site_label
_atom_site_fract_x
_atom_site_fract_y
_atom_site_fract_z
Si Si1 0.441581 0.976418 0.677334
Si Si2 0.198517 0.286084 0.315924
Si Si3 0.441203 0.464227 0.315190
Si Si4 0.394945 0.649799 0.313193
Si Si5 0.483905 0.779902 0.676000
Si Si6 0.329732 0.985479 0.182477
Si Si7 0.200063 0.685365 0.814278
Si Si8 0.587172 0.734539 0.182263
O O1 0.438109 0.009646 0.500000
O O2 0.444450 0.865752 0.674381
O O3 0.390570 0.004215 0.770890
O O4 0.500000 0.000000 0.736303
O O5 0.197520 0.288381 0.500000
O O6 0.153445 0.213318 0.262693
O O7 0.187934 0.389375 0.256818
O O8 0.253515 0.245405 0.256755
O O9 0.500000 0.500000 0.272473
O O10 0.441203 0.456427 0.500000
O O11 0.399080 0.543298 0.269875
O O12 0.425726 0.366551 0.246317
O O13 0.395664 0.653538 0.500000
O O14 0.449609 0.696415 0.260427
O O15 0.498578 0.760173 0.500000
O O16 0.537873 0.796209 0.764020
O O17 0.297934 0.077295 0.229799
O O18 0.326119 0.976387 0.000000
O O19 0.143302 0.726068 0.765348
O O20 0.202911 0.689732 0.000000
O O21 0.588150 0.731464 0.000000
#
# Coordination Sequence:
#
# PCOD9425274 Si02
#       8
#     8   8   8   8   8   8   8   8
#     4  10  20  34  57  90 124 158 203 258 306 355
#     4  11  23  42  68  94 121 155 208 266 306 355
#     4  10  19  35  59  84 118 163 200 238 301 370
#     4   9  18  35  58  85 117 151 192 245 299 355
#     4  10  18  34  57  82 119 158 192 240 302 362
#     4  11  23  41  65  90 125 167 202 245 308 380
#     4  10  25  46  62  85 125 167 205 250 307 366
#     4  11  23  38  57  86 123 158 202 256 300 355
#
# _framework density 19.907487
#
# number of rings (size 3 to 8) (size 9 to 14) (size 15 to 20)
#    0.000    1.750    2.500    1.875    0.000    4.000 
#    0.000    3.750    0.000    0.000    0.000    0.000 
#    0.000    0.000    0.000    0.000    0.000    0.000 
#
# Total GULP energy -357266.856177 kJ/mol
# GULP energy per Si atom -5582.294628 kJ/mol
# Density = 1.986218 g / cm^3
# Si number density = 19.907487 Si / 1000 Ang^3
#
#
#
# Elastic Constant Matrix: (Units=GPa)
#
#
# Indices 1 2 3 4 5 6 
#
# 1 110.8276 47.8521 27.6938 0.0000 0.0000 0.0000
# 2 47.8521 106.6637 25.8184 0.0000 0.0000 0.0000
# 3 27.6938 25.8184 29.0109 0.0000 0.0000 0.0000
# 4 0.0000 0.0000 0.0000 24.7307 0.0000 0.0000
# 5 0.0000 0.0000 0.0000 0.0000 23.2817 0.0000
# 6 0.0000 0.0000 0.0000 0.0000 0.0000 32.8529
#
#
#
# Elastic Compliance Matrix: (Units=1/GPa)
#
#
# Indices 1 2 3 4 5 6 
#
# 1 0.012828 -0.003557 -0.009080 0.000000 0.000000 0.000000
# 2 -0.003557 0.012936 -0.008117 0.000000 0.000000 0.000000
# 3 -0.009080 -0.008117 0.050361 0.000000 0.000000 0.000000
# 4 0.000000 0.000000 0.000000 0.040436 0.000000 0.000000
# 5 0.000000 0.000000 0.000000 0.000000 0.042952 0.000000
# 6 0.000000 0.000000 0.000000 0.000000 0.000000 0.030439
#
#
# Mechanical properties :
#
#
# Convention : Reuss Voigt Hill
#
# Bulk Modulus (GPa) = 28.88724 49.91454 39.40089
# Shear Modulus (GPa) = 20.57642 25.84893 23.21268
#
# Velocity S-wave (km/s) = 3.21846 3.60731 3.41842
# Velocity P-wave (km/s) = 5.32480 6.51751 5.95111
#
# Compressibility (1/GPa) = 0.03461737
#
# Stress axis : x y z
#
# Youngs Moduli (GPa) = 77.95628 77.30525 19.85671
#
# Poissons Ratio (x) = 0.27498 0.18029
# Poissons Ratio (y) = 0.27729 0.16117
# Poissons Ratio (z) = 0.70782 0.62746
#
# Static dielectric constant tensor:
#      x y z
#    x 1.694790 0.000000 0.000000 
#    y 0.000000 1.742340 0.000000 
#    z 0.000000 0.000000 1.682390 
# 
# From -- ./inp_files/9723.got.cif
#   From: 2010.05.17/outbox.cif.g08.bks.cpg/sg55_5_cif.got.tgz:9723.got - 2010.06.03 13:27:54.
