data_PCOD9425691
_publ_section_title
;
Structure prediction by ZEFSAII (Michael W. Deem and Ramdas Pophale) SiO2 
 PCOD9425691
Probable space group: P B A M
;
_chemical_formula_sum "Si O2"
_cell_formula_units_Z 58
_cell_length_a 26.136425
_cell_length_b 12.587803
_cell_length_c 10.231042
_cell_angle_alpha 90.000000
_cell_angle_beta 90.000000
_cell_angle_gamma 90.000000
_cell_volume 3366.014547
_symmetry_space_group_name_H-M "P B A M"
_symmetry_group_IT_number 55
_symmetry_cell_setting 'orthorhombic'
loop_
_space_group_symop_operation_xyz
x,y,z
-x,-y,z
1/2+x,1/2-y,-z
1/2-x,1/2+y,-z
-x,-y,-z
x,y,-z
1/2-x,1/2+y,z
1/2+x,1/2-y,z
loop_
_atom_site_type_symbol
_atom_site_label
_atom_site_fract_x
_atom_site_fract_y
_atom_site_fract_z
Si Si1 0.952710 0.920306 0.649134
Si Si2 0.000000 0.500000 0.500000
Si Si3 0.096013 0.658646 0.157813
Si Si4 0.701554 0.234134 0.841418
Si Si5 0.888724 0.582696 0.843583
Si Si6 0.513122 0.185023 0.718352
Si Si7 0.684592 0.681632 0.158328
Si Si8 0.358072 0.550726 0.156991
O O1 0.933980 0.937616 0.500000
O O2 0.972379 0.799604 0.661557
O O3 0.908836 0.939051 0.756324
O O4 0.000000 0.000000 0.671572
O O5 0.006168 0.407071 0.387584
O O6 0.107189 0.538399 0.204288
O O7 0.140223 0.738567 0.204041
O O8 0.040200 0.692972 0.204711
O O9 0.096298 0.658116 0.000000
O O10 0.660909 0.146166 0.794049
O O11 0.758997 0.213319 0.793813
O O12 0.678881 0.350038 0.812177
O O13 0.702968 0.226653 0.000000
O O14 0.939659 0.646627 0.807564
O O15 0.884817 0.578004 0.000000
O O16 0.669459 0.560648 0.186972
O O17 0.685735 0.690257 0.000000
O O18 0.369245 0.553865 0.000000
#
# Coordination Sequence:
#
# PCOD9425691 Si02
#       8
#     8   2   8   8   8   8   8   8
#     4  11  24  39  57  81 111 152 188 225 278 336
#     4  12  24  36  52  80 104 144 184 228 272 322
#     4  10  20  32  52  81 112 142 174 223 278 324
#     4   9  18  31  52  81 109 139 178 221 269 324
#     4  10  19  32  53  81 109 140 175 222 278 326
#     4  12  21  37  55  78 110 140 182 225 271 332
#     4   9  19  33  52  83 115 143 179 225 274 326
#     4  10  20  36  57  83 111 146 188 231 276 326
#
# _framework density 17.231058999999998
#
# number of rings (size 3 to 8) (size 9 to 14) (size 15 to 20)
#    0.000    1.793    3.448    1.241    1.931    1.931 
#    0.000    0.000    0.000    0.828    3.586    0.000 
#    0.000    0.000    0.000    0.000    0.000    0.000 
#
# Total GULP energy -322922.285915 kJ/mol
# GULP energy per Si atom -5567.625619 kJ/mol
# Density = 1.719184 g / cm^3
# Si number density = 17.231059 Si / 1000 Ang^3
#
#
#
# Elastic Constant Matrix: (Units=GPa)
#
#
# Indices 1 2 3 4 5 6 
#
# 1 160.3555 73.9546 37.8034 0.0000 0.0000 0.0000
# 2 73.9546 116.1046 34.8901 0.0000 0.0000 0.0000
# 3 37.8034 34.8901 33.9462 0.0000 0.0000 0.0000
# 4 0.0000 0.0000 0.0000 20.7430 0.0000 0.0000
# 5 0.0000 0.0000 0.0000 0.0000 2.4175 0.0000
# 6 0.0000 0.0000 0.0000 0.0000 0.0000 22.9486
#
#
#
# Elastic Compliance Matrix: (Units=1/GPa)
#
#
# Indices 1 2 3 4 5 6 
#
# 1 0.009718 -0.004251 -0.006453 0.000000 0.000000 0.000000
# 2 -0.004251 0.014321 -0.009986 0.000000 0.000000 0.000000
# 3 -0.006453 -0.009986 0.046908 0.000000 0.000000 0.000000
# 4 0.000000 0.000000 0.000000 0.048209 0.000000 0.000000
# 5 0.000000 0.000000 0.000000 0.000000 0.413650 0.000000
# 6 0.000000 0.000000 0.000000 0.000000 0.000000 0.043576
#
#
# Mechanical properties :
#
#
# Convention : Reuss Voigt Hill
#
# Bulk Modulus (GPa) = 33.82031 67.07806 50.44919
# Shear Modulus (GPa) = 7.96664 20.13904 14.05284
#
# Velocity S-wave (km/s) = 2.15255 3.42243 2.85889
# Velocity P-wave (km/s) = 5.08410 7.39124 6.34344
#
# Compressibility (1/GPa) = 0.02956803
#
# Stress axis : x y z
#
# Youngs Moduli (GPa) = 102.90332 69.82626 21.31829
#
# Poissons Ratio (x) = 0.29681 0.13757
# Poissons Ratio (y) = 0.43742 0.21288
# Poissons Ratio (z) = 0.66405 0.69727
#
# Static dielectric constant tensor:
#      x y z
#    x 1.570410 0.000000 0.000000 
#    y 0.000000 1.586330 0.000000 
#    z 0.000000 0.000000 1.562890 
# 
# From -- ./inp_files/4344.got.cif
#   From: 2010.05.17/outbox.cif.g08.bks.cpg/sg55_3_cif.got.tgz:4344.got - 2010.06.03 13:27:54.
