data_PCOD9425826
_publ_section_title
;
Structure prediction by ZEFSAII (Michael W. Deem and Ramdas Pophale) SiO2 
 PCOD9425826
Probable space group: P B A M
;
_chemical_formula_sum "Si O2"
_cell_formula_units_Z 64
_cell_length_a 20.326434
_cell_length_b 20.356410
_cell_length_c 7.564979
_cell_angle_alpha 90.000000
_cell_angle_beta 90.000000
_cell_angle_gamma 90.000000
_cell_volume 3130.185753
_symmetry_space_group_name_H-M "P B A M"
_symmetry_group_IT_number 55
_symmetry_cell_setting 'orthorhombic'
loop_
_space_group_symop_operation_xyz
x,y,z
-x,-y,z
1/2+x,1/2-y,-z
1/2-x,1/2+y,-z
-x,-y,-z
x,y,-z
1/2-x,1/2+y,z
1/2+x,1/2-y,z
loop_
_atom_site_type_symbol
_atom_site_label
_atom_site_fract_x
_atom_site_fract_y
_atom_site_fract_z
Si Si1 0.935173 0.461033 0.217189
Si Si2 0.969189 0.930742 0.216391
Si Si3 0.707321 0.005714 0.205922
Si Si4 0.772421 0.141620 0.291532
Si Si5 0.421441 0.329160 0.786034
Si Si6 0.321948 0.587312 0.790767
Si Si7 0.094880 0.682816 0.793941
Si Si8 0.742767 0.789016 0.712125
O O1 0.866182 0.493855 0.276225
O O2 0.933702 0.385054 0.277918
O O3 0.000000 0.500000 0.274388
O O4 0.936053 0.460969 0.000000
O O5 0.894637 0.924694 0.280628
O O6 0.017606 0.872684 0.274347
O O7 0.968397 0.928748 0.000000
O O8 0.000000 0.000000 0.268253
O O9 0.733564 0.079948 0.215419
O O10 0.764061 0.958800 0.284995
O O11 0.702364 0.986963 0.000000
O O12 0.760348 0.140152 0.500000
O O13 0.851105 0.138945 0.261738
O O14 0.751658 0.213901 0.223739
O O15 0.423712 0.254133 0.717901
O O16 0.422302 0.326796 0.000000
O O17 0.300306 0.662385 0.766892
O O18 0.325627 0.572684 0.000000
O O19 0.174119 0.681191 0.781130
O O20 0.076340 0.684469 0.000000
O O21 0.738370 0.787454 0.500000
#
# Coordination Sequence:
#
# PCOD9425826 Si02
#       8
#     8   8   8   8   8   8   8   8
#     4   9  17  31  51  77 106 131 163 216 270 310
#     4   9  17  30  49  76 108 136 167 211 259 307
#     4  10  19  33  54  79 103 135 173 212 263 313
#     4  10  21  35  52  76 106 139 174 215 257 303
#     4   9  17  31  53  78 101 134 176 214 256 306
#     4  10  19  33  55  80 106 136 173 215 258 309
#     4   9  16  31  54  75  99 130 170 214 256 306
#     4  10  20  34  52  74 102 136 174 212 255 304
#
# _framework density 20.446069999999999
#
# number of rings (size 3 to 8) (size 9 to 14) (size 15 to 20)
#    0.000    2.500    1.250    1.500    0.000    4.000 
#    2.250    0.625    0.000    3.000    0.000    0.000 
#    0.000    0.000    0.000    0.000    0.000    0.000 
#
# Total GULP energy -357162.748025 kJ/mol
# GULP energy per Si atom -5580.667938 kJ/mol
# Density = 2.039953 g / cm^3
# Si number density = 20.446070 Si / 1000 Ang^3
#
#
#
# Elastic Constant Matrix: (Units=GPa)
#
#
# Indices 1 2 3 4 5 6 
#
# 1 176.7345 111.7032 3.0539 0.0000 0.0000 0.0000
# 2 111.7032 137.8100 -4.7536 0.0000 0.0000 0.0000
# 3 3.0539 -4.7536 41.7914 0.0000 0.0000 0.0000
# 4 0.0000 0.0000 0.0000 0.6701 0.0000 0.0000
# 5 0.0000 0.0000 0.0000 0.0000 -40.0674 0.0000
# 6 0.0000 0.0000 0.0000 0.0000 0.0000 28.1647
#
#
#
# Elastic Compliance Matrix: (Units=1/GPa)
#
#
# Indices 1 2 3 4 5 6 
#
# 1 0.011758 -0.009598 -0.001951 0.000000 0.000000 0.000000
# 2 -0.009598 0.015120 0.002421 0.000000 0.000000 0.000000
# 3 -0.001951 0.002421 0.024346 0.000000 0.000000 0.000000
# 4 0.000000 0.000000 0.000000 1.492305 0.000000 0.000000
# 5 0.000000 0.000000 0.000000 0.000000 -0.024958 0.000000
# 6 0.000000 0.000000 0.000000 0.000000 0.000000 0.035505
#
#
# Mechanical properties :
#
#
# Convention : Reuss Voigt Hill
#
# Bulk Modulus (GPa) = 30.33194 64.03809 47.18501
# Shear Modulus (GPa) = 3.15792 14.17566 8.66679
#
# Velocity S-wave (km/s) = 1.24413 2.63595 2.06108
# Velocity P-wave (km/s) = 4.11474 6.37596 5.36581
#
# Compressibility (1/GPa) = 0.03296855
#
# Stress axis : x y z
#
# Youngs Moduli (GPa) = 85.04635 66.13885 41.07398
#
# Poissons Ratio (x) = 0.63481 0.08013
# Poissons Ratio (y) = 0.81628 -0.09945
# Poissons Ratio (z) = 0.16592 -0.16013
#
# Static dielectric constant tensor:
#      x y z
#    x 1.696000 0.000000 0.000000 
#    y 0.000000 1.730970 0.000000 
#    z 0.000000 0.000000 1.749730 
# 
# From -- ./inp_files/7957.got.cif
#   From: 2010.05.17/outbox.cif.g08.bks.cpg/sg55_4_cif.got.tgz:7957.got - 2010.06.03 13:27:54.
