data_PCOD9425237
_publ_section_title
;
Structure prediction by ZEFSAII (Michael W. Deem and Ramdas Pophale) SiO2 
 PCOD9425237
Probable space group: P B A M
;
_chemical_formula_sum "Si O2"
_cell_formula_units_Z 40
_cell_length_a 15.282237
_cell_length_b 9.684922
_cell_length_c 12.658954
_cell_angle_alpha 90.000000
_cell_angle_beta 90.000000
_cell_angle_gamma 90.000000
_cell_volume 1873.617265
_symmetry_space_group_name_H-M "P B A M"
_symmetry_group_IT_number 55
_symmetry_cell_setting 'orthorhombic'
loop_
_space_group_symop_operation_xyz
x,y,z
-x,-y,z
1/2+x,1/2-y,-z
1/2-x,1/2+y,-z
-x,-y,-z
x,y,-z
1/2-x,1/2+y,z
1/2+x,1/2-y,z
loop_
_atom_site_type_symbol
_atom_site_label
_atom_site_fract_x
_atom_site_fract_y
_atom_site_fract_z
Si Si1 0.602974 0.484563 0.381790
Si Si2 0.765045 0.966293 0.790658
Si Si3 0.056289 0.310597 0.336002
Si Si4 0.867142 0.390734 0.383934
Si Si5 0.641724 0.202938 0.119813
O O1 0.500000 0.500000 0.358869
O O2 0.622616 0.534548 0.500000
O O3 0.665761 0.537158 0.289861
O O4 0.611174 0.318051 0.377832
O O5 0.699335 0.884165 0.712462
O O6 0.813775 0.852468 0.861223
O O7 0.711415 0.081892 0.853592
O O8 0.096805 0.451922 0.378575
O O9 0.067277 0.311549 0.209306
O O10 0.955152 0.302009 0.368792
O O11 0.828759 0.365835 0.500000
O O12 0.610990 0.190230 0.000000
#
# Coordination Sequence:
#
# PCOD9425237 Si02
#       5
#     8   8   8   8   8
#     4  10  20  34  53  80 118 152 178 218 276 338
#     4  10  22  36  58  85 111 145 190 230 276 334
#     4   9  19  34  54  80 111 146 185 225 273 333
#     4  10  18  33  57  84 114 144 179 227 278 333
#     4  10  21  40  59  78 111 148 190 238 277 315
#
# _framework density 21.349077999999999
#
# number of rings (size 3 to 8) (size 9 to 14) (size 15 to 20)
#    0.000    2.200    0.000    3.600    2.800    0.000 
#    0.000   11.000    0.000    3.000    0.000    0.000 
#    0.000    0.000    0.000    0.000    0.000    0.000 
#
# Total GULP energy -223480.964752 kJ/mol
# GULP energy per Si atom -5587.024119 kJ/mol
# Density = 2.130049 g / cm^3
# Si number density = 21.349078 Si / 1000 Ang^3
#
#
#
# Elastic Constant Matrix: (Units=GPa)
#
#
# Indices 1 2 3 4 5 6 
#
# 1 37.7397 -3.9092 11.2171 0.0000 0.0000 0.0000
# 2 -3.9092 60.3496 2.8784 0.0000 0.0000 0.0000
# 3 11.2171 2.8784 152.4821 0.0000 0.0000 0.0000
# 4 0.0000 0.0000 0.0000 14.9967 0.0000 0.0000
# 5 0.0000 0.0000 0.0000 0.0000 21.4053 0.0000
# 6 0.0000 0.0000 0.0000 0.0000 0.0000 25.4148
#
#
#
# Elastic Compliance Matrix: (Units=1/GPa)
#
#
# Indices 1 2 3 4 5 6 
#
# 1 0.027298 0.001866 -0.002043 0.000000 0.000000 0.000000
# 2 0.001866 0.016713 -0.000453 0.000000 0.000000 0.000000
# 3 -0.002043 -0.000453 0.006717 0.000000 0.000000 0.000000
# 4 0.000000 0.000000 0.000000 0.066681 0.000000 0.000000
# 5 0.000000 0.000000 0.000000 0.000000 0.046717 0.000000
# 6 0.000000 0.000000 0.000000 0.000000 0.000000 0.039347
#
#
# Mechanical properties :
#
#
# Convention : Reuss Voigt Hill
#
# Bulk Modulus (GPa) = 20.21561 30.10487 25.16024
# Shear Modulus (GPa) = 22.60165 28.38904 25.49535
#
# Velocity S-wave (km/s) = 3.25725 3.65054 3.45949
# Velocity P-wave (km/s) = 4.86168 5.64805 5.26955
#
# Compressibility (1/GPa) = 0.04946672
#
# Stress axis : x y z
#
# Youngs Moduli (GPa) = 36.63293 59.83520 148.87579
#
# Poissons Ratio (x) = -0.11164 0.30420
# Poissons Ratio (y) = -0.06835 0.06740
# Poissons Ratio (z) = 0.07485 0.02709
#
# Static dielectric constant tensor:
#      x y z
#    x 1.762370 0.000000 0.000000 
#    y 0.000000 1.817690 0.000000 
#    z 0.000000 0.000000 1.752420 
# 
# From -- ./inp_files/13002.got.cif
#   From: 2010.05.17/outbox.cif.g08.bks.cpg/sg55_7_cif.got.tgz:13002.got - 2010.06.03 13:27:54.
