data_PCOD9425097
_publ_section_title
;
Structure prediction by ZEFSAII (Michael W. Deem and Ramdas Pophale) SiO2 
 PCOD9425097
Probable space group: P B A M
;
_chemical_formula_sum "Si O2"
_cell_formula_units_Z 56
_cell_length_a 14.600266
_cell_length_b 18.740000
_cell_length_c 8.991386
_cell_angle_alpha 90.000000
_cell_angle_beta 90.000000
_cell_angle_gamma 90.000000
_cell_volume 2460.123996
_symmetry_space_group_name_H-M "P B A M"
_symmetry_group_IT_number 55
_symmetry_cell_setting 'orthorhombic'
loop_
_space_group_symop_operation_xyz
x,y,z
-x,-y,z
1/2+x,1/2-y,-z
1/2-x,1/2+y,-z
-x,-y,-z
x,y,-z
1/2-x,1/2+y,z
1/2+x,1/2-y,z
loop_
_atom_site_type_symbol
_atom_site_label
_atom_site_fract_x
_atom_site_fract_y
_atom_site_fract_z
Si Si1 0.896332 0.651371 0.669156
Si Si2 0.283477 0.578843 0.323011
Si Si3 0.450782 0.638011 0.826779
Si Si4 0.380330 0.425485 0.675199
Si Si5 0.941848 0.289299 0.173376
Si Si6 0.225881 0.794956 0.177490
Si Si7 0.100180 0.512028 0.325511
O O1 0.894622 0.675858 0.500000
O O2 0.999317 0.656628 0.729924
O O3 0.828050 0.699212 0.764151
O O4 0.863174 0.569533 0.673734
O O5 0.279634 0.594610 0.500000
O O6 0.348451 0.633936 0.237812
O O7 0.336765 0.503157 0.305328
O O8 0.180244 0.562913 0.265809
O O9 0.516664 0.585233 0.734211
O O10 0.500201 0.715048 0.817099
O O11 0.449293 0.617705 0.000000
O O12 0.377395 0.408268 0.500000
O O13 0.322730 0.366880 0.765234
O O14 0.840511 0.269102 0.228684
O O15 0.939304 0.310531 0.000000
O O16 0.224995 0.793246 0.000000
O O17 0.086438 0.532419 0.500000
O O18 0.000000 0.500000 0.255171
#
# Coordination Sequence:
#
# PCOD9425097 Si02
#       7
#     8   8   8   8   8   8   8
#     4  11  21  37  63  90 113 147 196 244 286 343
#     4  10  19  33  54  81 113 150 186 232 288 338
#     4  10  21  35  52  80 117 152 187 228 285 354
#     4  10  18  31  53  83 114 144 186 234 282 338
#     4   9  21  40  57  80 116 156 192 236 292 345
#     4  10  20  36  59  83 114 155 192 233 292 353
#     4   9  19  38  60  83 115 149 186 236 293 346
#
# _framework density 22.763079000000001
#
# number of rings (size 3 to 8) (size 9 to 14) (size 15 to 20)
#    0.000    2.143    1.429    3.000    0.000    6.286 
#    2.571    0.000    0.000    3.000    0.000    0.000 
#    0.000    0.000    0.000    0.000    0.000    0.000 
#
# Total GULP energy -312916.498046 kJ/mol
# GULP energy per Si atom -5587.794608 kJ/mol
# Density = 2.271127 g / cm^3
# Si number density = 22.763079 Si / 1000 Ang^3
#
#
#
# Elastic Constant Matrix: (Units=GPa)
#
#
# Indices 1 2 3 4 5 6 
#
# 1 147.2235 2.2135 14.7003 0.0000 0.0000 0.0000
# 2 2.2135 45.3031 10.2352 0.0000 0.0000 0.0000
# 3 14.7003 10.2352 39.6547 0.0000 0.0000 0.0000
# 4 0.0000 0.0000 0.0000 12.2642 0.0000 0.0000
# 5 0.0000 0.0000 0.0000 0.0000 17.2297 0.0000
# 6 0.0000 0.0000 0.0000 0.0000 0.0000 37.1035
#
#
#
# Elastic Compliance Matrix: (Units=1/GPa)
#
#
# Indices 1 2 3 4 5 6 
#
# 1 0.007056 0.000261 -0.002683 0.000000 0.000000 0.000000
# 2 0.000261 0.023450 -0.006150 0.000000 0.000000 0.000000
# 3 -0.002683 -0.006150 0.027800 0.000000 0.000000 0.000000
# 4 0.000000 0.000000 0.000000 0.081538 0.000000 0.000000
# 5 0.000000 0.000000 0.000000 0.000000 0.058039 0.000000
# 6 0.000000 0.000000 0.000000 0.000000 0.000000 0.026952
#
#
# Mechanical properties :
#
#
# Convention : Reuss Voigt Hill
#
# Bulk Modulus (GPa) = 24.29350 31.83103 28.06226
# Shear Modulus (GPa) = 19.55425 26.98831 23.27128
#
# Velocity S-wave (km/s) = 2.93411 3.44702 3.20085
# Velocity P-wave (km/s) = 4.70894 5.46411 5.10052
#
# Compressibility (1/GPa) = 0.04116328
#
# Stress axis : x y z
#
# Youngs Moduli (GPa) = 141.71547 42.64369 35.97165
#
# Poissons Ratio (x) = -0.01115 0.09652
# Poissons Ratio (y) = -0.03705 0.22121
# Poissons Ratio (z) = 0.38027 0.26224
#
# Static dielectric constant tensor:
#      x y z
#    x 1.899950 0.000000 0.000000 
#    y 0.000000 1.885440 0.000000 
#    z 0.000000 0.000000 1.761440 
# 
# From -- ./inp_files/6201.got.cif
#   From: 2010.05.17/outbox.cif.g08.bks.cpg/sg55_4_cif.got.tgz:6201.got - 2010.06.03 13:27:54.
