data_PCOD9425310
_publ_section_title
;
Structure prediction by ZEFSAII (Michael W. Deem and Ramdas Pophale) SiO2 
 PCOD9425310
Probable space group: P B A M
;
_chemical_formula_sum "Si O2"
_cell_formula_units_Z 56
_cell_length_a 8.759971
_cell_length_b 12.164269
_cell_length_c 22.854087
_cell_angle_alpha 90.000000
_cell_angle_beta 90.000000
_cell_angle_gamma 90.000000
_cell_volume 2435.300513
_symmetry_space_group_name_H-M "P B A M"
_symmetry_group_IT_number 55
_symmetry_cell_setting 'orthorhombic'
loop_
_space_group_symop_operation_xyz
x,y,z
-x,-y,z
1/2+x,1/2-y,-z
1/2-x,1/2+y,-z
-x,-y,-z
x,y,-z
1/2-x,1/2+y,z
1/2+x,1/2-y,z
loop_
_atom_site_type_symbol
_atom_site_label
_atom_site_fract_x
_atom_site_fract_y
_atom_site_fract_z
Si Si1 0.246039 0.030202 0.500000
Si Si2 0.822804 0.980138 0.935749
Si Si3 0.883255 0.342537 0.603373
Si Si4 0.564088 0.126440 0.933367
Si Si5 0.605983 0.687030 0.237580
Si Si6 0.148825 0.301790 0.679814
Si Si7 0.855417 0.808796 0.843333
Si Si8 0.560294 0.674971 0.500000
O O1 0.327704 0.063856 0.440345
O O2 0.091648 0.102875 0.500000
O O3 0.205769 0.903754 0.500000
O O4 0.777008 0.893228 0.887220
O O5 0.743471 0.097137 0.931379
O O6 0.786507 0.934183 0.000000
O O7 0.000000 0.000000 0.932063
O O8 0.748038 0.291952 0.645083
O O9 0.930186 0.245965 0.558309
O O10 0.038633 0.368798 0.637508
O O11 0.556575 0.216180 0.882304
O O12 0.500000 0.000000 0.925848
O O13 0.526590 0.163334 0.000000
O O14 0.480277 0.751587 0.276710
O O15 0.723069 0.631525 0.283419
O O16 0.490494 0.630588 0.192641
O O17 0.725767 0.759202 0.199316
#
# Coordination Sequence:
#
# PCOD9425310 Si02
#       8
#     4   8   8   8   8   8   8   4
#     4  10  20  33  56  93 120 143 185 224 270 338
#     4  10  21  35  54  83 112 141 180 224 284 360
#     4  10  18  35  60  82 114 160 175 221 285 326
#     4  10  21  35  54  83 114 144 179 226 289 357
#     4   9  20  33  57  83 100 145 200 233 269 326
#     4   9  18  35  57  79 110 148 196 224 270 330
#     4  11  19  36  59  79 109 146 184 236 293 327
#     4  10  20  33  56  93 120 143 185 226 268 340
#
# _framework density 22.995107999999998
#
# number of rings (size 3 to 8) (size 9 to 14) (size 15 to 20)
#    0.000    2.143    1.429    2.143    0.000    0.000 
#    0.000    7.143    0.000   60.000    0.000    0.000 
#    0.000    0.000    0.000    0.000    0.000    0.000 
#
# Total GULP energy -312158.713745 kJ/mol
# GULP energy per Si atom -5574.262745 kJ/mol
# Density = 2.294277 g / cm^3
# Si number density = 22.995108 Si / 1000 Ang^3
#
#
#
# Elastic Constant Matrix: (Units=GPa)
#
#
# Indices 1 2 3 4 5 6 
#
# 1 117.4668 9.5166 48.9715 0.0000 0.0000 0.0000
# 2 9.5166 38.1058 31.7082 0.0000 0.0000 0.0000
# 3 48.9715 31.7082 126.8667 0.0000 0.0000 0.0000
# 4 0.0000 0.0000 0.0000 13.0682 0.0000 0.0000
# 5 0.0000 0.0000 0.0000 0.0000 22.1388 0.0000
# 6 0.0000 0.0000 0.0000 0.0000 0.0000 18.8908
#
#
#
# Elastic Compliance Matrix: (Units=1/GPa)
#
#
# Indices 1 2 3 4 5 6 
#
# 1 0.010171 0.000918 -0.004155 0.000000 0.000000 0.000000
# 2 0.000918 0.033216 -0.008656 0.000000 0.000000 0.000000
# 3 -0.004155 -0.008656 0.011650 0.000000 0.000000 0.000000
# 4 0.000000 0.000000 0.000000 0.076521 0.000000 0.000000
# 5 0.000000 0.000000 0.000000 0.000000 0.045170 0.000000
# 6 0.000000 0.000000 0.000000 0.000000 0.000000 0.052936
#
#
# Mechanical properties :
#
#
# Convention : Reuss Voigt Hill
#
# Bulk Modulus (GPa) = 32.00061 51.42579 41.71320
# Shear Modulus (GPa) = 18.94884 23.63577 21.29230
#
# Velocity S-wave (km/s) = 2.87372 3.20950 3.04624
# Velocity P-wave (km/s) = 4.99575 6.01223 5.52740
#
# Compressibility (1/GPa) = 0.03124940
#
# Stress axis : x y z
#
# Youngs Moduli (GPa) = 98.31784 30.10564 85.83855
#
# Poissons Ratio (x) = -0.02763 0.35670
# Poissons Ratio (y) = -0.09022 0.74303
# Poissons Ratio (z) = 0.40856 0.26060
#
# Static dielectric constant tensor:
#      x y z
#    x 1.943690 0.000000 0.000000 
#    y 0.000000 1.824480 0.000000 
#    z 0.000000 0.000000 1.928330 
# 
# From -- ./inp_files/22663.got.cif
#   From: 2010.05.17/outbox.cif.g08.bks.cpg/sg55_12_cif.got.tgz:22663.got - 2010.06.03 13:27:54.
