data_PCOD9425368
_publ_section_title
;
Structure prediction by ZEFSAII (Michael W. Deem and Ramdas Pophale) SiO2 
 PCOD9425368
Probable space group: P B A M
;
_chemical_formula_sum "Si O2"
_cell_formula_units_Z 56
_cell_length_a 13.350341
_cell_length_b 18.514390
_cell_length_c 14.329244
_cell_angle_alpha 90.000000
_cell_angle_beta 90.000000
_cell_angle_gamma 90.000000
_cell_volume 3541.808244
_symmetry_space_group_name_H-M "P B A M"
_symmetry_group_IT_number 55
_symmetry_cell_setting 'orthorhombic'
loop_
_space_group_symop_operation_xyz
x,y,z
-x,-y,z
1/2+x,1/2-y,-z
1/2-x,1/2+y,-z
-x,-y,-z
x,y,-z
1/2-x,1/2+y,z
1/2+x,1/2-y,z
loop_
_atom_site_type_symbol
_atom_site_label
_atom_site_fract_x
_atom_site_fract_y
_atom_site_fract_z
Si Si1 0.367940 0.426149 0.604570
Si Si2 0.320848 0.518157 0.111647
Si Si3 0.319882 0.808066 0.111342
Si Si4 0.609939 0.407300 0.604245
Si Si5 0.898255 0.536636 0.886999
Si Si6 0.896955 0.836513 0.205407
Si Si7 0.373011 0.371183 0.799208
O O1 0.333269 0.406441 0.500000
O O2 0.488967 0.416951 0.605370
O O3 0.348335 0.511568 0.619393
O O4 0.332393 0.380900 0.693420
O O5 0.204232 0.504798 0.138486
O O6 0.359108 0.595094 0.145636
O O7 0.380619 0.452375 0.159405
O O8 0.329295 0.511753 0.000000
O O9 0.354485 0.737158 0.164762
O O10 0.206332 0.828516 0.138549
O O11 0.383720 0.879430 0.138511
O O12 0.328063 0.797900 0.000000
O O13 0.638459 0.383431 0.500000
O O14 0.635413 0.354440 0.688481
O O15 0.000000 0.500000 0.851737
O O16 0.901749 0.535081 0.000000
O O17 0.017662 0.836522 0.201599
#
# Coordination Sequence:
#
# PCOD9425368 Si02
#       7
#     8   8   8   8   8   8   8
#     4   8  13  25  48  73  94 119 152 192 242 296
#     4  10  19  29  46  72  95 120 160 200 237 291
#     4  10  22  34  44  67 100 131 167 205 237 282
#     4   8  14  26  46  73  99 120 148 192 244 298
#     4   8  16  33  51  63  85 126 168 200 227 268
#     4  11  20  31  49  72  98 127 157 197 254 296
#     4  10  19  33  48  67  98 128 158 201 247 288
#
# _framework density 15.811133999999999
#
# number of rings (size 3 to 8) (size 9 to 14) (size 15 to 20)
#    0.000    2.714    1.429    3.000    0.000    4.000 
#    0.000    2.143    0.000    0.000    0.000    0.000 
#    0.000   14.857    0.000    0.000    0.000    0.000 
#
# Total GULP energy -311898.251448 kJ/mol
# GULP energy per Si atom -5569.611633 kJ/mol
# Density = 1.577515 g / cm^3
# Si number density = 15.811134 Si / 1000 Ang^3
#
#
#
# Elastic Constant Matrix: (Units=GPa)
#
#
# Indices 1 2 3 4 5 6 
#
# 1 32.5844 34.0783 12.6288 0.0000 0.0000 0.0000
# 2 34.0783 95.6732 40.9329 0.0000 0.0000 0.0000
# 3 12.6288 40.9329 92.6662 0.0000 0.0000 0.0000
# 4 0.0000 0.0000 0.0000 26.1127 0.0000 0.0000
# 5 0.0000 0.0000 0.0000 0.0000 11.6990 0.0000
# 6 0.0000 0.0000 0.0000 0.0000 0.0000 15.9359
#
#
#
# Elastic Compliance Matrix: (Units=1/GPa)
#
#
# Indices 1 2 3 4 5 6 
#
# 1 0.049031 -0.018009 0.001273 0.000000 0.000000 0.000000
# 2 -0.018009 0.019503 -0.006161 0.000000 0.000000 0.000000
# 3 0.001273 -0.006161 0.013339 0.000000 0.000000 0.000000
# 4 0.000000 0.000000 0.000000 0.038296 0.000000 0.000000
# 5 0.000000 0.000000 0.000000 0.000000 0.085478 0.000000
# 6 0.000000 0.000000 0.000000 0.000000 0.000000 0.062751
#
#
# Mechanical properties :
#
#
# Convention : Reuss Voigt Hill
#
# Bulk Modulus (GPa) = 27.71652 44.02264 35.86958
# Shear Modulus (GPa) = 15.32720 19.63511 17.48115
#
# Velocity S-wave (km/s) = 3.11688 3.52782 3.32870
# Velocity P-wave (km/s) = 5.52459 6.67063 6.12447
#
# Compressibility (1/GPa) = 0.03607957
#
# Stress axis : x y z
#
# Youngs Moduli (GPa) = 20.39524 51.27470 74.96717
#
# Poissons Ratio (x) = 0.92342 -0.09544
# Poissons Ratio (y) = 0.36730 0.46184
# Poissons Ratio (z) = -0.02596 0.31588
#
# Static dielectric constant tensor:
#      x y z
#    x 1.528170 0.000000 0.000000 
#    y 0.000000 1.511620 0.000000 
#    z 0.000000 0.000000 1.559310 
# 
# From -- ./inp_files/19021.got.cif
#   From: 2010.05.17/outbox.cif.g08.bks.cpg/sg55_10_cif.got.tgz:19021.got - 2010.06.03 13:27:54.
