data_PCOD9425824
_publ_section_title
;
Structure prediction by ZEFSAII (Michael W. Deem and Ramdas Pophale) SiO2 
 PCOD9425824
Probable space group: P B A M
;
_chemical_formula_sum "Si O2"
_cell_formula_units_Z 48
_cell_length_a 12.730964
_cell_length_b 17.706642
_cell_length_c 10.156988
_cell_angle_alpha 90.000000
_cell_angle_beta 90.000000
_cell_angle_gamma 90.000000
_cell_volume 2289.614865
_symmetry_space_group_name_H-M "P B A M"
_symmetry_group_IT_number 55
_symmetry_cell_setting 'orthorhombic'
loop_
_space_group_symop_operation_xyz
x,y,z
-x,-y,z
1/2+x,1/2-y,-z
1/2-x,1/2+y,-z
-x,-y,-z
x,y,-z
1/2-x,1/2+y,z
1/2+x,1/2-y,z
loop_
_atom_site_type_symbol
_atom_site_label
_atom_site_fract_x
_atom_site_fract_y
_atom_site_fract_z
Si Si1 0.201290 0.460964 0.350774
Si Si2 0.319548 0.305571 0.651739
Si Si3 0.485174 0.232098 0.150366
Si Si4 0.083293 0.053600 0.647083
Si Si5 0.120787 0.581769 0.150526
Si Si6 0.815373 0.812596 0.778336
O O1 0.155810 0.455214 0.500000
O O2 0.249143 0.379091 0.312304
O O3 0.306751 0.511177 0.361072
O O4 0.133144 0.510359 0.247917
O O5 0.354063 0.315079 0.500000
O O6 0.412683 0.283053 0.752667
O O7 0.243575 0.233468 0.665077
O O8 0.467131 0.144063 0.188848
O O9 0.607777 0.254333 0.149324
O O10 0.445431 0.240399 0.000000
O O11 0.044190 0.069651 0.500000
O O12 0.102343 0.129214 0.721210
O O13 0.000000 0.000000 0.715755
O O14 0.226670 0.634919 0.154487
O O15 0.105367 0.556833 0.000000
#
# Coordination Sequence:
#
# PCOD9425824 Si02
#       6
#     8   8   8   8   8   8
#     4   9  18  33  51  73 104 139 176 221 269 317
#     4  10  21  36  56  82 109 141 183 226 270 323
#     4  10  21  36  55  80 110 143 179 222 272 325
#     4   9  16  27  46  73 103 133 165 208 264 318
#     4   9  19  35  54  76 103 138 180 222 267 322
#     4  10  19  33  54  78 108 140 176 220 269 318
#
# _framework density 20.964224000000002
#
# number of rings (size 3 to 8) (size 9 to 14) (size 15 to 20)
#    0.000    2.500    0.000    2.000    0.000    8.000 
#    0.000    0.833    0.000    9.500    0.000    0.000 
#    0.000    0.000    0.000    0.000    0.000    0.000 
#
# Total GULP energy -267301.377120 kJ/mol
# GULP energy per Si atom -5568.778690 kJ/mol
# Density = 2.091651 g / cm^3
# Si number density = 20.964224 Si / 1000 Ang^3
#
#
#
# Elastic Constant Matrix: (Units=GPa)
#
#
# Indices 1 2 3 4 5 6 
#
# 1 42.0257 7.4269 3.5430 0.0000 0.0000 0.0000
# 2 7.4269 75.4894 28.9154 0.0000 0.0000 0.0000
# 3 3.5430 28.9154 68.5848 0.0000 0.0000 0.0000
# 4 0.0000 0.0000 0.0000 28.5047 0.0000 0.0000
# 5 0.0000 0.0000 0.0000 0.0000 9.3499 0.0000
# 6 0.0000 0.0000 0.0000 0.0000 0.0000 34.6253
#
#
#
# Elastic Compliance Matrix: (Units=1/GPa)
#
#
# Indices 1 2 3 4 5 6 
#
# 1 0.024221 -0.002270 -0.000294 0.000000 0.000000 0.000000
# 2 -0.002270 0.016011 -0.006633 0.000000 0.000000 0.000000
# 3 -0.000294 -0.006633 0.017392 0.000000 0.000000 0.000000
# 4 0.000000 0.000000 0.000000 0.035082 0.000000 0.000000
# 5 0.000000 0.000000 0.000000 0.000000 0.106953 0.000000
# 6 0.000000 0.000000 0.000000 0.000000 0.000000 0.028881
#
#
# Mechanical properties :
#
#
# Convention : Reuss Voigt Hill
#
# Bulk Modulus (GPa) = 25.49108 29.54118 27.51613
# Shear Modulus (GPa) = 19.22999 24.24362 21.73680
#
# Velocity S-wave (km/s) = 3.03194 3.40432 3.22351
# Velocity P-wave (km/s) = 4.94395 5.43823 5.19697
#
# Compressibility (1/GPa) = 0.03922941
#
# Stress axis : x y z
#
# Youngs Moduli (GPa) = 41.28655 62.45731 57.49726
#
# Poissons Ratio (x) = 0.14180 0.01691
# Poissons Ratio (y) = 0.09373 0.38138
# Poissons Ratio (z) = 0.01214 0.41428
#
# Static dielectric constant tensor:
#      x y z
#    x 1.814110 0.000000 0.000000 
#    y 0.000000 1.777000 0.000000 
#    z 0.000000 0.000000 1.729090 
# 
# From -- ./inp_files/14131.got.cif
#   From: 2010.05.17/outbox.cif.g08.bks.cpg/sg55_8_cif.got.tgz:14131.got - 2010.06.03 13:27:54.
