data_PCOD9425440
_publ_section_title
;
Structure prediction by ZEFSAII (Michael W. Deem and Ramdas Pophale) SiO2 
 PCOD9425440
Probable space group: P B A M
;
_chemical_formula_sum "Si O2"
_cell_formula_units_Z 44
_cell_length_a 4.983768
_cell_length_b 23.593592
_cell_length_c 24.077571
_cell_angle_alpha 90.000000
_cell_angle_beta 90.000000
_cell_angle_gamma 90.000000
_cell_volume 2831.160917
_symmetry_space_group_name_H-M "P B A M"
_symmetry_group_IT_number 55
_symmetry_cell_setting 'orthorhombic'
loop_
_space_group_symop_operation_xyz
x,y,z
-x,-y,z
1/2+x,1/2-y,-z
1/2-x,1/2+y,-z
-x,-y,-z
x,y,-z
1/2-x,1/2+y,z
1/2+x,1/2-y,z
loop_
_atom_site_type_symbol
_atom_site_label
_atom_site_fract_x
_atom_site_fract_y
_atom_site_fract_z
Si Si1 0.913705 0.132155 0.402398
Si Si2 0.595274 0.710733 0.176413
Si Si3 0.225518 0.790444 0.939782
Si Si4 0.105470 0.562510 0.434648
Si Si5 0.298730 0.290504 0.702211
Si Si6 0.388763 0.713229 0.500000
O O1 0.138678 0.083288 0.400104
O O2 0.856028 0.164370 0.345337
O O3 0.034040 0.177250 0.446045
O O4 0.639682 0.105527 0.425369
O O5 0.793051 0.765815 0.175789
O O6 0.663397 0.679299 0.118693
O O7 0.657635 0.683992 0.236047
O O8 0.519922 0.762957 0.938871
O O9 0.186922 0.819173 0.000000
O O10 0.183027 0.562470 0.500000
O O11 0.000000 0.500000 0.420711
O O12 0.007527 0.261920 0.697143
O O13 0.580248 0.768312 0.500000
#
# Coordination Sequence:
#
# PCOD9425440 Si02
#       6
#     8   8   8   8   8   4
#     4  12  21  35  50  68  86 111 137 168 212 249
#     4   8  14  23  35  50  73 105 138 167 194 225
#     4   8  12  18  29  46  67  94 132 173 200 217
#     4  11  22  38  54  68  82 101 134 177 219 258
#     4  10  19  31  44  62  88 117 143 167 196 246
#     4  12  22  32  45  66  91 112 134 162 196 238
#
# _framework density 15.541327000000001
#
# number of rings (size 3 to 8) (size 9 to 14) (size 15 to 20)
#    0.000    2.000    1.818    3.818    0.000    1.455 
#    0.000    0.000    0.000    0.000    0.000    0.000 
#    0.000    0.000    0.000    0.000    0.000    5.455 
#
# Total GULP energy -245182.719461 kJ/mol
# GULP energy per Si atom -5572.334533 kJ/mol
# Density = 1.550595 g / cm^3
# Si number density = 15.541327 Si / 1000 Ang^3
#
#
#
# Elastic Constant Matrix: (Units=GPa)
#
#
# Indices 1 2 3 4 5 6 
#
# 1 49.8476 -4.4065 -22.1387 0.0000 0.0000 0.0000
# 2 -4.4065 26.5565 21.0245 0.0000 0.0000 0.0000
# 3 -22.1387 21.0245 98.3934 0.0000 0.0000 0.0000
# 4 0.0000 0.0000 0.0000 2.8822 0.0000 0.0000
# 5 0.0000 0.0000 0.0000 0.0000 16.6209 0.0000
# 6 0.0000 0.0000 0.0000 0.0000 0.0000 16.1903
#
#
#
# Elastic Compliance Matrix: (Units=1/GPa)
#
#
# Indices 1 2 3 4 5 6 
#
# 1 0.022291 -0.000327 0.005085 0.000000 0.000000 0.000000
# 2 -0.000327 0.045327 -0.009759 0.000000 0.000000 0.000000
# 3 0.005085 -0.009759 0.013393 0.000000 0.000000 0.000000
# 4 0.000000 0.000000 0.000000 0.346963 0.000000 0.000000
# 5 0.000000 0.000000 0.000000 0.000000 0.060165 0.000000
# 6 0.000000 0.000000 0.000000 0.000000 0.000000 0.061765
#
#
# Mechanical properties :
#
#
# Convention : Reuss Voigt Hill
#
# Bulk Modulus (GPa) = 14.08278 18.19514 16.13896
# Shear Modulus (GPa) = 8.56787 19.15990 13.86388
#
# Velocity S-wave (km/s) = 2.35052 3.51498 2.98999
# Velocity P-wave (km/s) = 4.05558 5.31098 4.72516
#
# Compressibility (1/GPa) = 0.07100873
#
# Stress axis : x y z
#
# Youngs Moduli (GPa) = 44.86162 22.06171 74.66682
#
# Poissons Ratio (x) = 0.00722 -0.37971
# Poissons Ratio (y) = 0.01469 0.72868
# Poissons Ratio (z) = -0.22814 0.21530
#
# Static dielectric constant tensor:
#      x y z
#    x 1.537510 0.000000 0.000000 
#    y 0.000000 1.478320 0.000000 
#    z 0.000000 0.000000 1.593710 
# 
# From -- ./inp_files/23321.got.cif
#   From: 2010.05.17/outbox.cif.g08.bks.cpg/sg55_12_cif.got.tgz:23321.got - 2010.06.03 13:27:54.
