data_PCOD9425965
_publ_section_title
;
Structure prediction by ZEFSAII (Michael W. Deem and Ramdas Pophale) SiO2 
 PCOD9425965
Probable space group: P B A M
;
_chemical_formula_sum "Si O2"
_cell_formula_units_Z 48
_cell_length_a 14.644586
_cell_length_b 20.716370
_cell_length_c 7.654793
_cell_angle_alpha 90.000000
_cell_angle_beta 90.000000
_cell_angle_gamma 90.000000
_cell_volume 2322.331478
_symmetry_space_group_name_H-M "P B A M"
_symmetry_group_IT_number 55
_symmetry_cell_setting 'orthorhombic'
loop_
_space_group_symop_operation_xyz
x,y,z
-x,-y,z
1/2+x,1/2-y,-z
1/2-x,1/2+y,-z
-x,-y,-z
x,y,-z
1/2-x,1/2+y,z
1/2+x,1/2-y,z
loop_
_atom_site_type_symbol
_atom_site_label
_atom_site_fract_x
_atom_site_fract_y
_atom_site_fract_z
Si Si1 0.751223 0.113608 0.792877
Si Si2 0.260734 0.234154 0.708501
Si Si3 0.068170 0.188556 0.286870
Si Si4 0.454505 0.184855 0.712208
Si Si5 0.547349 0.565896 0.289076
Si Si6 0.061523 0.442641 0.203050
O O1 0.756961 0.188485 0.734492
O O2 0.846561 0.077709 0.754781
O O3 0.660977 0.077013 0.720942
O O4 0.739797 0.116672 0.000000
O O5 0.261743 0.225385 0.500000
O O6 0.170947 0.198427 0.776701
O O7 0.353109 0.201758 0.774766
O O8 0.069824 0.185297 0.500000
O O9 0.015021 0.253434 0.240869
O O10 0.012495 0.126541 0.225447
O O11 0.454748 0.179205 0.500000
O O12 0.499935 0.121183 0.786790
O O13 0.500000 0.500000 0.226734
O O14 0.542982 0.565559 0.500000
O O15 0.000000 0.500000 0.282287
O O16 0.078112 0.460521 0.000000
#
# Coordination Sequence:
#
# PCOD9425965 Si02
#       6
#     8   8   8   8   8   8
#     4  11  22  36  57  82 109 146 190 230 281 336
#     4  10  19  34  57  83 115 147 183 232 281 328
#     4   9  17  32  55  84 113 142 179 227 277 322
#     4  10  19  33  58  86 110 142 185 232 276 323
#     4  10  21  38  60  85 115 151 186 225 281 341
#     4  10  23  41  57  78 115 154 186 229 282 336
#
# _framework density 20.668885
#
# number of rings (size 3 to 8) (size 9 to 14) (size 15 to 20)
#    0.000    2.000    3.333    0.500    0.000    3.333 
#    0.000    2.500    0.000    0.000    0.000    0.000 
#    0.000    0.000    0.000    0.000    0.000    0.000 
#
# Total GULP energy -267958.006317 kJ/mol
# GULP energy per Si atom -5582.458465 kJ/mol
# Density = 2.062184 g / cm^3
# Si number density = 20.668885 Si / 1000 Ang^3
#
#
#
# Elastic Constant Matrix: (Units=GPa)
#
#
# Indices 1 2 3 4 5 6 
#
# 1 204.1459 68.6167 -6.3428 0.0000 0.0000 0.0000
# 2 68.6167 121.5370 -14.1491 0.0000 0.0000 0.0000
# 3 -6.3428 -14.1491 33.7954 0.0000 0.0000 0.0000
# 4 0.0000 0.0000 0.0000 16.7366 0.0000 0.0000
# 5 0.0000 0.0000 0.0000 0.0000 27.6687 0.0000
# 6 0.0000 0.0000 0.0000 0.0000 0.0000 32.4929
#
#
#
# Elastic Compliance Matrix: (Units=1/GPa)
#
#
# Indices 1 2 3 4 5 6 
#
# 1 0.006049 -0.003451 -0.000310 0.000000 0.000000 0.000000
# 2 -0.003451 0.010618 0.003798 0.000000 0.000000 0.000000
# 3 -0.000310 0.003798 0.031122 0.000000 0.000000 0.000000
# 4 0.000000 0.000000 0.000000 0.059749 0.000000 0.000000
# 5 0.000000 0.000000 0.000000 0.000000 0.036142 0.000000
# 6 0.000000 0.000000 0.000000 0.000000 0.000000 0.030776
#
#
# Mechanical properties :
#
#
# Convention : Reuss Voigt Hill
#
# Bulk Modulus (GPa) = 20.89271 50.63645 35.76458
# Shear Modulus (GPa) = 26.26932 36.13654 31.20293
#
# Velocity S-wave (km/s) = 3.56892 4.18587 3.88965
# Velocity P-wave (km/s) = 5.20703 6.92200 6.12484
#
# Compressibility (1/GPa) = 0.04786358
#
# Stress axis : x y z
#
# Youngs Moduli (GPa) = 165.32239 94.17562 32.13187
#
# Poissons Ratio (x) = 0.32500 0.00995
# Poissons Ratio (y) = 0.57053 -0.12203
# Poissons Ratio (z) = 0.05118 -0.35767
#
# Static dielectric constant tensor:
#      x y z
#    x 1.830810 0.000000 0.000000 
#    y 0.000000 1.692700 0.000000 
#    z 0.000000 0.000000 1.774120 
# 
# From -- ./inp_files/5625.got.cif
#   From: 2010.05.17/outbox.cif.g08.bks.cpg/sg55_3_cif.got.tgz:5625.got - 2010.06.03 13:27:54.
