data_PCOD9425839
_publ_section_title
;
Structure prediction by ZEFSAII (Michael W. Deem and Ramdas Pophale) SiO2 
 PCOD9425839
Probable space group: P B A M
;
_chemical_formula_sum "Si O2"
_cell_formula_units_Z 56
_cell_length_a 23.415802
_cell_length_b 14.686474
_cell_length_c 8.702425
_cell_angle_alpha 90.000000
_cell_angle_beta 90.000000
_cell_angle_gamma 90.000000
_cell_volume 2992.725382
_symmetry_space_group_name_H-M "P B A M"
_symmetry_group_IT_number 55
_symmetry_cell_setting 'orthorhombic'
loop_
_space_group_symop_operation_xyz
x,y,z
-x,-y,z
1/2+x,1/2-y,-z
1/2-x,1/2+y,-z
-x,-y,-z
x,y,-z
1/2-x,1/2+y,z
1/2+x,1/2-y,z
loop_
_atom_site_type_symbol
_atom_site_label
_atom_site_fract_x
_atom_site_fract_y
_atom_site_fract_z
Si Si1 0.002099 0.605204 0.314263
Si Si2 0.890115 0.717375 0.685774
Si Si3 0.655027 0.395062 0.815510
Si Si4 0.889598 0.288847 0.184102
Si Si5 0.345285 0.398695 0.815510
Si Si6 0.280735 0.109661 0.681553
Si Si7 0.720963 0.105492 0.681694
O O1 0.003797 0.604648 0.500000
O O2 0.057842 0.656389 0.254234
O O3 0.000000 0.500000 0.263009
O O4 0.945394 0.659918 0.266509
O O5 0.889528 0.721113 0.500000
O O6 0.887199 0.818619 0.752201
O O7 0.832455 0.664887 0.735587
O O8 0.641438 0.498470 0.762725
O O9 0.718423 0.373088 0.752369
O O10 0.655919 0.393056 0.000000
O O11 0.886062 0.183193 0.235899
O O12 0.830641 0.334995 0.237485
O O13 0.893296 0.291552 0.000000
O O14 0.280676 0.376321 0.764440
O O15 0.346487 0.400236 0.000000
O O16 0.279530 0.130449 0.500000
O O17 0.292388 0.001678 0.700232
O O18 0.729136 0.122335 0.500000
#
# Coordination Sequence:
#
# PCOD9425839 Si02
#       7
#     8   8   8   8   8   8   8
#     4  10  22  41  61  80 106 140 177 218 265 318
#     4  10  20  35  55  79 106 138 178 220 264 316
#     4  10  20  35  54  78 109 143 178 218 266 316
#     4  11  22  36  55  80 108 140 181 224 267 315
#     4   9  20  36  52  75 109 143 174 214 263 315
#     4  10  19  33  54  81 112 144 177 216 267 321
#     4   9  18  32  53  80 108 139 174 214 262 317
#
# _framework density 18.712040999999999
#
# number of rings (size 3 to 8) (size 9 to 14) (size 15 to 20)
#    0.000    2.143    0.000    3.000    0.000    8.286 
#    0.000    2.143    0.000    4.286    0.000    0.000 
#    0.000    0.000    0.000    0.000    0.000    0.000 
#
# Total GULP energy -312701.572781 kJ/mol
# GULP energy per Si atom -5583.956657 kJ/mol
# Density = 1.866945 g / cm^3
# Si number density = 18.712041 Si / 1000 Ang^3
#
#
#
# Elastic Constant Matrix: (Units=GPa)
#
#
# Indices 1 2 3 4 5 6 
#
# 1 80.5192 100.7117 19.2919 0.0000 0.0000 0.0000
# 2 100.7117 158.4735 30.2581 0.0000 0.0000 0.0000
# 3 19.2919 30.2581 13.5134 0.0000 0.0000 0.0000
# 4 0.0000 0.0000 0.0000 20.7783 0.0000 0.0000
# 5 0.0000 0.0000 0.0000 0.0000 38.9281 0.0000
# 6 0.0000 0.0000 0.0000 0.0000 0.0000 35.2809
#
#
#
# Elastic Compliance Matrix: (Units=1/GPa)
#
#
# Indices 1 2 3 4 5 6 
#
# 1 0.060550 -0.038387 -0.000490 0.000000 0.000000 0.000000
# 2 -0.038387 0.035359 -0.024370 0.000000 0.000000 0.000000
# 3 -0.000490 -0.024370 0.129268 0.000000 0.000000 0.000000
# 4 0.000000 0.000000 0.000000 0.048127 0.000000 0.000000
# 5 0.000000 0.000000 0.000000 0.000000 0.025688 0.000000
# 6 0.000000 0.000000 0.000000 0.000000 0.000000 0.028344
#
#
# Mechanical properties :
#
#
# Convention : Reuss Voigt Hill
#
# Bulk Modulus (GPa) = 10.13350 61.44773 35.79062
# Shear Modulus (GPa) = 10.27276 25.81377 18.04327
#
# Velocity S-wave (km/s) = 2.34560 3.71823 3.10862
# Velocity P-wave (km/s) = 3.57254 7.16544 5.66156
#
# Compressibility (1/GPa) = 0.09868254
#
# Stress axis : x y z
#
# Youngs Moduli (GPa) = 16.51523 28.28165 7.73589
#
# Poissons Ratio (x) = 1.08564 0.00379
# Poissons Ratio (y) = 0.63397 0.18853
# Poissons Ratio (z) = 0.00809 0.68924
#
# Static dielectric constant tensor:
#      x y z
#    x 1.606350 0.000000 0.000000 
#    y 0.000000 1.681460 0.000000 
#    z 0.000000 0.000000 1.632200 
# 
# From -- ./inp_files/6168.got.cif
#   From: 2010.05.17/outbox.cif.g08.bks.cpg/sg55_4_cif.got.tgz:6168.got - 2010.06.03 13:27:54.
