data_PCOD9425681
_publ_section_title
;
Structure prediction by ZEFSAII (Michael W. Deem and Ramdas Pophale) SiO2 
 PCOD9425681
Probable space group: P B A M
;
_chemical_formula_sum "Si O2"
_cell_formula_units_Z 40
_cell_length_a 5.132588
_cell_length_b 15.380483
_cell_length_c 25.067395
_cell_angle_alpha 90.000000
_cell_angle_beta 90.000000
_cell_angle_gamma 90.000000
_cell_volume 1978.862337
_symmetry_space_group_name_H-M "P B A M"
_symmetry_group_IT_number 55
_symmetry_cell_setting 'orthorhombic'
loop_
_space_group_symop_operation_xyz
x,y,z
-x,-y,z
1/2+x,1/2-y,-z
1/2-x,1/2+y,-z
-x,-y,-z
x,y,-z
1/2-x,1/2+y,z
1/2+x,1/2-y,z
loop_
_atom_site_type_symbol
_atom_site_label
_atom_site_fract_x
_atom_site_fract_y
_atom_site_fract_z
Si Si1 0.808487 0.693149 0.229318
Si Si2 0.615803 0.193454 0.652286
Si Si3 0.009274 0.106414 0.939557
Si Si4 0.510288 0.104523 0.122614
Si Si5 0.747141 0.560490 0.559867
O O1 0.511644 0.725977 0.226109
O O2 0.846699 0.654219 0.288455
O O3 0.894954 0.633791 0.180493
O O4 0.318719 0.225993 0.648972
O O5 0.698580 0.130885 0.604861
O O6 0.727208 0.135026 0.919562
O O7 0.229230 0.135351 0.897741
O O8 0.068104 0.133213 0.000000
O O9 0.000000 0.000000 0.939454
O O10 0.500000 0.000000 0.121779
O O11 0.500000 0.500000 0.572229
O O12 0.706526 0.597946 0.500000
O O13 0.000000 0.500000 0.557979
#
# Coordination Sequence:
#
# PCOD9425681 Si02
#       5
#     8   8   8   8   8
#     4  10  21  37  54  74 106 142 172 213 268 313
#     4  10  21  37  57  81 108 146 192 226 263 324
#     4   9  17  30  50  76 103 129 164 214 263 307
#     4  10  19  32  53  78  99 129 175 216 255 312
#     4  10  21  37  57  84 117 148 179 224 281 325
#
# _framework density 20.213633999999999
#
# number of rings (size 3 to 8) (size 9 to 14) (size 15 to 20)
#    0.000    2.200    0.000    3.000    0.000    4.000 
#    0.000    3.000    0.000   12.000    0.000    0.000 
#    0.000    0.000    0.000    0.000    0.000    0.000 
#
# Total GULP energy -223304.450187 kJ/mol
# GULP energy per Si atom -5582.611255 kJ/mol
# Density = 2.016763 g / cm^3
# Si number density = 20.213634 Si / 1000 Ang^3
#
#
#
# Elastic Constant Matrix: (Units=GPa)
#
#
# Indices 1 2 3 4 5 6 
#
# 1 89.5047 0.1145 10.7605 0.0000 0.0000 0.0000
# 2 0.1145 11.3528 28.4906 0.0000 0.0000 0.0000
# 3 10.7605 28.4906 145.9925 0.0000 0.0000 0.0000
# 4 0.0000 0.0000 0.0000 33.1820 0.0000 0.0000
# 5 0.0000 0.0000 0.0000 0.0000 27.8053 0.0000
# 6 0.0000 0.0000 0.0000 0.0000 0.0000 18.7965
#
#
#
# Elastic Compliance Matrix: (Units=1/GPa)
#
#
# Indices 1 2 3 4 5 6 
#
# 1 0.011360 0.003893 -0.001597 0.000000 0.000000 0.000000
# 2 0.003893 0.173963 -0.034236 0.000000 0.000000 0.000000
# 3 -0.001597 -0.034236 0.013649 0.000000 0.000000 0.000000
# 4 0.000000 0.000000 0.000000 0.030137 0.000000 0.000000
# 5 0.000000 0.000000 0.000000 0.000000 0.035964 0.000000
# 6 0.000000 0.000000 0.000000 0.000000 0.000000 0.053201
#
#
# Mechanical properties :
#
#
# Convention : Reuss Voigt Hill
#
# Bulk Modulus (GPa) = 7.40238 36.17568 21.78903
# Shear Modulus (GPa) = 11.70457 29.78907 20.74682
#
# Velocity S-wave (km/s) = 2.40894 3.84306 3.20719
# Velocity P-wave (km/s) = 3.37748 6.13414 4.95152
#
# Compressibility (1/GPa) = 0.13509173
#
# Stress axis : x y z
#
# Youngs Moduli (GPa) = 88.03109 5.74835 73.26765
#
# Poissons Ratio (x) = -0.02238 0.11701
# Poissons Ratio (y) = -0.34274 2.50839
# Poissons Ratio (z) = 0.14059 0.19680
#
# Static dielectric constant tensor:
#      x y z
#    x 1.695660 0.000000 0.000000 
#    y 0.000000 1.707290 0.000000 
#    z 0.000000 0.000000 1.717850 
# 
# From -- ./inp_files/20328.got.cif
#   From: 2010.05.17/outbox.cif.g08.bks.cpg/sg55_11_cif.got.tgz:20328.got - 2010.06.03 13:27:54.
