data_PCOD9425975
_publ_section_title
;
Structure prediction by ZEFSAII (Michael W. Deem and Ramdas Pophale) SiO2 
 PCOD9425975
Probable space group: P B A M
;
_chemical_formula_sum "Si O2"
_cell_formula_units_Z 64
_cell_length_a 16.548851
_cell_length_b 11.664397
_cell_length_c 14.844804
_cell_angle_alpha 90.000000
_cell_angle_beta 90.000000
_cell_angle_gamma 90.000000
_cell_volume 2865.527668
_symmetry_space_group_name_H-M "P B A M"
_symmetry_group_IT_number 55
_symmetry_cell_setting 'orthorhombic'
loop_
_space_group_symop_operation_xyz
x,y,z
-x,-y,z
1/2+x,1/2-y,-z
1/2-x,1/2+y,-z
-x,-y,-z
x,y,-z
1/2-x,1/2+y,z
1/2+x,1/2-y,z
loop_
_atom_site_type_symbol
_atom_site_label
_atom_site_fract_x
_atom_site_fract_y
_atom_site_fract_z
Si Si1 0.757310 0.147658 0.099513
Si Si2 0.965754 0.873783 0.738351
Si Si3 0.361408 0.027464 0.711250
Si Si4 0.566607 0.718562 0.099561
Si Si5 0.749545 0.654665 0.606402
Si Si6 0.616898 0.984999 0.099230
Si Si7 0.212183 0.178259 0.252576
Si Si8 0.425420 0.244108 0.392275
O O1 0.852646 0.143583 0.115832
O O2 0.718335 0.222285 0.178384
O O3 0.709530 0.028844 0.095562
O O4 0.748029 0.202722 0.000000
O O5 0.004131 0.808133 0.823152
O O6 0.996212 0.801009 0.652448
O O7 0.871170 0.885324 0.754397
O O8 0.000000 0.000000 0.730338
O O9 0.407629 0.975044 0.798769
O O10 0.293131 0.107332 0.755964
O O11 0.411591 0.117379 0.650661
O O12 0.306080 0.940858 0.653268
O O13 0.595462 0.850836 0.099352
O O14 0.534599 0.692150 0.000000
O O15 0.754618 0.642252 0.500000
O O16 0.786028 0.770923 0.646526
O O17 0.653618 0.674269 0.629659
O O18 0.585571 0.029805 0.000000
O O19 0.430088 0.235641 0.500000
#
# Coordination Sequence:
#
# PCOD9425975 Si02
#       8
#     8   8   8   8   8   8   8   8
#     4  10  20  36  62  91 117 156 206 250 292 339
#     4  12  26  40  58  87 123 161 195 232 300 367
#     4  11  19  37  66  90 117 149 198 250 297 341
#     4  10  21  40  60  84 123 163 201 243 290 350
#     4  10  21  39  64  90 113 147 202 257 299 341
#     4  10  19  33  62  92 116 150 195 245 294 342
#     4  11  23  36  59  89 124 154 193 248 290 354
#     4  10  22  41  61  85 118 157 199 243 298 359
#
# _framework density 22.334454999999998
#
# number of rings (size 3 to 8) (size 9 to 14) (size 15 to 20)
#    0.000    1.500    3.750    1.875    1.750    2.000 
#    0.000    2.500    0.000    3.750    0.000    0.000 
#    0.000    0.000    0.000    0.000    0.000    0.000 
#
# Total GULP energy -356893.926292 kJ/mol
# GULP energy per Si atom -5576.467598 kJ/mol
# Density = 2.228362 g / cm^3
# Si number density = 22.334455 Si / 1000 Ang^3
#
#
#
# Elastic Constant Matrix: (Units=GPa)
#
#
# Indices 1 2 3 4 5 6 
#
# 1 32.7532 -11.9398 5.4176 0.0000 0.0000 0.0000
# 2 -11.9398 13.5899 2.4147 0.0000 0.0000 0.0000
# 3 5.4176 2.4147 136.2019 0.0000 0.0000 0.0000
# 4 0.0000 0.0000 0.0000 15.3769 0.0000 0.0000
# 5 0.0000 0.0000 0.0000 0.0000 5.9933 0.0000
# 6 0.0000 0.0000 0.0000 0.0000 0.0000 11.2966
#
#
#
# Elastic Compliance Matrix: (Units=1/GPa)
#
#
# Indices 1 2 3 4 5 6 
#
# 1 0.045778 0.040671 -0.002542 0.000000 0.000000 0.000000
# 2 0.040671 0.109950 -0.003567 0.000000 0.000000 0.000000
# 3 -0.002542 -0.003567 0.007506 0.000000 0.000000 0.000000
# 4 0.000000 0.000000 0.000000 0.065033 0.000000 0.000000
# 5 0.000000 0.000000 0.000000 0.000000 0.166853 0.000000
# 6 0.000000 0.000000 0.000000 0.000000 0.000000 0.088523
#
#
# Mechanical properties :
#
#
# Convention : Reuss Voigt Hill
#
# Bulk Modulus (GPa) = 4.30368 19.37002 11.83685
# Shear Modulus (GPa) = 10.16319 18.97686 14.57003
#
# Velocity S-wave (km/s) = 2.13549 2.91807 2.55690
# Velocity P-wave (km/s) = 2.83047 4.47717 3.74544
#
# Compressibility (1/GPa) = 0.23235940
#
# Stress axis : x y z
#
# Youngs Moduli (GPa) = 21.84451 9.09500 133.21982
#
# Poissons Ratio (x) = -0.36991 0.33864
# Poissons Ratio (y) = -0.88844 0.47521
# Poissons Ratio (z) = 0.05553 0.03244
#
# Static dielectric constant tensor:
#      x y z
#    x 1.847610 0.000000 0.000000 
#    y 0.000000 1.862560 0.000000 
#    z 0.000000 0.000000 1.861850 
# 
# From -- ./inp_files/19501.got.cif
#   From: 2010.05.17/outbox.cif.g08.bks.cpg/sg55_10_cif.got.tgz:19501.got - 2010.06.03 13:27:54.
