data_PCOD9425369
_publ_section_title
;
Structure prediction by ZEFSAII (Michael W. Deem and Ramdas Pophale) SiO2 
 PCOD9425369
Probable space group: P B A M
;
_chemical_formula_sum "Si O2"
_cell_formula_units_Z 64
_cell_length_a 5.477961
_cell_length_b 21.452344
_cell_length_c 26.038537
_cell_angle_alpha 90.000000
_cell_angle_beta 90.000000
_cell_angle_gamma 90.000000
_cell_volume 3059.921378
_symmetry_space_group_name_H-M "P B A M"
_symmetry_group_IT_number 55
_symmetry_cell_setting 'orthorhombic'
loop_
_space_group_symop_operation_xyz
x,y,z
-x,-y,z
1/2+x,1/2-y,-z
1/2-x,1/2+y,-z
-x,-y,-z
x,y,-z
1/2-x,1/2+y,z
1/2+x,1/2-y,z
loop_
_atom_site_type_symbol
_atom_site_label
_atom_site_fract_x
_atom_site_fract_y
_atom_site_fract_z
Si Si1 0.938947 0.566858 0.617907
Si Si2 0.056812 0.090138 0.440347
Si Si3 0.626668 0.730501 0.560346
Si Si4 0.602510 0.251727 0.710094
Si Si5 0.003433 0.424490 0.058844
Si Si6 0.408141 0.885608 0.726841
Si Si7 0.995911 0.924146 0.882605
Si Si8 0.910533 0.884630 0.767957
O O1 0.171918 0.579883 0.581735
O O2 0.930351 0.613416 0.665618
O O3 0.000000 0.500000 0.642397
O O4 0.677708 0.561738 0.589453
O O5 0.050746 0.071916 0.500000
O O6 0.997085 0.163151 0.436230
O O7 0.662553 0.747166 0.500000
O O8 0.404951 0.773596 0.579811
O O9 0.852354 0.248731 0.679562
O O10 0.601990 0.187788 0.742668
O O11 0.602876 0.314248 0.744367
O O12 0.245279 0.406811 0.091161
O O13 0.000000 0.500000 0.057746
O O14 0.742088 0.407465 0.083389
O O15 0.023493 0.402627 0.000000
O O16 0.149036 0.914485 0.741585
O O17 0.649365 0.913326 0.752632
O O18 0.958311 0.891052 0.828023
O O19 0.000000 0.000000 0.875673
#
# Coordination Sequence:
#
# PCOD9425369 Si02
#       8
#     8   8   8   8   8   8   8   8
#     4  12  26  42  61  86 115 153 196 232 282 349
#     4  11  24  43  65  89 117 148 188 236 281 337
#     4   9  17  33  57  84 113 141 170 214 273 328
#     4   8  16  32  53  75 103 133 171 222 274 330
#     4   9  17  30  46  68 108 157 198 237 278 322
#     4  10  21  38  56  77 110 142 177 226 282 339
#     4  10  19  29  47  78 110 147 193 233 279 332
#     4  10  19  34  56  80 111 142 182 235 286 340
#
# _framework density 20.915569999999999
#
# number of rings (size 3 to 8) (size 9 to 14) (size 15 to 20)
#    0.000    2.125    0.000    3.375    0.000    6.000 
#    0.000   11.250    0.000    0.000    0.000    0.000 
#    0.000   90.000    0.000    0.000    0.000    0.000 
#
# Total GULP energy -356684.288954 kJ/mol
# GULP energy per Si atom -5573.192015 kJ/mol
# Density = 2.086796 g / cm^3
# Si number density = 20.915570 Si / 1000 Ang^3
#
#
#
# Elastic Constant Matrix: (Units=GPa)
#
#
# Indices 1 2 3 4 5 6 
#
# 1 220.3061 3.6640 54.1518 0.0000 0.0000 0.0000
# 2 3.6640 32.9648 4.7061 0.0000 0.0000 0.0000
# 3 54.1518 4.7061 107.8971 0.0000 0.0000 0.0000
# 4 0.0000 0.0000 0.0000 16.4171 0.0000 0.0000
# 5 0.0000 0.0000 0.0000 0.0000 38.3830 0.0000
# 6 0.0000 0.0000 0.0000 0.0000 0.0000 17.5199
#
#
#
# Elastic Compliance Matrix: (Units=1/GPa)
#
#
# Indices 1 2 3 4 5 6 
#
# 1 0.005179 -0.000206 -0.002590 0.000000 0.000000 0.000000
# 2 -0.000206 0.030534 -0.001228 0.000000 0.000000 0.000000
# 3 -0.002590 -0.001228 0.010622 0.000000 0.000000 0.000000
# 4 0.000000 0.000000 0.000000 0.060912 0.000000 0.000000
# 5 0.000000 0.000000 0.000000 0.000000 0.026053 0.000000
# 6 0.000000 0.000000 0.000000 0.000000 0.000000 0.057078
#
#
# Mechanical properties :
#
#
# Convention : Reuss Voigt Hill
#
# Bulk Modulus (GPa) = 26.11973 54.02353 40.07163
# Shear Modulus (GPa) = 23.67547 34.37374 29.02460
#
# Velocity S-wave (km/s) = 3.36810 4.05835 3.72923
# Velocity P-wave (km/s) = 5.25745 6.91706 6.14355
#
# Compressibility (1/GPa) = 0.03828524
#
# Stress axis : x y z
#
# Youngs Moduli (GPa) = 193.07643 32.75075 94.14636
#
# Poissons Ratio (x) = 0.00674 0.24388
# Poissons Ratio (y) = 0.03975 0.11565
# Poissons Ratio (z) = 0.50015 0.04023
#
# Static dielectric constant tensor:
#      x y z
#    x 1.879630 0.000000 0.000000 
#    y 0.000000 1.834920 0.000000 
#    z 0.000000 0.000000 1.716420 
# 
# From -- ./inp_files/23375.got.cif
#   From: 2010.05.17/outbox.cif.g08.bks.cpg/sg55_12_cif.got.tgz:23375.got - 2010.06.03 13:27:54.
