data_PCOD9425360
_publ_section_title
;
Structure prediction by ZEFSAII (Michael W. Deem and Ramdas Pophale) SiO2 
 PCOD9425360
Probable space group: P B A M
;
_chemical_formula_sum "Si O2"
_cell_formula_units_Z 64
_cell_length_a 5.297627
_cell_length_b 26.352976
_cell_length_c 25.260620
_cell_angle_alpha 90.000000
_cell_angle_beta 90.000000
_cell_angle_gamma 90.000000
_cell_volume 3526.590628
_symmetry_space_group_name_H-M "P B A M"
_symmetry_group_IT_number 55
_symmetry_cell_setting 'orthorhombic'
loop_
_space_group_symop_operation_xyz
x,y,z
-x,-y,z
1/2+x,1/2-y,-z
1/2-x,1/2+y,-z
-x,-y,-z
x,y,-z
1/2-x,1/2+y,z
1/2+x,1/2-y,z
loop_
_atom_site_type_symbol
_atom_site_label
_atom_site_fract_x
_atom_site_fract_y
_atom_site_fract_z
Si Si1 0.681922 0.781549 0.747195
Si Si2 0.056479 0.943111 0.435819
Si Si3 0.353134 0.216525 0.132289
Si Si4 0.248974 0.018219 0.837032
Si Si5 0.946787 0.381585 0.436240
Si Si6 0.745895 0.892210 0.090514
Si Si7 0.547503 0.784810 0.363759
Si Si8 0.746152 0.553350 0.942425
O O1 0.475440 0.735283 0.744556
O O2 0.646979 0.801910 0.806294
O O3 0.596305 0.810368 0.694263
O O4 0.071079 0.946152 0.500000
O O5 0.317940 0.916936 0.419079
O O6 0.817423 0.908265 0.422950
O O7 0.000000 0.000000 0.416500
O O8 0.624373 0.243346 0.124285
O O9 0.294235 0.167187 0.097744
O O10 0.249522 0.076661 0.853692
O O11 0.500000 0.000000 0.809175
O O12 0.245661 0.985678 0.893080
O O13 0.000000 0.000000 0.808263
O O14 0.960375 0.375918 0.500000
O O15 0.954700 0.327408 0.408203
O O16 0.502570 0.915072 0.061689
O O17 0.007410 0.909442 0.064099
O O18 0.284734 0.753924 0.367312
O O19 0.736635 0.528090 0.000000
#
# Coordination Sequence:
#
# PCOD9425360 Si02
#       8
#     8   8   8   8   8   8   8   8
#     4   8  16  30  48  68  87 113 150 193 233 265
#     4   9  17  30  46  64  87 118 161 209 241 260
#     4  10  19  33  52  70  90 115 151 195 231 266
#     4   8  16  27  42  66  92 113 140 176 215 256
#     4  10  19  29  44  68  95 127 163 193 233 286
#     4  10  19  30  47  70  91 116 148 184 225 261
#     4  10  19  31  46  67  98 127 153 188 232 287
#     4  10  19  31  48  70  94 119 148 181 218 264
#
# _framework density 18.147838
#
# number of rings (size 3 to 8) (size 9 to 14) (size 15 to 20)
#    0.000    2.625    0.000    2.250    0.000    6.500 
#    0.000    0.000    0.000    7.500    0.000    7.875 
#    0.000    0.000    0.000    0.000    0.000    0.000 
#
# Total GULP energy -356288.839058 kJ/mol
# GULP energy per Si atom -5567.013110 kJ/mol
# Density = 1.810653 g / cm^3
# Si number density = 18.147838 Si / 1000 Ang^3
#
#
#
# Elastic Constant Matrix: (Units=GPa)
#
#
# Indices 1 2 3 4 5 6 
#
# 1 124.1115 7.9074 4.7927 0.0000 0.0000 0.0000
# 2 7.9074 56.2760 11.4836 0.0000 0.0000 0.0000
# 3 4.7927 11.4836 19.3235 0.0000 0.0000 0.0000
# 4 0.0000 0.0000 0.0000 -4.9335 0.0000 0.0000
# 5 0.0000 0.0000 0.0000 0.0000 11.5864 0.0000
# 6 0.0000 0.0000 0.0000 0.0000 0.0000 22.7710
#
#
#
# Elastic Compliance Matrix: (Units=1/GPa)
#
#
# Indices 1 2 3 4 5 6 
#
# 1 0.008170 -0.000836 -0.001530 0.000000 0.000000 0.000000
# 2 -0.000836 0.020307 -0.011861 0.000000 0.000000 0.000000
# 3 -0.001530 -0.011861 0.059178 0.000000 0.000000 0.000000
# 4 0.000000 0.000000 0.000000 -0.202697 0.000000 0.000000
# 5 0.000000 0.000000 0.000000 0.000000 0.086308 0.000000
# 6 0.000000 0.000000 0.000000 0.000000 0.000000 0.043916
#
#
# Mechanical properties :
#
#
# Convention : Reuss Voigt Hill
#
# Bulk Modulus (GPa) = 16.89111 27.56428 22.22769
# Shear Modulus (GPa) = 78.90359 17.58660 48.24510
#
# Velocity S-wave (km/s) = 6.60096 3.11637 5.16161
# Velocity P-wave (km/s) = 8.21124 5.30761 6.91358
#
# Compressibility (1/GPa) = 0.05920275
#
# Stress axis : x y z
#
# Youngs Moduli (GPa) = 122.40520 49.24329 16.89805
#
# Poissons Ratio (x) = 0.04116 0.02585
# Poissons Ratio (y) = 0.10231 0.20043
# Poissons Ratio (z) = 0.18723 0.58407
#
# Static dielectric constant tensor:
#      x y z
#    x 1.679330 0.000000 0.000000 
#    y 0.000000 1.603140 0.000000 
#    z 0.000000 0.000000 1.646550 
# 
# From -- ./inp_files/23881.got.cif
#   From: 2010.05.17/outbox.cif.g08.bks.cpg/sg55_12_cif.got.tgz:23881.got - 2010.06.03 13:27:54.
