data_PCOD9425374
_publ_section_title
;
Structure prediction by ZEFSAII (Michael W. Deem and Ramdas Pophale) SiO2 
 PCOD9425374
Probable space group: P B A M
;
_chemical_formula_sum "Si O2"
_cell_formula_units_Z 64
_cell_length_a 10.065280
_cell_length_b 28.832919
_cell_length_c 12.638733
_cell_angle_alpha 90.000000
_cell_angle_beta 90.000000
_cell_angle_gamma 90.000000
_cell_volume 3667.904435
_symmetry_space_group_name_H-M "P B A M"
_symmetry_group_IT_number 55
_symmetry_cell_setting 'orthorhombic'
loop_
_space_group_symop_operation_xyz
x,y,z
-x,-y,z
1/2+x,1/2-y,-z
1/2-x,1/2+y,-z
-x,-y,-z
x,y,-z
1/2-x,1/2+y,z
1/2+x,1/2-y,z
loop_
_atom_site_type_symbol
_atom_site_label
_atom_site_fract_x
_atom_site_fract_y
_atom_site_fract_z
Si Si1 0.754576 0.557181 0.871355
Si Si2 0.095923 0.638645 0.820403
Si Si3 0.533670 0.422938 0.872253
Si Si4 0.078746 0.700283 0.623429
Si Si5 0.812855 0.661852 0.879231
Si Si6 0.317197 0.757969 0.276439
Si Si7 0.323712 0.040863 0.871821
Si Si8 0.382647 0.676116 0.121291
O O1 0.600010 0.551137 0.840292
O O2 0.787606 0.609529 0.839533
O O3 0.839319 0.512508 0.837564
O O4 0.762478 0.557429 0.000000
O O5 0.095334 0.655773 0.699616
O O6 0.087499 0.583259 0.831881
O O7 0.232751 0.655434 0.873265
O O8 0.973169 0.664022 0.876072
O O9 0.673161 0.444839 0.839330
O O10 0.529388 0.368211 0.844715
O O11 0.536464 0.424077 0.000000
O O12 0.089198 0.690080 0.500000
O O13 0.196635 0.734940 0.659667
O O14 0.934800 0.721894 0.651101
O O15 0.763567 0.701434 0.800679
O O16 0.764582 0.667038 0.000000
O O17 0.382505 0.719098 0.200002
O O18 0.333996 0.042023 0.000000
O O19 0.413391 0.688948 0.000000
#
# Coordination Sequence:
#
# PCOD9425374 Si02
#       8
#     8   8   8   8   8   8   8   8
#     4   9  17  25  38  63  97 135 162 186 225 268
#     4   9  18  31  47  67  91 124 166 196 240 288
#     4   8  14  24  39  60  91 126 161 194 222 260
#     4  10  21  38  55  72  92 118 162 215 257 290
#     4  10  19  30  42  67 106 136 158 190 228 284
#     4  10  21  33  52  75  96 128 164 196 246 298
#     4   9  15  26  44  65  93 128 162 193 225 276
#     4   9  16  28  46  69  98 130 159 191 227 285
#
# _framework density 17.448654000000001
#
# number of rings (size 3 to 8) (size 9 to 14) (size 15 to 20)
#    0.000    2.750    0.000    3.000    1.750    2.000 
#    0.000    3.125    0.000    0.000    0.000    7.875 
#    0.000    3.500    0.000    0.000    0.000    0.000 
#
# Total GULP energy -356674.807903 kJ/mol
# GULP energy per Si atom -5573.043873 kJ/mol
# Density = 1.740894 g / cm^3
# Si number density = 17.448654 Si / 1000 Ang^3
#
#
#
# Elastic Constant Matrix: (Units=GPa)
#
#
# Indices 1 2 3 4 5 6 
#
# 1 31.4995 1.9948 4.7345 0.0000 0.0000 0.0000
# 2 1.9948 91.8654 38.3867 0.0000 0.0000 0.0000
# 3 4.7345 38.3867 77.3740 0.0000 0.0000 0.0000
# 4 0.0000 0.0000 0.0000 6.4396 0.0000 0.0000
# 5 0.0000 0.0000 0.0000 0.0000 12.3865 0.0000
# 6 0.0000 0.0000 0.0000 0.0000 0.0000 25.7162
#
#
#
# Elastic Compliance Matrix: (Units=1/GPa)
#
#
# Indices 1 2 3 4 5 6 
#
# 1 0.032043 0.000156 -0.002038 0.000000 0.000000 0.000000
# 2 0.000156 0.013733 -0.006823 0.000000 0.000000 0.000000
# 3 -0.002038 -0.006823 0.016434 0.000000 0.000000 0.000000
# 4 0.000000 0.000000 0.000000 0.155288 0.000000 0.000000
# 5 0.000000 0.000000 0.000000 0.000000 0.080733 0.000000
# 6 0.000000 0.000000 0.000000 0.000000 0.000000 0.038886
#
#
# Mechanical properties :
#
#
# Convention : Reuss Voigt Hill
#
# Bulk Modulus (GPa) = 22.32146 32.33010 27.32578
# Shear Modulus (GPa) = 13.53325 19.28333 16.40829
#
# Velocity S-wave (km/s) = 2.78799 3.32798 3.06988
# Velocity P-wave (km/s) = 4.81500 5.77375 5.31604
#
# Compressibility (1/GPa) = 0.04479993
#
# Stress axis : x y z
#
# Youngs Moduli (GPa) = 31.20812 72.81699 60.85006
#
# Poissons Ratio (x) = -0.01134 0.12401
# Poissons Ratio (y) = -0.00486 0.41517
# Poissons Ratio (z) = 0.06360 0.49681
#
# Static dielectric constant tensor:
#      x y z
#    x 1.650630 0.000000 0.000000 
#    y 0.000000 1.636540 0.000000 
#    z 0.000000 0.000000 1.542960 
# 
# From -- ./inp_files/13635.got.cif
#   From: 2010.05.17/outbox.cif.g08.bks.cpg/sg55_7_cif.got.tgz:13635.got - 2010.06.03 13:27:54.
