data_PCOD9425727
_publ_section_title
;
Structure prediction by ZEFSAII (Michael W. Deem and Ramdas Pophale) SiO2 
 PCOD9425727
Probable space group: P B A M
;
_chemical_formula_sum "Si O2"
_cell_formula_units_Z 64
_cell_length_a 14.756717
_cell_length_b 24.310317
_cell_length_c 8.935173
_cell_angle_alpha 90.000000
_cell_angle_beta 90.000000
_cell_angle_gamma 90.000000
_cell_volume 3205.408145
_symmetry_space_group_name_H-M "P B A M"
_symmetry_group_IT_number 55
_symmetry_cell_setting 'orthorhombic'
loop_
_space_group_symop_operation_xyz
x,y,z
-x,-y,z
1/2+x,1/2-y,-z
1/2-x,1/2+y,-z
-x,-y,-z
x,y,-z
1/2-x,1/2+y,z
1/2+x,1/2-y,z
loop_
_atom_site_type_symbol
_atom_site_label
_atom_site_fract_x
_atom_site_fract_y
_atom_site_fract_z
Si Si1 0.011785 0.329596 0.176460
Si Si2 0.836990 0.296568 0.324025
Si Si3 0.063310 0.948795 0.817513
Si Si4 0.240613 0.599468 0.830121
Si Si5 0.954743 0.558556 0.322005
Si Si6 0.270148 0.970696 0.821734
Si Si7 0.148859 0.253324 0.678434
Si Si8 0.937525 0.852663 0.826882
O O1 0.997857 0.390821 0.239308
O O2 0.103756 0.305452 0.244885
O O3 0.929418 0.291617 0.233561
O O4 0.015868 0.330126 0.000000
O O5 0.854265 0.290752 0.500000
O O6 0.799984 0.357621 0.286211
O O7 0.753633 0.257324 0.279052
O O8 0.168068 0.955341 0.774279
O O9 0.019319 0.890716 0.771206
O O10 0.060659 0.949551 0.000000
O O11 0.000000 0.000000 0.767822
O O12 0.219315 0.536358 0.801478
O O13 0.349045 0.607825 0.828427
O O14 0.210047 0.614221 0.000000
O O15 0.961349 0.566147 0.500000
O O16 0.850693 0.557313 0.268567
O O17 0.000000 0.500000 0.283042
O O18 0.279422 0.959226 0.000000
O O19 0.143971 0.257706 0.500000
O O20 0.091888 0.200090 0.732599
O O21 0.953640 0.835728 0.000000
#
# Coordination Sequence:
#
# PCOD9425727 Si02
#       8
#     8   8   8   8   8   8   8   8
#     4  12  25  43  68  94 120 154 202 256 306 362
#     4  10  21  38  62  89 118 154 193 240 300 361
#     4   9  15  28  52  84 122 162 202 246 297 352
#     4   9  16  28  52  84 117 153 200 248 286 339
#     4  11  25  44  64  87 120 161 201 248 311 376
#     4  10  19  32  54  86 120 158 201 246 297 351
#     4  10  22  41  63  88 121 157 197 245 301 362
#     4   9  16  30  54  83 116 157 204 249 291 342
#
# _framework density 19.966256999999999
#
# number of rings (size 3 to 8) (size 9 to 14) (size 15 to 20)
#    0.000    2.000    1.250    3.000    0.000    5.000 
#    2.250    0.625    0.000    0.750    0.000    0.000 
#    0.000    0.000    0.000    0.000    0.000    0.000 
#
# Total GULP energy -357463.120610 kJ/mol
# GULP energy per Si atom -5585.361260 kJ/mol
# Density = 1.992081 g / cm^3
# Si number density = 19.966257 Si / 1000 Ang^3
#
#
#
# Elastic Constant Matrix: (Units=GPa)
#
#
# Indices 1 2 3 4 5 6 
#
# 1 108.1190 26.5830 39.4996 0.0000 0.0000 0.0000
# 2 26.5830 55.4912 34.6188 0.0000 0.0000 0.0000
# 3 39.4996 34.6188 61.3321 0.0000 0.0000 0.0000
# 4 0.0000 0.0000 0.0000 40.5687 0.0000 0.0000
# 5 0.0000 0.0000 0.0000 0.0000 24.6975 0.0000
# 6 0.0000 0.0000 0.0000 0.0000 0.0000 29.6642
#
#
#
# Elastic Compliance Matrix: (Units=1/GPa)
#
#
# Indices 1 2 3 4 5 6 
#
# 1 0.012170 -0.001451 -0.007019 0.000000 0.000000 0.000000
# 2 -0.001451 0.027989 -0.014864 0.000000 0.000000 0.000000
# 3 -0.007019 -0.014864 0.029215 0.000000 0.000000 0.000000
# 4 0.000000 0.000000 0.000000 0.024650 0.000000 0.000000
# 5 0.000000 0.000000 0.000000 0.000000 0.040490 0.000000
# 6 0.000000 0.000000 0.000000 0.000000 0.000000 0.033711
#
#
# Mechanical properties :
#
#
# Convention : Reuss Voigt Hill
#
# Bulk Modulus (GPa) = 44.04046 47.37170 45.70608
# Shear Modulus (GPa) = 22.47599 27.26881 24.87240
#
# Velocity S-wave (km/s) = 3.35878 3.69961 3.53331
# Velocity P-wave (km/s) = 6.09485 6.48281 6.29182
#
# Compressibility (1/GPa) = 0.02270640
#
# Stress axis : x y z
#
# Youngs Moduli (GPa) = 82.16883 35.72837 34.22953
#
# Poissons Ratio (x) = 0.05186 0.24024
# Poissons Ratio (y) = 0.11926 0.50877
# Poissons Ratio (z) = 0.57671 0.53105
#
# Static dielectric constant tensor:
#      x y z
#    x 1.738650 0.000000 0.000000 
#    y 0.000000 1.702870 0.000000 
#    z 0.000000 0.000000 1.674680 
# 
# From -- ./inp_files/6545.got.cif
#   From: 2010.05.17/outbox.cif.g08.bks.cpg/sg55_4_cif.got.tgz:6545.got - 2010.06.03 13:27:54.
