data_PCOD9425071
_publ_section_title
;
Structure prediction by ZEFSAII (Michael W. Deem and Ramdas Pophale) SiO2 
 PCOD9425071
Probable space group: P B A M
;
_chemical_formula_sum "Si O2"
_cell_formula_units_Z 64
_cell_length_a 13.028882
_cell_length_b 29.539997
_cell_length_c 7.323191
_cell_angle_alpha 90.000000
_cell_angle_beta 90.000000
_cell_angle_gamma 90.000000
_cell_volume 2818.499480
_symmetry_space_group_name_H-M "P B A M"
_symmetry_group_IT_number 55
_symmetry_cell_setting 'orthorhombic'
loop_
_space_group_symop_operation_xyz
x,y,z
-x,-y,z
1/2+x,1/2-y,-z
1/2-x,1/2+y,-z
-x,-y,-z
x,y,-z
1/2-x,1/2+y,z
1/2+x,1/2-y,z
loop_
_atom_site_type_symbol
_atom_site_label
_atom_site_fract_x
_atom_site_fract_y
_atom_site_fract_z
Si Si1 0.662437 0.380522 0.776351
Si Si2 0.429287 0.797686 0.776505
Si Si3 0.387666 0.517375 0.777312
Si Si4 0.257856 0.936513 0.779367
Si Si5 0.506707 0.302155 0.777690
Si Si6 0.493976 0.949564 0.289973
Si Si7 0.888302 0.361154 0.793212
Si Si8 0.210471 0.837032 0.777632
O O1 0.636408 0.431591 0.718529
O O2 0.577321 0.344166 0.721421
O O3 0.775048 0.364961 0.712752
O O4 0.664451 0.381467 0.000000
O O5 0.448545 0.746122 0.721526
O O6 0.523691 0.829069 0.712662
O O7 0.319045 0.816569 0.717571
O O8 0.428448 0.799758 0.000000
O O9 0.500000 0.500000 0.721840
O O10 0.302356 0.481069 0.718016
O O11 0.386935 0.517527 0.000000
O O12 0.375418 0.935447 0.718468
O O13 0.204335 0.889705 0.723924
O O14 0.259437 0.937333 0.000000
O O15 0.389778 0.309949 0.718307
O O16 0.506612 0.302061 0.000000
O O17 0.528201 0.952145 0.500000
O O18 0.563769 0.911388 0.201372
O O19 0.500000 0.000000 0.210731
O O20 0.873155 0.344243 0.000000
O O21 0.211065 0.836170 0.000000
#
# Coordination Sequence:
#
# PCOD9425071 Si02
#       8
#     8   8   8   8   8   8   8   8
#     4   9  17  27  41  67  99 132 165 202 249 297
#     4   9  17  27  42  67  98 136 168 201 251 303
#     4   9  16  26  43  69 101 134 168 204 249 301
#     4  10  18  31  52  75 101 133 170 214 254 297
#     4   9  17  26  41  68 106 139 164 205 257 302
#     4  11  23  36  50  72 101 132 167 205 252 307
#     4  10  19  33  51  73 102 129 166 210 250 301
#     4   9  16  27  43  67  99 133 169 203 248 301
#
# _framework density 22.707117
#
# number of rings (size 3 to 8) (size 9 to 14) (size 15 to 20)
#    0.000    2.500    1.250    1.875    1.750    5.000 
#    0.000    0.000    0.000    0.375    0.000    6.125 
#    0.000    0.000    0.000    0.000    0.000    0.000 
#
# Total GULP energy -357766.990337 kJ/mol
# GULP energy per Si atom -5590.109224 kJ/mol
# Density = 2.265543 g / cm^3
# Si number density = 22.707117 Si / 1000 Ang^3
#
#
#
# Elastic Constant Matrix: (Units=GPa)
#
#
# Indices 1 2 3 4 5 6 
#
# 1 175.4530 83.9068 1.7545 0.0000 0.0000 0.0000
# 2 83.9068 174.8509 4.1814 0.0000 0.0000 0.0000
# 3 1.7545 4.1814 89.5866 0.0000 0.0000 0.0000
# 4 0.0000 0.0000 0.0000 -19.6177 0.0000 0.0000
# 5 0.0000 0.0000 0.0000 0.0000 -37.8620 0.0000
# 6 0.0000 0.0000 0.0000 0.0000 0.0000 40.5657
#
#
#
# Elastic Compliance Matrix: (Units=1/GPa)
#
#
# Indices 1 2 3 4 5 6 
#
# 1 0.007397 -0.003550 0.000021 0.000000 0.000000 0.000000
# 2 -0.003550 0.007429 -0.000277 0.000000 0.000000 0.000000
# 3 0.000021 -0.000277 0.011175 0.000000 0.000000 0.000000
# 4 0.000000 0.000000 0.000000 -0.050974 0.000000 0.000000
# 5 0.000000 0.000000 0.000000 0.000000 -0.026412 0.000000
# 6 0.000000 0.000000 0.000000 0.000000 0.000000 0.024651
#
#
# Mechanical properties :
#
#
# Convention : Reuss Voigt Hill
#
# Bulk Modulus (GPa) = 54.38243 68.84174 61.61209
# Shear Modulus (GPa) = -384.89273 19.95372 -182.46950
#
# Velocity S-wave (km/s) = -13.03346 2.96758 -8.97398
# Velocity P-wave (km/s) = 14.23001 6.49038 8.95456
#
# Compressibility (1/GPa) = 0.01838829
#
# Stress axis : x y z
#
# Youngs Moduli (GPa) = 135.18748 134.59947 89.48610
#
# Poissons Ratio (x) = 0.47786 -0.00186
# Poissons Ratio (y) = 0.47994 0.02481
# Poissons Ratio (z) = -0.00282 0.03732
#
# Static dielectric constant tensor:
#      x y z
#    x 1.785980 0.000000 0.000000 
#    y 0.000000 1.789280 0.000000 
#    z 0.000000 0.000000 1.868950 
# 
# From -- ./inp_files/4492.got.cif
#   From: 2010.05.17/outbox.cif.g08.bks.cpg/sg55_3_cif.got.tgz:4492.got - 2010.06.03 13:27:54.
