data_PCOD9425453
_publ_section_title
;
Structure prediction by ZEFSAII (Michael W. Deem and Ramdas Pophale) SiO2 
 PCOD9425453
Probable space group: P B A M
;
_chemical_formula_sum "Si O2"
_cell_formula_units_Z 64
_cell_length_a 15.068351
_cell_length_b 31.594401
_cell_length_c 7.712600
_cell_angle_alpha 90.000000
_cell_angle_beta 90.000000
_cell_angle_gamma 90.000000
_cell_volume 3671.780086
_symmetry_space_group_name_H-M "P B A M"
_symmetry_group_IT_number 55
_symmetry_cell_setting 'orthorhombic'
loop_
_space_group_symop_operation_xyz
x,y,z
-x,-y,z
1/2+x,1/2-y,-z
1/2-x,1/2+y,-z
-x,-y,-z
x,y,-z
1/2-x,1/2+y,z
1/2+x,1/2-y,z
loop_
_atom_site_type_symbol
_atom_site_label
_atom_site_fract_x
_atom_site_fract_y
_atom_site_fract_z
Si Si1 0.183273 0.132849 0.291021
Si Si2 0.206415 0.289308 0.213228
Si Si3 0.998130 0.173135 0.703516
Si Si4 0.315621 0.206014 0.206289
Si Si5 0.507304 0.228827 0.789686
Si Si6 0.182345 0.867971 0.195711
Si Si7 0.097356 0.952900 0.294677
Si Si8 0.105389 0.047444 0.712217
O O1 0.183700 0.132735 0.500000
O O2 0.264217 0.162418 0.237479
O O3 0.171959 0.084414 0.230595
O O4 0.092290 0.155692 0.234145
O O5 0.259342 0.246893 0.271751
O O6 0.253973 0.332247 0.276235
O O7 0.103644 0.287591 0.266685
O O8 0.209803 0.289136 0.000000
O O9 0.988566 0.161887 0.500000
O O10 0.998222 0.223078 0.728054
O O11 0.914632 0.153377 0.798837
O O12 0.417108 0.206026 0.270394
O O13 0.320255 0.212100 0.000000
O O14 0.508856 0.228642 0.000000
O O15 0.165286 0.914845 0.266305
O O16 0.213258 0.873692 0.000000
O O17 0.087573 0.957577 0.500000
O O18 0.996700 0.942729 0.232807
O O19 0.124248 0.999480 0.228988
O O20 0.106997 0.048212 0.500000
#
# Coordination Sequence:
#
# PCOD9425453 Si02
#       8
#     8   8   8   8   8   8   8   8
#     4  10  19  31  46  68  94 124 156 187 225 272
#     4   9  18  31  47  66  90 123 157 186 226 274
#     4  11  20  29  45  68  94 123 158 191 225 266
#     4  10  19  31  48  68  89 121 157 189 228 272
#     4  10  19  34  49  63  91 125 158 191 228 274
#     4  11  20  31  46  68  96 127 157 189 228 272
#     4   9  16  30  49  68  91 122 155 188 225 279
#     4   8  15  29  48  66  92 125 153 182 229 282
#
# _framework density 17.430237000000002
#
# number of rings (size 3 to 8) (size 9 to 14) (size 15 to 20)
#    0.000    2.250    3.750    1.500    0.000    1.000 
#    0.000    3.125    0.000    0.000    0.000    0.875 
#    0.000    7.000    0.000    0.000    0.000    0.000 
#
# Total GULP energy -356731.891964 kJ/mol
# GULP energy per Si atom -5573.935812 kJ/mol
# Density = 1.739057 g / cm^3
# Si number density = 17.430237 Si / 1000 Ang^3
#
#
#
# Elastic Constant Matrix: (Units=GPa)
#
#
# Indices 1 2 3 4 5 6 
#
# 1 102.5863 60.5974 7.9121 0.0000 0.0000 0.0000
# 2 60.5974 137.9158 1.1928 0.0000 0.0000 0.0000
# 3 7.9121 1.1928 21.2039 0.0000 0.0000 0.0000
# 4 0.0000 0.0000 0.0000 22.7114 0.0000 0.0000
# 5 0.0000 0.0000 0.0000 0.0000 11.7745 0.0000
# 6 0.0000 0.0000 0.0000 0.0000 0.0000 23.6960
#
#
#
# Elastic Compliance Matrix: (Units=1/GPa)
#
#
# Indices 1 2 3 4 5 6 
#
# 1 0.013627 -0.005946 -0.004750 0.000000 0.000000 0.000000
# 2 -0.005946 0.009849 0.001665 0.000000 0.000000 0.000000
# 3 -0.004750 0.001665 0.048840 0.000000 0.000000 0.000000
# 4 0.000000 0.000000 0.000000 0.044031 0.000000 0.000000
# 5 0.000000 0.000000 0.000000 0.000000 0.084929 0.000000
# 6 0.000000 0.000000 0.000000 0.000000 0.000000 0.042201
#
#
# Mechanical properties :
#
#
# Convention : Reuss Voigt Hill
#
# Bulk Modulus (GPa) = 18.43239 44.56783 31.50011
# Shear Modulus (GPa) = 17.88115 24.43664 21.15890
#
# Velocity S-wave (km/s) = 3.20639 3.74835 3.48791
# Velocity P-wave (km/s) = 4.93010 6.66020 5.85936
#
# Compressibility (1/GPa) = 0.05425231
#
# Stress axis : x y z
#
# Youngs Moduli (GPa) = 73.38558 101.53275 20.47505
#
# Poissons Ratio (x) = 0.60373 0.09726
# Poissons Ratio (y) = 0.43636 -0.03409
# Poissons Ratio (z) = 0.34860 -0.16903
#
# Static dielectric constant tensor:
#      x y z
#    x 1.588980 0.000000 0.000000 
#    y 0.000000 1.613680 0.000000 
#    z 0.000000 0.000000 1.659500 
# 
# From -- ./inp_files/6906.got.cif
#   From: 2010.05.17/outbox.cif.g08.bks.cpg/sg55_4_cif.got.tgz:6906.got - 2010.06.03 13:27:54.
