data_PCOD9425383
_publ_section_title
;
Structure prediction by ZEFSAII (Michael W. Deem and Ramdas Pophale) SiO2 
 PCOD9425383
Probable space group: P B A M
;
_chemical_formula_sum "Si O2"
_cell_formula_units_Z 56
_cell_length_a 14.008011
_cell_length_b 29.696154
_cell_length_c 8.917617
_cell_angle_alpha 90.000000
_cell_angle_beta 90.000000
_cell_angle_gamma 90.000000
_cell_volume 3709.586453
_symmetry_space_group_name_H-M "P B A M"
_symmetry_group_IT_number 55
_symmetry_cell_setting 'orthorhombic'
loop_
_space_group_symop_operation_xyz
x,y,z
-x,-y,z
1/2+x,1/2-y,-z
1/2-x,1/2+y,-z
-x,-y,-z
x,y,-z
1/2-x,1/2+y,z
1/2+x,1/2-y,z
loop_
_atom_site_type_symbol
_atom_site_label
_atom_site_fract_x
_atom_site_fract_y
_atom_site_fract_z
Si Si1 0.392223 0.095303 0.679674
Si Si2 0.398146 0.732846 0.819997
Si Si3 0.787166 0.322107 0.821946
Si Si4 0.384423 0.995866 0.672160
Si Si5 0.897149 0.596475 0.821806
Si Si6 0.203381 0.318455 0.678551
Si Si7 0.383144 0.273571 0.820952
O O1 0.405665 0.095276 0.500000
O O2 0.324078 0.135356 0.731149
O O3 0.352286 0.045649 0.720956
O O4 0.495460 0.101435 0.756624
O O5 0.320031 0.694459 0.786607
O O6 0.364413 0.778084 0.737806
O O7 0.506263 0.720205 0.781997
O O8 0.393605 0.741236 0.000000
O O9 0.852908 0.278268 0.791435
O O10 0.793295 0.331563 0.000000
O O11 0.354863 0.987429 0.500000
O O12 0.500000 0.000000 0.671971
O O13 0.361067 0.953050 0.772967
O O14 0.832816 0.635375 0.750733
O O15 0.899879 0.600647 0.000000
O O16 0.199318 0.320928 0.500000
O O17 0.308998 0.304878 0.734088
O O18 0.370664 0.280690 0.000000
#
# Coordination Sequence:
#
# PCOD9425383 Si02
#       7
#     8   8   8   8   8   8   8
#     4  10  19  30  45  66  94 124 151 184 225 267
#     4   9  18  33  50  67  91 122 153 188 225 261
#     4   9  17  28  45  69  93 120 154 186 219 264
#     4   8  16  30  44  62  90 119 147 182 225 269
#     4  11  20  30  46  66  90 120 153 187 223 268
#     4  11  21  31  46  68  93 120 151 186 224 268
#     4   9  18  33  49  65  89 120 153 188 224 261
#
# _framework density 15.096022
#
# number of rings (size 3 to 8) (size 9 to 14) (size 15 to 20)
#    0.000    2.429    0.000    5.571    0.000    7.143 
#    0.000    0.000    0.000    0.000    0.000    1.000 
#    0.000    8.000    0.000    0.000    0.000    0.000 
#
# Total GULP energy -312267.943118 kJ/mol
# GULP energy per Si atom -5576.213270 kJ/mol
# Density = 1.506166 g / cm^3
# Si number density = 15.096022 Si / 1000 Ang^3
#
#
#
# Elastic Constant Matrix: (Units=GPa)
#
#
# Indices 1 2 3 4 5 6 
#
# 1 94.2841 60.6067 49.9130 0.0000 0.0000 0.0000
# 2 60.6067 130.6006 71.0859 0.0000 0.0000 0.0000
# 3 49.9130 71.0859 83.1542 0.0000 0.0000 0.0000
# 4 0.0000 0.0000 0.0000 21.6213 0.0000 0.0000
# 5 0.0000 0.0000 0.0000 0.0000 14.7607 0.0000
# 6 0.0000 0.0000 0.0000 0.0000 0.0000 20.3756
#
#
#
# Elastic Compliance Matrix: (Units=1/GPa)
#
#
# Indices 1 2 3 4 5 6 
#
# 1 0.016746 -0.004302 -0.006374 0.000000 0.000000 0.000000
# 2 -0.004302 0.015425 -0.010604 0.000000 0.000000 0.000000
# 3 -0.006374 -0.010604 0.024917 0.000000 0.000000 0.000000
# 4 0.000000 0.000000 0.000000 0.046251 0.000000 0.000000
# 5 0.000000 0.000000 0.000000 0.000000 0.067747 0.000000
# 6 0.000000 0.000000 0.000000 0.000000 0.000000 0.049078
#
#
# Mechanical properties :
#
#
# Convention : Reuss Voigt Hill
#
# Bulk Modulus (GPa) = 68.83418 74.58334 71.70876
# Shear Modulus (GPa) = 18.68683 19.78042 19.23362
#
# Velocity S-wave (km/s) = 3.52215 3.62374 3.57331
# Velocity P-wave (km/s) = 7.88906 8.18669 8.03925
#
# Compressibility (1/GPa) = 0.01452767
#
# Stress axis : x y z
#
# Youngs Moduli (GPa) = 59.71641 64.82939 40.13249
#
# Poissons Ratio (x) = 0.27886 0.25582
# Poissons Ratio (y) = 0.25687 0.42558
# Poissons Ratio (z) = 0.38066 0.68748
#
# Static dielectric constant tensor:
#      x y z
#    x 1.486780 0.000000 0.000000 
#    y 0.000000 1.501560 0.000000 
#    z 0.000000 0.000000 1.503490 
# 
# From -- ./inp_files/6853.got.cif
#   From: 2010.05.17/outbox.cif.g08.bks.cpg/sg55_4_cif.got.tgz:6853.got - 2010.06.03 13:27:54.
