data_PCOD9425462
_publ_section_title
;
Structure prediction by ZEFSAII (Michael W. Deem and Ramdas Pophale) SiO2 
 PCOD9425462
Probable space group: P B A M
;
_chemical_formula_sum "Si O2"
_cell_formula_units_Z 48
_cell_length_a 10.967493
_cell_length_b 16.818879
_cell_length_c 13.738655
_cell_angle_alpha 90.000000
_cell_angle_beta 90.000000
_cell_angle_gamma 90.000000
_cell_volume 2534.245184
_symmetry_space_group_name_H-M "P B A M"
_symmetry_group_IT_number 55
_symmetry_cell_setting 'orthorhombic'
loop_
_space_group_symop_operation_xyz
x,y,z
-x,-y,z
1/2+x,1/2-y,-z
1/2-x,1/2+y,-z
-x,-y,-z
x,y,-z
1/2-x,1/2+y,z
1/2+x,1/2-y,z
loop_
_atom_site_type_symbol
_atom_site_label
_atom_site_fract_x
_atom_site_fract_y
_atom_site_fract_z
Si Si1 0.565213 0.085791 0.891748
Si Si2 0.728769 0.548524 0.744884
Si Si3 0.148066 0.715832 0.888939
Si Si4 0.675600 0.373368 0.239878
Si Si5 0.032569 0.905392 0.388669
Si Si6 0.460229 0.392216 0.891090
O O1 0.659690 0.086705 0.803063
O O2 0.463262 0.153347 0.884127
O O3 0.500000 0.000000 0.890028
O O4 0.624438 0.094097 0.000000
O O5 0.747373 0.453926 0.729309
O O6 0.670591 0.595016 0.653528
O O7 0.615300 0.553819 0.818590
O O8 0.234998 0.695390 0.797657
O O9 0.095303 0.803951 0.881387
O O10 0.201091 0.708238 0.000000
O O11 0.569274 0.362316 0.321168
O O12 0.598880 0.388566 0.141759
O O13 0.026234 0.878760 0.500000
O O14 0.000000 0.000000 0.385280
O O15 0.444794 0.418967 0.000000
#
# Coordination Sequence:
#
# PCOD9425462 Si02
#       6
#     8   8   8   8   8   8
#     4  10  19  31  47  70 104 144 174 201 243 300
#     4  10  19  32  53  77  97 128 174 218 258 302
#     4  10  21  33  46  70 107 144 170 198 244 304
#     4  10  19  33  52  74  99 130 171 213 255 302
#     4   8  16  32  55  79  98 121 160 215 270 306
#     4  10  21  31  46  72 102 135 170 209 251 298
#
# _framework density 18.940550999999999
#
# number of rings (size 3 to 8) (size 9 to 14) (size 15 to 20)
#    0.000    2.333    1.667    2.500    2.333    2.667 
#    0.000    0.000    0.000    5.500    0.000    0.000 
#    0.000    0.000    0.000    0.000    0.000    0.000 
#
# Total GULP energy -267413.900879 kJ/mol
# GULP energy per Si atom -5571.122935 kJ/mol
# Density = 1.889744 g / cm^3
# Si number density = 18.940551 Si / 1000 Ang^3
#
#
#
# Elastic Constant Matrix: (Units=GPa)
#
#
# Indices 1 2 3 4 5 6 
#
# 1 43.5652 16.0862 23.8238 0.0000 0.0000 0.0000
# 2 16.0862 79.7998 14.8539 0.0000 0.0000 0.0000
# 3 23.8238 14.8539 96.5367 0.0000 0.0000 0.0000
# 4 0.0000 0.0000 0.0000 12.8475 0.0000 0.0000
# 5 0.0000 0.0000 0.0000 0.0000 17.8845 0.0000
# 6 0.0000 0.0000 0.0000 0.0000 0.0000 20.1747
#
#
#
# Elastic Compliance Matrix: (Units=1/GPa)
#
#
# Indices 1 2 3 4 5 6 
#
# 1 0.028015 -0.004489 -0.006223 0.000000 0.000000 0.000000
# 2 -0.004489 0.013620 -0.000988 0.000000 0.000000 0.000000
# 3 -0.006223 -0.000988 0.012046 0.000000 0.000000 0.000000
# 4 0.000000 0.000000 0.000000 0.077836 0.000000 0.000000
# 5 0.000000 0.000000 0.000000 0.000000 0.055914 0.000000
# 6 0.000000 0.000000 0.000000 0.000000 0.000000 0.049567
#
#
# Mechanical properties :
#
#
# Convention : Reuss Voigt Hill
#
# Bulk Modulus (GPa) = 33.02313 36.60328 34.81321
# Shear Modulus (GPa) = 18.48485 21.19054 19.83769
#
# Velocity S-wave (km/s) = 3.12739 3.34846 3.23981
# Velocity P-wave (km/s) = 5.52393 5.85806 5.69345
#
# Compressibility (1/GPa) = 0.03028181
#
# Stress axis : x y z
#
# Youngs Moduli (GPa) = 35.69569 73.42074 83.01182
#
# Poissons Ratio (x) = 0.32958 0.51657
# Poissons Ratio (y) = 0.16023 0.08201
# Poissons Ratio (z) = 0.22213 0.07253
#
# Static dielectric constant tensor:
#      x y z
#    x 1.687750 0.000000 0.000000 
#    y 0.000000 1.711930 0.000000 
#    z 0.000000 0.000000 1.672740 
# 
# From -- ./inp_files/18264.got.cif
#   From: 2010.05.17/outbox.cif.g08.bks.cpg/sg55_10_cif.got.tgz:18264.got - 2010.06.03 13:27:54.
