data_PCOD9425972
_publ_section_title
;
Structure prediction by ZEFSAII (Michael W. Deem and Ramdas Pophale) SiO2 
 PCOD9425972
Probable space group: P B A M
;
_chemical_formula_sum "Si O2"
_cell_formula_units_Z 48
_cell_length_a 22.610034
_cell_length_b 12.647877
_cell_length_c 7.530475
_cell_angle_alpha 90.000000
_cell_angle_beta 90.000000
_cell_angle_gamma 90.000000
_cell_volume 2153.481871
_symmetry_space_group_name_H-M "P B A M"
_symmetry_group_IT_number 55
_symmetry_cell_setting 'orthorhombic'
loop_
_space_group_symop_operation_xyz
x,y,z
-x,-y,z
1/2+x,1/2-y,-z
1/2-x,1/2+y,-z
-x,-y,-z
x,y,-z
1/2-x,1/2+y,z
1/2+x,1/2-y,z
loop_
_atom_site_type_symbol
_atom_site_label
_atom_site_fract_x
_atom_site_fract_y
_atom_site_fract_z
Si Si1 0.699524 0.578394 0.217608
Si Si2 0.566220 0.979289 0.292395
Si Si3 0.640111 0.359944 0.216592
Si Si4 0.827809 0.633138 0.785726
Si Si5 0.394224 0.252643 0.209972
Si Si6 0.992272 0.878055 0.783437
O O1 0.665984 0.472045 0.274903
O O2 0.767511 0.578384 0.276287
O O3 0.662897 0.682514 0.276128
O O4 0.700428 0.577942 0.000000
O O5 0.557812 0.962070 0.500000
O O6 0.598784 0.872621 0.228613
O O7 0.500000 0.000000 0.215502
O O8 0.611614 0.075524 0.266252
O O9 0.674435 0.255214 0.271574
O O10 0.572565 0.344171 0.274188
O O11 0.640398 0.363465 0.000000
O O12 0.827588 0.631908 0.000000
O O13 0.453900 0.307033 0.282257
O O14 0.394030 0.273466 0.000000
O O15 0.992774 0.873880 0.000000
O O16 0.000000 0.000000 0.733814
#
# Coordination Sequence:
#
# PCOD9425972 Si02
#       6
#     8   8   8   8   8   8
#     4   9  18  31  52  88 122 145 177 230 288 338
#     4  11  25  43  59  78 112 155 198 246 294 337
#     4   9  16  28  48  79 116 144 174 222 279 332
#     4  10  21  35  58  86 112 147 190 234 284 345
#     4  10  19  33  59  90 118 147 186 233 285 345
#     4   9  14  24  45  79 114 141 172 218 273 326
#
# _framework density 22.289483000000001
#
# number of rings (size 3 to 8) (size 9 to 14) (size 15 to 20)
#    0.000    2.333    1.667    1.500    2.333    2.667 
#    0.000    0.833    0.000    1.500    0.000    0.000 
#    0.000    0.000    0.000    0.000    0.000    0.000 
#
# Total GULP energy -267975.756537 kJ/mol
# GULP energy per Si atom -5582.828261 kJ/mol
# Density = 2.223875 g / cm^3
# Si number density = 22.289483 Si / 1000 Ang^3
#
#
#
# Elastic Constant Matrix: (Units=GPa)
#
#
# Indices 1 2 3 4 5 6 
#
# 1 135.4581 37.6054 -1.7515 0.0000 0.0000 0.0000
# 2 37.6054 98.4320 -15.9014 0.0000 0.0000 0.0000
# 3 -1.7515 -15.9014 45.1141 0.0000 0.0000 0.0000
# 4 0.0000 0.0000 0.0000 492.6079 0.0000 0.0000
# 5 0.0000 0.0000 0.0000 0.0000 -21.3048 0.0000
# 6 0.0000 0.0000 0.0000 0.0000 0.0000 24.7736
#
#
#
# Elastic Compliance Matrix: (Units=1/GPa)
#
#
# Indices 1 2 3 4 5 6 
#
# 1 0.008288 -0.003303 -0.000842 0.000000 0.000000 0.000000
# 2 -0.003303 0.012089 0.004133 0.000000 0.000000 0.000000
# 3 -0.000842 0.004133 0.023590 0.000000 0.000000 0.000000
# 4 0.000000 0.000000 0.000000 0.002030 0.000000 0.000000
# 5 0.000000 0.000000 0.000000 0.000000 -0.046938 0.000000
# 6 0.000000 0.000000 0.000000 0.000000 0.000000 0.040366
#
#
# Mechanical properties :
#
#
# Convention : Reuss Voigt Hill
#
# Bulk Modulus (GPa) = 22.75699 35.43437 29.09568
# Shear Modulus (GPa) = 92.42722 116.48545 104.45634
#
# Velocity S-wave (km/s) = 6.44645 7.23697 6.85312
# Velocity P-wave (km/s) = 8.10191 9.26086 8.70070
#
# Compressibility (1/GPa) = 0.04394254
#
# Stress axis : x y z
#
# Youngs Moduli (GPa) = 120.65186 82.72229 42.39095
#
# Poissons Ratio (x) = 0.27320 0.03571
# Poissons Ratio (y) = 0.39846 -0.17519
# Poissons Ratio (z) = 0.10162 -0.34186
#
# Static dielectric constant tensor:
#      x y z
#    x 1.814680 0.000000 0.000000 
#    y 0.000000 1.795270 0.000000 
#    z 0.000000 0.000000 1.867030 
# 
# From -- ./inp_files/9428.got.cif
#   From: 2010.05.17/outbox.cif.g08.bks.cpg/sg55_5_cif.got.tgz:9428.got - 2010.06.03 13:27:54.
