data_PCOD9425592
_publ_section_title
;
Structure prediction by ZEFSAII (Michael W. Deem and Ramdas Pophale) SiO2 
 PCOD9425592
Probable space group: P B A M
;
_chemical_formula_sum "Si O2"
_cell_formula_units_Z 64
_cell_length_a 19.944025
_cell_length_b 20.898382
_cell_length_c 8.816663
_cell_angle_alpha 90.000000
_cell_angle_beta 90.000000
_cell_angle_gamma 90.000000
_cell_volume 3674.766210
_symmetry_space_group_name_H-M "P B A M"
_symmetry_group_IT_number 55
_symmetry_cell_setting 'orthorhombic'
loop_
_space_group_symop_operation_xyz
x,y,z
-x,-y,z
1/2+x,1/2-y,-z
1/2-x,1/2+y,-z
-x,-y,-z
x,y,-z
1/2-x,1/2+y,z
1/2+x,1/2-y,z
loop_
_atom_site_type_symbol
_atom_site_label
_atom_site_fract_x
_atom_site_fract_y
_atom_site_fract_z
Si Si1 0.693935 0.982559 0.317464
Si Si2 0.842707 0.349785 0.183251
Si Si3 0.562778 0.047985 0.180202
Si Si4 0.481705 0.301454 0.824416
Si Si5 0.035980 0.934261 0.683210
Si Si6 0.190439 0.921017 0.318312
Si Si7 0.319159 0.289241 0.825144
Si Si8 0.991624 0.332186 0.318849
O O1 0.693632 0.977028 0.500000
O O2 0.693604 0.912570 0.243532
O O3 0.626823 0.018024 0.262081
O O4 0.756948 0.025661 0.268057
O O5 0.806698 0.283197 0.228489
O O6 0.917781 0.348481 0.251955
O O7 0.848472 0.350505 0.000000
O O8 0.542068 0.116011 0.249535
O O9 0.500000 0.000000 0.202282
O O10 0.574761 0.053101 0.000000
O O11 0.496627 0.370509 0.753226
O O12 0.400374 0.295207 0.818831
O O13 0.508046 0.240003 0.733860
O O14 0.501827 0.298028 0.000000
O O15 0.033820 0.928845 0.500000
O O16 0.114186 0.935599 0.731082
O O17 0.000000 0.000000 0.727181
O O18 0.190418 0.921013 0.500000
O O19 0.208821 0.849698 0.264116
O O20 0.298547 0.294563 0.000000
O O21 0.989750 0.336439 0.500000
#
# Coordination Sequence:
#
# PCOD9425592 Si02
#       8
#     8   8   8   8   8   8   8   8
#     4  11  22  34  51  76 105 138 176 215 262 315
#     4  10  19  32  50  76 104 133 173 217 257 303
#     4  11  22  35  52  74 104 140 177 217 260 304
#     4   9  17  30  49  76 107 135 170 213 259 308
#     4   9  17  32  56  82 107 137 175 217 265 315
#     4   9  19  34  52  77 106 133 171 216 259 311
#     4   8  16  30  50  73  97 128 169 213 254 301
#     4  11  20  31  51  76 104 135 173 216 259 306
#
# _framework density 17.416074999999999
#
# number of rings (size 3 to 8) (size 9 to 14) (size 15 to 20)
#    0.000    2.250    1.250    3.375    0.000    5.250 
#    0.000    0.000    2.750    0.000    0.000    0.000 
#    0.000    0.000    0.000    0.000    0.000    0.000 
#
# Total GULP energy -356940.044491 kJ/mol
# GULP energy per Si atom -5577.188195 kJ/mol
# Density = 1.737644 g / cm^3
# Si number density = 17.416075 Si / 1000 Ang^3
#
#
#
# Elastic Constant Matrix: (Units=GPa)
#
#
# Indices 1 2 3 4 5 6 
#
# 1 38.1563 48.0037 19.1429 0.0000 0.0000 0.0000
# 2 48.0037 187.0719 49.1001 0.0000 0.0000 0.0000
# 3 19.1429 49.1001 59.2762 0.0000 0.0000 0.0000
# 4 0.0000 0.0000 0.0000 34.4447 0.0000 0.0000
# 5 0.0000 0.0000 0.0000 0.0000 12.6022 0.0000
# 6 0.0000 0.0000 0.0000 0.0000 0.0000 27.2724
#
#
#
# Elastic Compliance Matrix: (Units=1/GPa)
#
#
# Indices 1 2 3 4 5 6 
#
# 1 0.040136 -0.008813 -0.005662 0.000000 0.000000 0.000000
# 2 -0.008813 0.008766 -0.004415 0.000000 0.000000 0.000000
# 3 -0.005662 -0.004415 0.022355 0.000000 0.000000 0.000000
# 4 0.000000 0.000000 0.000000 0.029032 0.000000 0.000000
# 5 0.000000 0.000000 0.000000 0.000000 0.079351 0.000000
# 6 0.000000 0.000000 0.000000 0.000000 0.000000 0.036667
#
#
# Mechanical properties :
#
#
# Convention : Reuss Voigt Hill
#
# Bulk Modulus (GPa) = 29.87010 57.44419 43.65715
# Shear Modulus (GPa) = 18.85042 26.08104 22.46573
#
# Velocity S-wave (km/s) = 3.29349 3.87399 3.59547
# Velocity P-wave (km/s) = 5.62591 7.28460 6.50831
#
# Compressibility (1/GPa) = 0.03347829
#
# Stress axis : x y z
#
# Youngs Moduli (GPa) = 24.91526 114.08011 44.73189
#
# Poissons Ratio (x) = 1.00541 0.25325
# Poissons Ratio (y) = 0.21958 0.19748
# Poissons Ratio (z) = 0.14106 0.50364
#
# Static dielectric constant tensor:
#      x y z
#    x 1.574710 0.000000 0.000000 
#    y 0.000000 1.605180 0.000000 
#    z 0.000000 0.000000 1.585150 
# 
# From -- ./inp_files/8048.got.cif
#   From: 2010.05.17/outbox.cif.g08.bks.cpg/sg55_5_cif.got.tgz:8048.got - 2010.06.03 13:27:54.
