data_PCOD9425648
_publ_section_title
;
Structure prediction by ZEFSAII (Michael W. Deem and Ramdas Pophale) SiO2 
 PCOD9425648
Probable space group: P B A M
;
_chemical_formula_sum "Si O2"
_cell_formula_units_Z 64
_cell_length_a 22.690650
_cell_length_b 16.259491
_cell_length_c 9.228824
_cell_angle_alpha 90.000000
_cell_angle_beta 90.000000
_cell_angle_gamma 90.000000
_cell_volume 3404.867740
_symmetry_space_group_name_H-M "P B A M"
_symmetry_group_IT_number 55
_symmetry_cell_setting 'orthorhombic'
loop_
_space_group_symop_operation_xyz
x,y,z
-x,-y,z
1/2+x,1/2-y,-z
1/2-x,1/2+y,-z
-x,-y,-z
x,y,-z
1/2-x,1/2+y,z
1/2+x,1/2-y,z
loop_
_atom_site_type_symbol
_atom_site_label
_atom_site_fract_x
_atom_site_fract_y
_atom_site_fract_z
Si Si1 0.660589 0.748877 0.671431
Si Si2 0.706576 0.566632 0.670973
Si Si3 0.008704 0.091555 0.829615
Si Si4 0.459568 0.234651 0.175743
Si Si5 0.356912 0.568272 0.840232
Si Si6 0.825376 0.600015 0.172726
Si Si7 0.039390 0.421237 0.176327
Si Si8 0.727935 0.277642 0.837152
O O1 0.651499 0.755480 0.500000
O O2 0.675980 0.653702 0.709087
O O3 0.604355 0.781232 0.757551
O O4 0.720117 0.791920 0.724299
O O5 0.716509 0.566123 0.500000
O O6 0.662311 0.496567 0.721782
O O7 0.769636 0.557321 0.750448
O O8 0.977663 0.173468 0.772319
O O9 0.078339 0.104363 0.821966
O O10 0.991027 0.086157 0.000000
O O11 0.000000 0.000000 0.765862
O O12 0.506157 0.163569 0.217571
O O13 0.457206 0.235068 0.000000
O O14 0.312611 0.643444 0.839596
O O15 0.355061 0.527344 0.000000
O O16 0.891748 0.578058 0.222720
O O17 0.811211 0.697000 0.196169
O O18 0.822395 0.584271 0.000000
O O19 0.000000 0.500000 0.222240
O O20 0.040835 0.422484 0.000000
O O21 0.752881 0.264302 0.000000
#
# Coordination Sequence:
#
# PCOD9425648 Si02
#       8
#     8   8   8   8   8   8   8   8
#     4  10  21  36  52  73 104 139 174 211 256 311
#     4  10  21  35  51  74 105 139 172 210 258 311
#     4   9  17  29  49  78 107 134 168 211 256 305
#     4  10  19  33  55  79 105 138 173 213 261 310
#     4  10  19  32  52  78 104 131 170 216 262 312
#     4   9  17  33  55  75  99 133 172 213 258 306
#     4   9  18  32  52  79 106 131 165 211 259 307
#     4   9  18  32  52  76  99 128 170 217 259 303
#
# _framework density 18.796619
#
# number of rings (size 3 to 8) (size 9 to 14) (size 15 to 20)
#    0.000    2.500    0.000    2.250    0.000    7.000 
#    0.000    3.750    0.000    4.500    0.000    0.000 
#    0.000    0.000    0.000    0.000    0.000    0.000 
#
# Total GULP energy -356715.820050 kJ/mol
# GULP energy per Si atom -5573.684688 kJ/mol
# Density = 1.875384 g / cm^3
# Si number density = 18.796619 Si / 1000 Ang^3
#
#
#
# Elastic Constant Matrix: (Units=GPa)
#
#
# Indices 1 2 3 4 5 6 
#
# 1 59.0555 0.3195 9.6940 0.0000 0.0000 0.0000
# 2 0.3195 30.0002 3.5611 0.0000 0.0000 0.0000
# 3 9.6940 3.5611 7.6009 0.0000 0.0000 0.0000
# 4 0.0000 0.0000 0.0000 13.2705 0.0000 0.0000
# 5 0.0000 0.0000 0.0000 0.0000 -0.0540 0.0000
# 6 0.0000 0.0000 0.0000 0.0000 0.0000 20.5135
#
#
#
# Elastic Compliance Matrix: (Units=1/GPa)
#
#
# Indices 1 2 3 4 5 6 
#
# 1 0.021710 0.003235 -0.029204 0.000000 0.000000 0.000000
# 2 0.003235 0.035778 -0.020889 0.000000 0.000000 0.000000
# 3 -0.029204 -0.020889 0.178597 0.000000 0.000000 0.000000
# 4 0.000000 0.000000 0.000000 0.075355 0.000000 0.000000
# 5 0.000000 0.000000 0.000000 0.000000-18.534194 0.000000
# 6 0.000000 0.000000 0.000000 0.000000 0.000000 0.048748
#
#
# Mechanical properties :
#
#
# Convention : Reuss Voigt Hill
#
# Bulk Modulus (GPa) = 7.02395 13.75620 10.39008
# Shear Modulus (GPa) = -0.27727 12.28482 6.00378
#
# Velocity S-wave (km/s) = -0.38449 2.55927 1.78914
# Velocity P-wave (km/s) = 1.88357 4.00842 3.13172
#
# Compressibility (1/GPa) = 0.14236996
#
# Stress axis : x y z
#
# Youngs Moduli (GPa) = 46.06262 27.95003 5.59921
#
# Poissons Ratio (x) = -0.09043 0.16352
# Poissons Ratio (y) = -0.14903 0.11696
# Poissons Ratio (z) = 1.34521 0.58384
#
# Static dielectric constant tensor:
#      x y z
#    x 1.639890 0.000000 0.000000 
#    y 0.000000 1.667420 0.000000 
#    z 0.000000 0.000000 1.640800 
# 
# From -- ./inp_files/8960.got.cif
#   From: 2010.05.17/outbox.cif.g08.bks.cpg/sg55_5_cif.got.tgz:8960.got - 2010.06.03 13:27:54.
