data_PCOD9425837
_publ_section_title
;
Structure prediction by ZEFSAII (Michael W. Deem and Ramdas Pophale) SiO2 
 PCOD9425837
Probable space group: P B A M
;
_chemical_formula_sum "Si O2"
_cell_formula_units_Z 48
_cell_length_a 8.038061
_cell_length_b 28.991736
_cell_length_c 8.314393
_cell_angle_alpha 90.000000
_cell_angle_beta 90.000000
_cell_angle_gamma 90.000000
_cell_volume 1937.564049
_symmetry_space_group_name_H-M "P B A M"
_symmetry_group_IT_number 55
_symmetry_cell_setting 'orthorhombic'
loop_
_space_group_symop_operation_xyz
x,y,z
-x,-y,z
1/2+x,1/2-y,-z
1/2-x,1/2+y,-z
-x,-y,-z
x,y,-z
1/2-x,1/2+y,z
1/2+x,1/2-y,z
loop_
_atom_site_type_symbol
_atom_site_label
_atom_site_fract_x
_atom_site_fract_y
_atom_site_fract_z
Si Si1 0.540444 0.902354 0.692336
Si Si2 0.630688 0.348504 0.691431
Si Si3 0.071676 0.929547 0.808929
Si Si4 0.641009 0.182104 0.814172
Si Si5 0.551482 0.738735 0.690233
Si Si6 0.727096 0.987539 0.190301
O O1 0.529928 0.900460 0.500000
O O2 0.395516 0.870524 0.764181
O O3 0.582637 0.954864 0.741542
O O4 0.706124 0.874572 0.751527
O O5 0.649376 0.344597 0.500000
O O6 0.474481 0.381615 0.727915
O O7 0.588384 0.297635 0.750262
O O8 0.900044 0.958949 0.790358
O O9 0.219806 0.962094 0.743615
O O10 0.096191 0.922859 0.000000
O O11 0.477739 0.213548 0.780906
O O12 0.780625 0.209902 0.716379
O O13 0.686762 0.183212 0.000000
O O14 0.534795 0.748033 0.500000
O O15 0.698093 0.992625 0.000000
#
# Coordination Sequence:
#
# PCOD9425837 Si02
#       6
#     8   8   8   8   8   8
#     4  10  19  33  54  81 111 146 183 223 271 323
#     4   9  19  33  53  80 109 141 180 221 265 318
#     4   8  14  25  45  72 106 143 178 218 266 313
#     4  12  25  40  59  84 110 140 180 227 273 325
#     4  11  23  41  61  81 109 145 180 221 273 330
#     4   8  14  26  44  72 107 143 180 220 264 313
#
# _framework density 24.773374
#
# number of rings (size 3 to 8) (size 9 to 14) (size 15 to 20)
#    0.000    2.333    0.000    4.500    0.000    4.000 
#    0.000    3.333    0.000    1.000    0.000    7.000 
#    0.000    0.000    0.000    0.000    0.000    0.000 
#
# Total GULP energy -268385.396453 kJ/mol
# GULP energy per Si atom -5591.362426 kJ/mol
# Density = 2.471699 g / cm^3
# Si number density = 24.773374 Si / 1000 Ang^3
#
#
#
# Elastic Constant Matrix: (Units=GPa)
#
#
# Indices 1 2 3 4 5 6 
#
# 1 91.8916 6.3986 -14.4176 0.0000 0.0000 0.0000
# 2 6.3986 163.7707 5.6778 0.0000 0.0000 0.0000
# 3 -14.4176 5.6778 30.3781 0.0000 0.0000 0.0000
# 4 0.0000 0.0000 0.0000 51.1963 0.0000 0.0000
# 5 0.0000 0.0000 0.0000 0.0000 11.5896 0.0000
# 6 0.0000 0.0000 0.0000 0.0000 0.0000 44.0949
#
#
#
# Elastic Compliance Matrix: (Units=1/GPa)
#
#
# Indices 1 2 3 4 5 6 
#
# 1 0.011829 -0.000661 0.005738 0.000000 0.000000 0.000000
# 2 -0.000661 0.006183 -0.001469 0.000000 0.000000 0.000000
# 3 0.005738 -0.001469 0.035916 0.000000 0.000000 0.000000
# 4 0.000000 0.000000 0.000000 0.019533 0.000000 0.000000
# 5 0.000000 0.000000 0.000000 0.000000 0.086284 0.000000
# 6 0.000000 0.000000 0.000000 0.000000 0.000000 0.022678
#
#
# Mechanical properties :
#
#
# Convention : Reuss Voigt Hill
#
# Bulk Modulus (GPa) = 16.35541 31.26197 23.80869
# Shear Modulus (GPa) = 25.56378 40.60162 33.08270
#
# Velocity S-wave (km/s) = 3.21581 4.05275 3.65830
# Velocity P-wave (km/s) = 4.51718 5.87761 5.24172
#
# Compressibility (1/GPa) = 0.06114185
#
# Stress axis : x y z
#
# Youngs Moduli (GPa) = 84.54068 161.73731 27.84262
#
# Poissons Ratio (x) = 0.10692 -0.15975
# Poissons Ratio (y) = 0.05589 0.04091
# Poissons Ratio (z) = -0.48505 0.23765
#
# Static dielectric constant tensor:
#      x y z
#    x 2.118170 0.000000 0.000000 
#    y 0.000000 2.002670 0.000000 
#    z 0.000000 0.000000 1.830250 
# 
# From -- ./inp_files/2835.got.cif
#   From: 2010.05.17/outbox.cif.g08.bks.cpg/sg55_2_cif.got.tgz:2835.got - 2010.06.03 13:27:54.
