data_PCOD9425467
_publ_section_title
;
Structure prediction by ZEFSAII (Michael W. Deem and Ramdas Pophale) SiO2 
 PCOD9425467
Probable space group: P B A M
;
_chemical_formula_sum "Si O2"
_cell_formula_units_Z 64
_cell_length_a 31.063997
_cell_length_b 14.741846
_cell_length_c 8.819825
_cell_angle_alpha 90.000000
_cell_angle_beta 90.000000
_cell_angle_gamma 90.000000
_cell_volume 4038.956481
_symmetry_space_group_name_H-M "P B A M"
_symmetry_group_IT_number 55
_symmetry_cell_setting 'orthorhombic'
loop_
_space_group_symop_operation_xyz
x,y,z
-x,-y,z
1/2+x,1/2-y,-z
1/2-x,1/2+y,-z
-x,-y,-z
x,y,-z
1/2-x,1/2+y,z
1/2+x,1/2-y,z
loop_
_atom_site_type_symbol
_atom_site_label
_atom_site_fract_x
_atom_site_fract_y
_atom_site_fract_z
Si Si1 0.549494 0.606460 0.183298
Si Si2 0.826368 0.989074 0.327515
Si Si3 0.276679 0.002848 0.323323
Si Si4 0.951569 0.896386 0.184175
Si Si5 0.632461 0.687034 0.321817
Si Si6 0.864179 0.818635 0.821666
Si Si7 0.211406 0.295995 0.318213
Si Si8 0.705667 0.807875 0.179680
O O1 0.557099 0.501048 0.230973
O O2 0.500247 0.628083 0.228100
O O3 0.585163 0.671346 0.253993
O O4 0.552398 0.609485 0.000000
O O5 0.838023 0.959724 0.500000
O O6 0.775050 0.990902 0.317760
O O7 0.844866 0.918705 0.207744
O O8 0.844166 0.089541 0.304570
O O9 0.289591 0.012533 0.500000
O O10 0.294308 0.087371 0.230023
O O11 0.288351 0.901526 0.271052
O O12 0.913519 0.829369 0.232904
O O13 0.950688 0.897716 0.000000
O O14 0.630365 0.708019 0.500000
O O15 0.662679 0.759008 0.238882
O O16 0.832516 0.751544 0.734196
O O17 0.863454 0.797212 0.000000
O O18 0.215494 0.292754 0.500000
O O19 0.252474 0.242211 0.251284
O O20 0.708857 0.800242 0.000000
#
# Coordination Sequence:
#
# PCOD9425467 Si02
#       8
#     8   8   8   8   8   8   8   8
#     4   9  16  31  50  71 100 136 172 207 250 301
#     4  10  19  31  48  69  99 138 171 204 247 293
#     4  10  21  38  54  68  97 137 172 207 249 295
#     4   8  16  29  48  72 103 136 167 207 254 298
#     4  11  21  34  50  73 103 137 173 209 251 302
#     4  11  20  31  49  76 102 134 173 209 247 295
#     4  11  22  37  53  72 101 137 170 206 253 301
#     4  12  24  35  52  76 100 131 171 213 251 296
#
# _framework density 15.845677
#
# number of rings (size 3 to 8) (size 9 to 14) (size 15 to 20)
#    0.000    1.750    3.750    3.000    0.000    1.500 
#    0.000    2.500    0.000    0.000    0.000    0.875 
#    0.000    7.000    0.000    0.000    0.000    0.000 
#
# Total GULP energy -357072.412911 kJ/mol
# GULP energy per Si atom -5579.256452 kJ/mol
# Density = 1.580961 g / cm^3
# Si number density = 15.845677 Si / 1000 Ang^3
#
#
#
# Elastic Constant Matrix: (Units=GPa)
#
#
# Indices 1 2 3 4 5 6 
#
# 1 112.8265 52.9392 32.4725 0.0000 0.0000 0.0000
# 2 52.9392 85.9740 40.7567 0.0000 0.0000 0.0000
# 3 32.4725 40.7567 54.1939 0.0000 0.0000 0.0000
# 4 0.0000 0.0000 0.0000 -4.3162 0.0000 0.0000
# 5 0.0000 0.0000 0.0000 0.0000 -10.3694 0.0000
# 6 0.0000 0.0000 0.0000 0.0000 0.0000 23.0944
#
#
#
# Elastic Compliance Matrix: (Units=1/GPa)
#
#
# Indices 1 2 3 4 5 6 
#
# 1 0.012712 -0.006553 -0.002689 0.000000 0.000000 0.000000
# 2 -0.006553 0.021454 -0.012208 0.000000 0.000000 0.000000
# 3 -0.002689 -0.012208 0.029244 0.000000 0.000000 0.000000
# 4 0.000000 0.000000 0.000000 -0.231683 0.000000 0.000000
# 5 0.000000 0.000000 0.000000 0.000000 -0.096438 0.000000
# 6 0.000000 0.000000 0.000000 0.000000 0.000000 0.043301
#
#
# Mechanical properties :
#
#
# Convention : Reuss Voigt Hill
#
# Bulk Modulus (GPa) = 48.75463 56.14790 52.45127
# Shear Modulus (GPa) = -29.12470 10.13682 -9.49394
#
# Velocity S-wave (km/s) = -4.29187 2.53202 -2.45041
# Velocity P-wave (km/s) = 2.50500 6.63772 5.01669
#
# Compressibility (1/GPa) = 0.02051087
#
# Stress axis : x y z
#
# Youngs Moduli (GPa) = 78.66851 46.61236 34.19469
#
# Poissons Ratio (x) = 0.30543 0.09194
# Poissons Ratio (y) = 0.51549 0.41745
# Poissons Ratio (z) = 0.21152 0.56904
#
# Static dielectric constant tensor:
#      x y z
#    x 1.536700 0.000000 0.000000 
#    y 0.000000 1.515040 0.000000 
#    z 0.000000 0.000000 1.547840 
# 
# From -- ./inp_files/10909.got.cif
#   From: 2010.05.17/outbox.cif.g08.bks.cpg/sg55_6_cif.got.tgz:10909.got - 2010.06.03 13:27:54.
