data_PCOD9425541
_publ_section_title
;
Structure prediction by ZEFSAII (Michael W. Deem and Ramdas Pophale) SiO2 
 PCOD9425541
Probable space group: P B A M
;
_chemical_formula_sum "Si O2"
_cell_formula_units_Z 64
_cell_length_a 12.826609
_cell_length_b 29.761804
_cell_length_c 7.464358
_cell_angle_alpha 90.000000
_cell_angle_beta 90.000000
_cell_angle_gamma 90.000000
_cell_volume 2849.466588
_symmetry_space_group_name_H-M "P B A M"
_symmetry_group_IT_number 55
_symmetry_cell_setting 'orthorhombic'
loop_
_space_group_symop_operation_xyz
x,y,z
-x,-y,z
1/2+x,1/2-y,-z
1/2-x,1/2+y,-z
-x,-y,-z
x,y,-z
1/2-x,1/2+y,z
1/2+x,1/2-y,z
loop_
_atom_site_type_symbol
_atom_site_label
_atom_site_fract_x
_atom_site_fract_y
_atom_site_fract_z
Si Si1 0.796187 0.824832 0.298837
Si Si2 0.620500 0.498440 0.218720
Si Si3 0.681883 0.676213 0.798394
Si Si4 0.275190 0.078107 0.206546
Si Si5 0.765875 0.582653 0.780844
Si Si6 0.601625 0.766163 0.786493
Si Si7 0.876092 0.734569 0.286861
Si Si8 0.003886 0.446948 0.782264
O O1 0.831746 0.834876 0.500000
O O2 0.771605 0.872035 0.210421
O O3 0.687981 0.797311 0.299754
O O4 0.870082 0.786156 0.218590
O O5 0.500000 0.500000 0.279623
O O6 0.688961 0.455936 0.282530
O O7 0.689724 0.541746 0.266680
O O8 0.615735 0.496935 0.000000
O O9 0.712642 0.628773 0.715801
O O10 0.608694 0.714768 0.716143
O O11 0.789647 0.704073 0.802860
O O12 0.642827 0.667130 0.000000
O O13 0.393684 0.074655 0.280288
O O14 0.287708 0.063939 0.000000
O O15 0.885551 0.574139 0.721050
O O16 0.769659 0.585062 0.000000
O O17 0.488511 0.784801 0.749980
O O18 0.620701 0.765322 0.000000
O O19 0.856060 0.735560 0.500000
O O20 0.000000 0.500000 0.737082
O O21 0.007181 0.443761 0.000000
#
# Coordination Sequence:
#
# PCOD9425541 Si02
#       8
#     8   8   8   8   8   8   8   8
#     4  10  22  38  54  76 109 146 181 220 270 328
#     4   9  17  29  47  75 111 143 172 215 268 321
#     4   9  19  33  52  79 106 137 177 223 268 313
#     4  10  19  31  52  81 105 135 181 226 269 317
#     4   9  16  28  46  72 105 137 173 214 264 320
#     4  10  20  35  55  79 107 137 177 227 272 315
#     4  10  21  37  55  75 105 144 180 216 266 325
#     4   9  15  26  46  74 107 136 168 215 265 317
#
# _framework density 22.460342000000001
#
# number of rings (size 3 to 8) (size 9 to 14) (size 15 to 20)
#    0.000    2.500    1.250    1.125    1.750    3.000 
#    0.000    2.500    0.000    1.500    0.000    0.000 
#    0.000    0.000    0.000    0.000    0.000    0.000 
#
# Total GULP energy -356915.182338 kJ/mol
# GULP energy per Si atom -5576.799724 kJ/mol
# Density = 2.240922 g / cm^3
# Si number density = 22.460342 Si / 1000 Ang^3
#
#
#
# Elastic Constant Matrix: (Units=GPa)
#
#
# Indices 1 2 3 4 5 6 
#
# 1 104.4541 19.3370 -5.4484 0.0000 0.0000 0.0000
# 2 19.3370 119.7696 -2.5215 0.0000 0.0000 0.0000
# 3 -5.4484 -2.5215 74.3355 0.0000 0.0000 0.0000
# 4 0.0000 0.0000 0.0000 5.8156 0.0000 0.0000
# 5 0.0000 0.0000 0.0000 0.0000 -17.0712 0.0000
# 6 0.0000 0.0000 0.0000 0.0000 0.0000 3.8358
#
#
#
# Elastic Compliance Matrix: (Units=1/GPa)
#
#
# Indices 1 2 3 4 5 6 
#
# 1 0.009902 -0.001585 0.000672 0.000000 0.000000 0.000000
# 2 -0.001585 0.008609 0.000176 0.000000 0.000000 0.000000
# 3 0.000672 0.000176 0.013508 0.000000 0.000000 0.000000
# 4 0.000000 0.000000 0.000000 0.171953 0.000000 0.000000
# 5 0.000000 0.000000 0.000000 0.000000 -0.058578 0.000000
# 6 0.000000 0.000000 0.000000 0.000000 0.000000 0.260700
#
#
# Mechanical properties :
#
#
# Convention : Reuss Voigt Hill
#
# Bulk Modulus (GPa) = 32.73823 35.69926 34.21875
# Shear Modulus (GPa) = 11.96892 17.66218 14.81555
#
# Velocity S-wave (km/s) = 2.31095 2.80727 2.57112
# Velocity P-wave (km/s) = 4.66136 5.14165 4.90739
#
# Compressibility (1/GPa) = 0.03054532
#
# Stress axis : x y z
#
# Youngs Moduli (GPa) = 100.99002 116.15893 74.03157
#
# Poissons Ratio (x) = 0.18406 -0.04975
# Poissons Ratio (y) = 0.16002 -0.01302
# Poissons Ratio (z) = -0.06787 -0.02043
#
# Static dielectric constant tensor:
#      x y z
#    x 1.818530 0.000000 0.000000 
#    y 0.000000 1.813650 0.000000 
#    z 0.000000 0.000000 1.893060 
# 
# From -- ./inp_files/4712.got.cif
#   From: 2010.05.17/outbox.cif.g08.bks.cpg/sg55_3_cif.got.tgz:4712.got - 2010.06.03 13:27:54.
