data_PCOD9425915
_publ_section_title
;
Structure prediction by ZEFSAII (Michael W. Deem and Ramdas Pophale) SiO2 
 PCOD9425915
Probable space group: P B A M
;
_chemical_formula_sum "Si O2"
_cell_formula_units_Z 64
_cell_length_a 12.656195
_cell_length_b 29.370457
_cell_length_c 9.203487
_cell_angle_alpha 90.000000
_cell_angle_beta 90.000000
_cell_angle_gamma 90.000000
_cell_volume 3421.103907
_symmetry_space_group_name_H-M "P B A M"
_symmetry_group_IT_number 55
_symmetry_cell_setting 'orthorhombic'
loop_
_space_group_symop_operation_xyz
x,y,z
-x,-y,z
1/2+x,1/2-y,-z
1/2-x,1/2+y,-z
-x,-y,-z
x,y,-z
1/2-x,1/2+y,z
1/2+x,1/2-y,z
loop_
_atom_site_type_symbol
_atom_site_label
_atom_site_fract_x
_atom_site_fract_y
_atom_site_fract_z
Si Si1 0.030215 0.924465 0.831450
Si Si2 0.660266 0.932708 0.174965
Si Si3 0.926856 0.593190 0.176793
Si Si4 0.236463 0.970903 0.823354
Si Si5 0.560108 0.284087 0.671790
Si Si6 0.626447 0.676286 0.162752
Si Si7 0.375309 0.807668 0.829768
Si Si8 0.663343 0.380078 0.325906
O O1 0.116118 0.961031 0.776648
O O2 0.095735 0.876894 0.830239
O O3 0.926364 0.913868 0.738964
O O4 0.000426 0.934338 0.000000
O O5 0.536564 0.931360 0.213891
O O6 0.726254 0.893686 0.254420
O O7 0.715800 0.980266 0.214457
O O8 0.667721 0.927335 0.000000
O O9 0.822175 0.566593 0.227008
O O10 0.928816 0.645678 0.224774
O O11 0.920140 0.593945 0.000000
O O12 0.232601 0.968099 0.000000
O O13 0.566776 0.279476 0.500000
O O14 0.442103 0.296726 0.721445
O O15 0.595366 0.237816 0.746615
O O16 0.628767 0.328643 0.714886
O O17 0.750215 0.683177 0.180633
O O18 0.596196 0.691935 0.000000
O O19 0.401825 0.801944 0.000000
O O20 0.665941 0.383475 0.500000
#
# Coordination Sequence:
#
# PCOD9425915 Si02
#       8
#     8   8   8   8   8   8   8   8
#     4   9  16  31  57  81 103 133 176 223 264 310
#     4  10  20  33  55  83 112 146 180 214 260 324
#     4   9  17  32  54  83 114 139 172 219 269 319
#     4   9  16  30  55  86 112 137 173 221 270 315
#     4  10  22  37  53  75 104 141 181 222 271 324
#     4   9  17  32  54  77 102 134 171 219 269 314
#     4  10  19  33  56  83 107 135 175 222 272 321
#     4  10  22  39  53  70 106 148 182 223 273 319
#
# _framework density 18.707412000000001
#
# number of rings (size 3 to 8) (size 9 to 14) (size 15 to 20)
#    0.000    2.500    1.250    1.125    0.000    5.000 
#    0.000    7.500    0.000    3.000    0.000    0.000 
#    0.000    0.000    0.000    0.000    0.000    0.000 
#
# Total GULP energy -357003.173393 kJ/mol
# GULP energy per Si atom -5578.174584 kJ/mol
# Density = 1.866483 g / cm^3
# Si number density = 18.707412 Si / 1000 Ang^3
#
#
#
# Elastic Constant Matrix: (Units=GPa)
#
#
# Indices 1 2 3 4 5 6 
#
# 1 35.8737 4.2163 6.2627 0.0000 0.0000 0.0000
# 2 4.2163 62.6131 17.3807 0.0000 0.0000 0.0000
# 3 6.2627 17.3807 19.1344 0.0000 0.0000 0.0000
# 4 0.0000 0.0000 0.0000 9.7343 0.0000 0.0000
# 5 0.0000 0.0000 0.0000 0.0000 -7.7681 0.0000
# 6 0.0000 0.0000 0.0000 0.0000 0.0000 24.8472
#
#
#
# Elastic Compliance Matrix: (Units=1/GPa)
#
#
# Indices 1 2 3 4 5 6 
#
# 1 0.029605 0.000931 -0.010535 0.000000 0.000000 0.000000
# 2 0.000931 0.021385 -0.019730 0.000000 0.000000 0.000000
# 3 -0.010535 -0.019730 0.073632 0.000000 0.000000 0.000000
# 4 0.000000 0.000000 0.000000 0.102730 0.000000 0.000000
# 5 0.000000 0.000000 0.000000 0.000000 -0.128732 0.000000
# 6 0.000000 0.000000 0.000000 0.000000 0.000000 0.040246
#
#
# Mechanical properties :
#
#
# Convention : Reuss Voigt Hill
#
# Bulk Modulus (GPa) = 15.16218 19.26006 17.21112
# Shear Modulus (GPa) = 22.77695 11.34678 17.06186
#
# Velocity S-wave (km/s) = 3.49311 2.46547 3.02327
# Velocity P-wave (km/s) = 4.93878 4.29215 4.62677
#
# Compressibility (1/GPa) = 0.06595356
#
# Stress axis : x y z
#
# Youngs Moduli (GPa) = 33.77760 46.76114 13.58105
#
# Poissons Ratio (x) = -0.04353 0.14308
# Poissons Ratio (y) = -0.03145 0.26795
# Poissons Ratio (z) = 0.35586 0.92260
#
# Static dielectric constant tensor:
#      x y z
#    x 1.638870 0.000000 0.000000 
#    y 0.000000 1.664330 0.000000 
#    z 0.000000 0.000000 1.624960 
# 
# From -- ./inp_files/4569.got.cif
#   From: 2010.05.17/outbox.cif.g08.bks.cpg/sg55_3_cif.got.tgz:4569.got - 2010.06.03 13:27:54.
