data_PCOD9425267
_publ_section_title
;
Structure prediction by ZEFSAII (Michael W. Deem and Ramdas Pophale) SiO2 
 PCOD9425267
Probable space group: P B A M
;
_chemical_formula_sum "Si O2"
_cell_formula_units_Z 40
_cell_length_a 9.924895
_cell_length_b 17.683715
_cell_length_c 13.145003
_cell_angle_alpha 90.000000
_cell_angle_beta 90.000000
_cell_angle_gamma 90.000000
_cell_volume 2307.066523
_symmetry_space_group_name_H-M "P B A M"
_symmetry_group_IT_number 55
_symmetry_cell_setting 'orthorhombic'
loop_
_space_group_symop_operation_xyz
x,y,z
-x,-y,z
1/2+x,1/2-y,-z
1/2-x,1/2+y,-z
-x,-y,-z
x,y,-z
1/2-x,1/2+y,z
1/2+x,1/2-y,z
loop_
_atom_site_type_symbol
_atom_site_label
_atom_site_fract_x
_atom_site_fract_y
_atom_site_fract_z
Si Si1 0.689905 0.337251 0.619299
Si Si2 0.846793 0.971248 0.776716
Si Si3 0.653568 0.473629 0.000000
Si Si4 0.003584 0.699765 0.380497
Si Si5 0.593561 0.074963 0.000000
Si Si6 0.906566 0.574810 0.776032
O O1 0.679723 0.358451 0.500000
O O2 0.681526 0.409764 0.690985
O O3 0.571679 0.277982 0.642947
O O4 0.835528 0.298076 0.633820
O O5 0.821861 0.936199 0.890181
O O6 0.743951 0.041417 0.766623
O O7 0.000000 0.000000 0.770838
O O8 0.500000 0.500000 0.000000
O O9 0.753422 0.545103 0.000000
O O10 0.978172 0.683298 0.500000
O O11 0.944723 0.633876 0.310089
O O12 0.571442 0.110445 0.110930
O O13 0.500000 0.000000 0.000000
O O14 0.000000 0.500000 0.768610
#
# Coordination Sequence:
#
# PCOD9425267 Si02
#       6
#     8   8   4   8   4   8
#     4  10  22  39  54  75 107 143 176 214 266 315
#     4  10  20  34  57  83 107 136 176 220 258 310
#     4   8  16  32  51  76 108 138 165 208 268 308
#     4  10  22  38  55  74 106 143 175 215 267 316
#     4   8  16  28  51  78 104 130 165 210 262 309
#     4  10  18  34  56  81 103 134 175 217 258 306
#
# _framework density 17.338035999999999
#
# number of rings (size 3 to 8) (size 9 to 14) (size 15 to 20)
#    0.000    2.400    2.000    0.000    2.800    1.600 
#    0.000    1.000    0.000    0.000    0.000    0.000 
#    0.000    0.000    0.000    0.000    0.000    0.000 
#
# Total GULP energy -222774.897306 kJ/mol
# GULP energy per Si atom -5569.372433 kJ/mol
# Density = 1.729857 g / cm^3
# Si number density = 17.338036 Si / 1000 Ang^3
#
#
#
# Elastic Constant Matrix: (Units=GPa)
#
#
# Indices 1 2 3 4 5 6 
#
# 1 64.1030 -3.5861 5.8671 0.0000 0.0000 0.0000
# 2 -3.5861 32.6643 37.0640 0.0000 0.0000 0.0000
# 3 5.8671 37.0640 81.2438 0.0000 0.0000 0.0000
# 4 0.0000 0.0000 0.0000 -9.0651 0.0000 0.0000
# 5 0.0000 0.0000 0.0000 0.0000 23.6475 0.0000
# 6 0.0000 0.0000 0.0000 0.0000 0.0000 22.5162
#
#
#
# Elastic Compliance Matrix: (Units=1/GPa)
#
#
# Indices 1 2 3 4 5 6 
#
# 1 0.016343 0.006496 -0.004144 0.000000 0.000000 0.000000
# 2 0.006496 0.066053 -0.030603 0.000000 0.000000 0.000000
# 3 -0.004144 -0.030603 0.026569 0.000000 0.000000 0.000000
# 4 0.000000 0.000000 0.000000 -0.110313 0.000000 0.000000
# 5 0.000000 0.000000 0.000000 0.000000 0.042288 0.000000
# 6 0.000000 0.000000 0.000000 0.000000 0.000000 0.044413
#
#
# Mechanical properties :
#
#
# Convention : Reuss Voigt Hill
#
# Bulk Modulus (GPa) = 19.06096 28.52237 23.79166
# Shear Modulus (GPa) = 31.37942 16.66410 24.02176
#
# Velocity S-wave (km/s) = 4.25886 3.10357 3.72626
# Velocity P-wave (km/s) = 5.93308 5.41566 5.68026
#
# Compressibility (1/GPa) = 0.05246326
#
# Stress axis : x y z
#
# Youngs Moduli (GPa) = 61.18989 15.13947 37.63768
#
# Poissons Ratio (x) = -0.09835 0.15596
# Poissons Ratio (y) = -0.39750 1.15182
# Poissons Ratio (z) = 0.25356 0.46331
#
# Static dielectric constant tensor:
#      x y z
#    x 1.612000 0.000000 0.000000 
#    y 0.000000 1.526290 0.000000 
#    z 0.000000 0.000000 1.626400 
# 
# From -- ./inp_files/12089.got.cif
#   From: 2010.05.17/outbox.cif.g08.bks.cpg/sg55_7_cif.got.tgz:12089.got - 2010.06.03 13:27:54.
