data_PCOD9425417
_publ_section_title
;
Structure prediction by ZEFSAII (Michael W. Deem and Ramdas Pophale) SiO2 
 PCOD9425417
Probable space group: P B A M
;
_chemical_formula_sum "Si O2"
_cell_formula_units_Z 64
_cell_length_a 15.410106
_cell_length_b 24.617059
_cell_length_c 7.445136
_cell_angle_alpha 90.000000
_cell_angle_beta 90.000000
_cell_angle_gamma 90.000000
_cell_volume 2824.323424
_symmetry_space_group_name_H-M "P B A M"
_symmetry_group_IT_number 55
_symmetry_cell_setting 'orthorhombic'
loop_
_space_group_symop_operation_xyz
x,y,z
-x,-y,z
1/2+x,1/2-y,-z
1/2-x,1/2+y,-z
-x,-y,-z
x,y,-z
1/2-x,1/2+y,z
1/2+x,1/2-y,z
loop_
_atom_site_type_symbol
_atom_site_label
_atom_site_fract_x
_atom_site_fract_y
_atom_site_fract_z
Si Si1 0.997653 0.327238 0.279484
Si Si2 0.817421 0.295498 0.292560
Si Si3 0.071530 0.958049 0.708067
Si Si4 0.256180 0.587523 0.783545
Si Si5 0.953294 0.555191 0.280138
Si Si6 0.264459 0.966228 0.705744
Si Si7 0.138555 0.246290 0.712693
Si Si8 0.941578 0.869781 0.785994
O O1 0.995825 0.326314 0.500000
O O2 0.997755 0.390023 0.225755
O O3 0.084369 0.296951 0.218648
O O4 0.913480 0.294305 0.214593
O O5 0.824174 0.278244 0.500000
O O6 0.791712 0.359154 0.286330
O O7 0.734388 0.265081 0.210741
O O8 0.082690 0.974782 0.500000
O O9 0.168513 0.957844 0.787720
O O10 0.026846 0.899095 0.714234
O O11 0.000000 0.000000 0.787467
O O12 0.221477 0.531188 0.709732
O O13 0.357070 0.595129 0.730206
O O14 0.251192 0.587078 0.000000
O O15 0.951543 0.553783 0.500000
O O16 0.853152 0.557949 0.217744
O O17 0.000000 0.500000 0.220833
O O18 0.259325 0.946374 0.500000
O O19 0.149761 0.254200 0.500000
O O20 0.081281 0.191647 0.733745
O O21 0.946454 0.871513 0.000000
#
# Coordination Sequence:
#
# PCOD9425417 Si02
#       8
#     8   8   8   8   8   8   8   8
#     4   9  17  32  53  80 106 131 170 216 261 309
#     4   9  17  31  53  76  98 131 168 209 260 307
#     4  10  19  31  48  74 107 139 172 213 261 312
#     4  10  19  30  48  74 102 134 173 215 250 297
#     4   9  17  30  51  79 107 133 166 212 260 311
#     4  10  19  31  49  75 104 138 171 206 258 311
#     4   9  18  33  53  77 103 129 168 219 260 301
#     4  10  20  33  50  72 101 139 178 214 256 306
#
# _framework density 22.660294
#
# number of rings (size 3 to 8) (size 9 to 14) (size 15 to 20)
#    0.000    2.500    1.250    1.500    0.000    3.750 
#    2.250    0.625    0.000    4.125    0.000    0.000 
#    0.000    0.000    0.000    0.000    0.000    0.000 
#
# Total GULP energy -357259.620209 kJ/mol
# GULP energy per Si atom -5582.181566 kJ/mol
# Density = 2.260872 g / cm^3
# Si number density = 22.660294 Si / 1000 Ang^3
#
#
#
# Elastic Constant Matrix: (Units=GPa)
#
#
# Indices 1 2 3 4 5 6 
#
# 1 164.7265 44.4994 7.3646 0.0000 0.0000 0.0000
# 2 44.4994 74.2246 -5.2719 0.0000 0.0000 0.0000
# 3 7.3646 -5.2719 78.0786 0.0000 0.0000 0.0000
# 4 0.0000 0.0000 0.0000 931.9106 0.0000 0.0000
# 5 0.0000 0.0000 0.0000 0.0000 -8.6756 0.0000
# 6 0.0000 0.0000 0.0000 0.0000 0.0000 31.7416
#
#
#
# Elastic Compliance Matrix: (Units=1/GPa)
#
#
# Indices 1 2 3 4 5 6 
#
# 1 0.007319 -0.004459 -0.000991 0.000000 0.000000 0.000000
# 2 -0.004459 0.016253 0.001518 0.000000 0.000000 0.000000
# 3 -0.000991 0.001518 0.013004 0.000000 0.000000 0.000000
# 4 0.000000 0.000000 0.000000 0.001073 0.000000 0.000000
# 5 0.000000 0.000000 0.000000 0.000000 -0.115266 0.000000
# 6 0.000000 0.000000 0.000000 0.000000 0.000000 0.031504
#
#
# Mechanical properties :
#
#
# Convention : Reuss Voigt Hill
#
# Bulk Modulus (GPa) = 34.82812 45.57933 40.20373
# Shear Modulus (GPa) = -174.35736 209.02449 17.33357
#
# Velocity S-wave (km/s) = -8.78129 9.61472 2.76874
# Velocity P-wave (km/s) = 9.34942 11.97560 5.29166
#
# Compressibility (1/GPa) = 0.02871243
#
# Stress axis : x y z
#
# Youngs Moduli (GPa) = 136.62244 61.52532 76.90171
#
# Poissons Ratio (x) = 0.27432 0.07624
# Poissons Ratio (y) = 0.60914 -0.11674
# Poissons Ratio (z) = 0.13545 -0.09339
#
# Static dielectric constant tensor:
#      x y z
#    x 1.876880 0.000000 0.000000 
#    y 0.000000 1.800440 0.000000 
#    z 0.000000 0.000000 1.834810 
# 
# From -- ./inp_files/6543.got.cif
#   From: 2010.05.17/outbox.cif.g08.bks.cpg/sg55_4_cif.got.tgz:6543.got - 2010.06.03 13:27:54.
