data_PCOD9425136
_publ_section_title
;
Structure prediction by ZEFSAII (Michael W. Deem and Ramdas Pophale) SiO2 
 PCOD9425136
Probable space group: P B A M
;
_chemical_formula_sum "Si O2"
_cell_formula_units_Z 52
_cell_length_a 21.634936
_cell_length_b 15.014664
_cell_length_c 7.494511
_cell_angle_alpha 90.000000
_cell_angle_beta 90.000000
_cell_angle_gamma 90.000000
_cell_volume 2434.526656
_symmetry_space_group_name_H-M "P B A M"
_symmetry_group_IT_number 55
_symmetry_cell_setting 'orthorhombic'
loop_
_space_group_symop_operation_xyz
x,y,z
-x,-y,z
1/2+x,1/2-y,-z
1/2-x,1/2+y,-z
-x,-y,-z
x,y,-z
1/2-x,1/2+y,z
1/2+x,1/2-y,z
loop_
_atom_site_type_symbol
_atom_site_label
_atom_site_fract_x
_atom_site_fract_y
_atom_site_fract_z
Si Si1 0.070642 0.827697 0.215133
Si Si2 0.101498 0.626509 0.703118
Si Si3 0.071255 0.168485 0.217352
Si Si4 0.350594 0.497408 0.218799
Si Si5 0.209603 0.500778 0.214462
Si Si6 0.500000 0.000000 0.752844
Si Si7 0.604221 0.132862 0.781744
O O1 0.096194 0.730810 0.264574
O O2 0.113490 0.908657 0.276497
O O3 0.999872 0.837358 0.277206
O O4 0.069149 0.831356 0.000000
O O5 0.082082 0.607113 0.500000
O O6 0.169411 0.586390 0.730061
O O7 0.052948 0.569584 0.818644
O O8 0.098905 0.264251 0.267800
O O9 0.111969 0.084963 0.275687
O O10 0.070496 0.166510 0.000000
O O11 0.279630 0.499176 0.279266
O O12 0.350231 0.497206 0.000000
O O13 0.168396 0.415038 0.265472
O O14 0.211833 0.501479 0.000000
O O15 0.549246 0.075800 0.694454
O O16 0.595842 0.126143 0.000000
#
# Coordination Sequence:
#
# PCOD9425136 Si02
#       7
#     8   8   8   8   8   4   8
#     4  10  19  33  55  83 107 138 176 220 268 316
#     4  11  22  35  53  78 107 139 177 222 270 319
#     4   9  16  28  50  81 109 136 171 220 268 311
#     4   9  18  32  52  78 110 141 177 218 262 314
#     4   9  19  34  52  78 107 141 176 216 263 317
#     4  10  18  32  50  72 101 138 169 214 267 320
#     4   9  16  26  47  77 106 131 168 215 265 314
#
# _framework density 21.359389
#
# number of rings (size 3 to 8) (size 9 to 14) (size 15 to 20)
#    0.000    2.462    1.538    1.385    0.000    4.308 
#    0.000    5.385    0.000    2.769    0.000    0.000 
#    0.000    0.000    0.000    0.000    0.000    0.000 
#
# Total GULP energy -289919.782292 kJ/mol
# GULP energy per Si atom -5575.380429 kJ/mol
# Density = 2.131077 g / cm^3
# Si number density = 21.359389 Si / 1000 Ang^3
#
#
#
# Elastic Constant Matrix: (Units=GPa)
#
#
# Indices 1 2 3 4 5 6 
#
# 1 219.6397 147.0283 15.6857 0.0000 0.0000 0.0000
# 2 147.0283 238.5169 14.5975 0.0000 0.0000 0.0000
# 3 15.6857 14.5975 75.2674 0.0000 0.0000 0.0000
# 4 0.0000 0.0000 0.0000 -4.0118 0.0000 0.0000
# 5 0.0000 0.0000 0.0000 0.0000 -10.9891 0.0000
# 6 0.0000 0.0000 0.0000 0.0000 0.0000 10.6641
#
#
#
# Elastic Compliance Matrix: (Units=1/GPa)
#
#
# Indices 1 2 3 4 5 6 
#
# 1 0.007788 -0.004758 -0.000700 0.000000 0.000000 0.000000
# 2 -0.004758 0.007150 -0.000395 0.000000 0.000000 0.000000
# 3 -0.000700 -0.000395 0.013509 0.000000 0.000000 0.000000
# 4 0.000000 0.000000 0.000000 -0.249265 0.000000 0.000000
# 5 0.000000 0.000000 0.000000 0.000000 -0.090999 0.000000
# 6 0.000000 0.000000 0.000000 0.000000 0.000000 0.093773
#
#
# Mechanical properties :
#
#
# Convention : Reuss Voigt Hill
#
# Bulk Modulus (GPa) = 59.73821 98.67188 79.20504
# Shear Modulus (GPa) = -24.90544 22.87346 -1.01599
#
# Velocity S-wave (km/s) = -3.41841 3.27599 -0.69043
# Velocity P-wave (km/s) = 3.52820 7.78497 6.04376
#
# Compressibility (1/GPa) = 0.01673971
#
# Stress axis : x y z
#
# Youngs Moduli (GPa) = 128.40614 139.86872 74.02737
#
# Poissons Ratio (x) = 0.66546 0.05184
# Poissons Ratio (y) = 0.61092 0.02925
# Poissons Ratio (z) = 0.08992 0.05526
#
# Static dielectric constant tensor:
#      x y z
#    x 1.729220 0.000000 0.000000 
#    y 0.000000 1.721050 0.000000 
#    z 0.000000 0.000000 1.895840 
# 
# From -- ./inp_files/5929.got.cif
#   From: 2010.05.17/outbox.cif.g08.bks.cpg/sg55_3_cif.got.tgz:5929.got - 2010.06.03 13:27:54.
