data_PCOD9425909
_publ_section_title
;
Structure prediction by ZEFSAII (Michael W. Deem and Ramdas Pophale) SiO2 
 PCOD9425909
Probable space group: P B A M
;
_chemical_formula_sum "Si O2"
_cell_formula_units_Z 56
_cell_length_a 25.226488
_cell_length_b 13.274647
_cell_length_c 7.460363
_cell_angle_alpha 90.000000
_cell_angle_beta 90.000000
_cell_angle_gamma 90.000000
_cell_volume 2498.272074
_symmetry_space_group_name_H-M "P B A M"
_symmetry_group_IT_number 55
_symmetry_cell_setting 'orthorhombic'
loop_
_space_group_symop_operation_xyz
x,y,z
-x,-y,z
1/2+x,1/2-y,-z
1/2-x,1/2+y,-z
-x,-y,-z
x,y,-z
1/2-x,1/2+y,z
1/2+x,1/2-y,z
loop_
_atom_site_type_symbol
_atom_site_label
_atom_site_fract_x
_atom_site_fract_y
_atom_site_fract_z
Si Si1 0.461596 0.090599 0.282891
Si Si2 0.382299 0.631549 0.795014
Si Si3 0.500972 0.308927 0.289524
Si Si4 0.697793 0.748392 0.781112
Si Si5 0.185026 0.319561 0.219300
Si Si6 0.390794 0.409863 0.216872
Si Si7 0.840833 0.458805 0.792021
O O1 0.459708 0.092529 0.500000
O O2 0.483368 0.198691 0.221833
O O3 0.402551 0.069717 0.217365
O O4 0.500000 0.000000 0.227749
O O5 0.445032 0.652811 0.796258
O O6 0.352311 0.728232 0.716744
O O7 0.374784 0.520482 0.715172
O O8 0.362854 0.623980 0.000000
O O9 0.512498 0.299778 0.500000
O O10 0.450754 0.381633 0.266465
O O11 0.754534 0.703889 0.732082
O O12 0.649570 0.676869 0.721882
O O13 0.689991 0.862555 0.715549
O O14 0.695634 0.750516 0.000000
O O15 0.168188 0.430121 0.284653
O O16 0.181103 0.321146 0.000000
O O17 0.389016 0.411962 0.000000
O O18 0.824457 0.465364 0.000000
#
# Coordination Sequence:
#
# PCOD9425909 Si02
#       7
#     8   8   8   8   8   8   8
#     4  10  21  36  54  76 107 145 179 217 270 323
#     4  10  21  35  54  80 111 143 177 220 267 316
#     4  11  22  36  55  79 108 142 180 223 269 321
#     4   9  18  32  53  81 109 137 174 220 267 313
#     4   9  19  33  53  84 113 139 177 222 267 314
#     4  10  20  35  55  79 108 143 179 219 267 319
#     4  10  19  33  56  82 107 139 178 221 263 310
#
# _framework density 22.415492
#
# number of rings (size 3 to 8) (size 9 to 14) (size 15 to 20)
#    0.000    2.143    1.429    1.714    2.000    3.143 
#    0.000    0.000    0.000    3.429    0.000    0.000 
#    0.000    0.000    0.000    0.000    0.000    0.000 
#
# Total GULP energy -313011.354551 kJ/mol
# GULP energy per Si atom -5589.488474 kJ/mol
# Density = 2.236447 g / cm^3
# Si number density = 22.415492 Si / 1000 Ang^3
#
#
#
# Elastic Constant Matrix: (Units=GPa)
#
#
# Indices 1 2 3 4 5 6 
#
# 1 66.2962 32.6826 -11.3731 0.0000 0.0000 0.0000
# 2 32.6826 164.3962 1.3407 0.0000 0.0000 0.0000
# 3 -11.3731 1.3407 68.1431 0.0000 0.0000 0.0000
# 4 0.0000 0.0000 0.0000 1.1827 0.0000 0.0000
# 5 0.0000 0.0000 0.0000 0.0000 6.8081 0.0000
# 6 0.0000 0.0000 0.0000 0.0000 0.0000 12.5551
#
#
#
# Elastic Compliance Matrix: (Units=1/GPa)
#
#
# Indices 1 2 3 4 5 6 
#
# 1 0.017298 -0.003463 0.002955 0.000000 0.000000 0.000000
# 2 -0.003463 0.006777 -0.000711 0.000000 0.000000 0.000000
# 3 0.002955 -0.000711 0.015182 0.000000 0.000000 0.000000
# 4 0.000000 0.000000 0.000000 0.845511 0.000000 0.000000
# 5 0.000000 0.000000 0.000000 0.000000 0.146885 0.000000
# 6 0.000000 0.000000 0.000000 0.000000 0.000000 0.079649
#
#
# Mechanical properties :
#
#
# Convention : Reuss Voigt Hill
#
# Bulk Modulus (GPa) = 27.15986 38.23730 32.69858
# Shear Modulus (GPa) = 4.44045 22.52153 13.48099
#
# Velocity S-wave (km/s) = 1.40900 3.17319 2.45503
# Velocity P-wave (km/s) = 3.84576 5.52458 4.75977
#
# Compressibility (1/GPa) = 0.03681904
#
# Stress axis : x y z
#
# Youngs Moduli (GPa) = 57.81022 147.55520 65.86654
#
# Poissons Ratio (x) = 0.51098 -0.19465
# Poissons Ratio (y) = 0.20020 0.04685
# Poissons Ratio (z) = -0.17084 0.10496
#
# Static dielectric constant tensor:
#      x y z
#    x 1.744610 0.000000 0.000000 
#    y 0.000000 1.827750 0.000000 
#    z 0.000000 0.000000 1.884710 
# 
# From -- ./inp_files/15313.got.cif
#   From: 2010.05.17/outbox.cif.g08.bks.cpg/sg55_8_cif.got.tgz:15313.got - 2010.06.03 13:27:54.
