data_PCOD9425578
_publ_section_title
;
Structure prediction by ZEFSAII (Michael W. Deem and Ramdas Pophale) SiO2 
 PCOD9425578
Probable space group: P B A M
;
_chemical_formula_sum "Si O2"
_cell_formula_units_Z 48
_cell_length_a 14.894955
_cell_length_b 7.774036
_cell_length_c 17.011454
_cell_angle_alpha 90.000000
_cell_angle_beta 90.000000
_cell_angle_gamma 90.000000
_cell_volume 1969.822882
_symmetry_space_group_name_H-M "P B A M"
_symmetry_group_IT_number 55
_symmetry_cell_setting 'orthorhombic'
loop_
_space_group_symop_operation_xyz
x,y,z
-x,-y,z
1/2+x,1/2-y,-z
1/2-x,1/2+y,-z
-x,-y,-z
x,y,-z
1/2-x,1/2+y,z
1/2+x,1/2-y,z
loop_
_atom_site_type_symbol
_atom_site_label
_atom_site_fract_x
_atom_site_fract_y
_atom_site_fract_z
Si Si1 0.609674 0.871646 0.832464
Si Si2 0.142346 0.095645 0.332510
Si Si3 0.109776 0.633216 0.000000
Si Si4 0.299660 0.754604 0.830706
Si Si5 0.691607 0.252096 0.000000
Si Si6 0.944850 0.262383 0.667256
Si Si7 0.552960 0.774662 0.500000
Si Si8 0.641379 0.389581 0.500000
O O1 0.692248 0.738835 0.833976
O O2 0.558821 0.851444 0.751207
O O3 0.655485 0.058787 0.830009
O O4 0.560788 0.844668 0.916413
O O5 0.181083 0.161063 0.251063
O O6 0.189551 0.136568 0.416188
O O7 0.043203 0.178662 0.338689
O O8 0.126501 0.892366 0.328889
O O9 0.199545 0.749575 0.000000
O O10 0.150606 0.439479 0.000000
O O11 0.330790 0.669979 0.914102
O O12 0.926432 0.358590 0.584609
O O13 0.601828 0.586111 0.500000
O O14 0.446861 0.730862 0.500000
#
# Coordination Sequence:
#
# PCOD9425578 Si02
#       8
#     8   8   4   8   4   8   4   4
#     4  10  19  32  50  71  95 123 157 195 235 278
#     4   9  17  31  51  73  96 123 156 193 233 277
#     4   8  16  30  47  66  89 121 157 191 229 276
#     4  10  19  32  50  71  95 123 157 195 235 278
#     4   8  16  30  47  66  89 121 157 191 229 276
#     4   9  17  31  51  73  96 123 156 193 233 277
#     4   7  12  26  48  69  90 121 157 189 226 275
#     4   7  12  26  48  69  90 121 157 189 226 275
#
# _framework density 24.367674999999998
#
# number of rings (size 3 to 8) (size 9 to 14) (size 15 to 20)
#    0.000    3.167    0.000    3.000    0.000    2.000 
#    0.000    2.500    0.000    8.000    0.000    0.000 
#    0.000    0.000    0.000    0.000    0.000    0.000 
#
# Total GULP energy -267627.995094 kJ/mol
# GULP energy per Si atom -5575.583231 kJ/mol
# Density = 2.431221 g / cm^3
# Si number density = 24.367675 Si / 1000 Ang^3
#
#
#
# Elastic Constant Matrix: (Units=GPa)
#
#
# Indices 1 2 3 4 5 6 
#
# 1 22.3562 5.5342 22.4254 0.0000 0.0000 0.0000
# 2 5.5342 48.7718 48.6734 0.0000 0.0000 0.0000
# 3 22.4254 48.6734 345.3702 0.0000 0.0000 0.0000
# 4 0.0000 0.0000 0.0000 191.5465 0.0000 0.0000
# 5 0.0000 0.0000 0.0000 0.0000 20.5167 0.0000
# 6 0.0000 0.0000 0.0000 0.0000 0.0000 21.0965
#
#
#
# Elastic Compliance Matrix: (Units=1/GPa)
#
#
# Indices 1 2 3 4 5 6 
#
# 1 0.048156 -0.002727 -0.002742 0.000000 0.000000 0.000000
# 2 -0.002727 0.024014 -0.003207 0.000000 0.000000 0.000000
# 3 -0.002742 -0.003207 0.003526 0.000000 0.000000 0.000000
# 4 0.000000 0.000000 0.000000 0.005221 0.000000 0.000000
# 5 0.000000 0.000000 0.000000 0.000000 0.048741 0.000000
# 6 0.000000 0.000000 0.000000 0.000000 0.000000 0.047401
#
#
# Mechanical properties :
#
#
# Convention : Reuss Voigt Hill
#
# Bulk Modulus (GPa) = 17.14044 63.30715 40.22380
# Shear Modulus (GPa) = 23.37978 69.28962 46.33470
#
# Velocity S-wave (km/s) = 3.10087 5.33824 4.36533
# Velocity P-wave (km/s) = 4.45757 8.00201 6.47696
#
# Compressibility (1/GPa) = 0.05834155
#
# Stress axis : x y z
#
# Youngs Moduli (GPa) = 20.76565 41.64260 283.64673
#
# Poissons Ratio (x) = 0.11358 0.77790
# Poissons Ratio (y) = 0.05664 0.90971
# Poissons Ratio (z) = 0.05695 0.13356
#
# Static dielectric constant tensor:
#      x y z
#    x 1.935860 0.000000 0.000000 
#    y 0.000000 1.933580 0.000000 
#    z 0.000000 0.000000 2.053390 
# 
# From -- ./inp_files/19674.got.cif
#   From: 2010.05.17/outbox.cif.g08.bks.cpg/sg55_10_cif.got.tgz:19674.got - 2010.06.03 13:27:54.
