data_PCOD9425182
_publ_section_title
;
Structure prediction by ZEFSAII (Michael W. Deem and Ramdas Pophale) SiO2 
 PCOD9425182
Probable space group: P B A M
;
_chemical_formula_sum "Si O2"
_cell_formula_units_Z 48
_cell_length_a 15.465325
_cell_length_b 20.329377
_cell_length_c 8.669387
_cell_angle_alpha 90.000000
_cell_angle_beta 90.000000
_cell_angle_gamma 90.000000
_cell_volume 2725.658934
_symmetry_space_group_name_H-M "P B A M"
_symmetry_group_IT_number 55
_symmetry_cell_setting 'orthorhombic'
loop_
_space_group_symop_operation_xyz
x,y,z
-x,-y,z
1/2+x,1/2-y,-z
1/2-x,1/2+y,-z
-x,-y,-z
x,y,-z
1/2-x,1/2+y,z
1/2+x,1/2-y,z
loop_
_atom_site_type_symbol
_atom_site_label
_atom_site_fract_x
_atom_site_fract_y
_atom_site_fract_z
Si Si1 0.062723 0.062025 0.314859
Si Si2 0.192190 0.832559 0.686077
Si Si3 0.386769 0.809624 0.313783
Si Si4 0.774692 0.016672 0.312298
Si Si5 0.510193 0.697433 0.817359
Si Si6 0.583192 0.039911 0.311856
O O1 0.063480 0.073000 0.500000
O O2 0.028130 0.127477 0.236983
O O3 0.157663 0.038465 0.262315
O O4 0.000000 0.000000 0.286507
O O5 0.186834 0.830904 0.500000
O O6 0.285552 0.803224 0.731046
O O7 0.194036 0.909931 0.732054
O O8 0.107870 0.798499 0.753523
O O9 0.389796 0.806366 0.500000
O O10 0.448810 0.754652 0.246568
O O11 0.416082 0.883303 0.268078
O O12 0.775769 0.016176 0.500000
O O13 0.675386 0.009699 0.262716
O O14 0.512266 0.700255 0.000000
O O15 0.582665 0.038513 0.500000
O O16 0.500000 0.000000 0.257168
#
# Coordination Sequence:
#
# PCOD9425182 Si02
#       6
#     8   8   8   8   8   8
#     4  10  18  32  55  78 104 137 180 228 268 315
#     4   9  17  35  59  77  97 136 188 228 265 312
#     4   9  19  36  58  80 105 140 184 227 265 319
#     4   8  14  27  50  77 102 130 166 219 271 310
#     4  12  24  35  51  77 115 149 177 220 274 337
#     4   8  14  28  53  83 108 127 163 222 276 316
#
# _framework density 17.610420999999999
#
# number of rings (size 3 to 8) (size 9 to 14) (size 15 to 20)
#    0.000    2.667    1.667    3.500    0.000    1.000 
#    3.000    0.000    0.000    0.500    0.000    0.000 
#    0.000    0.000    0.000    0.000    0.000    0.000 
#
# Total GULP energy -267611.682758 kJ/mol
# GULP energy per Si atom -5575.243391 kJ/mol
# Density = 1.757034 g / cm^3
# Si number density = 17.610421 Si / 1000 Ang^3
#
#
#
# Elastic Constant Matrix: (Units=GPa)
#
#
# Indices 1 2 3 4 5 6 
#
# 1 191.4392 94.9567 45.8216 0.0000 0.0000 0.0000
# 2 94.9567 84.4505 34.0849 0.0000 0.0000 0.0000
# 3 45.8216 34.0849 25.7743 0.0000 0.0000 0.0000
# 4 0.0000 0.0000 0.0000 -8.3593 0.0000 0.0000
# 5 0.0000 0.0000 0.0000 0.0000 -0.6069 0.0000
# 6 0.0000 0.0000 0.0000 0.0000 0.0000 34.8351
#
#
#
# Elastic Compliance Matrix: (Units=1/GPa)
#
#
# Indices 1 2 3 4 5 6 
#
# 1 0.012501 -0.010909 -0.007798 0.000000 0.000000 0.000000
# 2 -0.010909 0.034916 -0.026780 0.000000 0.000000 0.000000
# 3 -0.007798 -0.026780 0.088077 0.000000 0.000000 0.000000
# 4 0.000000 0.000000 0.000000 -0.119627 0.000000 0.000000
# 5 0.000000 0.000000 0.000000 0.000000 -1.647623 0.000000
# 6 0.000000 0.000000 0.000000 0.000000 0.000000 0.028707
#
#
# Mechanical properties :
#
#
# Convention : Reuss Voigt Hill
#
# Bulk Modulus (GPa) = 22.46211 72.37672 47.41942
# Shear Modulus (GPa) = -3.33949 13.62717 5.14384
#
# Velocity S-wave (km/s) = -1.37856 2.78477 1.71092
# Velocity P-wave (km/s) = 3.20137 7.17830 5.55773
#
# Compressibility (1/GPa) = 0.04451941
#
# Stress axis : x y z
#
# Youngs Moduli (GPa) = 79.99314 28.64012 11.35371
#
# Poissons Ratio (x) = 0.31243 0.08854
# Poissons Ratio (y) = 0.87264 0.30406
# Poissons Ratio (z) = 0.62379 0.76699
#
# Static dielectric constant tensor:
#      x y z
#    x 1.620350 0.000000 0.000000 
#    y 0.000000 1.571420 0.000000 
#    z 0.000000 0.000000 1.586820 
# 
# From -- ./inp_files/5820.got.cif
#   From: 2010.05.17/outbox.cif.g08.bks.cpg/sg55_3_cif.got.tgz:5820.got - 2010.06.03 13:27:54.
