data_PCOD9425472
_publ_section_title
;
Structure prediction by ZEFSAII (Michael W. Deem and Ramdas Pophale) SiO2 
 PCOD9425472
Probable space group: P B A M
;
_chemical_formula_sum "Si O2"
_cell_formula_units_Z 64
_cell_length_a 19.621677
_cell_length_b 23.733732
_cell_length_c 8.891820
_cell_angle_alpha 90.000000
_cell_angle_beta 90.000000
_cell_angle_gamma 90.000000
_cell_volume 4140.881657
_symmetry_space_group_name_H-M "P B A M"
_symmetry_group_IT_number 55
_symmetry_cell_setting 'orthorhombic'
loop_
_space_group_symop_operation_xyz
x,y,z
-x,-y,z
1/2+x,1/2-y,-z
1/2-x,1/2+y,-z
-x,-y,-z
x,y,-z
1/2-x,1/2+y,z
1/2+x,1/2-y,z
loop_
_atom_site_type_symbol
_atom_site_label
_atom_site_fract_x
_atom_site_fract_y
_atom_site_fract_z
Si Si1 0.500433 0.383320 0.818978
Si Si2 0.853589 0.062059 0.820155
Si Si3 0.146693 0.729222 0.320399
Si Si4 0.495000 0.251820 0.819315
Si Si5 0.233457 0.840625 0.680133
Si Si6 0.718625 0.330813 0.680524
Si Si7 0.855290 0.723675 0.180359
Si Si8 0.866431 0.940018 0.320360
O O1 0.428054 0.411863 0.783750
O O2 0.498966 0.317696 0.772668
O O3 0.561994 0.415797 0.740151
O O4 0.510297 0.385727 0.000000
O O5 0.797323 0.102802 0.748306
O O6 0.850606 0.999284 0.756209
O O7 0.846739 0.061876 0.000000
O O8 0.138142 0.728823 0.500000
O O9 0.073562 0.725244 0.244983
O O10 0.182320 0.788902 0.279131
O O11 0.202823 0.682043 0.280222
O O12 0.565415 0.221781 0.775005
O O13 0.491227 0.251578 0.000000
O O14 0.236632 0.843527 0.500000
O O15 0.306523 0.822731 0.745678
O O16 0.711791 0.321163 0.500000
O O17 0.673619 0.283976 0.764442
O O18 0.690196 0.392439 0.714291
O O19 0.850385 0.720648 0.000000
O O20 0.869937 0.946846 0.500000
#
# Coordination Sequence:
#
# PCOD9425472 Si02
#       8
#     8   8   8   8   8   8   8   8
#     4  10  20  34  47  67 100 135 170 205 238 283
#     4  11  22  35  51  69  97 134 172 208 245 288
#     4   9  18  31  49  70  95 125 159 199 243 290
#     4  10  19  31  48  73 101 130 163 197 241 292
#     4  10  20  34  50  71  98 127 164 205 246 291
#     4   9  19  34  48  69  97 128 164 205 246 288
#     4  10  19  31  50  72  97 127 161 200 243 292
#     4  11  22  34  50  70  98 133 172 210 246 288
#
# _framework density 15.455646
#
# number of rings (size 3 to 8) (size 9 to 14) (size 15 to 20)
#    0.000    2.000    2.500    2.625    0.000    6.500 
#    0.000    0.000    0.000    0.000    0.000    0.875 
#    0.000    7.000    0.000    0.000    0.000    0.000 
#
# Total GULP energy -357137.864698 kJ/mol
# GULP energy per Si atom -5580.279136 kJ/mol
# Density = 1.542047 g / cm^3
# Si number density = 15.455646 Si / 1000 Ang^3
#
#
#
# Elastic Constant Matrix: (Units=GPa)
#
#
# Indices 1 2 3 4 5 6 
#
# 1 137.4417 58.6670 45.2082 0.0000 0.0000 0.0000
# 2 58.6670 81.4901 33.9735 0.0000 0.0000 0.0000
# 3 45.2082 33.9735 33.4427 0.0000 0.0000 0.0000
# 4 0.0000 0.0000 0.0000 24.0742 0.0000 0.0000
# 5 0.0000 0.0000 0.0000 0.0000 27.7464 0.0000
# 6 0.0000 0.0000 0.0000 0.0000 0.0000 18.9245
#
#
#
# Elastic Compliance Matrix: (Units=1/GPa)
#
#
# Indices 1 2 3 4 5 6 
#
# 1 0.013722 -0.003722 -0.014769 0.000000 0.000000 0.000000
# 2 -0.003722 0.022296 -0.017619 0.000000 0.000000 0.000000
# 3 -0.014769 -0.017619 0.067766 0.000000 0.000000 0.000000
# 4 0.000000 0.000000 0.000000 0.041538 0.000000 0.000000
# 5 0.000000 0.000000 0.000000 0.000000 0.036041 0.000000
# 6 0.000000 0.000000 0.000000 0.000000 0.000000 0.052841
#
#
# Mechanical properties :
#
#
# Convention : Reuss Voigt Hill
#
# Bulk Modulus (GPa) = 31.68127 58.67466 45.17797
# Shear Modulus (GPa) = 15.77551 21.78406 18.77979
#
# Velocity S-wave (km/s) = 3.19830 3.75835 3.48958
# Velocity P-wave (km/s) = 5.84649 7.54183 6.74762
#
# Compressibility (1/GPa) = 0.03156439
#
# Stress axis : x y z
#
# Youngs Moduli (GPa) = 72.87310 44.85044 14.75668
#
# Poissons Ratio (x) = 0.16693 0.21795
# Poissons Ratio (y) = 0.27122 0.26000
# Poissons Ratio (z) = 1.07628 0.79022
#
# Static dielectric constant tensor:
#      x y z
#    x 1.510480 0.000000 0.000000 
#    y 0.000000 1.493260 0.000000 
#    z 0.000000 0.000000 1.518580 
# 
# From -- ./inp_files/7972.got.cif
#   From: 2010.05.17/outbox.cif.g08.bks.cpg/sg55_4_cif.got.tgz:7972.got - 2010.06.03 13:27:54.
