data_PCOD9425979
_publ_section_title
;
Structure prediction by ZEFSAII (Michael W. Deem and Ramdas Pophale) SiO2 
 PCOD9425979
Probable space group: P B A M
;
_chemical_formula_sum "Si O2"
_cell_formula_units_Z 64
_cell_length_a 19.694092
_cell_length_b 23.598353
_cell_length_c 8.803157
_cell_angle_alpha 90.000000
_cell_angle_beta 90.000000
_cell_angle_gamma 90.000000
_cell_volume 4091.250798
_symmetry_space_group_name_H-M "P B A M"
_symmetry_group_IT_number 55
_symmetry_cell_setting 'orthorhombic'
loop_
_space_group_symop_operation_xyz
x,y,z
-x,-y,z
1/2+x,1/2-y,-z
1/2-x,1/2+y,-z
-x,-y,-z
x,y,-z
1/2-x,1/2+y,z
1/2+x,1/2-y,z
loop_
_atom_site_type_symbol
_atom_site_label
_atom_site_fract_x
_atom_site_fract_y
_atom_site_fract_z
Si Si1 0.131250 0.437410 0.680150
Si Si2 0.992792 0.251992 0.815368
Si Si3 0.503997 0.884165 0.816841
Si Si4 0.214311 0.336509 0.819760
Si Si5 0.658329 0.734194 0.816338
Si Si6 0.361992 0.716962 0.181412
Si Si7 0.649642 0.939706 0.818181
Si Si8 0.736303 0.841970 0.319343
O O1 0.128960 0.443317 0.500000
O O2 0.057925 0.417335 0.741699
O O3 0.184017 0.388616 0.728713
O O4 0.150491 0.496917 0.755605
O O5 0.996682 0.318126 0.770325
O O6 0.060154 0.219093 0.765374
O O7 0.919773 0.227587 0.769581
O O8 0.994587 0.251811 0.000000
O O9 0.576449 0.911804 0.779639
O O10 0.495431 0.886313 0.000000
O O11 0.290365 0.316706 0.778195
O O12 0.168333 0.280328 0.795796
O O13 0.211698 0.349337 0.000000
O O14 0.688901 0.791406 0.745661
O O15 0.660951 0.740954 0.000000
O O16 0.311866 0.673861 0.264061
O O17 0.359192 0.706293 0.000000
O O18 0.707509 0.900115 0.747653
O O19 0.655592 0.939623 0.000000
O O20 0.732939 0.842359 0.500000
#
# Coordination Sequence:
#
# PCOD9425979 Si02
#       8
#     8   8   8   8   8   8   8   8
#     4  12  24  34  47  70 103 134 167 207 250 292
#     4   9  15  29  53  77  97 125 168 207 239 281
#     4  10  19  34  52  70  95 132 173 206 237 284
#     4   9  17  31  50  71  96 130 171 205 239 287
#     4   9  17  32  53  74  96 128 168 207 245 288
#     4   9  17  31  52  72  96 129 165 201 239 289
#     4  11  22  37  55  69  91 131 177 210 243 290
#     4  11  21  32  47  72 103 129 160 203 250 294
#
# _framework density 15.643138
#
# number of rings (size 3 to 8) (size 9 to 14) (size 15 to 20)
#    0.000    2.000    2.500    3.750    0.000    4.500 
#    0.000    0.625    0.000    0.000    0.000    0.875 
#    0.000    7.000    0.000    0.000    0.000    0.000 
#
# Total GULP energy -357136.455368 kJ/mol
# GULP energy per Si atom -5580.257115 kJ/mol
# Density = 1.560753 g / cm^3
# Si number density = 15.643138 Si / 1000 Ang^3
#
#
#
# Elastic Constant Matrix: (Units=GPa)
#
#
# Indices 1 2 3 4 5 6 
#
# 1 100.0837 28.5575 31.1788 0.0000 0.0000 0.0000
# 2 28.5575 55.0600 30.0466 0.0000 0.0000 0.0000
# 3 31.1788 30.0466 41.8862 0.0000 0.0000 0.0000
# 4 0.0000 0.0000 0.0000 4.1530 0.0000 0.0000
# 5 0.0000 0.0000 0.0000 0.0000 0.0242 0.0000
# 6 0.0000 0.0000 0.0000 0.0000 0.0000 16.8637
#
#
#
# Elastic Compliance Matrix: (Units=1/GPa)
#
#
# Indices 1 2 3 4 5 6 
#
# 1 0.013205 -0.002440 -0.008079 0.000000 0.000000 0.000000
# 2 -0.002440 0.030296 -0.019916 0.000000 0.000000 0.000000
# 3 -0.008079 -0.019916 0.044174 0.000000 0.000000 0.000000
# 4 0.000000 0.000000 0.000000 0.240789 0.000000 0.000000
# 5 0.000000 0.000000 0.000000 0.000000 41.333575 0.000000
# 6 0.000000 0.000000 0.000000 0.000000 0.000000 0.059299
#
#
# Mechanical properties :
#
#
# Convention : Reuss Voigt Hill
#
# Bulk Modulus (GPa) = 37.30645 41.84399 39.57522
# Shear Modulus (GPa) = 0.11964 11.35799 5.73882
#
# Velocity S-wave (km/s) = 0.27685 2.69749 1.91743
# Velocity P-wave (km/s) = 4.89923 6.04228 5.50052
#
# Compressibility (1/GPa) = 0.02680502
#
# Stress axis : x y z
#
# Youngs Moduli (GPa) = 75.73093 33.00776 22.63760
#
# Poissons Ratio (x) = 0.08054 0.18288
# Poissons Ratio (y) = 0.18479 0.45085
# Poissons Ratio (z) = 0.61181 0.65738
#
# Static dielectric constant tensor:
#      x y z
#    x 1.539000 0.000000 0.000000 
#    y 0.000000 1.491450 0.000000 
#    z 0.000000 0.000000 1.516600 
# 
# From -- ./inp_files/9136.got.cif
#   From: 2010.05.17/outbox.cif.g08.bks.cpg/sg55_5_cif.got.tgz:9136.got - 2010.06.03 13:27:54.
