data_PCOD9425775
_publ_section_title
;
Structure prediction by ZEFSAII (Michael W. Deem and Ramdas Pophale) SiO2 
 PCOD9425775
Probable space group: P B A M
;
_chemical_formula_sum "Si O2"
_cell_formula_units_Z 56
_cell_length_a 21.450481
_cell_length_b 13.350734
_cell_length_c 8.011705
_cell_angle_alpha 90.000000
_cell_angle_beta 90.000000
_cell_angle_gamma 90.000000
_cell_volume 2294.389402
_symmetry_space_group_name_H-M "P B A M"
_symmetry_group_IT_number 55
_symmetry_cell_setting 'orthorhombic'
loop_
_space_group_symop_operation_xyz
x,y,z
-x,-y,z
1/2+x,1/2-y,-z
1/2-x,1/2+y,-z
-x,-y,-z
x,y,-z
1/2-x,1/2+y,z
1/2+x,1/2-y,z
loop_
_atom_site_type_symbol
_atom_site_label
_atom_site_fract_x
_atom_site_fract_y
_atom_site_fract_z
Si Si1 0.758373 0.762041 0.808310
Si Si2 0.245310 0.528651 0.299705
Si Si3 0.446210 0.583874 0.804763
Si Si4 0.380335 0.219216 0.810623
Si Si5 0.512380 0.197401 0.800337
Si Si6 0.636257 0.581133 0.688639
Si Si7 0.361781 0.894984 0.697423
O O1 0.688285 0.774465 0.728249
O O2 0.815150 0.698607 0.733229
O O3 0.773674 0.879600 0.799800
O O4 0.751309 0.728480 0.000000
O O5 0.245754 0.548014 0.500000
O O6 0.290770 0.433645 0.275062
O O7 0.176711 0.492929 0.243986
O O8 0.500000 0.500000 0.794660
O O9 0.465871 0.692624 0.738646
O O10 0.391990 0.528893 0.705509
O O11 0.429071 0.595738 0.000000
O O12 0.442875 0.171506 0.734552
O O13 0.394914 0.338959 0.810167
O O14 0.371530 0.182980 0.000000
O O15 0.569870 0.123642 0.769015
O O16 0.503990 0.205727 0.000000
O O17 0.626443 0.616170 0.500000
O O18 0.367709 0.903896 0.500000
#
# Coordination Sequence:
#
# PCOD9425775 Si02
#       7
#     8   8   8   8   8   8   8
#     4  11  23  39  65  94 118 156 204 251 302 355
#     4  10  23  41  60  85 120 159 198 247 301 355
#     4  10  19  33  52  77 113 154 188 231 293 354
#     4  10  21  39  60  85 118 153 194 244 296 351
#     4  10  21  38  59  84 117 158 199 245 300 354
#     4  11  21  34  55  83 114 152 193 239 293 350
#     4  11  23  41  62  88 124 161 198 247 302 358
#
# _framework density 24.407366
#
# number of rings (size 3 to 8) (size 9 to 14) (size 15 to 20)
#    0.000    1.571    2.857    2.143    0.000    6.571 
#    0.000    0.714    0.000    4.286    0.000    0.000 
#    0.000    0.000    0.000    0.000    0.000    0.000 
#
# Total GULP energy -312544.297008 kJ/mol
# GULP energy per Si atom -5581.148161 kJ/mol
# Density = 2.435181 g / cm^3
# Si number density = 24.407366 Si / 1000 Ang^3
#
#
#
# Elastic Constant Matrix: (Units=GPa)
#
#
# Indices 1 2 3 4 5 6 
#
# 1 118.3773 -22.5433 11.4271 0.0000 0.0000 0.0000
# 2 -22.5433 10.6584 -3.2898 0.0000 0.0000 0.0000
# 3 11.4271 -3.2898 43.7312 0.0000 0.0000 0.0000
# 4 0.0000 0.0000 0.0000 23.0172 0.0000 0.0000
# 5 0.0000 0.0000 0.0000 0.0000 16.6552 0.0000
# 6 0.0000 0.0000 0.0000 0.0000 0.0000 30.4623
#
#
#
# Elastic Compliance Matrix: (Units=1/GPa)
#
#
# Indices 1 2 3 4 5 6 
#
# 1 0.014239 0.029657 -0.001490 0.000000 0.000000 0.000000
# 2 0.029657 0.157822 0.004123 0.000000 0.000000 0.000000
# 3 -0.001490 0.004123 0.023566 0.000000 0.000000 0.000000
# 4 0.000000 0.000000 0.000000 0.043446 0.000000 0.000000
# 5 0.000000 0.000000 0.000000 0.000000 0.060041 0.000000
# 6 0.000000 0.000000 0.000000 0.000000 0.000000 0.032827
#
#
# Mechanical properties :
#
#
# Convention : Reuss Voigt Hill
#
# Bulk Modulus (GPa) = 3.84308 15.99499 9.91904
# Shear Modulus (GPa) = 14.12042 26.50515 20.31279
#
# Velocity S-wave (km/s) = 2.40788 3.29895 2.88799
# Velocity P-wave (km/s) = 3.05098 4.59111 3.89787
#
# Compressibility (1/GPa) = 0.26020804
#
# Stress axis : x y z
#
# Youngs Moduli (GPa) = 70.22914 6.33626 42.43328
#
# Poissons Ratio (x) = -0.18791 0.06321
# Poissons Ratio (y) = -2.08278 -0.17496
# Poissons Ratio (z) = 0.10462 -0.02613
#
# Static dielectric constant tensor:
#      x y z
#    x 2.085230 0.000000 0.000000 
#    y 0.000000 2.003640 0.000000 
#    z 0.000000 0.000000 1.877920 
# 
# From -- ./inp_files/6033.got.cif
#   From: 2010.05.17/outbox.cif.g08.bks.cpg/sg55_4_cif.got.tgz:6033.got - 2010.06.03 13:27:54.
