data_PCOD9425321
_publ_section_title
;
Structure prediction by ZEFSAII (Michael W. Deem and Ramdas Pophale) SiO2 
 PCOD9425321
Probable space group: P B A M
;
_chemical_formula_sum "Si O2"
_cell_formula_units_Z 52
_cell_length_a 15.287085
_cell_length_b 9.110333
_cell_length_c 16.303868
_cell_angle_alpha 90.000000
_cell_angle_beta 90.000000
_cell_angle_gamma 90.000000
_cell_volume 2270.646788
_symmetry_space_group_name_H-M "P B A M"
_symmetry_group_IT_number 55
_symmetry_cell_setting 'orthorhombic'
loop_
_space_group_symop_operation_xyz
x,y,z
-x,-y,z
1/2+x,1/2-y,-z
1/2-x,1/2+y,-z
-x,-y,-z
x,y,-z
1/2-x,1/2+y,z
1/2+x,1/2-y,z
loop_
_atom_site_type_symbol
_atom_site_label
_atom_site_fract_x
_atom_site_fract_y
_atom_site_fract_z
Si Si1 0.848298 0.744916 0.682816
Si Si2 0.290184 0.700205 0.500000
Si Si3 0.000000 0.000000 0.117026
Si Si4 0.600005 0.958315 0.228765
Si Si5 0.837740 0.991401 0.791113
Si Si6 0.873348 0.120764 0.500000
Si Si7 0.551806 0.696581 0.330849
Si Si8 0.350008 0.274893 0.907972
O O1 0.918525 0.915857 0.839949
O O2 0.847786 0.598209 0.736765
O O3 0.948591 0.798582 0.681046
O O4 0.795166 0.870471 0.732499
O O5 0.321579 0.767702 0.412485
O O6 0.188511 0.736968 0.500000
O O7 0.318452 0.530083 0.500000
O O8 0.942706 0.136427 0.083809
O O9 0.586379 0.857538 0.309634
O O10 0.638286 0.863240 0.152872
O O11 0.500000 0.000000 0.204437
O O12 0.892588 0.099756 0.732241
O O13 0.795111 0.098936 0.858885
O O14 0.929807 0.133355 0.580712
O O15 0.318926 0.240346 0.000000
#
# Coordination Sequence:
#
# PCOD9425321 Si02
#       8
#     8   4   4   8   8   4   8   8
#     4  11  19  37  58  85 103 153 198 235 267 329
#     4  12  29  39  58  80 118 144 182 236 293 335
#     4   8  13  24  44  71 108 138 188 219 256 322
#     4   9  19  31  49  77 112 148 183 235 271 328
#     4   9  15  28  51  77 102 137 196 235 256 316
#     4  12  27  41  54  82 112 147 177 247 282 343
#     4  10  18  36  59  76 106 145 200 227 277 309
#     4   9  16  27  44  74 115 158 181 219 282 334
#
# _framework density 22.900963000000001
#
# number of rings (size 3 to 8) (size 9 to 14) (size 15 to 20)
#    0.923    1.231    3.077    1.615    2.154    0.923 
#    0.000    3.077    0.000    0.000    0.000    0.000 
#    0.000   19.692    0.000    0.615    0.000    0.000 
#
# Total GULP energy -289563.354150 kJ/mol
# GULP energy per Si atom -5568.526041 kJ/mol
# Density = 2.284884 g / cm^3
# Si number density = 22.900963 Si / 1000 Ang^3
#
#
#
# Elastic Constant Matrix: (Units=GPa)
#
#
# Indices 1 2 3 4 5 6 
#
# 1 44.8297 30.2370 28.2050 0.0000 0.0000 0.0000
# 2 30.2370 125.6609 67.5486 0.0000 0.0000 0.0000
# 3 28.2050 67.5486 179.2544 0.0000 0.0000 0.0000
# 4 0.0000 0.0000 0.0000 -27.1684 0.0000 0.0000
# 5 0.0000 0.0000 0.0000 0.0000 13.6824 0.0000
# 6 0.0000 0.0000 0.0000 0.0000 0.0000 26.4377
#
#
#
# Elastic Compliance Matrix: (Units=1/GPa)
#
#
# Indices 1 2 3 4 5 6 
#
# 1 0.027356 -0.005353 -0.002287 0.000000 0.000000 0.000000
# 2 -0.005353 0.011027 -0.003313 0.000000 0.000000 0.000000
# 3 -0.002287 -0.003313 0.007187 0.000000 0.000000 0.000000
# 4 0.000000 0.000000 0.000000 -0.036807 0.000000 0.000000
# 5 0.000000 0.000000 0.000000 0.000000 0.073086 0.000000
# 6 0.000000 0.000000 0.000000 0.000000 0.000000 0.037825
#
#
# Mechanical properties :
#
#
# Convention : Reuss Voigt Hill
#
# Bulk Modulus (GPa) = 42.25907 66.85847 54.55877
# Shear Modulus (GPa) = 33.45193 17.50731 25.47962
#
# Velocity S-wave (km/s) = 3.82609 2.76792 3.33919
# Velocity P-wave (km/s) = 6.16535 6.28277 6.22434
#
# Compressibility (1/GPa) = 0.02366356
#
# Stress axis : x y z
#
# Youngs Moduli (GPa) = 36.55477 90.68741 139.14051
#
# Poissons Ratio (x) = 0.48546 0.31824
# Poissons Ratio (y) = 0.19568 0.46097
# Poissons Ratio (z) = 0.08361 0.30045
#
# Static dielectric constant tensor:
#      x y z
#    x 1.873380 0.000000 0.000000 
#    y 0.000000 1.904270 0.000000 
#    z 0.000000 0.000000 1.919490 
# 
# From -- ./inp_files/19893.got.cif
#   From: 2010.05.17/outbox.cif.g08.bks.cpg/sg55_10_cif.got.tgz:19893.got - 2010.06.03 13:27:54.
