data_PCOD9425770
_publ_section_title
;
Structure prediction by ZEFSAII (Michael W. Deem and Ramdas Pophale) SiO2 
 PCOD9425770
Probable space group: P B A M
;
_chemical_formula_sum "Si O2"
_cell_formula_units_Z 40
_cell_length_a 15.108335
_cell_length_b 12.654360
_cell_length_c 7.333080
_cell_angle_alpha 90.000000
_cell_angle_beta 90.000000
_cell_angle_gamma 90.000000
_cell_volume 1401.984507
_symmetry_space_group_name_H-M "P B A M"
_symmetry_group_IT_number 55
_symmetry_cell_setting 'orthorhombic'
loop_
_space_group_symop_operation_xyz
x,y,z
-x,-y,z
1/2+x,1/2-y,-z
1/2-x,1/2+y,-z
-x,-y,-z
x,y,-z
1/2-x,1/2+y,z
1/2+x,1/2-y,z
loop_
_atom_site_type_symbol
_atom_site_label
_atom_site_fract_x
_atom_site_fract_y
_atom_site_fract_z
Si Si1 0.394601 0.184629 0.223415
Si Si2 0.805419 0.760428 0.780689
Si Si3 0.815280 0.990259 0.713373
Si Si4 0.879780 0.541371 0.794744
Si Si5 0.976377 0.111543 0.792791
O O1 0.295596 0.219245 0.286339
O O2 0.423241 0.066386 0.282715
O O3 0.466474 0.271504 0.282899
O O4 0.394503 0.184843 0.000000
O O5 0.853879 0.871270 0.734794
O O6 0.855964 0.656022 0.712656
O O7 0.801360 0.751099 0.000000
O O8 0.805503 0.011658 0.500000
O O9 0.720046 0.993352 0.804628
O O10 0.871847 0.080169 0.806481
O O11 0.913717 0.560533 0.000000
O O12 0.011481 0.113555 0.000000
O O13 0.000000 0.000000 0.697151
#
# Coordination Sequence:
#
# PCOD9425770 Si02
#       5
#     8   8   8   8   8
#     4   8  14  26  46  72  94 116 155 201 244 282
#     4   9  16  29  50  69  93 124 157 200 242 288
#     4  11  21  30  44  70 104 129 157 197 243 302
#     4   9  16  30  51  71  95 125 159 201 245 290
#     4  10  19  33  52  71  96 131 171 205 237 288
#
# _framework density 28.530985000000001
#
# number of rings (size 3 to 8) (size 9 to 14) (size 15 to 20)
#    0.000    2.600    2.000    3.000    0.000    1.200 
#    0.000    0.000    0.000    1.200    0.000    8.400 
#    0.000    0.000    0.000    0.000    0.000    0.000 
#
# Total GULP energy -223339.574786 kJ/mol
# GULP energy per Si atom -5583.489370 kJ/mol
# Density = 2.846605 g / cm^3
# Si number density = 28.530985 Si / 1000 Ang^3
#
#
#
# Elastic Constant Matrix: (Units=GPa)
#
#
# Indices 1 2 3 4 5 6 
#
# 1 34.2120 46.1689 12.8685 0.0000 0.0000 0.0000
# 2 46.1689 265.2024 1.0976 0.0000 0.0000 0.0000
# 3 12.8685 1.0976 163.3226 0.0000 0.0000 0.0000
# 4 0.0000 0.0000 0.0000 -7.1841 0.0000 0.0000
# 5 0.0000 0.0000 0.0000 0.0000 -124.0606 0.0000
# 6 0.0000 0.0000 0.0000 0.0000 0.0000 73.0410
#
#
#
# Elastic Compliance Matrix: (Units=1/GPa)
#
#
# Indices 1 2 3 4 5 6 
#
# 1 0.039698 -0.006898 -0.003081 0.000000 0.000000 0.000000
# 2 -0.006898 0.004969 0.000510 0.000000 0.000000 0.000000
# 3 -0.003081 0.000510 0.006362 0.000000 0.000000 0.000000
# 4 0.000000 0.000000 0.000000 -0.139196 0.000000 0.000000
# 5 0.000000 0.000000 0.000000 0.000000 -0.008061 0.000000
# 6 0.000000 0.000000 0.000000 0.000000 0.000000 0.013691
#
#
# Mechanical properties :
#
#
# Convention : Reuss Voigt Hill
#
# Bulk Modulus (GPa) = 31.16213 64.77855 47.97034
# Shear Modulus (GPa) = -94.51729 15.19940 -39.65894
#
# Velocity S-wave (km/s) = -5.76193 2.31060 -3.73236
# Velocity P-wave (km/s) = 5.77240 5.46557 1.31303
#
# Compressibility (1/GPa) = 0.03209023
#
# Stress axis : x y z
#
# Youngs Moduli (GPa) = 25.19044 201.22779 157.17788
#
# Poissons Ratio (x) = 1.38810 0.48434
# Poissons Ratio (y) = 0.17377 -0.08018
# Poissons Ratio (z) = 0.07762 -0.10265
#
# Static dielectric constant tensor:
#      x y z
#    x 2.479060 0.000000 0.000000 
#    y 0.000000 2.313510 0.000000 
#    z 0.000000 0.000000 2.063870 
# 
# From -- ./inp_files/3642.got.cif
#   From: 2010.05.17/outbox.cif.g08.bks.cpg/sg55_2_cif.got.tgz:3642.got - 2010.06.03 13:27:54.
