data_PCOD9425105
_publ_section_title
;
Structure prediction by ZEFSAII (Michael W. Deem and Ramdas Pophale) SiO2 
 PCOD9425105
Probable space group: P B A M
;
_chemical_formula_sum "Si O2"
_cell_formula_units_Z 42
_cell_length_a 6.893601
_cell_length_b 31.756097
_cell_length_c 7.745703
_cell_angle_alpha 90.000000
_cell_angle_beta 90.000000
_cell_angle_gamma 90.000000
_cell_volume 1695.641758
_symmetry_space_group_name_H-M "P B A M"
_symmetry_group_IT_number 55
_symmetry_cell_setting 'orthorhombic'
loop_
_space_group_symop_operation_xyz
x,y,z
-x,-y,z
1/2+x,1/2-y,-z
1/2-x,1/2+y,-z
-x,-y,-z
x,y,-z
1/2-x,1/2+y,z
1/2+x,1/2-y,z
loop_
_atom_site_type_symbol
_atom_site_label
_atom_site_fract_x
_atom_site_fract_y
_atom_site_fract_z
Si Si1 0.607511 0.457251 0.796286
Si Si2 0.000000 0.500000 0.000000
Si Si3 0.033955 0.439559 0.307447
Si Si4 0.084643 0.810116 0.000000
Si Si5 0.478459 0.368681 0.302215
Si Si6 0.365087 0.212402 0.000000
Si Si7 0.938727 0.344824 0.694808
O O1 0.500000 0.500000 0.751857
O O2 0.801658 0.448903 0.690308
O O3 0.474505 0.416466 0.767056
O O4 0.673848 0.459431 0.000000
O O5 0.096169 0.469382 0.152329
O O6 0.111904 0.447968 0.500000
O O7 0.041976 0.389636 0.268397
O O8 0.124862 0.836926 0.828409
O O9 0.852083 0.804971 0.000000
O O10 0.154563 0.762371 0.000000
O O11 0.413425 0.366319 0.500000
O O12 0.708037 0.356332 0.302018
O O13 0.465301 0.192028 0.832745
O O14 0.985590 0.331546 0.500000
#
# Coordination Sequence:
#
# PCOD9425105 Si02
#       7
#     8   2   8   4   8   4   8
#     4  10  18  31  54  81 106 134 172 217 261 311
#     4  12  20  32  48  70 104 140 172 218 248 300
#     4  10  20  33  52  76 102 137 180 220 258 302
#     4  10  20  34  52  79 103 131 171 211 260 313
#     4   9  17  31  52  76 103 132 164 209 258 304
#     4  10  19  32  56  76  99 131 162 211 260 308
#     4   8  16  31  52  76  95 122 171 216 248 294
#
# _framework density 24.769385
#
# number of rings (size 3 to 8) (size 9 to 14) (size 15 to 20)
#    0.000    2.476    1.905    2.571    2.667    2.286 
#    0.000    0.000    8.381    0.000    0.000    0.000 
#    0.000    0.000    0.000    0.000    0.000    0.000 
#
# Total GULP energy -234769.643482 kJ/mol
# GULP energy per Si atom -5589.753416 kJ/mol
# Density = 2.471301 g / cm^3
# Si number density = 24.769385 Si / 1000 Ang^3
#
#
#
# Elastic Constant Matrix: (Units=GPa)
#
#
# Indices 1 2 3 4 5 6 
#
# 1 82.1732 18.4270 9.5687 0.0000 0.0000 0.0000
# 2 18.4270 198.6476 125.5940 0.0000 0.0000 0.0000
# 3 9.5687 125.5940 216.0994 0.0000 0.0000 0.0000
# 4 0.0000 0.0000 0.0000 11.1865 0.0000 0.0000
# 5 0.0000 0.0000 0.0000 0.0000 5.3957 0.0000
# 6 0.0000 0.0000 0.0000 0.0000 0.0000 42.2248
#
#
#
# Elastic Compliance Matrix: (Units=1/GPa)
#
#
# Indices 1 2 3 4 5 6 
#
# 1 0.012433 -0.001273 0.000189 0.000000 0.000000 0.000000
# 2 -0.001273 0.008089 -0.004645 0.000000 0.000000 0.000000
# 3 0.000189 -0.004645 0.007319 0.000000 0.000000 0.000000
# 4 0.000000 0.000000 0.000000 0.089393 0.000000 0.000000
# 5 0.000000 0.000000 0.000000 0.000000 0.185333 0.000000
# 6 0.000000 0.000000 0.000000 0.000000 0.000000 0.023683
#
#
# Mechanical properties :
#
#
# Convention : Reuss Voigt Hill
#
# Bulk Modulus (GPa) = 61.03742 89.34437 75.19090
# Shear Modulus (GPa) = 14.57020 34.65012 24.61016
#
# Velocity S-wave (km/s) = 2.42798 3.74426 3.15552
# Velocity P-wave (km/s) = 5.70578 7.40550 6.61050
#
# Compressibility (1/GPa) = 0.01638339
#
# Stress axis : x y z
#
# Youngs Moduli (GPa) = 80.43220 123.62924 136.63928
#
# Poissons Ratio (x) = 0.15738 -0.02587
# Poissons Ratio (y) = 0.10239 0.63465
# Poissons Ratio (z) = -0.01523 0.57422
#
# Static dielectric constant tensor:
#      x y z
#    x 1.653380 0.000000 0.000000 
#    y 0.000000 1.831840 0.000000 
#    z 0.000000 0.000000 1.892390 
# 
# From -- ./inp_files/4008.got.cif
#   From: 2010.05.17/outbox.cif.g08.bks.cpg/sg55_3_cif.got.tgz:4008.got - 2010.06.03 13:27:54.
