data_PCOD9425431
_publ_section_title
;
Structure prediction by ZEFSAII (Michael W. Deem and Ramdas Pophale) SiO2 
 PCOD9425431
Probable space group: P B A M
;
_chemical_formula_sum "Si O2"
_cell_formula_units_Z 64
_cell_length_a 11.656396
_cell_length_b 16.233208
_cell_length_c 17.975194
_cell_angle_alpha 90.000000
_cell_angle_beta 90.000000
_cell_angle_gamma 90.000000
_cell_volume 3401.278806
_symmetry_space_group_name_H-M "P B A M"
_symmetry_group_IT_number 55
_symmetry_cell_setting 'orthorhombic'
loop_
_space_group_symop_operation_xyz
x,y,z
-x,-y,z
1/2+x,1/2-y,-z
1/2-x,1/2+y,-z
-x,-y,-z
x,y,-z
1/2-x,1/2+y,z
1/2+x,1/2-y,z
loop_
_atom_site_type_symbol
_atom_site_label
_atom_site_fract_x
_atom_site_fract_y
_atom_site_fract_z
Si Si1 0.287248 0.356646 0.325271
Si Si2 0.742160 0.887892 0.789372
Si Si3 0.924781 0.580554 0.588872
Si Si4 0.113370 0.949988 0.201756
Si Si5 0.616407 0.226492 0.795091
Si Si6 0.388918 0.043807 0.916267
Si Si7 0.240322 0.372516 0.083681
Si Si8 0.918772 0.301157 0.680625
O O1 0.203788 0.409577 0.377822
O O2 0.385670 0.406357 0.281663
O O3 0.201873 0.321966 0.261175
O O4 0.350492 0.275237 0.355025
O O5 0.840354 0.820051 0.799934
O O6 0.661011 0.888032 0.862084
O O7 0.672661 0.864457 0.715672
O O8 0.790177 0.979728 0.787019
O O9 0.918906 0.582666 0.500000
O O10 0.000000 0.500000 0.610786
O O11 0.997001 0.656360 0.622478
O O12 0.150414 0.884804 0.138099
O O13 0.000000 0.000000 0.182300
O O14 0.643373 0.180851 0.873166
O O15 0.494657 0.223716 0.753479
O O16 0.500000 0.000000 0.881739
O O17 0.303467 0.966555 0.923426
O O18 0.416419 0.073404 0.000000
O O19 0.263092 0.341781 0.000000
#
# Coordination Sequence:
#
# PCOD9425431 Si02
#       8
#     8   8   8   8   8   8   8   8
#     4   9  19  34  53  78 106 138 177 221 267 323
#     4  10  19  30  50  74  97 131 173 216 261 313
#     4  10  21  37  58  84 113 143 176 217 268 329
#     4  10  19  32  51  73 101 137 180 227 272 318
#     4   9  18  31  48  73 102 133 173 219 265 314
#     4   9  17  29  45  67  95 128 169 215 259 304
#     4   9  18  31  46  67  99 137 175 218 267 318
#     4  10  19  34  55  78 106 137 174 217 264 320
#
# _framework density 18.816452999999999
#
# number of rings (size 3 to 8) (size 9 to 14) (size 15 to 20)
#    0.000    2.500    0.000    2.250    0.000    3.750 
#    0.000    0.000    0.000    9.375    0.000    0.000 
#    0.000    0.000    0.000    0.000    0.000    0.000 
#
# Total GULP energy -356312.193601 kJ/mol
# GULP energy per Si atom -5567.378025 kJ/mol
# Density = 1.877363 g / cm^3
# Si number density = 18.816453 Si / 1000 Ang^3
#
#
#
# Elastic Constant Matrix: (Units=GPa)
#
#
# Indices 1 2 3 4 5 6 
#
# 1 49.4331 -2.0922 12.5457 0.0000 0.0000 0.0000
# 2 -2.0922 41.5297 22.6768 0.0000 0.0000 0.0000
# 3 12.5457 22.6768 60.8630 0.0000 0.0000 0.0000
# 4 0.0000 0.0000 0.0000 5.3538 0.0000 0.0000
# 5 0.0000 0.0000 0.0000 0.0000 21.9863 0.0000
# 6 0.0000 0.0000 0.0000 0.0000 0.0000 38.3815
#
#
#
# Elastic Compliance Matrix: (Units=1/GPa)
#
#
# Indices 1 2 3 4 5 6 
#
# 1 0.021996 0.004499 -0.006210 0.000000 0.000000 0.000000
# 2 0.004499 0.031149 -0.012533 0.000000 0.000000 0.000000
# 3 -0.006210 -0.012533 0.022380 0.000000 0.000000 0.000000
# 4 0.000000 0.000000 0.000000 0.186785 0.000000 0.000000
# 5 0.000000 0.000000 0.000000 0.000000 0.045483 0.000000
# 6 0.000000 0.000000 0.000000 0.000000 0.000000 0.026054
#
#
# Mechanical properties :
#
#
# Convention : Reuss Voigt Hill
#
# Bulk Modulus (GPa) = 21.26000 24.23181 22.74591
# Shear Modulus (GPa) = 13.22697 21.05735 17.14216
#
# Velocity S-wave (km/s) = 2.65419 3.34891 3.02158
# Velocity P-wave (km/s) = 4.55150 5.27822 4.92827
#
# Compressibility (1/GPa) = 0.04703669
#
# Stress axis : x y z
#
# Youngs Moduli (GPa) = 45.46297 32.10328 44.68230
#
# Poissons Ratio (x) = -0.14444 0.27749
# Poissons Ratio (y) = -0.20455 0.56002
# Poissons Ratio (z) = 0.28234 0.40236
#
# Static dielectric constant tensor:
#      x y z
#    x 1.695290 0.000000 0.000000 
#    y 0.000000 1.672040 0.000000 
#    z 0.000000 0.000000 1.662520 
# 
# From -- ./inp_files/21322.got.cif
#   From: 2010.05.17/outbox.cif.g08.bks.cpg/sg55_11_cif.got.tgz:21322.got - 2010.06.03 13:27:54.
