data_PCOD9425678
_publ_section_title
;
Structure prediction by ZEFSAII (Michael W. Deem and Ramdas Pophale) SiO2 
 PCOD9425678
Probable space group: P B A M
;
_chemical_formula_sum "Si O2"
_cell_formula_units_Z 64
_cell_length_a 15.366344
_cell_length_b 21.607564
_cell_length_c 7.674784
_cell_angle_alpha 90.000000
_cell_angle_beta 90.000000
_cell_angle_gamma 90.000000
_cell_volume 2548.252863
_symmetry_space_group_name_H-M "P B A M"
_symmetry_group_IT_number 55
_symmetry_cell_setting 'orthorhombic'
loop_
_space_group_symop_operation_xyz
x,y,z
-x,-y,z
1/2+x,1/2-y,-z
1/2-x,1/2+y,-z
-x,-y,-z
x,y,-z
1/2-x,1/2+y,z
1/2+x,1/2-y,z
loop_
_atom_site_type_symbol
_atom_site_label
_atom_site_fract_x
_atom_site_fract_y
_atom_site_fract_z
Si Si1 0.582496 0.770454 0.196726
Si Si2 0.818032 0.152113 0.703011
Si Si3 0.530505 0.567842 0.790045
Si Si4 0.357388 0.900008 0.793534
Si Si5 0.745720 0.844245 0.214722
Si Si6 0.070573 0.192895 0.213595
Si Si7 0.712513 0.971655 0.192514
Si Si8 0.960928 0.431031 0.306557
O O1 0.634461 0.705514 0.190504
O O2 0.654106 0.816005 0.278009
O O3 0.491669 0.748132 0.277679
O O4 0.564887 0.792944 0.000000
O O5 0.826066 0.166439 0.500000
O O6 0.871708 0.088666 0.738517
O O7 0.717508 0.148295 0.754893
O O8 0.500000 0.500000 0.727453
O O9 0.470752 0.626346 0.734395
O O10 0.527162 0.566143 0.000000
O O11 0.454852 0.889457 0.727866
O O12 0.314892 0.964225 0.719960
O O13 0.366496 0.909307 0.000000
O O14 0.829270 0.804339 0.266728
O O15 0.765644 0.915102 0.271933
O O16 0.744130 0.844296 0.000000
O O17 0.067173 0.194975 0.000000
O O18 0.619487 0.936088 0.178889
O O19 0.748745 0.985436 0.000000
O O20 0.927416 0.420451 0.500000
O O21 0.000000 0.500000 0.299488
#
# Coordination Sequence:
#
# PCOD9425678 Si02
#       8
#     8   8   8   8   8   8   8   8
#     4   9  18  36  56  76 104 139 185 228 274 328
#     4  11  22  35  52  75 109 145 181 223 273 329
#     4   9  18  32  55  82 109 141 179 218 270 336
#     4  10  19  32  53  78 107 140 184 226 266 321
#     4   9  17  31  54  82 109 136 178 234 279 320
#     4   8  15  29  51  78 107 137 173 223 274 319
#     4   9  18  31  51  79 108 137 177 227 272 319
#     4   9  17  31  49  70 105 145 174 207 263 321
#
# _framework density 25.115248000000001
#
# number of rings (size 3 to 8) (size 9 to 14) (size 15 to 20)
#    0.000    2.750    0.000    2.625    1.750    2.250 
#    2.250    0.625    0.000    3.750    0.000    0.000 
#    0.000    0.000    0.000    0.000    0.000    0.000 
#
# Total GULP energy -357139.304943 kJ/mol
# GULP energy per Si atom -5580.301640 kJ/mol
# Density = 2.505808 g / cm^3
# Si number density = 25.115248 Si / 1000 Ang^3
#
#
#
# Elastic Constant Matrix: (Units=GPa)
#
#
# Indices 1 2 3 4 5 6 
#
# 1 36.3024 -8.9165 -2.6988 0.0000 0.0000 0.0000
# 2 -8.9165 87.5528 -1.0738 0.0000 0.0000 0.0000
# 3 -2.6988 -1.0738 62.1951 0.0000 0.0000 0.0000
# 4 0.0000 0.0000 0.0000 3.0858 0.0000 0.0000
# 5 0.0000 0.0000 0.0000 0.0000 0.6982 0.0000
# 6 0.0000 0.0000 0.0000 0.0000 0.0000 23.8942
#
#
#
# Elastic Compliance Matrix: (Units=1/GPa)
#
#
# Indices 1 2 3 4 5 6 
#
# 1 0.028355 0.002903 0.001280 0.000000 0.000000 0.000000
# 2 0.002903 0.011721 0.000328 0.000000 0.000000 0.000000
# 3 0.001280 0.000328 0.016140 0.000000 0.000000 0.000000
# 4 0.000000 0.000000 0.000000 0.324062 0.000000 0.000000
# 5 0.000000 0.000000 0.000000 0.000000 1.432288 0.000000
# 6 0.000000 0.000000 0.000000 0.000000 0.000000 0.041851
#
#
# Mechanical properties :
#
#
# Convention : Reuss Voigt Hill
#
# Bulk Modulus (GPa) = 15.32797 17.85247 16.59022
# Shear Modulus (GPa) = 2.67789 18.78494 10.73142
#
# Velocity S-wave (km/s) = 1.03371 2.73783 2.06933
# Velocity P-wave (km/s) = 2.74610 4.13739 3.51134
#
# Compressibility (1/GPa) = 0.06524021
#
# Stress axis : x y z
#
# Youngs Moduli (GPa) = 35.26752 85.31408 61.95918
#
# Poissons Ratio (x) = -0.24770 -0.07934
# Poissons Ratio (y) = -0.10240 -0.02034
# Poissons Ratio (z) = -0.04516 -0.02801
#
# Static dielectric constant tensor:
#      x y z
#    x 1.990590 0.000000 0.000000 
#    y 0.000000 2.087040 0.000000 
#    z 0.000000 0.000000 1.956030 
# 
# From -- ./inp_files/6569.got.cif
#   From: 2010.05.17/outbox.cif.g08.bks.cpg/sg55_4_cif.got.tgz:6569.got - 2010.06.03 13:27:54.
