data_PCOD9425361
_publ_section_title
;
Structure prediction by ZEFSAII (Michael W. Deem and Ramdas Pophale) SiO2 
 PCOD9425361
Probable space group: P B A M
;
_chemical_formula_sum "Si O2"
_cell_formula_units_Z 32
_cell_length_a 24.077588
_cell_length_b 5.071506
_cell_length_c 13.114991
_cell_angle_alpha 90.000000
_cell_angle_beta 90.000000
_cell_angle_gamma 90.000000
_cell_volume 1601.466725
_symmetry_space_group_name_H-M "P B A M"
_symmetry_group_IT_number 55
_symmetry_cell_setting 'orthorhombic'
loop_
_space_group_symop_operation_xyz
x,y,z
-x,-y,z
1/2+x,1/2-y,-z
1/2-x,1/2+y,-z
-x,-y,-z
x,y,-z
1/2-x,1/2+y,z
1/2+x,1/2-y,z
loop_
_atom_site_type_symbol
_atom_site_label
_atom_site_fract_x
_atom_site_fract_y
_atom_site_fract_z
Si Si1 0.210162 0.927381 0.382061
Si Si2 0.563296 0.095837 0.878749
Si Si3 0.623666 0.576145 0.200026
Si Si4 0.273573 0.716141 0.882335
O O1 0.191648 0.911438 0.500000
O O2 0.256495 0.700436 0.367675
O O3 0.157384 0.908496 0.306575
O O4 0.575269 0.357092 0.812036
O O5 0.500000 0.000000 0.869116
O O6 0.601783 0.855348 0.839768
O O7 0.573388 0.145786 0.000000
O O8 0.669883 0.440217 0.127913
O O9 0.270519 0.007876 0.837083
O O10 0.261769 0.770571 0.000000
#
# Coordination Sequence:
#
# PCOD9425361 Si02
#       4
#     8   8   8   8
#     4  10  21  38  61  90 121 152 189 232 282 346
#     4  11  24  40  58  82 112 150 198 245 288 338
#     4  12  21  36  60  81 111 151 193 235 285 339
#     4  10  19  29  44  72 107 137 167 207 263 332
#
# _framework density 19.981684000000001
#
# number of rings (size 3 to 8) (size 9 to 14) (size 15 to 20)
#    0.000    1.250    0.000    7.500    0.000    4.000 
#    0.000    0.000    0.000    4.500    0.000    0.000 
#    0.000    0.000    0.000    0.000    0.000    0.000 
#
# Total GULP energy -178620.670493 kJ/mol
# GULP energy per Si atom -5581.895953 kJ/mol
# Density = 1.993620 g / cm^3
# Si number density = 19.981684 Si / 1000 Ang^3
#
#
#
# Elastic Constant Matrix: (Units=GPa)
#
#
# Indices 1 2 3 4 5 6 
#
# 1 85.4784 -1.5825 33.2694 0.0000 0.0000 0.0000
# 2 -1.5825 40.0052 11.5190 0.0000 0.0000 0.0000
# 3 33.2694 11.5190 133.3718 0.0000 0.0000 0.0000
# 4 0.0000 0.0000 0.0000 25.8634 0.0000 0.0000
# 5 0.0000 0.0000 0.0000 0.0000 32.9944 0.0000
# 6 0.0000 0.0000 0.0000 0.0000 0.0000 38.9462
#
#
#
# Elastic Compliance Matrix: (Units=1/GPa)
#
#
# Indices 1 2 3 4 5 6 
#
# 1 0.013043 0.001490 -0.003382 0.000000 0.000000 0.000000
# 2 0.001490 0.025804 -0.002600 0.000000 0.000000 0.000000
# 3 -0.003382 -0.002600 0.008566 0.000000 0.000000 0.000000
# 4 0.000000 0.000000 0.000000 0.038665 0.000000 0.000000
# 5 0.000000 0.000000 0.000000 0.000000 0.030308 0.000000
# 6 0.000000 0.000000 0.000000 0.000000 0.000000 0.025676
#
#
# Mechanical properties :
#
#
# Convention : Reuss Voigt Hill
#
# Bulk Modulus (GPa) = 26.02269 38.36302 32.19286
# Shear Modulus (GPa) = 30.51435 33.93743 32.22589
#
# Velocity S-wave (km/s) = 3.91207 4.12567 4.02029
# Velocity P-wave (km/s) = 5.78423 6.47577 6.13974
#
# Compressibility (1/GPa) = 0.03842800
#
# Stress axis : x y z
#
# Youngs Moduli (GPa) = 76.67042 38.75305 116.73929
#
# Poissons Ratio (x) = -0.05773 0.39483
# Poissons Ratio (y) = -0.11422 0.30356
# Poissons Ratio (z) = 0.25931 0.10077
#
# Static dielectric constant tensor:
#      x y z
#    x 1.783340 0.000000 0.000000 
#    y 0.000000 1.758110 0.000000 
#    z 0.000000 0.000000 1.738130 
# 
# From -- ./inp_files/19599.got.cif
#   From: 2010.05.17/outbox.cif.g08.bks.cpg/sg55_10_cif.got.tgz:19599.got - 2010.06.03 13:27:54.
