data_PCOD9425513
_publ_section_title
;
Structure prediction by ZEFSAII (Michael W. Deem and Ramdas Pophale) SiO2 
 PCOD9425513
Probable space group: P B A M
;
_chemical_formula_sum "Si O2"
_cell_formula_units_Z 56
_cell_length_a 12.062593
_cell_length_b 23.206517
_cell_length_c 11.834190
_cell_angle_alpha 90.000000
_cell_angle_beta 90.000000
_cell_angle_gamma 90.000000
_cell_volume 3312.753913
_symmetry_space_group_name_H-M "P B A M"
_symmetry_group_IT_number 55
_symmetry_cell_setting 'orthorhombic'
loop_
_space_group_symop_operation_xyz
x,y,z
-x,-y,z
1/2+x,1/2-y,-z
1/2-x,1/2+y,-z
-x,-y,-z
x,y,-z
1/2-x,1/2+y,z
1/2+x,1/2-y,z
loop_
_atom_site_type_symbol
_atom_site_label
_atom_site_fract_x
_atom_site_fract_y
_atom_site_fract_z
Si Si1 0.857478 0.776338 0.134994
Si Si2 0.558087 0.409366 0.500000
Si Si3 0.776384 0.072358 0.740113
Si Si4 0.837247 0.956228 0.865603
Si Si5 0.994047 0.868881 0.259594
Si Si6 0.319084 0.473857 0.500000
Si Si7 0.661781 0.857959 0.135663
Si Si8 0.591858 0.143454 0.864366
O O1 0.954644 0.811308 0.197376
O O2 0.741727 0.805645 0.172856
O O3 0.864980 0.708534 0.153127
O O4 0.869029 0.786823 0.000000
O O5 0.555840 0.372849 0.614394
O O6 0.440937 0.443896 0.500000
O O7 0.653813 0.457961 0.500000
O O8 0.760967 0.047678 0.613864
O O9 0.668853 0.099541 0.797072
O O10 0.875201 0.119471 0.737255
O O11 0.819270 0.018569 0.813716
O O12 0.938177 0.922173 0.808019
O O13 0.729668 0.916324 0.841223
O O14 0.853276 0.958660 0.000000
O O15 0.535840 0.858715 0.175554
O O16 0.653933 0.852368 0.000000
O O17 0.596826 0.131485 0.000000
#
# Coordination Sequence:
#
# PCOD9425513 Si02
#       8
#     8   4   8   8   8   4   8   8
#     4   9  19  34  53  77 106 139 172 215 265 309
#     4   9  16  32  55  75 100 139 178 205 261 325
#     4  11  21  32  52  80 105 137 177 219 263 310
#     4  10  19  31  50  78 109 136 166 214 268 313
#     4  10  19  32  53  80 104 134 174 219 266 309
#     4   9  18  34  51  72 107 140 169 214 263 312
#     4   8  17  34  50  69 104 143 171 200 253 321
#     4  10  21  34  52  77 105 143 178 209 258 320
#
# _framework density 16.904364000000001
#
# number of rings (size 3 to 8) (size 9 to 14) (size 15 to 20)
#    0.000    2.429    1.429    2.143    2.000    3.429 
#    0.000    2.857    0.000    5.143    0.000    0.000 
#    0.000    0.000    0.000    0.000    0.000    0.000 
#
# Total GULP energy -312224.506283 kJ/mol
# GULP energy per Si atom -5575.437612 kJ/mol
# Density = 1.686589 g / cm^3
# Si number density = 16.904364 Si / 1000 Ang^3
#
#
#
# Elastic Constant Matrix: (Units=GPa)
#
#
# Indices 1 2 3 4 5 6 
#
# 1 73.8216 3.7973 19.7200 0.0000 0.0000 0.0000
# 2 3.7973 25.5600 22.9933 0.0000 0.0000 0.0000
# 3 19.7200 22.9933 75.9696 0.0000 0.0000 0.0000
# 4 0.0000 0.0000 0.0000 9.3691 0.0000 0.0000
# 5 0.0000 0.0000 0.0000 0.0000 13.4317 0.0000
# 6 0.0000 0.0000 0.0000 0.0000 0.0000 5.3426
#
#
#
# Elastic Compliance Matrix: (Units=1/GPa)
#
#
# Indices 1 2 3 4 5 6 
#
# 1 0.014609 0.001705 -0.004308 0.000000 0.000000 0.000000
# 2 0.001705 0.053960 -0.016775 0.000000 0.000000 0.000000
# 3 -0.004308 -0.016775 0.019359 0.000000 0.000000 0.000000
# 4 0.000000 0.000000 0.000000 0.106733 0.000000 0.000000
# 5 0.000000 0.000000 0.000000 0.000000 0.074451 0.000000
# 6 0.000000 0.000000 0.000000 0.000000 0.000000 0.187174
#
#
# Mechanical properties :
#
#
# Convention : Reuss Voigt Hill
#
# Bulk Modulus (GPa) = 20.33633 29.81917 25.07775
# Shear Modulus (GPa) = 9.77646 14.21807 11.99726
#
# Velocity S-wave (km/s) = 2.40748 2.90330 2.66694
# Velocity P-wave (km/s) = 4.44795 5.37746 4.93464
#
# Compressibility (1/GPa) = 0.04917307
#
# Stress axis : x y z
#
# Youngs Moduli (GPa) = 68.44932 18.53209 51.65668
#
# Poissons Ratio (x) = -0.03160 0.22256
# Poissons Ratio (y) = -0.11673 0.86652
# Poissons Ratio (z) = 0.29491 0.31087
#
# Static dielectric constant tensor:
#      x y z
#    x 1.582340 0.000000 0.000000 
#    y 0.000000 1.557510 0.000000 
#    z 0.000000 0.000000 1.569320 
# 
# From -- ./inp_files/13537.got.cif
#   From: 2010.05.17/outbox.cif.g08.bks.cpg/sg55_7_cif.got.tgz:13537.got - 2010.06.03 13:27:54.
