data_PCOD9425913
_publ_section_title
;
Structure prediction by ZEFSAII (Michael W. Deem and Ramdas Pophale) SiO2 
 PCOD9425913
Probable space group: P B A M
;
_chemical_formula_sum "Si O2"
_cell_formula_units_Z 48
_cell_length_a 18.463544
_cell_length_b 17.020904
_cell_length_c 8.781396
_cell_angle_alpha 90.000000
_cell_angle_beta 90.000000
_cell_angle_gamma 90.000000
_cell_volume 2759.696039
_symmetry_space_group_name_H-M "P B A M"
_symmetry_group_IT_number 55
_symmetry_cell_setting 'orthorhombic'
loop_
_space_group_symop_operation_xyz
x,y,z
-x,-y,z
1/2+x,1/2-y,-z
1/2-x,1/2+y,-z
-x,-y,-z
x,y,-z
1/2-x,1/2+y,z
1/2+x,1/2-y,z
loop_
_atom_site_type_symbol
_atom_site_label
_atom_site_fract_x
_atom_site_fract_y
_atom_site_fract_z
Si Si1 0.829027 0.144505 0.316576
Si Si2 0.555796 0.756741 0.817660
Si Si3 0.915599 0.989265 0.316308
Si Si4 0.524602 0.086858 0.184158
Si Si5 0.835584 0.668488 0.682720
Si Si6 0.903030 0.822052 0.817998
O O1 0.831115 0.146203 0.500000
O O2 0.873885 0.218969 0.256666
O O3 0.745372 0.145274 0.269045
O O4 0.870136 0.065228 0.266721
O O5 0.532663 0.844913 0.771255
O O6 0.485880 0.702829 0.778923
O O7 0.564187 0.755860 0.000000
O O8 0.911517 0.983130 0.500000
O O9 0.888470 0.908650 0.243225
O O10 0.000000 0.000000 0.274864
O O11 0.601946 0.112433 0.250778
O O12 0.500000 0.000000 0.230558
O O13 0.529828 0.088994 0.000000
O O14 0.839614 0.667229 0.500000
O O15 0.853505 0.755641 0.742619
O O16 0.896030 0.818362 0.000000
#
# Coordination Sequence:
#
# PCOD9425913 Si02
#       6
#     8   8   8   8   8   8
#     4  10  21  36  53  79 112 144 178 222 272 323
#     4   9  18  32  54  79 104 138 177 219 264 319
#     4  10  19  33  56  82 111 145 179 218 268 320
#     4   9  19  38  60  81 108 141 182 229 274 322
#     4  10  21  37  56  78 109 145 182 225 273 321
#     4  10  20  35  55  80 107 140 182 220 264 321
#
# _framework density 17.393219999999999
#
# number of rings (size 3 to 8) (size 9 to 14) (size 15 to 20)
#    0.000    2.333    1.667    2.000    0.000    5.333 
#    3.000    0.000    0.000    0.000    0.000    0.000 
#    0.000    0.000    0.000    0.000    0.000    0.000 
#
# Total GULP energy -267791.239328 kJ/mol
# GULP energy per Si atom -5578.984153 kJ/mol
# Density = 1.735363 g / cm^3
# Si number density = 17.393220 Si / 1000 Ang^3
#
#
#
# Elastic Constant Matrix: (Units=GPa)
#
#
# Indices 1 2 3 4 5 6 
#
# 1 135.3155 93.8485 33.8568 0.0000 0.0000 0.0000
# 2 93.8485 162.4606 32.4527 0.0000 0.0000 0.0000
# 3 33.8568 32.4527 14.1232 0.0000 0.0000 0.0000
# 4 0.0000 0.0000 0.0000 26.4011 0.0000 0.0000
# 5 0.0000 0.0000 0.0000 0.0000 18.8090 0.0000
# 6 0.0000 0.0000 0.0000 0.0000 0.0000 22.4623
#
#
#
# Elastic Compliance Matrix: (Units=1/GPa)
#
#
# Indices 1 2 3 4 5 6 
#
# 1 0.019523 -0.003566 -0.038609 0.000000 0.000000 0.000000
# 2 -0.003566 0.012029 -0.019093 0.000000 0.000000 0.000000
# 3 -0.038609 -0.019093 0.207233 0.000000 0.000000 0.000000
# 4 0.000000 0.000000 0.000000 0.037877 0.000000 0.000000
# 5 0.000000 0.000000 0.000000 0.000000 0.053166 0.000000
# 6 0.000000 0.000000 0.000000 0.000000 0.000000 0.044519
#
#
# Mechanical properties :
#
#
# Convention : Reuss Voigt Hill
#
# Bulk Modulus (GPa) = 8.60215 70.24615 39.42415
# Shear Modulus (GPa) = 9.33475 23.65056 16.49266
#
# Velocity S-wave (km/s) = 2.31917 3.69149 3.08266
# Velocity P-wave (km/s) = 3.48250 7.65795 5.94861
#
# Compressibility (1/GPa) = 0.11624998
#
# Stress axis : x y z
#
# Youngs Moduli (GPa) = 51.22094 83.13226 4.82549
#
# Poissons Ratio (x) = 0.29641 0.18631
# Poissons Ratio (y) = 0.18263 0.09213
# Poissons Ratio (z) = 1.97759 1.58725
#
# Static dielectric constant tensor:
#      x y z
#    x 1.575390 0.000000 0.000000 
#    y 0.000000 1.580810 0.000000 
#    z 0.000000 0.000000 1.582640 
# 
# From -- ./inp_files/5634.got.cif
#   From: 2010.05.17/outbox.cif.g08.bks.cpg/sg55_3_cif.got.tgz:5634.got - 2010.06.03 13:27:54.
