data_PCOD9425862
_publ_section_title
;
Structure prediction by ZEFSAII (Michael W. Deem and Ramdas Pophale) SiO2 
 PCOD9425862
Probable space group: P B A M
;
_chemical_formula_sum "Si O2"
_cell_formula_units_Z 40
_cell_length_a 13.876955
_cell_length_b 7.806712
_cell_length_c 15.653674
_cell_angle_alpha 90.000000
_cell_angle_beta 90.000000
_cell_angle_gamma 90.000000
_cell_volume 1695.815588
_symmetry_space_group_name_H-M "P B A M"
_symmetry_group_IT_number 55
_symmetry_cell_setting 'orthorhombic'
loop_
_space_group_symop_operation_xyz
x,y,z
-x,-y,z
1/2+x,1/2-y,-z
1/2-x,1/2+y,-z
-x,-y,-z
x,y,-z
1/2-x,1/2+y,z
1/2+x,1/2-y,z
loop_
_atom_site_type_symbol
_atom_site_label
_atom_site_fract_x
_atom_site_fract_y
_atom_site_fract_z
Si Si1 0.807081 0.567796 0.230130
Si Si2 0.181288 0.248113 0.406814
Si Si3 0.900010 0.193877 0.226966
Si Si4 0.048707 0.309334 0.902672
Si Si5 0.604812 0.640713 0.408265
O O1 0.840012 0.648543 0.320632
O O2 0.849048 0.378635 0.224587
O O3 0.691261 0.567547 0.224169
O O4 0.854140 0.671188 0.151908
O O5 0.155270 0.325919 0.500000
O O6 0.298211 0.245772 0.406338
O O7 0.141418 0.055577 0.405548
O O8 0.975628 0.191835 0.151013
O O9 0.948791 0.177351 0.320204
O O10 0.000000 0.500000 0.904365
O O11 0.063543 0.254451 0.000000
O O12 0.556259 0.670188 0.500000
#
# Coordination Sequence:
#
# PCOD9425862 Si02
#       5
#     8   8   8   8   8
#     4  10  19  33  55  79 104 136 172 212 256 303
#     4   9  16  27  46  73 105 139 171 205 248 299
#     4  10  19  33  55  79 104 136 172 212 256 303
#     4   9  20  38  56  75 102 136 173 213 260 313
#     4   9  16  27  46  73 105 139 171 205 248 299
#
# _framework density 23.587472000000002
#
# number of rings (size 3 to 8) (size 9 to 14) (size 15 to 20)
#    0.000    2.600    0.000    4.800    0.000    3.200 
#    0.000    5.000    0.000   14.400    0.000    0.000 
#    0.000    0.000    0.000    0.000    0.000    0.000 
#
# Total GULP energy -223635.265884 kJ/mol
# GULP energy per Si atom -5590.881647 kJ/mol
# Density = 2.353379 g / cm^3
# Si number density = 23.587472 Si / 1000 Ang^3
#
#
#
# Elastic Constant Matrix: (Units=GPa)
#
#
# Indices 1 2 3 4 5 6 
#
# 1 77.8127 7.9556 36.1963 0.0000 0.0000 0.0000
# 2 7.9556 65.4058 22.7484 0.0000 0.0000 0.0000
# 3 36.1963 22.7484 215.0943 0.0000 0.0000 0.0000
# 4 0.0000 0.0000 0.0000 15.8595 0.0000 0.0000
# 5 0.0000 0.0000 0.0000 0.0000 48.6270 0.0000
# 6 0.0000 0.0000 0.0000 0.0000 0.0000 22.0178
#
#
#
# Elastic Compliance Matrix: (Units=1/GPa)
#
#
# Indices 1 2 3 4 5 6 
#
# 1 0.013996 -0.000917 -0.002258 0.000000 0.000000 0.000000
# 2 -0.000917 0.015933 -0.001531 0.000000 0.000000 0.000000
# 3 -0.002258 -0.001531 0.005191 0.000000 0.000000 0.000000
# 4 0.000000 0.000000 0.000000 0.063054 0.000000 0.000000
# 5 0.000000 0.000000 0.000000 0.000000 0.020565 0.000000
# 6 0.000000 0.000000 0.000000 0.000000 0.000000 0.045418
#
#
# Mechanical properties :
#
#
# Convention : Reuss Voigt Hill
#
# Bulk Modulus (GPa) = 38.89862 54.67927 46.78894
# Shear Modulus (GPa) = 27.45184 36.72836 32.09010
#
# Velocity S-wave (km/s) = 3.41520 3.95031 3.69246
# Velocity P-wave (km/s) = 5.66378 6.63614 6.16915
#
# Compressibility (1/GPa) = 0.02570785
#
# Stress axis : x y z
#
# Youngs Moduli (GPa) = 71.45119 62.76244 192.63977
#
# Poissons Ratio (x) = 0.05755 0.43502
# Poissons Ratio (y) = 0.06552 0.29489
# Poissons Ratio (z) = 0.16135 0.09608
#
# Static dielectric constant tensor:
#      x y z
#    x 1.942930 0.000000 0.000000 
#    y 0.000000 1.909950 0.000000 
#    z 0.000000 0.000000 1.903270 
# 
# From -- ./inp_files/17189.got.cif
#   From: 2010.05.17/outbox.cif.g08.bks.cpg/sg55_9_cif.got.tgz:17189.got - 2010.06.03 13:27:54.
