data_PCOD9425523
_publ_section_title
;
Structure prediction by ZEFSAII (Michael W. Deem and Ramdas Pophale) SiO2 
 PCOD9425523
Probable space group: P B A M
;
_chemical_formula_sum "Si O2"
_cell_formula_units_Z 60
_cell_length_a 12.997928
_cell_length_b 22.123623
_cell_length_c 12.324233
_cell_angle_alpha 90.000000
_cell_angle_beta 90.000000
_cell_angle_gamma 90.000000
_cell_volume 3543.971956
_symmetry_space_group_name_H-M "P B A M"
_symmetry_group_IT_number 55
_symmetry_cell_setting 'orthorhombic'
loop_
_space_group_symop_operation_xyz
x,y,z
-x,-y,z
1/2+x,1/2-y,-z
1/2-x,1/2+y,-z
-x,-y,-z
x,y,-z
1/2-x,1/2+y,z
1/2+x,1/2-y,z
loop_
_atom_site_type_symbol
_atom_site_label
_atom_site_fract_x
_atom_site_fract_y
_atom_site_fract_z
Si Si1 0.500000 0.500000 0.264116
Si Si2 0.049526 0.879640 0.125651
Si Si3 0.189308 0.071584 0.370158
Si Si4 0.698773 0.720230 0.769443
Si Si5 0.982886 0.267779 0.627695
Si Si6 0.136299 0.186257 0.769524
Si Si7 0.383781 0.992265 0.368324
Si Si8 0.848378 0.640159 0.373031
O O1 0.456781 0.442405 0.194507
O O2 0.406072 0.528508 0.333968
O O3 0.134736 0.829491 0.162098
O O4 0.941031 0.845361 0.146406
O O5 0.063839 0.894335 0.000000
O O6 0.183718 0.081181 0.500000
O O7 0.183490 0.133206 0.303215
O O8 0.298294 0.041189 0.342098
O O9 0.619476 0.758447 0.696210
O O10 0.778546 0.768773 0.820108
O O11 0.769374 0.681253 0.689796
O O12 0.968806 0.254184 0.500000
O O13 0.064956 0.223384 0.684667
O O14 0.036321 0.333216 0.636419
O O15 0.388899 0.989987 0.500000
O O16 0.344009 0.927399 0.330951
O O17 0.500000 0.000000 0.328617
O O18 0.822195 0.641558 0.500000
#
# Coordination Sequence:
#
# PCOD9425523 Si02
#       8
#     4   8   8   8   8   8   8   8
#     4  10  20  36  56  82 106 128 176 224 270 328
#     4  10  21  37  56  75  98 129 170 228 284 321
#     4  10  19  31  51  76 109 145 171 204 251 306
#     4  10  19  32  50  73  98 130 171 209 254 312
#     4   9  17  28  45  69 100 135 163 199 245 295
#     4   9  20  33  47  74 104 129 172 212 253 311
#     4   9  18  29  41  64  96 136 175 195 222 278
#     4   9  17  29  44  67 100 132 164 200 237 287
#
# _framework density 16.930156
#
# number of rings (size 3 to 8) (size 9 to 14) (size 15 to 20)
#    0.000    2.533    0.000    2.000    1.867    2.133 
#    0.000    4.000    0.000    0.000    0.000    0.000 
#    0.000    4.800    0.000    0.000    0.000    0.000 
#
# Total GULP energy -334089.959745 kJ/mol
# GULP energy per Si atom -5568.165996 kJ/mol
# Density = 1.689162 g / cm^3
# Si number density = 16.930156 Si / 1000 Ang^3
#
#
#
# Elastic Constant Matrix: (Units=GPa)
#
#
# Indices 1 2 3 4 5 6 
#
# 1 86.9588 27.8505 9.2595 0.0000 0.0000 0.0000
# 2 27.8505 71.6334 3.3415 0.0000 0.0000 0.0000
# 3 9.2595 3.3415 35.7420 0.0000 0.0000 0.0000
# 4 0.0000 0.0000 0.0000 11.6588 0.0000 0.0000
# 5 0.0000 0.0000 0.0000 0.0000 47.5848 0.0000
# 6 0.0000 0.0000 0.0000 0.0000 0.0000 26.4159
#
#
#
# Elastic Compliance Matrix: (Units=1/GPa)
#
#
# Indices 1 2 3 4 5 6 
#
# 1 0.013450 -0.005089 -0.003009 0.000000 0.000000 0.000000
# 2 -0.005089 0.015947 -0.000172 0.000000 0.000000 0.000000
# 3 -0.003009 -0.000172 0.028774 0.000000 0.000000 0.000000
# 4 0.000000 0.000000 0.000000 0.085772 0.000000 0.000000
# 5 0.000000 0.000000 0.000000 0.000000 0.021015 0.000000
# 6 0.000000 0.000000 0.000000 0.000000 0.000000 0.037856
#
#
# Mechanical properties :
#
#
# Convention : Reuss Voigt Hill
#
# Bulk Modulus (GPa) = 24.02100 30.58194 27.30147
# Shear Modulus (GPa) = 21.43807 27.39075 24.41441
#
# Velocity S-wave (km/s) = 3.56232 4.02664 3.80157
# Velocity P-wave (km/s) = 5.58026 6.30248 5.95233
#
# Compressibility (1/GPa) = 0.04163025
#
# Stress axis : x y z
#
# Youngs Moduli (GPa) = 74.35004 62.70961 34.75380
#
# Poissons Ratio (x) = 0.31912 0.10456
# Poissons Ratio (y) = 0.37836 0.00599
# Poissons Ratio (z) = 0.22369 0.01082
#
# Static dielectric constant tensor:
#      x y z
#    x 1.617330 0.000000 0.000000 
#    y 0.000000 1.598260 0.000000 
#    z 0.000000 0.000000 1.531560 
# 
# From -- ./inp_files/13603.got.cif
#   From: 2010.05.17/outbox.cif.g08.bks.cpg/sg55_7_cif.got.tgz:13603.got - 2010.06.03 13:27:54.
