data_PCOD9425854
_publ_section_title
;
Structure prediction by ZEFSAII (Michael W. Deem and Ramdas Pophale) SiO2 
 PCOD9425854
Probable space group: P B A M
;
_chemical_formula_sum "Si O2"
_cell_formula_units_Z 56
_cell_length_a 19.663500
_cell_length_b 19.907225
_cell_length_c 8.557863
_cell_angle_alpha 90.000000
_cell_angle_beta 90.000000
_cell_angle_gamma 90.000000
_cell_volume 3349.938833
_symmetry_space_group_name_H-M "P B A M"
_symmetry_group_IT_number 55
_symmetry_cell_setting 'orthorhombic'
loop_
_space_group_symop_operation_xyz
x,y,z
-x,-y,z
1/2+x,1/2-y,-z
1/2-x,1/2+y,-z
-x,-y,-z
x,y,-z
1/2-x,1/2+y,z
1/2+x,1/2-y,z
loop_
_atom_site_type_symbol
_atom_site_label
_atom_site_fract_x
_atom_site_fract_y
_atom_site_fract_z
Si Si1 0.481508 0.697406 0.810600
Si Si2 0.246637 0.876758 0.685378
Si Si3 0.236638 0.662586 0.189433
Si Si4 0.060159 0.051200 0.312572
Si Si5 0.289986 0.520655 0.812299
Si Si6 0.865106 0.226434 0.189117
Si Si7 0.650846 0.227014 0.811783
O O1 0.459134 0.625519 0.744592
O O2 0.557620 0.715856 0.759474
O O3 0.425278 0.752855 0.765989
O O4 0.480604 0.692801 0.000000
O O5 0.241816 0.876598 0.500000
O O6 0.184025 0.832962 0.753437
O O7 0.314915 0.838360 0.738403
O O8 0.240686 0.951960 0.748121
O O9 0.249596 0.587111 0.243928
O O10 0.169941 0.703608 0.240561
O O11 0.300607 0.709936 0.231613
O O12 0.235102 0.660218 0.000000
O O13 0.065721 0.050521 0.500000
O O14 0.131985 0.028884 0.241193
O O15 0.000000 0.000000 0.266525
O O16 0.288470 0.519105 0.000000
O O17 0.864184 0.225287 0.000000
O O18 0.653973 0.220336 0.000000
#
# Coordination Sequence:
#
# PCOD9425854 Si02
#       7
#     8   8   8   8   8   8   8
#     4  10  19  33  55  78 101 134 174 213 258 309
#     4  11  22  34  49  75 106 137 172 213 260 312
#     4   8  15  30  52  75  99 125 166 215 255 296
#     4  11  23  34  46  72 112 145 169 206 256 314
#     4  11  20  34  54  74  99 137 177 216 258 305
#     4   9  18  34  55  78 103 133 169 215 260 308
#     4   9  17  34  54  75  99 130 174 217 254 306
#
# _framework density 16.716723000000002
#
# number of rings (size 3 to 8) (size 9 to 14) (size 15 to 20)
#    0.000    2.143    1.429    3.857    0.000    4.571 
#    0.000    0.714    0.000    0.857    0.000    6.000 
#    0.000    0.000    0.000    0.000    0.000    0.000 
#
# Total GULP energy -312450.715790 kJ/mol
# GULP energy per Si atom -5579.477068 kJ/mol
# Density = 1.667868 g / cm^3
# Si number density = 16.716723 Si / 1000 Ang^3
#
#
#
# Elastic Constant Matrix: (Units=GPa)
#
#
# Indices 1 2 3 4 5 6 
#
# 1 41.2798 46.5359 16.7474 0.0000 0.0000 0.0000
# 2 46.5359 142.4185 23.0435 0.0000 0.0000 0.0000
# 3 16.7474 23.0435 25.4381 0.0000 0.0000 0.0000
# 4 0.0000 0.0000 0.0000 -12.8992 0.0000 0.0000
# 5 0.0000 0.0000 0.0000 0.0000 8.3001 0.0000
# 6 0.0000 0.0000 0.0000 0.0000 0.0000 24.3103
#
#
#
# Elastic Compliance Matrix: (Units=1/GPa)
#
#
# Indices 1 2 3 4 5 6 
#
# 1 0.045126 -0.011645 -0.019160 0.000000 0.000000 0.000000
# 2 -0.011645 0.011233 -0.002509 0.000000 0.000000 0.000000
# 3 -0.019160 -0.002509 0.054198 0.000000 0.000000 0.000000
# 4 0.000000 0.000000 0.000000 -0.077524 0.000000 0.000000
# 5 0.000000 0.000000 0.000000 0.000000 0.120480 0.000000
# 6 0.000000 0.000000 0.000000 0.000000 0.000000 0.041135
#
#
# Mechanical properties :
#
#
# Convention : Reuss Voigt Hill
#
# Bulk Modulus (GPa) = 22.76419 42.42113 32.59266
# Shear Modulus (GPa) = 18.12129 12.12955 15.12542
#
# Velocity S-wave (km/s) = 3.29602 2.69661 3.01127
# Velocity P-wave (km/s) = 5.30398 5.92681 5.62402
#
# Compressibility (1/GPa) = 0.04392865
#
# Stress axis : x y z
#
# Youngs Moduli (GPa) = 22.16005 89.02730 18.45087
#
# Poissons Ratio (x) = 1.03672 0.35353
# Poissons Ratio (y) = 0.25805 0.04628
# Poissons Ratio (z) = 0.42460 0.22333
#
# Static dielectric constant tensor:
#      x y z
#    x 1.560160 0.000000 0.000000 
#    y 0.000000 1.551440 0.000000 
#    z 0.000000 0.000000 1.565570 
# 
# From -- ./inp_files/8888.got.cif
#   From: 2010.05.17/outbox.cif.g08.bks.cpg/sg55_5_cif.got.tgz:8888.got - 2010.06.03 13:27:54.
