data_PCOD9425782
_publ_section_title
;
Structure prediction by ZEFSAII (Michael W. Deem and Ramdas Pophale) SiO2 
 PCOD9425782
Probable space group: P B A M
;
_chemical_formula_sum "Si O2"
_cell_formula_units_Z 36
_cell_length_a 29.168616
_cell_length_b 5.281814
_cell_length_c 12.711749
_cell_angle_alpha 90.000000
_cell_angle_beta 90.000000
_cell_angle_gamma 90.000000
_cell_volume 1958.412784
_symmetry_space_group_name_H-M "P B A M"
_symmetry_group_IT_number 55
_symmetry_cell_setting 'orthorhombic'
loop_
_space_group_symop_operation_xyz
x,y,z
-x,-y,z
1/2+x,1/2-y,-z
1/2-x,1/2+y,-z
-x,-y,-z
x,y,-z
1/2-x,1/2+y,z
1/2+x,1/2-y,z
loop_
_atom_site_type_symbol
_atom_site_label
_atom_site_fract_x
_atom_site_fract_y
_atom_site_fract_z
Si Si1 0.780611 0.384663 0.877106
Si Si2 0.626614 0.922279 0.748264
Si Si3 0.544084 0.824437 0.885597
Si Si4 0.500000 0.500000 0.296339
Si Si5 0.403144 0.586516 0.623257
O O1 0.748048 0.627567 0.861160
O O2 0.823647 0.398023 0.799733
O O3 0.795744 0.388429 0.000000
O O4 0.590425 0.953259 0.845099
O O5 0.614229 0.668752 0.681921
O O6 0.620002 0.168961 0.676205
O O7 0.528772 0.663564 0.786093
O O8 0.500000 0.000000 0.897595
O O9 0.551491 0.697392 0.000000
O O10 0.541260 0.380268 0.363220
O O11 0.392981 0.568869 0.500000
#
# Coordination Sequence:
#
# PCOD9425782 Si02
#       5
#     8   8   8   4   8
#     4  10  21  39  64  93 120 149 188 235 289 351
#     4  11  22  39  60  87 116 155 192 238 295 343
#     4  10  19  33  52  82 121 155 185 224 280 354
#     4  10  20  36  52  82 114 162 198 240 282 336
#     4  11  23  38  59  82 115 155 203 247 284 332
#
# _framework density 18.382231000000001
#
# number of rings (size 3 to 8) (size 9 to 14) (size 15 to 20)
#    0.000    1.556    2.222    3.333    0.000    0.000 
#    0.000    5.556    0.000   13.333    0.000    0.000 
#    0.000    0.000    0.000    0.000    0.000    0.000 
#
# Total GULP energy -200554.395230 kJ/mol
# GULP energy per Si atom -5570.955423 kJ/mol
# Density = 1.834039 g / cm^3
# Si number density = 18.382231 Si / 1000 Ang^3
#
#
#
# Elastic Constant Matrix: (Units=GPa)
#
#
# Indices 1 2 3 4 5 6 
#
# 1 98.2413 33.1690 79.7423 0.0000 0.0000 0.0000
# 2 33.1690 105.0875 53.0565 0.0000 0.0000 0.0000
# 3 79.7423 53.0565 121.4947 0.0000 0.0000 0.0000
# 4 0.0000 0.0000 0.0000 26.5397 0.0000 0.0000
# 5 0.0000 0.0000 0.0000 0.0000 -369.4655 0.0000
# 6 0.0000 0.0000 0.0000 0.0000 0.0000 19.4181
#
#
#
# Elastic Compliance Matrix: (Units=1/GPa)
#
#
# Indices 1 2 3 4 5 6 
#
# 1 0.021801 0.000440 -0.014501 0.000000 0.000000 0.000000
# 2 0.000440 0.012216 -0.005624 0.000000 0.000000 0.000000
# 3 -0.014501 -0.005624 0.020205 0.000000 0.000000 0.000000
# 4 0.000000 0.000000 0.000000 0.037679 0.000000 0.000000
# 5 0.000000 0.000000 0.000000 0.000000 -0.002707 0.000000
# 6 0.000000 0.000000 0.000000 0.000000 0.000000 0.051498
#
#
# Mechanical properties :
#
#
# Convention : Reuss Voigt Hill
#
# Bulk Modulus (GPa) = 67.32977 72.97326 70.15151
# Shear Modulus (GPa) = 27.02512 -54.11116 -13.54302
#
# Velocity S-wave (km/s) = 3.83845 -5.43144 -2.71725
# Velocity P-wave (km/s) = 7.50680 0.67067 5.32925
#
# Compressibility (1/GPa) = 0.01485227
#
# Stress axis : x y z
#
# Youngs Moduli (GPa) = 45.86950 81.85819 49.49391
#
# Poissons Ratio (x) = -0.03604 0.71772
# Poissons Ratio (y) = -0.02020 0.27834
# Poissons Ratio (z) = 0.66516 0.46035
#
# Static dielectric constant tensor:
#      x y z
#    x 1.658660 0.000000 0.000000 
#    y 0.000000 1.611720 0.000000 
#    z 0.000000 0.000000 1.714030 
# 
# From -- ./inp_files/11238.got.cif
#   From: 2010.05.17/outbox.cif.g08.bks.cpg/sg55_6_cif.got.tgz:11238.got - 2010.06.03 13:27:54.
