data_PCOD9425455
_publ_section_title
;
Structure prediction by ZEFSAII (Michael W. Deem and Ramdas Pophale) SiO2 
 PCOD9425455
Probable space group: P B A M
;
_chemical_formula_sum "Si O2"
_cell_formula_units_Z 56
_cell_length_a 14.118875
_cell_length_b 30.445031
_cell_length_c 8.487437
_cell_angle_alpha 90.000000
_cell_angle_beta 90.000000
_cell_angle_gamma 90.000000
_cell_volume 3648.321290
_symmetry_space_group_name_H-M "P B A M"
_symmetry_group_IT_number 55
_symmetry_cell_setting 'orthorhombic'
loop_
_space_group_symop_operation_xyz
x,y,z
-x,-y,z
1/2+x,1/2-y,-z
1/2-x,1/2+y,-z
-x,-y,-z
x,y,-z
1/2-x,1/2+y,z
1/2+x,1/2-y,z
loop_
_atom_site_type_symbol
_atom_site_label
_atom_site_fract_x
_atom_site_fract_y
_atom_site_fract_z
Si Si1 0.897013 0.230413 0.311582
Si Si2 0.110390 0.404412 0.806992
Si Si3 0.712373 0.818134 0.311488
Si Si4 0.615107 0.999749 0.182554
Si Si5 0.107959 0.229595 0.811528
Si Si6 0.217615 0.317485 0.190318
Si Si7 0.609540 0.903803 0.190968
O O1 0.898758 0.230377 0.500000
O O2 0.855794 0.277887 0.257798
O O3 0.820989 0.194748 0.253258
O O4 0.001955 0.223302 0.248103
O O5 0.142199 0.452776 0.749331
O O6 0.175086 0.363900 0.756413
O O7 0.000537 0.397043 0.761704
O O8 0.111270 0.405748 0.000000
O O9 0.712097 0.818700 0.500000
O O10 0.816871 0.805617 0.252403
O O11 0.672907 0.863880 0.248409
O O12 0.500000 0.000000 0.180891
O O13 0.641569 0.952179 0.250214
O O14 0.646545 0.999730 0.000000
O O15 0.148266 0.277461 0.760948
O O16 0.108854 0.228350 0.000000
O O17 0.220687 0.317712 0.000000
O O18 0.610653 0.905015 0.000000
#
# Coordination Sequence:
#
# PCOD9425455 Si02
#       7
#     8   8   8   8   8   8   8
#     4  10  20  32  44  60  86 116 143 174 213 255
#     4   8  13  23  41  65  90 114 142 177 214 250
#     4  10  20  31  43  62  89 119 146 172 210 257
#     4   7  11  20  37  62  88 112 139 174 214 251
#     4  10  19  31  47  65  85 110 144 183 214 245
#     4   9  17  28  44  65  86 111 144 177 208 247
#     4   9  15  25  43  65  88 115 148 181 210 245
#
# _framework density 15.349525999999999
#
# number of rings (size 3 to 8) (size 9 to 14) (size 15 to 20)
#    0.000    3.000    0.000    3.857    0.000    3.429 
#    0.000    0.714    0.000    4.714    0.000    1.000 
#    0.000    8.000    0.000    0.000    0.000    0.000 
#
# Total GULP energy -311855.672159 kJ/mol
# GULP energy per Si atom -5568.851289 kJ/mol
# Density = 1.531459 g / cm^3
# Si number density = 15.349526 Si / 1000 Ang^3
#
#
#
# Elastic Constant Matrix: (Units=GPa)
#
#
# Indices 1 2 3 4 5 6 
#
# 1 114.1494 79.8333 20.6065 0.0000 0.0000 0.0000
# 2 79.8333 160.3918 23.3754 0.0000 0.0000 0.0000
# 3 20.6065 23.3754 14.4666 0.0000 0.0000 0.0000
# 4 0.0000 0.0000 0.0000 8.3907 0.0000 0.0000
# 5 0.0000 0.0000 0.0000 0.0000 6.9317 0.0000
# 6 0.0000 0.0000 0.0000 0.0000 0.0000 23.4685
#
#
#
# Elastic Compliance Matrix: (Units=1/GPa)
#
#
# Indices 1 2 3 4 5 6 
#
# 1 0.014895 -0.005653 -0.012083 0.000000 0.000000 0.000000
# 2 -0.005653 0.010301 -0.008592 0.000000 0.000000 0.000000
# 3 -0.012083 -0.008592 0.100219 0.000000 0.000000 0.000000
# 4 0.000000 0.000000 0.000000 0.119179 0.000000 0.000000
# 5 0.000000 0.000000 0.000000 0.000000 0.144266 0.000000
# 6 0.000000 0.000000 0.000000 0.000000 0.000000 0.042610
#
#
# Mechanical properties :
#
#
# Convention : Reuss Voigt Hill
#
# Bulk Modulus (GPa) = 13.74393 59.62647 36.68520
# Shear Modulus (GPa) = 9.83521 18.77101 14.30311
#
# Velocity S-wave (km/s) = 2.53405 3.50080 3.05590
# Velocity P-wave (km/s) = 4.18752 7.43444 6.03350
#
# Compressibility (1/GPa) = 0.07275937
#
# Stress axis : x y z
#
# Youngs Moduli (GPa) = 67.13560 97.08173 9.97819
#
# Poissons Ratio (x) = 0.54880 0.12056
# Poissons Ratio (y) = 0.37952 0.08573
# Poissons Ratio (z) = 0.81119 0.83410
#
# Static dielectric constant tensor:
#      x y z
#    x 1.475540 0.000000 0.000000 
#    y 0.000000 1.539620 0.000000 
#    z 0.000000 0.000000 1.518270 
# 
# From -- ./inp_files/6864.got.cif
#   From: 2010.05.17/outbox.cif.g08.bks.cpg/sg55_4_cif.got.tgz:6864.got - 2010.06.03 13:27:54.
