data_PCOD9425924
_publ_section_title
;
Structure prediction by ZEFSAII (Michael W. Deem and Ramdas Pophale) SiO2 
 PCOD9425924
Probable space group: P B A M
;
_chemical_formula_sum "Si O2"
_cell_formula_units_Z 64
_cell_length_a 17.795207
_cell_length_b 22.599018
_cell_length_c 8.651585
_cell_angle_alpha 90.000000
_cell_angle_beta 90.000000
_cell_angle_gamma 90.000000
_cell_volume 3479.271273
_symmetry_space_group_name_H-M "P B A M"
_symmetry_group_IT_number 55
_symmetry_cell_setting 'orthorhombic'
loop_
_space_group_symop_operation_xyz
x,y,z
-x,-y,z
1/2+x,1/2-y,-z
1/2-x,1/2+y,-z
-x,-y,-z
x,y,-z
1/2-x,1/2+y,z
1/2+x,1/2-y,z
loop_
_atom_site_type_symbol
_atom_site_label
_atom_site_fract_x
_atom_site_fract_y
_atom_site_fract_z
Si Si1 0.162822 0.779652 0.685643
Si Si2 0.588735 0.936476 0.187836
Si Si3 0.729998 0.111786 0.315980
Si Si4 0.578863 0.073678 0.813439
Si Si5 0.286014 0.154682 0.186654
Si Si6 0.534878 0.632046 0.314698
Si Si7 0.873762 0.894193 0.186936
Si Si8 0.143322 0.968576 0.814850
O O1 0.161683 0.773108 0.500000
O O2 0.226645 0.827958 0.725454
O O3 0.182400 0.717416 0.759930
O O4 0.084603 0.810973 0.733357
O O5 0.506627 0.912155 0.233553
O O6 0.657436 0.896739 0.242104
O O7 0.593042 0.005167 0.232821
O O8 0.589611 0.936488 0.000000
O O9 0.734327 0.104723 0.500000
O O10 0.644742 0.111556 0.260048
O O11 0.777245 0.058665 0.238548
O O12 0.583401 0.077175 0.000000
O O13 0.201099 0.140500 0.237620
O O14 0.285823 0.153087 0.000000
O O15 0.535208 0.629823 0.500000
O O16 0.450696 0.631740 0.252628
O O17 0.579221 0.574159 0.253701
O O18 0.866434 0.963320 0.232981
O O19 0.877108 0.892702 0.000000
O O20 0.139229 0.966113 0.000000
#
# Coordination Sequence:
#
# PCOD9425924 Si02
#       8
#     8   8   8   8   8   8   8   8
#     4   9  21  40  54  69 101 143 182 217 262 314
#     4   8  16  32  54  80 108 137 169 215 269 321
#     4  10  20  34  52  77 109 141 179 223 262 313
#     4   9  16  31  56  81 107 138 173 211 266 327
#     4  10  20  36  56  78 105 137 179 227 265 308
#     4  10  21  37  56  79 110 145 180 218 261 317
#     4  10  21  35  54  84 113 137 173 220 268 321
#     4  10  19  33  56  83 113 144 173 214 269 321
#
# _framework density 18.394656999999999
#
# number of rings (size 3 to 8) (size 9 to 14) (size 15 to 20)
#    0.000    2.500    0.000    3.750    0.000    8.000 
#    2.250    3.750    0.000    0.000    0.000    0.000 
#    0.000    0.000    0.000    0.000    0.000    0.000 
#
# Total GULP energy -357112.869107 kJ/mol
# GULP energy per Si atom -5579.888580 kJ/mol
# Density = 1.835279 g / cm^3
# Si number density = 18.394657 Si / 1000 Ang^3
#
#
#
# Elastic Constant Matrix: (Units=GPa)
#
#
# Indices 1 2 3 4 5 6 
#
# 1 121.8196 40.2561 23.9444 0.0000 0.0000 0.0000
# 2 40.2561 68.4309 18.5964 0.0000 0.0000 0.0000
# 3 23.9444 18.5964 17.5175 0.0000 0.0000 0.0000
# 4 0.0000 0.0000 0.0000 50.3197 0.0000 0.0000
# 5 0.0000 0.0000 0.0000 0.0000 17.2578 0.0000
# 6 0.0000 0.0000 0.0000 0.0000 0.0000 7.8837
#
#
#
# Elastic Compliance Matrix: (Units=1/GPa)
#
#
# Indices 1 2 3 4 5 6 
#
# 1 0.011825 -0.003603 -0.012338 0.000000 0.000000 0.000000
# 2 -0.003603 0.021636 -0.018044 0.000000 0.000000 0.000000
# 3 -0.012338 -0.018044 0.093105 0.000000 0.000000 0.000000
# 4 0.000000 0.000000 0.000000 0.019873 0.000000 0.000000
# 5 0.000000 0.000000 0.000000 0.000000 0.057945 0.000000
# 6 0.000000 0.000000 0.000000 0.000000 0.000000 0.126844
#
#
# Mechanical properties :
#
#
# Convention : Reuss Voigt Hill
#
# Bulk Modulus (GPa) = 17.06579 41.48464 29.27521
# Shear Modulus (GPa) = 11.94086 23.42364 17.68225
#
# Velocity S-wave (km/s) = 2.55060 3.57234 3.10380
# Velocity P-wave (km/s) = 4.23932 6.29420 5.36604
#
# Compressibility (1/GPa) = 0.05859677
#
# Stress axis : x y z
#
# Youngs Moduli (GPa) = 84.56910 46.21827 10.74055
#
# Poissons Ratio (x) = 0.16654 0.13251
# Poissons Ratio (y) = 0.30473 0.19380
# Poissons Ratio (z) = 1.04339 0.83395
#
# Static dielectric constant tensor:
#      x y z
#    x 1.637550 0.000000 0.000000 
#    y 0.000000 1.613520 0.000000 
#    z 0.000000 0.000000 1.624910 
# 
# From -- ./inp_files/8199.got.cif
#   From: 2010.05.17/outbox.cif.g08.bks.cpg/sg55_5_cif.got.tgz:8199.got - 2010.06.03 13:27:54.
