data_PCOD9425229
_publ_section_title
;
Structure prediction by ZEFSAII (Michael W. Deem and Ramdas Pophale) SiO2 
 PCOD9425229
Probable space group: P B A M
;
_chemical_formula_sum "Si O2"
_cell_formula_units_Z 64
_cell_length_a 28.721962
_cell_length_b 13.051644
_cell_length_c 7.531535
_cell_angle_alpha 90.000000
_cell_angle_beta 90.000000
_cell_angle_gamma 90.000000
_cell_volume 2823.337661
_symmetry_space_group_name_H-M "P B A M"
_symmetry_group_IT_number 55
_symmetry_cell_setting 'orthorhombic'
loop_
_space_group_symop_operation_xyz
x,y,z
-x,-y,z
1/2+x,1/2-y,-z
1/2-x,1/2+y,-z
-x,-y,-z
x,y,-z
1/2-x,1/2+y,z
1/2+x,1/2-y,z
loop_
_atom_site_type_symbol
_atom_site_label
_atom_site_fract_x
_atom_site_fract_y
_atom_site_fract_z
Si Si1 0.971635 0.100291 0.216632
Si Si2 0.695968 0.169156 0.795627
Si Si3 0.864700 0.087185 0.216055
Si Si4 0.347032 0.046226 0.292691
Si Si5 0.047017 0.251417 0.213892
Si Si6 0.360772 0.638395 0.784378
Si Si7 0.206718 0.740942 0.702410
Si Si8 0.552070 0.016155 0.295010
O O1 0.918372 0.096409 0.269617
O O2 0.998156 0.203480 0.271710
O O3 0.972623 0.098530 0.000000
O O4 0.000000 0.000000 0.275151
O O5 0.669463 0.267287 0.717252
O O6 0.749769 0.201244 0.789861
O O7 0.680170 0.061748 0.714635
O O8 0.680998 0.159323 0.000000
O O9 0.834942 0.178360 0.292558
O O10 0.847496 0.974850 0.274329
O O11 0.862300 0.092398 0.000000
O O12 0.353240 0.072956 0.500000
O O13 0.314168 0.136063 0.216536
O O14 0.400002 0.032808 0.219198
O O15 0.086170 0.167467 0.257247
O O16 0.059192 0.361463 0.290440
O O17 0.046905 0.263278 0.000000
O O18 0.357072 0.636507 0.000000
O O19 0.221441 0.719580 0.500000
O O20 0.548932 0.981437 0.500000
O O21 0.500000 0.000000 0.215252
#
# Coordination Sequence:
#
# PCOD9425229 Si02
#       8
#     8   8   8   8   8   8   8   8
#     4   9  16  29  54  85 120 156 189 231 287 347
#     4  11  23  41  66  92 116 149 197 254 306 357
#     4  10  20  37  60  89 122 159 201 243 294 356
#     4  10  23  44  64  87 123 163 203 248 300 361
#     4  10  18  33  56  86 117 151 195 243 293 346
#     4   9  18  34  59  89 119 147 187 245 300 349
#     4  11  26  44  61  86 121 160 198 245 305 363
#     4  10  22  39  59  83 117 163 204 242 294 353
#
# _framework density 22.668205
#
# number of rings (size 3 to 8) (size 9 to 14) (size 15 to 20)
#    0.000    2.000    2.500    0.750    3.500    1.250 
#    0.000    1.250    0.000    0.750    0.000    0.000 
#    0.000    0.000    0.000    0.000    0.000    0.000 
#
# Total GULP energy -357378.547282 kJ/mol
# GULP energy per Si atom -5584.039801 kJ/mol
# Density = 2.261661 g / cm^3
# Si number density = 22.668205 Si / 1000 Ang^3
#
#
#
# Elastic Constant Matrix: (Units=GPa)
#
#
# Indices 1 2 3 4 5 6 
#
# 1 117.6017 45.8778 -2.8511 0.0000 0.0000 0.0000
# 2 45.8778 115.6097 -5.7721 0.0000 0.0000 0.0000
# 3 -2.8511 -5.7721 57.3179 0.0000 0.0000 0.0000
# 4 0.0000 0.0000 0.0000 9.4680 0.0000 0.0000
# 5 0.0000 0.0000 0.0000 0.0000 -2.1791 0.0000
# 6 0.0000 0.0000 0.0000 0.0000 0.0000 34.0196
#
#
#
# Elastic Compliance Matrix: (Units=1/GPa)
#
#
# Indices 1 2 3 4 5 6 
#
# 1 0.010061 -0.003988 0.000099 0.000000 0.000000 0.000000
# 2 -0.003988 0.010274 0.000836 0.000000 0.000000 0.000000
# 3 0.000099 0.000836 0.017536 0.000000 0.000000 0.000000
# 4 0.000000 0.000000 0.000000 0.105619 0.000000 0.000000
# 5 0.000000 0.000000 0.000000 0.000000 -0.458902 0.000000
# 6 0.000000 0.000000 0.000000 0.000000 0.000000 0.029395
#
#
# Mechanical properties :
#
#
# Convention : Reuss Voigt Hill
#
# Bulk Modulus (GPa) = 31.48030 40.55983 36.02006
# Shear Modulus (GPa) = -18.56501 25.14668 3.29083
#
# Velocity S-wave (km/s) = -2.86490 3.33428 1.20619
# Velocity P-wave (km/s) = 1.72453 5.72319 4.22664
#
# Compressibility (1/GPa) = 0.03176590
#
# Stress axis : x y z
#
# Youngs Moduli (GPa) = 99.39027 97.33289 57.02654
#
# Poissons Ratio (x) = 0.38814 -0.00564
# Poissons Ratio (y) = 0.39634 -0.04769
# Poissons Ratio (z) = -0.00983 -0.08140
#
# Static dielectric constant tensor:
#      x y z
#    x 1.864300 0.000000 0.000000 
#    y 0.000000 1.807370 0.000000 
#    z 0.000000 0.000000 1.878730 
# 
# From -- ./inp_files/10823.got.cif
#   From: 2010.05.17/outbox.cif.g08.bks.cpg/sg55_6_cif.got.tgz:10823.got - 2010.06.03 13:27:54.
