data_PCOD9425995
_publ_section_title
;
Structure prediction by ZEFSAII (Michael W. Deem and Ramdas Pophale) SiO2 
 PCOD9425995
Probable space group: P B A M
;
_chemical_formula_sum "Si O2"
_cell_formula_units_Z 56
_cell_length_a 8.596026
_cell_length_b 20.736865
_cell_length_c 14.427082
_cell_angle_alpha 90.000000
_cell_angle_beta 90.000000
_cell_angle_gamma 90.000000
_cell_volume 2571.694174
_symmetry_space_group_name_H-M "P B A M"
_symmetry_group_IT_number 55
_symmetry_cell_setting 'orthorhombic'
loop_
_space_group_symop_operation_xyz
x,y,z
-x,-y,z
1/2+x,1/2-y,-z
1/2-x,1/2+y,-z
-x,-y,-z
x,y,-z
1/2-x,1/2+y,z
1/2+x,1/2-y,z
loop_
_atom_site_type_symbol
_atom_site_label
_atom_site_fract_x
_atom_site_fract_y
_atom_site_fract_z
Si Si1 0.577802 0.101234 0.391351
Si Si2 0.633320 0.119614 0.900939
Si Si3 0.653976 0.388492 0.244638
Si Si4 0.683606 0.486611 0.100651
Si Si5 0.555119 0.694902 0.110262
Si Si6 0.753176 0.975783 0.608643
Si Si7 0.547879 0.817478 0.754458
O O1 0.606014 0.112751 0.500000
O O2 0.410442 0.064329 0.384145
O O3 0.556172 0.168734 0.336526
O O4 0.707663 0.048636 0.359068
O O5 0.764539 0.174845 0.893781
O O6 0.518070 0.125255 0.817677
O O7 0.725355 0.053093 0.899688
O O8 0.551921 0.126442 0.000000
O O9 0.737722 0.442266 0.182439
O O10 0.529064 0.359810 0.172656
O O11 0.622119 0.432155 0.335248
O O12 0.772083 0.330729 0.268046
O O13 0.500000 0.500000 0.111794
O O14 0.704059 0.455122 0.000000
O O15 0.535814 0.757393 0.175597
O O16 0.504932 0.699595 0.000000
O O17 0.792922 0.979322 0.500000
#
# Coordination Sequence:
#
# PCOD9425995 Si02
#       7
#     8   8   8   8   8   8   8
#     4   8  15  31  54  81 113 142 171 219 285 340
#     4  10  21  36  53  76 109 144 179 226 279 330
#     4  11  21  35  59  83 105 143 190 234 275 332
#     4  10  19  34  54  76 104 141 180 219 275 340
#     4  11  23  39  54  72 111 161 191 217 276 347
#     4   8  15  30  55  85 112 137 172 224 283 336
#     4  11  22  34  54  85 108 136 190 238 270 315
#
# _framework density 21.775528999999999
#
# number of rings (size 3 to 8) (size 9 to 14) (size 15 to 20)
#    0.000    2.143    1.429    3.429    0.000    5.143 
#    0.000    2.143    0.000    3.857    0.000    0.000 
#    0.000    0.000    0.000    0.000    0.000    0.000 
#
# Total GULP energy -311865.029813 kJ/mol
# GULP energy per Si atom -5569.018390 kJ/mol
# Density = 2.172597 g / cm^3
# Si number density = 21.775529 Si / 1000 Ang^3
#
#
#
# Elastic Constant Matrix: (Units=GPa)
#
#
# Indices 1 2 3 4 5 6 
#
# 1 34.1828 7.3694 11.8335 0.0000 0.0000 0.0000
# 2 7.3694 61.9884 35.2158 0.0000 0.0000 0.0000
# 3 11.8335 35.2158 101.1738 0.0000 0.0000 0.0000
# 4 0.0000 0.0000 0.0000 45.8279 0.0000 0.0000
# 5 0.0000 0.0000 0.0000 0.0000 12.4017 0.0000
# 6 0.0000 0.0000 0.0000 0.0000 0.0000 20.1121
#
#
#
# Elastic Compliance Matrix: (Units=1/GPa)
#
#
# Indices 1 2 3 4 5 6 
#
# 1 0.030688 -0.002006 -0.002891 0.000000 0.000000 0.000000
# 2 -0.002006 0.020239 -0.006810 0.000000 0.000000 0.000000
# 3 -0.002891 -0.006810 0.012593 0.000000 0.000000 0.000000
# 4 0.000000 0.000000 0.000000 0.021821 0.000000 0.000000
# 5 0.000000 0.000000 0.000000 0.000000 0.080634 0.000000
# 6 0.000000 0.000000 0.000000 0.000000 0.000000 0.049721
#
#
# Mechanical properties :
#
#
# Convention : Reuss Voigt Hill
#
# Bulk Modulus (GPa) = 24.93424 34.02027 29.47726
# Shear Modulus (GPa) = 19.80363 25.19674 22.50018
#
# Velocity S-wave (km/s) = 3.01897 3.40533 3.21795
# Velocity P-wave (km/s) = 4.86083 5.57842 5.23194
#
# Compressibility (1/GPa) = 0.04010549
#
# Stress axis : x y z
#
# Youngs Moduli (GPa) = 32.58628 49.40860 79.41187
#
# Poissons Ratio (x) = 0.09910 0.22959
# Poissons Ratio (y) = 0.06536 0.54081
# Poissons Ratio (z) = 0.09421 0.33648
#
# Static dielectric constant tensor:
#      x y z
#    x 1.844540 0.000000 0.000000 
#    y 0.000000 1.859970 0.000000 
#    z 0.000000 0.000000 1.846630 
# 
# From -- ./inp_files/17664.got.cif
#   From: 2010.05.17/outbox.cif.g08.bks.cpg/sg55_9_cif.got.tgz:17664.got - 2010.06.03 13:27:54.
