data_PCOD9425165
_publ_section_title
;
Structure prediction by ZEFSAII (Michael W. Deem and Ramdas Pophale) SiO2 
 PCOD9425165
Probable space group: P B A M
;
_chemical_formula_sum "Si O2"
_cell_formula_units_Z 56
_cell_length_a 10.425502
_cell_length_b 21.580356
_cell_length_c 14.219721
_cell_angle_alpha 90.000000
_cell_angle_beta 90.000000
_cell_angle_gamma 90.000000
_cell_volume 3199.238784
_symmetry_space_group_name_H-M "P B A M"
_symmetry_group_IT_number 55
_symmetry_cell_setting 'orthorhombic'
loop_
_space_group_symop_operation_xyz
x,y,z
-x,-y,z
1/2+x,1/2-y,-z
1/2-x,1/2+y,-z
-x,-y,-z
x,y,-z
1/2-x,1/2+y,z
1/2+x,1/2-y,z
loop_
_atom_site_type_symbol
_atom_site_label
_atom_site_fract_x
_atom_site_fract_y
_atom_site_fract_z
Si Si1 0.033784 0.311679 0.113322
Si Si2 0.830591 0.959935 0.110983
Si Si3 0.588759 0.590358 0.193423
Si Si4 0.375474 0.455884 0.394938
Si Si5 0.373821 0.042878 0.602536
Si Si6 0.563371 0.931828 0.803756
Si Si7 0.186906 0.780397 0.886878
O O1 0.031155 0.379382 0.158868
O O2 0.907468 0.274326 0.144055
O O3 0.163613 0.275305 0.138953
O O4 0.031570 0.318252 0.000000
O O5 0.690472 0.933879 0.132669
O O6 0.940437 0.922672 0.166898
O O7 0.839795 0.030716 0.147813
O O8 0.858256 0.957770 0.000000
O O9 0.613296 0.588001 0.305027
O O10 0.635754 0.654224 0.150519
O O11 0.500000 0.500000 0.391046
O O12 0.370641 0.427633 0.500000
O O13 0.249655 0.498809 0.384457
O O14 0.360830 0.074165 0.500000
O O15 0.392928 0.081887 0.696767
O O16 0.500000 0.000000 0.597966
O O17 0.500000 0.000000 0.806159
O O18 0.180181 0.781794 0.000000
#
# Coordination Sequence:
#
# PCOD9425165 Si02
#       7
#     8   8   8   8   8   8   8
#     4  10  23  39  56  79 107 147 192 227 274 330
#     4  11  21  31  49  82 115 144 177 224 280 332
#     4  11  19  34  53  80 110 147 181 225 275 330
#     4  10  18  32  53  80 113 144 181 225 274 330
#     4   9  18  32  51  78 110 140 173 218 278 337
#     4  11  21  34  56  83 113 143 183 235 289 330
#     4  10  22  39  57  75 105 149 192 229 265 331
#
# _framework density 17.504165
#
# number of rings (size 3 to 8) (size 9 to 14) (size 15 to 20)
#    0.000    1.714    2.857    3.000    4.000    2.286 
#    0.000    0.000    0.000    0.857    0.000    0.000 
#    0.000    0.000    0.000    0.000    0.000    0.000 
#
# Total GULP energy -312403.908952 kJ/mol
# GULP energy per Si atom -5578.641231 kJ/mol
# Density = 1.746432 g / cm^3
# Si number density = 17.504165 Si / 1000 Ang^3
#
#
#
# Elastic Constant Matrix: (Units=GPa)
#
#
# Indices 1 2 3 4 5 6 
#
# 1 95.9385 26.1908 24.3279 0.0000 0.0000 0.0000
# 2 26.1908 46.5822 12.1351 0.0000 0.0000 0.0000
# 3 24.3279 12.1351 74.7303 0.0000 0.0000 0.0000
# 4 0.0000 0.0000 0.0000 8.5898 0.0000 0.0000
# 5 0.0000 0.0000 0.0000 0.0000 21.7038 0.0000
# 6 0.0000 0.0000 0.0000 0.0000 0.0000 18.7018
#
#
#
# Elastic Compliance Matrix: (Units=1/GPa)
#
#
# Indices 1 2 3 4 5 6 
#
# 1 0.012999 -0.006480 -0.003179 0.000000 0.000000 0.000000
# 2 -0.006480 0.025646 -0.002055 0.000000 0.000000 0.000000
# 3 -0.003179 -0.002055 0.014750 0.000000 0.000000 0.000000
# 4 0.000000 0.000000 0.000000 0.116417 0.000000 0.000000
# 5 0.000000 0.000000 0.000000 0.000000 0.046075 0.000000
# 6 0.000000 0.000000 0.000000 0.000000 0.000000 0.053471
#
#
# Mechanical properties :
#
#
# Convention : Reuss Voigt Hill
#
# Bulk Modulus (GPa) = 33.37117 38.06208 35.71663
# Shear Modulus (GPa) = 16.51387 20.10556 18.30972
#
# Velocity S-wave (km/s) = 3.07486 3.39280 3.23773
# Velocity P-wave (km/s) = 5.63138 6.09425 5.86738
#
# Compressibility (1/GPa) = 0.02996598
#
# Stress axis : x y z
#
# Youngs Moduli (GPa) = 76.93124 38.99204 67.79592
#
# Poissons Ratio (x) = 0.25268 0.21554
# Poissons Ratio (y) = 0.49853 0.13932
# Poissons Ratio (z) = 0.24459 0.08013
#
# Static dielectric constant tensor:
#      x y z
#    x 1.631990 0.000000 0.000000 
#    y 0.000000 1.557660 0.000000 
#    z 0.000000 0.000000 1.619990 
# 
# From -- ./inp_files/17672.got.cif
#   From: 2010.05.17/outbox.cif.g08.bks.cpg/sg55_9_cif.got.tgz:17672.got - 2010.06.03 13:27:54.
