data_PCOD9425849
_publ_section_title
;
Structure prediction by ZEFSAII (Michael W. Deem and Ramdas Pophale) SiO2 
 PCOD9425849
Probable space group: P B A M
;
_chemical_formula_sum "Si O2"
_cell_formula_units_Z 64
_cell_length_a 14.945406
_cell_length_b 24.751465
_cell_length_c 8.602639
_cell_angle_alpha 90.000000
_cell_angle_beta 90.000000
_cell_angle_gamma 90.000000
_cell_volume 3182.294185
_symmetry_space_group_name_H-M "P B A M"
_symmetry_group_IT_number 55
_symmetry_cell_setting 'orthorhombic'
loop_
_space_group_symop_operation_xyz
x,y,z
-x,-y,z
1/2+x,1/2-y,-z
1/2-x,1/2+y,-z
-x,-y,-z
x,y,-z
1/2-x,1/2+y,z
1/2+x,1/2-y,z
loop_
_atom_site_type_symbol
_atom_site_label
_atom_site_fract_x
_atom_site_fract_y
_atom_site_fract_z
Si Si1 0.009472 0.326280 0.315889
Si Si2 0.241302 0.473794 0.317723
Si Si3 0.434826 0.631797 0.684176
Si Si4 0.256572 0.584371 0.179359
Si Si5 0.171919 0.702858 0.181567
Si Si6 0.547088 0.054904 0.310661
Si Si7 0.935675 0.050112 0.814707
Si Si8 0.861973 0.758055 0.814506
O O1 0.024666 0.325373 0.500000
O O2 0.919213 0.294101 0.275463
O O3 0.001658 0.388801 0.264395
O O4 0.091466 0.297290 0.231392
O O5 0.254796 0.463851 0.500000
O O6 0.221505 0.537161 0.288567
O O7 0.151468 0.443792 0.264375
O O8 0.333304 0.460725 0.230988
O O9 0.422721 0.627223 0.500000
O O10 0.357923 0.597697 0.771908
O O11 0.527012 0.604394 0.735569
O O12 0.417494 0.693184 0.736147
O O13 0.205216 0.640794 0.193378
O O14 0.253546 0.566579 0.000000
O O15 0.258023 0.737079 0.234702
O O16 0.154004 0.714742 0.000000
O O17 0.545489 0.052454 0.500000
O O18 0.500000 0.000000 0.253472
O O19 0.943585 0.054884 0.000000
O O20 0.000000 0.000000 0.764435
O O21 0.863382 0.766833 0.000000
#
# Coordination Sequence:
#
# PCOD9425849 Si02
#       8
#     8   8   8   8   8   8   8   8
#     4  11  22  39  65  94 123 158 203 256 308 366
#     4  11  21  34  56  85 118 159 204 250 298 359
#     4  11  21  35  58  86 115 152 203 253 298 353
#     4  10  19  33  54  83 119 156 197 245 295 353
#     4   9  20  38  61  86 115 155 198 245 301 362
#     4   9  20  39  61  89 125 160 196 249 313 364
#     4  11  22  36  55  81 122 167 202 246 306 370
#     4  10  22  42  64  87 121 158 198 249 306 365
#
# _framework density 20.111276
#
# number of rings (size 3 to 8) (size 9 to 14) (size 15 to 20)
#    0.000    1.750    1.250    4.500    0.000    4.500 
#    2.250    2.500    0.000    4.500    0.000    0.000 
#    0.000    0.000    0.000    0.000    0.000    0.000 
#
# Total GULP energy -357468.981470 kJ/mol
# GULP energy per Si atom -5585.452835 kJ/mol
# Density = 2.006550 g / cm^3
# Si number density = 20.111276 Si / 1000 Ang^3
#
#
#
# Elastic Constant Matrix: (Units=GPa)
#
#
# Indices 1 2 3 4 5 6 
#
# 1 108.3262 30.1034 18.2804 0.0000 0.0000 0.0000
# 2 30.1034 57.9565 0.6552 0.0000 0.0000 0.0000
# 3 18.2804 0.6552 26.9191 0.0000 0.0000 0.0000
# 4 0.0000 0.0000 0.0000 24.8328 0.0000 0.0000
# 5 0.0000 0.0000 0.0000 0.0000 18.3621 0.0000
# 6 0.0000 0.0000 0.0000 0.0000 0.0000 28.7178
#
#
#
# Elastic Compliance Matrix: (Units=1/GPa)
#
#
# Indices 1 2 3 4 5 6 
#
# 1 0.012387 -0.006341 -0.008257 0.000000 0.000000 0.000000
# 2 -0.006341 0.020505 0.003807 0.000000 0.000000 0.000000
# 3 -0.008257 0.003807 0.042663 0.000000 0.000000 0.000000
# 4 0.000000 0.000000 0.000000 0.040269 0.000000 0.000000
# 5 0.000000 0.000000 0.000000 0.000000 0.054460 0.000000
# 6 0.000000 0.000000 0.000000 0.000000 0.000000 0.034822
#
#
# Mechanical properties :
#
#
# Convention : Reuss Voigt Hill
#
# Bulk Modulus (GPa) = 18.52807 32.36441 25.44624
# Shear Modulus (GPa) = 20.43495 23.99340 22.21417
#
# Velocity S-wave (km/s) = 3.19108 3.45778 3.32710
# Velocity P-wave (km/s) = 4.77599 5.66297 5.23829
#
# Compressibility (1/GPa) = 0.05397217
#
# Stress axis : x y z
#
# Youngs Moduli (GPa) = 80.73084 48.76950 23.43939
#
# Poissons Ratio (x) = 0.30922 0.19355
# Poissons Ratio (y) = 0.51188 -0.08923
# Poissons Ratio (z) = 0.66663 -0.18565
#
# Static dielectric constant tensor:
#      x y z
#    x 1.721370 0.000000 0.000000 
#    y 0.000000 1.732410 0.000000 
#    z 0.000000 0.000000 1.675870 
# 
# From -- ./inp_files/6530.got.cif
#   From: 2010.05.17/outbox.cif.g08.bks.cpg/sg55_4_cif.got.tgz:6530.got - 2010.06.03 13:27:54.
