data_PCOD9425091
_publ_section_title
;
Structure prediction by ZEFSAII (Michael W. Deem and Ramdas Pophale) SiO2 
 PCOD9425091
Probable space group: P B A M
;
_chemical_formula_sum "Si O2"
_cell_formula_units_Z 56
_cell_length_a 14.805592
_cell_length_b 18.944812
_cell_length_c 8.074770
_cell_angle_alpha 90.000000
_cell_angle_beta 90.000000
_cell_angle_gamma 90.000000
_cell_volume 2264.885430
_symmetry_space_group_name_H-M "P B A M"
_symmetry_group_IT_number 55
_symmetry_cell_setting 'orthorhombic'
loop_
_space_group_symop_operation_xyz
x,y,z
-x,-y,z
1/2+x,1/2-y,-z
1/2-x,1/2+y,-z
-x,-y,-z
x,y,-z
1/2-x,1/2+y,z
1/2+x,1/2-y,z
loop_
_atom_site_type_symbol
_atom_site_label
_atom_site_fract_x
_atom_site_fract_y
_atom_site_fract_z
Si Si1 0.904699 0.645511 0.807452
Si Si2 0.280981 0.569780 0.198802
Si Si3 0.445826 0.650245 0.696273
Si Si4 0.385693 0.429751 0.799462
Si Si5 0.934679 0.281544 0.306016
Si Si6 0.228860 0.793001 0.197321
Si Si7 0.900950 0.486271 0.195025
O O1 0.829433 0.697846 0.732505
O O2 0.863726 0.566933 0.802686
O O3 0.002843 0.651314 0.726105
O O4 0.920788 0.661491 0.000000
O O5 0.346200 0.635088 0.236483
O O6 0.337025 0.500852 0.257952
O O7 0.178770 0.562364 0.265509
O O8 0.272944 0.564951 0.000000
O O9 0.577108 0.771256 0.500000
O O10 0.512755 0.585586 0.741147
O O11 0.500099 0.718585 0.762471
O O12 0.328303 0.361194 0.744187
O O13 0.387169 0.430991 0.000000
O O14 0.560550 0.343154 0.500000
O O15 0.836060 0.272970 0.229607
O O16 0.238985 0.799086 0.000000
O O17 0.000000 0.500000 0.269329
O O18 0.915338 0.466041 0.000000
#
# Coordination Sequence:
#
# PCOD9425091 Si02
#       7
#     8   8   8   8   8   8   8
#     4  10  19  36  62  86 109 141 186 237 280 327
#     4  10  18  31  53  80 108 142 177 217 272 325
#     4  10  21  34  48  74 112 146 177 218 267 324
#     4   9  16  29  51  78 106 136 173 218 268 323
#     4  10  22  38  54  78 114 153 188 228 280 334
#     4   9  17  33  57  81 105 138 184 233 276 326
#     4   9  18  35  59  86 113 139 177 230 281 331
#
# _framework density 24.725311000000001
#
# number of rings (size 3 to 8) (size 9 to 14) (size 15 to 20)
#    0.000    2.429    1.429    1.286    0.000    4.571 
#    2.571    0.714    0.000    0.857    0.000    0.000 
#    0.000    0.000    0.000    0.000    0.000    0.000 
#
# Total GULP energy -312796.844126 kJ/mol
# GULP energy per Si atom -5585.657931 kJ/mol
# Density = 2.466904 g / cm^3
# Si number density = 24.725311 Si / 1000 Ang^3
#
#
#
# Elastic Constant Matrix: (Units=GPa)
#
#
# Indices 1 2 3 4 5 6 
#
# 1 186.8563 13.6991 9.4015 0.0000 0.0000 0.0000
# 2 13.6991 67.0795 -7.8665 0.0000 0.0000 0.0000
# 3 9.4015 -7.8665 17.1548 0.0000 0.0000 0.0000
# 4 0.0000 0.0000 0.0000 2.3006 0.0000 0.0000
# 5 0.0000 0.0000 0.0000 0.0000 -115.6784 0.0000
# 6 0.0000 0.0000 0.0000 0.0000 0.0000 40.2588
#
#
#
# Elastic Compliance Matrix: (Units=1/GPa)
#
#
# Indices 1 2 3 4 5 6 
#
# 1 0.005663 -0.001607 -0.003840 0.000000 0.000000 0.000000
# 2 -0.001607 0.016211 0.008314 0.000000 0.000000 0.000000
# 3 -0.003840 0.008314 0.064210 0.000000 0.000000 0.000000
# 4 0.000000 0.000000 0.000000 0.434677 0.000000 0.000000
# 5 0.000000 0.000000 0.000000 0.000000 -0.008645 0.000000
# 6 0.000000 0.000000 0.000000 0.000000 0.000000 0.024839
#
#
# Mechanical properties :
#
#
# Convention : Reuss Voigt Hill
#
# Bulk Modulus (GPa) = 10.89114 33.50655 22.19884
# Shear Modulus (GPa) = 8.89954 2.43328 5.66641
#
# Velocity S-wave (km/s) = 1.89926 0.99311 1.51549
# Velocity P-wave (km/s) = 3.03710 3.85953 3.47275
#
# Compressibility (1/GPa) = 0.09181779
#
# Stress axis : x y z
#
# Youngs Moduli (GPa) = 176.59350 61.68718 15.57393
#
# Poissons Ratio (x) = 0.09912 0.05981
# Poissons Ratio (y) = 0.28375 -0.12948
# Poissons Ratio (z) = 0.67815 -0.51288
#
# Static dielectric constant tensor:
#      x y z
#    x 1.989900 0.000000 0.000000 
#    y 0.000000 2.059580 0.000000 
#    z 0.000000 0.000000 1.868470 
# 
# From -- ./inp_files/6199.got.cif
#   From: 2010.05.17/outbox.cif.g08.bks.cpg/sg55_4_cif.got.tgz:6199.got - 2010.06.03 13:27:54.
