data_PCOD9425983
_publ_section_title
;
Structure prediction by ZEFSAII (Michael W. Deem and Ramdas Pophale) SiO2 
 PCOD9425983
Probable space group: P B A M
;
_chemical_formula_sum "Si O2"
_cell_formula_units_Z 44
_cell_length_a 5.004852
_cell_length_b 13.999754
_cell_length_c 30.009413
_cell_angle_alpha 90.000000
_cell_angle_beta 90.000000
_cell_angle_gamma 90.000000
_cell_volume 2102.660442
_symmetry_space_group_name_H-M "P B A M"
_symmetry_group_IT_number 55
_symmetry_cell_setting 'orthorhombic'
loop_
_space_group_symop_operation_xyz
x,y,z
-x,-y,z
1/2+x,1/2-y,-z
1/2-x,1/2+y,-z
-x,-y,-z
x,y,-z
1/2-x,1/2+y,z
1/2+x,1/2-y,z
loop_
_atom_site_type_symbol
_atom_site_label
_atom_site_fract_x
_atom_site_fract_y
_atom_site_fract_z
Si Si1 0.430826 0.818289 0.500000
Si Si2 0.191380 0.318331 0.593336
Si Si3 0.818292 0.184323 0.049178
Si Si4 0.753041 0.061183 0.866235
Si Si5 0.693078 0.182162 0.689684
Si Si6 0.065455 0.314619 0.216519
O O1 0.225555 0.727334 0.500000
O O2 0.369064 0.870410 0.546705
O O3 0.483767 0.270942 0.592513
O O4 0.155304 0.367139 0.641592
O O5 0.521496 0.227060 0.051846
O O6 0.863103 0.118201 0.091346
O O7 0.856171 0.139772 0.000000
O O8 0.639581 0.126568 0.826885
O O9 0.500000 0.000000 0.881946
O O10 0.000000 0.000000 0.848284
O O11 0.487228 0.271987 0.690349
O O12 0.630823 0.132540 0.736674
O O13 0.263033 0.222672 0.215977
#
# Coordination Sequence:
#
# PCOD9425983 Si02
#       6
#     4   8   8   8   8   8
#     4   8  12  16  24  38  64  98 126 160 212 270
#     4   8  12  18  27  44  68  96 132 171 214 264
#     4  10  21  39  61  81 103 135 171 201 233 283
#     4  12  24  36  53  79 108 133 160 202 249 287
#     4   8  14  23  38  57  76 104 147 190 221 262
#     4  10  19  34  53  70  93 129 168 201 236 285
#
# _framework density 20.92587
#
# number of rings (size 3 to 8) (size 9 to 14) (size 15 to 20)
#    0.000    2.545    0.000    3.273    0.000    0.727 
#    0.000    0.000    0.000    0.000    0.000    0.000 
#    0.000    0.000    0.000    1.636    0.000    6.364 
#
# Total GULP energy -245122.974988 kJ/mol
# GULP energy per Si atom -5570.976704 kJ/mol
# Density = 2.087824 g / cm^3
# Si number density = 20.925870 Si / 1000 Ang^3
#
#
#
# Elastic Constant Matrix: (Units=GPa)
#
#
# Indices 1 2 3 4 5 6 
#
# 1 67.8856 -2.4382 -24.3381 0.0000 0.0000 0.0000
# 2 -2.4382 7.7139 20.4523 0.0000 0.0000 0.0000
# 3 -24.3381 20.4523 153.4385 0.0000 0.0000 0.0000
# 4 0.0000 0.0000 0.0000 -26.6725 0.0000 0.0000
# 5 0.0000 0.0000 0.0000 0.0000 27.7765 0.0000
# 6 0.0000 0.0000 0.0000 0.0000 0.0000 0.3065
#
#
#
# Elastic Compliance Matrix: (Units=1/GPa)
#
#
# Indices 1 2 3 4 5 6 
#
# 1 0.015651 -0.002529 0.002820 0.000000 0.000000 0.000000
# 2 -0.002529 0.200902 -0.027180 0.000000 0.000000 0.000000
# 3 0.002820 -0.027180 0.010587 0.000000 0.000000 0.000000
# 4 0.000000 0.000000 0.000000 -0.037492 0.000000 0.000000
# 5 0.000000 0.000000 0.000000 0.000000 0.036002 0.000000
# 6 0.000000 0.000000 0.000000 0.000000 0.000000 3.262691
#
#
# Mechanical properties :
#
#
# Convention : Reuss Voigt Hill
#
# Bulk Modulus (GPa) = 5.76831 24.04335 14.90583
# Shear Modulus (GPa) = 1.38892 15.97288 8.68090
#
# Velocity S-wave (km/s) = 0.81558 2.76580 2.03897
# Velocity P-wave (km/s) = 1.91035 4.65986 3.56116
#
# Compressibility (1/GPa) = 0.17336099
#
# Stress axis : x y z
#
# Youngs Moduli (GPa) = 63.89496 4.97756 94.45168
#
# Poissons Ratio (x) = 0.01259 -0.26631
# Poissons Ratio (y) = 0.16159 2.56720
# Poissons Ratio (z) = -0.18016 0.13529
#
# Static dielectric constant tensor:
#      x y z
#    x 1.715050 0.000000 0.000000 
#    y 0.000000 1.717310 0.000000 
#    z 0.000000 0.000000 1.874250 
# 
# From -- ./inp_files/24038.got.cif
#   From: 2010.05.17/outbox.cif.g08.bks.cpg/sg55_13_cif.got.tgz:24038.got - 2010.06.03 13:27:54.
