data_PCOD9425420
_publ_section_title
;
Structure prediction by ZEFSAII (Michael W. Deem and Ramdas Pophale) SiO2 
 PCOD9425420
Probable space group: P B A M
;
_chemical_formula_sum "Si O2"
_cell_formula_units_Z 56
_cell_length_a 5.241333
_cell_length_b 18.585743
_cell_length_c 28.140618
_cell_angle_alpha 90.000000
_cell_angle_beta 90.000000
_cell_angle_gamma 90.000000
_cell_volume 2741.292079
_symmetry_space_group_name_H-M "P B A M"
_symmetry_group_IT_number 55
_symmetry_cell_setting 'orthorhombic'
loop_
_space_group_symop_operation_xyz
x,y,z
-x,-y,z
1/2+x,1/2-y,-z
1/2-x,1/2+y,-z
-x,-y,-z
x,y,-z
1/2-x,1/2+y,z
1/2+x,1/2-y,z
loop_
_atom_site_type_symbol
_atom_site_label
_atom_site_fract_x
_atom_site_fract_y
_atom_site_fract_z
Si Si1 0.106424 0.727898 0.817332
Si Si2 0.246574 0.956698 0.057458
Si Si3 0.335239 0.289139 0.922151
Si Si4 0.073429 0.798753 0.448630
Si Si5 0.966801 0.579316 0.203595
Si Si6 0.533570 0.418582 0.734844
Si Si7 0.492961 0.299766 0.655284
O O1 0.366914 0.740390 0.789791
O O2 0.138396 0.772509 0.865751
O O3 0.053291 0.645270 0.828921
O O4 0.224973 0.872731 0.070829
O O5 0.500000 0.000000 0.071882
O O6 0.241245 0.958000 0.000000
O O7 0.000000 0.000000 0.075612
O O8 0.605946 0.260744 0.941308
O O9 0.044362 0.836831 0.500000
O O10 0.354072 0.763028 0.448285
O O11 0.030526 0.834902 0.397580
O O12 0.680333 0.588628 0.223238
O O13 0.000000 0.500000 0.182869
O O14 0.177376 0.585223 0.245489
O O15 0.500000 0.500000 0.716583
O O16 0.481339 0.359895 0.695354
O O17 0.757652 0.255930 0.659191
#
# Coordination Sequence:
#
# PCOD9425420 Si02
#       7
#     8   8   8   8   8   8   8
#     4  10  21  37  55  79 108 138 176 221 267 311
#     4  10  21  38  61  89 121 157 193 228 272 331
#     4  10  21  38  58  86 118 149 187 232 280 323
#     4   8  14  25  41  63  93 125 158 200 246 296
#     4  10  21  37  55  73  99 137 176 212 260 322
#     4  10  21  35  51  74 103 134 166 211 269 316
#     4  10  19  30  48  75  99 126 168 210 254 307
#
# _framework density 20.428322999999999
#
# number of rings (size 3 to 8) (size 9 to 14) (size 15 to 20)
#    0.000    2.286    0.000    2.571    0.000    4.000 
#    0.000    8.571    0.000    0.429    0.000    0.000 
#    0.000   14.857    0.000    0.000    0.000    2.286 
#
# Total GULP energy -312387.858425 kJ/mol
# GULP energy per Si atom -5578.354615 kJ/mol
# Density = 2.038183 g / cm^3
# Si number density = 20.428323 Si / 1000 Ang^3
#
#
#
# Elastic Constant Matrix: (Units=GPa)
#
#
# Indices 1 2 3 4 5 6 
#
# 1 143.5733 39.4102 -2.4602 0.0000 0.0000 0.0000
# 2 39.4102 129.5574 22.8428 0.0000 0.0000 0.0000
# 3 -2.4602 22.8428 64.7953 0.0000 0.0000 0.0000
# 4 0.0000 0.0000 0.0000 13.2880 0.0000 0.0000
# 5 0.0000 0.0000 0.0000 0.0000 -13.1909 0.0000
# 6 0.0000 0.0000 0.0000 0.0000 0.0000 27.8598
#
#
#
# Elastic Compliance Matrix: (Units=1/GPa)
#
#
# Indices 1 2 3 4 5 6 
#
# 1 0.007685 -0.002547 0.001190 0.000000 0.000000 0.000000
# 2 -0.002547 0.009075 -0.003296 0.000000 0.000000 0.000000
# 3 0.001190 -0.003296 0.016640 0.000000 0.000000 0.000000
# 4 0.000000 0.000000 0.000000 0.075256 0.000000 0.000000
# 5 0.000000 0.000000 0.000000 0.000000 -0.075810 0.000000
# 6 0.000000 0.000000 0.000000 0.000000 0.000000 0.035894
#
#
# Mechanical properties :
#
#
# Convention : Reuss Voigt Hill
#
# Bulk Modulus (GPa) = 41.50622 50.83461 46.17042
# Shear Modulus (GPa) = 58.08744 24.13361 41.11052
#
# Velocity S-wave (km/s) = 5.33821 3.44085 4.49088
# Velocity P-wave (km/s) = 7.63920 6.38156 7.03853
#
# Compressibility (1/GPa) = 0.02409277
#
# Stress axis : x y z
#
# Youngs Moduli (GPa) = 130.12826 110.19781 60.09503
#
# Poissons Ratio (x) = 0.28072 -0.07150
# Poissons Ratio (y) = 0.33149 0.19806
# Poissons Ratio (z) = -0.15483 0.36320
#
# Static dielectric constant tensor:
#      x y z
#    x 1.858450 0.000000 0.000000 
#    y 0.000000 1.723550 0.000000 
#    z 0.000000 0.000000 1.782810 
# 
# From -- ./inp_files/24074.got.cif
#   From: 2010.05.17/outbox.cif.g08.bks.cpg/sg55_13_cif.got.tgz:24074.got - 2010.06.03 13:27:54.
