data_PCOD9425364
_publ_section_title
;
Structure prediction by ZEFSAII (Michael W. Deem and Ramdas Pophale) SiO2 
 PCOD9425364
Probable space group: P B A M
;
_chemical_formula_sum "Si O2"
_cell_formula_units_Z 40
_cell_length_a 14.756233
_cell_length_b 11.916642
_cell_length_c 10.265890
_cell_angle_alpha 90.000000
_cell_angle_beta 90.000000
_cell_angle_gamma 90.000000
_cell_volume 1805.202819
_symmetry_space_group_name_H-M "P B A M"
_symmetry_group_IT_number 55
_symmetry_cell_setting 'orthorhombic'
loop_
_space_group_symop_operation_xyz
x,y,z
-x,-y,z
1/2+x,1/2-y,-z
1/2-x,1/2+y,-z
-x,-y,-z
x,y,-z
1/2-x,1/2+y,z
1/2+x,1/2-y,z
loop_
_atom_site_type_symbol
_atom_site_label
_atom_site_fract_x
_atom_site_fract_y
_atom_site_fract_z
Si Si1 0.046474 0.885700 0.352832
Si Si2 0.710385 0.459739 0.352684
Si Si3 0.814889 0.779154 0.853132
Si Si4 0.406351 0.214008 0.856297
Si Si5 0.640665 0.027177 0.147948
O O1 0.012682 0.862464 0.500000
O O2 0.046137 0.782626 0.256566
O O3 0.149417 0.929619 0.361522
O O4 0.000000 0.000000 0.304959
O O5 0.729370 0.420900 0.500000
O O6 0.664111 0.362816 0.265143
O O7 0.796110 0.494555 0.268412
O O8 0.703830 0.766540 0.847566
O O9 0.867289 0.661079 0.840451
O O10 0.833977 0.822623 0.000000
O O11 0.426140 0.080481 0.849795
O O12 0.433561 0.254017 0.000000
O O13 0.681257 0.015524 0.000000
#
# Coordination Sequence:
#
# PCOD9425364 Si02
#       5
#     8   8   8   8   8
#     4  10  21  35  48  65  96 133 163 196 235 275
#     4  10  19  29  45  70  97 123 159 199 234 279
#     4   9  17  30  49  70  98 127 150 189 243 293
#     4   9  17  29  48  72  94 120 158 195 234 283
#     4   9  17  31  49  70  98 126 150 189 244 291
#
# _framework density 22.158176999999998
#
# number of rings (size 3 to 8) (size 9 to 14) (size 15 to 20)
#    0.000    2.600    2.000    1.800    0.000    5.200 
#    0.000    0.000    0.000    1.200    0.000    8.400 
#    0.000    0.000    0.000    0.000    0.000    0.000 
#
# Total GULP energy -222819.998650 kJ/mol
# GULP energy per Si atom -5570.499966 kJ/mol
# Density = 2.210774 g / cm^3
# Si number density = 22.158177 Si / 1000 Ang^3
#
#
#
# Elastic Constant Matrix: (Units=GPa)
#
#
# Indices 1 2 3 4 5 6 
#
# 1 30.4531 15.4837 25.5447 0.0000 0.0000 0.0000
# 2 15.4837 137.8753 93.5925 0.0000 0.0000 0.0000
# 3 25.5447 93.5925 171.1553 0.0000 0.0000 0.0000
# 4 0.0000 0.0000 0.0000 -99.9483 0.0000 0.0000
# 5 0.0000 0.0000 0.0000 0.0000 5.9527 0.0000
# 6 0.0000 0.0000 0.0000 0.0000 0.0000 32.5305
#
#
#
# Elastic Compliance Matrix: (Units=1/GPa)
#
#
# Indices 1 2 3 4 5 6 
#
# 1 0.037574 -0.000657 -0.005249 0.000000 0.000000 0.000000
# 2 -0.000657 0.011546 -0.006216 0.000000 0.000000 0.000000
# 3 -0.005249 -0.006216 0.010025 0.000000 0.000000 0.000000
# 4 0.000000 0.000000 0.000000 -0.010005 0.000000 0.000000
# 5 0.000000 0.000000 0.000000 0.000000 0.167991 0.000000
# 6 0.000000 0.000000 0.000000 0.000000 0.000000 0.030740
#
#
# Mechanical properties :
#
#
# Convention : Reuss Voigt Hill
#
# Bulk Modulus (GPa) = 28.65108 67.63615 48.14362
# Shear Modulus (GPa) = 17.62129 1.36451 9.49290
#
# Velocity S-wave (km/s) = 2.82308 0.78558 2.07206
# Velocity P-wave (km/s) = 4.85641 5.60476 5.24395
#
# Compressibility (1/GPa) = 0.03490270
#
# Stress axis : x y z
#
# Youngs Moduli (GPa) = 26.61414 86.61016 99.75144
#
# Poissons Ratio (x) = 0.05687 0.52357
# Poissons Ratio (y) = 0.01748 0.62002
# Poissons Ratio (z) = 0.13969 0.53834
#
# Static dielectric constant tensor:
#      x y z
#    x 1.946560 0.000000 0.000000 
#    y 0.000000 1.816230 0.000000 
#    z 0.000000 0.000000 1.791850 
# 
# From -- ./inp_files/3641.got.cif
#   From: 2010.05.17/outbox.cif.g08.bks.cpg/sg55_2_cif.got.tgz:3641.got - 2010.06.03 13:27:54.
