data_PCOD9425285
_publ_section_title
;
Structure prediction by ZEFSAII (Michael W. Deem and Ramdas Pophale) SiO2 
 PCOD9425285
Probable space group: P B A M
;
_chemical_formula_sum "Si O2"
_cell_formula_units_Z 56
_cell_length_a 19.842342
_cell_length_b 18.086587
_cell_length_c 8.644076
_cell_angle_alpha 90.000000
_cell_angle_beta 90.000000
_cell_angle_gamma 90.000000
_cell_volume 3102.188112
_symmetry_space_group_name_H-M "P B A M"
_symmetry_group_IT_number 55
_symmetry_cell_setting 'orthorhombic'
loop_
_space_group_symop_operation_xyz
x,y,z
-x,-y,z
1/2+x,1/2-y,-z
1/2-x,1/2+y,-z
-x,-y,-z
x,y,-z
1/2-x,1/2+y,z
1/2+x,1/2-y,z
loop_
_atom_site_type_symbol
_atom_site_label
_atom_site_fract_x
_atom_site_fract_y
_atom_site_fract_z
Si Si1 0.597497 0.373538 0.685680
Si Si2 0.338422 0.471485 0.313114
Si Si3 0.381318 0.784794 0.185481
Si Si4 0.811314 0.574159 0.685167
Si Si5 0.073937 0.532780 0.186732
Si Si6 0.447696 0.357803 0.814013
Si Si7 0.463366 0.192532 0.812469
O O1 0.594775 0.370125 0.500000
O O2 0.638982 0.446059 0.732794
O O3 0.628327 0.297433 0.749724
O O4 0.521408 0.378905 0.750137
O O5 0.341216 0.468101 0.500000
O O6 0.262741 0.451865 0.263857
O O7 0.391400 0.412893 0.247042
O O8 0.330486 0.845828 0.247938
O O9 0.457622 0.808747 0.232128
O O10 0.379235 0.782942 0.000000
O O11 0.812280 0.577803 0.500000
O O12 0.867788 0.516506 0.741016
O O13 0.073584 0.618274 0.239772
O O14 0.000000 0.500000 0.222979
O O15 0.080921 0.529940 0.000000
O O16 0.435160 0.272358 0.764791
O O17 0.450244 0.359881 0.000000
O O18 0.462320 0.190750 0.000000
#
# Coordination Sequence:
#
# PCOD9425285 Si02
#       7
#     8   8   8   8   8   8   8
#     4  10  20  37  61  85 112 149 190 233 286 341
#     4  10  23  41  56  77 116 157 191 230 285 345
#     4  10  19  36  59  84 111 143 184 233 285 337
#     4  11  23  38  55  80 114 153 193 234 283 341
#     4  10  18  34  59  81 108 148 186 229 284 336
#     4  10  20  35  59  88 116 145 189 243 285 332
#     4   8  16  32  54  82 112 138 173 226 285 334
#
# _framework density 18.051774000000002
#
# number of rings (size 3 to 8) (size 9 to 14) (size 15 to 20)
#    0.000    2.143    1.429    3.000    0.000    4.286 
#    2.571    1.429    0.000    0.000    0.000    0.000 
#    0.000    0.000    0.000    0.000    0.000    0.000 
#
# Total GULP energy -312582.903388 kJ/mol
# GULP energy per Si atom -5581.837560 kJ/mol
# Density = 1.801069 g / cm^3
# Si number density = 18.051774 Si / 1000 Ang^3
#
#
#
# Elastic Constant Matrix: (Units=GPa)
#
#
# Indices 1 2 3 4 5 6 
#
# 1 122.8117 113.2960 37.6828 0.0000 0.0000 0.0000
# 2 113.2960 194.2776 46.7675 0.0000 0.0000 0.0000
# 3 37.6828 46.7675 32.1670 0.0000 0.0000 0.0000
# 4 0.0000 0.0000 0.0000 30.7509 0.0000 0.0000
# 5 0.0000 0.0000 0.0000 0.0000 -56.6427 0.0000
# 6 0.0000 0.0000 0.0000 0.0000 0.0000 19.4606
#
#
#
# Elastic Compliance Matrix: (Units=1/GPa)
#
#
# Indices 1 2 3 4 5 6 
#
# 1 0.019395 -0.008986 -0.009656 0.000000 0.000000 0.000000
# 2 -0.008986 0.012082 -0.007039 0.000000 0.000000 0.000000
# 3 -0.009656 -0.007039 0.052634 0.000000 0.000000 0.000000
# 4 0.000000 0.000000 0.000000 0.032519 0.000000 0.000000
# 5 0.000000 0.000000 0.000000 0.000000 -0.017655 0.000000
# 6 0.000000 0.000000 0.000000 0.000000 0.000000 0.051386
#
#
# Mechanical properties :
#
#
# Convention : Reuss Voigt Hill
#
# Bulk Modulus (GPa) = 30.53581 82.74988 56.64285
# Shear Modulus (GPa) = 23.51378 8.81442 16.16410
#
# Velocity S-wave (km/s) = 3.61303 2.21212 2.99562
# Velocity P-wave (km/s) = 5.86155 7.24323 6.58871
#
# Compressibility (1/GPa) = 0.03274844
#
# Stress axis : x y z
#
# Youngs Moduli (GPa) = 51.55890 82.76609 18.99918
#
# Poissons Ratio (x) = 0.74375 0.18346
# Poissons Ratio (y) = 0.46332 0.13374
# Poissons Ratio (z) = 0.49785 0.58261
#
# Static dielectric constant tensor:
#      x y z
#    x 1.584600 0.000000 0.000000 
#    y 0.000000 1.628280 0.000000 
#    z 0.000000 0.000000 1.613840 
# 
# From -- ./inp_files/7876.got.cif
#   From: 2010.05.17/outbox.cif.g08.bks.cpg/sg55_4_cif.got.tgz:7876.got - 2010.06.03 13:27:54.
