data_PCOD9425494
_publ_section_title
;
Structure prediction by ZEFSAII (Michael W. Deem and Ramdas Pophale) SiO2 
 PCOD9425494
Probable space group: P B A M
;
_chemical_formula_sum "Si O2"
_cell_formula_units_Z 32
_cell_length_a 9.264388
_cell_length_b 10.926679
_cell_length_c 11.224412
_cell_angle_alpha 90.000000
_cell_angle_beta 90.000000
_cell_angle_gamma 90.000000
_cell_volume 1136.235933
_symmetry_space_group_name_H-M "P B A M"
_symmetry_group_IT_number 55
_symmetry_cell_setting 'orthorhombic'
loop_
_space_group_symop_operation_xyz
x,y,z
-x,-y,z
1/2+x,1/2-y,-z
1/2-x,1/2+y,-z
-x,-y,-z
x,y,-z
1/2-x,1/2+y,z
1/2+x,1/2-y,z
loop_
_atom_site_type_symbol
_atom_site_label
_atom_site_fract_x
_atom_site_fract_y
_atom_site_fract_z
Si Si1 0.766961 0.588127 0.500000
Si Si2 0.985906 0.245379 0.500000
Si Si3 0.775533 0.502823 0.000000
Si Si4 0.755964 0.981563 0.256321
Si Si5 0.015109 0.799011 0.753754
Si Si6 0.400333 0.743575 0.000000
O O1 0.845665 0.719203 0.500000
O O2 0.594738 0.613309 0.500000
O O3 0.811172 0.517640 0.618057
O O4 0.947031 0.280456 0.637247
O O5 0.832275 0.474817 0.866273
O O6 0.776763 0.651892 0.000000
O O7 0.645859 0.400704 0.000000
O O8 0.865112 0.096321 0.233199
O O9 0.861755 0.865871 0.271398
O O10 0.989367 0.737874 0.879897
#
# Coordination Sequence:
#
# PCOD9425494 Si02
#       6
#     4   4   4   8   8   4
#     4  10  19  31  49  75 107 140 177 225 279 331
#     4  10  19  31  49  75 107 140 177 225 279 331
#     4  10  19  31  49  75 107 140 177 225 279 331
#     4   9  17  30  50  74  99 133 182 234 272 309
#     4   9  17  30  50  74  99 133 182 234 272 309
#     4  10  19  31  49  75 107 140 177 225 279 331
#
# _framework density 28.163164999999999
#
# number of rings (size 3 to 8) (size 9 to 14) (size 15 to 20)
#    0.000    2.500    0.000    3.000    0.000    6.000 
#    0.000    0.000    0.000    6.000    0.000   28.000 
#    0.000    0.000    0.000    0.000    0.000    0.000 
#
# Total GULP energy -178449.599584 kJ/mol
# GULP energy per Si atom -5576.549987 kJ/mol
# Density = 2.809906 g / cm^3
# Si number density = 28.163165 Si / 1000 Ang^3
#
#
#
# Elastic Constant Matrix: (Units=GPa)
#
#
# Indices 1 2 3 4 5 6 
#
# 1 87.7730 76.2949 41.7183 0.0000 0.0000 0.0000
# 2 76.2949 141.6825 59.0016 0.0000 0.0000 0.0000
# 3 41.7183 59.0016 355.1429 0.0000 0.0000 0.0000
# 4 0.0000 0.0000 0.0000 -17.9950 0.0000 0.0000
# 5 0.0000 0.0000 0.0000 0.0000 -117.8344 0.0000
# 6 0.0000 0.0000 0.0000 0.0000 0.0000 67.1101
#
#
#
# Elastic Compliance Matrix: (Units=1/GPa)
#
#
# Indices 1 2 3 4 5 6 
#
# 1 0.021557 -0.011338 -0.000649 0.000000 0.000000 0.000000
# 2 -0.011338 0.013546 -0.000919 0.000000 0.000000 0.000000
# 3 -0.000649 -0.000919 0.003045 0.000000 0.000000 0.000000
# 4 0.000000 0.000000 0.000000 -0.055571 0.000000 0.000000
# 5 0.000000 0.000000 0.000000 0.000000 -0.008486 0.000000
# 6 0.000000 0.000000 0.000000 0.000000 0.000000 0.014901
#
#
# Mechanical properties :
#
#
# Convention : Reuss Voigt Hill
#
# Bulk Modulus (GPa) = 81.05816 104.29200 92.67508
# Shear Modulus (GPa) = 264.36888 13.42841 138.89864
#
# Velocity S-wave (km/s) = 9.69919 2.18596 7.03039
# Velocity P-wave (km/s) = 12.42081 6.59416 9.94383
#
# Compressibility (1/GPa) = 0.01233682
#
# Stress axis : x y z
#
# Youngs Moduli (GPa) = 46.38954 73.82272 328.45366
#
# Poissons Ratio (x) = 0.83700 0.21304
# Poissons Ratio (y) = 0.52596 0.30172
# Poissons Ratio (z) = 0.03009 0.06781
#
# Static dielectric constant tensor:
#      x y z
#    x 2.125430 0.000000 0.000000 
#    y 0.000000 2.159940 0.000000 
#    z 0.000000 0.000000 2.167700 
# 
# From -- ./inp_files/12813.got.cif
#   From: 2010.05.17/outbox.cif.g08.bks.cpg/sg55_7_cif.got.tgz:12813.got - 2010.06.03 13:27:54.
