data_PCOD9425528
_publ_section_title
;
Structure prediction by ZEFSAII (Michael W. Deem and Ramdas Pophale) SiO2 
 PCOD9425528
Probable space group: P B A M
;
_chemical_formula_sum "Si O2"
_cell_formula_units_Z 64
_cell_length_a 15.424847
_cell_length_b 9.067951
_cell_length_c 18.878170
_cell_angle_alpha 90.000000
_cell_angle_beta 90.000000
_cell_angle_gamma 90.000000
_cell_volume 2640.522803
_symmetry_space_group_name_H-M "P B A M"
_symmetry_group_IT_number 55
_symmetry_cell_setting 'orthorhombic'
loop_
_space_group_symop_operation_xyz
x,y,z
-x,-y,z
1/2+x,1/2-y,-z
1/2-x,1/2+y,-z
-x,-y,-z
x,y,-z
1/2-x,1/2+y,z
1/2+x,1/2-y,z
loop_
_atom_site_type_symbol
_atom_site_label
_atom_site_fract_x
_atom_site_fract_y
_atom_site_fract_z
Si Si1 0.298197 0.251213 0.225034
Si Si2 0.129963 0.995837 0.669160
Si Si3 0.663321 0.242252 0.580016
Si Si4 0.410697 0.736126 0.772116
Si Si5 0.545195 0.756192 0.420505
Si Si6 0.619925 0.000051 0.683529
Si Si7 0.124618 0.205522 0.921565
Si Si8 0.798585 0.123023 0.921609
O O1 0.326617 0.384512 0.275573
O O2 0.194385 0.241053 0.222602
O O3 0.333142 0.101806 0.258880
O O4 0.332253 0.288835 0.146569
O O5 0.082496 0.893250 0.612257
O O6 0.187432 0.111851 0.623691
O O7 0.071705 0.102259 0.719210
O O8 0.697832 0.231686 0.500000
O O9 0.558541 0.250196 0.575321
O O10 0.677204 0.105198 0.631952
O O11 0.437521 0.719174 0.853491
O O12 0.434980 0.883379 0.730569
O O13 0.578444 0.779170 0.500000
O O14 0.574363 0.889870 0.371101
O O15 0.195677 0.337773 0.920957
O O16 0.177270 0.049703 0.913931
O O17 0.083886 0.202834 0.000000
O O18 0.829562 0.169814 0.000000
#
# Coordination Sequence:
#
# PCOD9425528 Si02
#       8
#     8   8   8   8   8   8   8   8
#     4  10  19  32  48  70 105 146 169 196 232 280
#     4  10  19  31  51  78 100 127 168 200 241 306
#     4  10  20  36  57  77  96 118 151 211 278 312
#     4  10  19  32  48  70 105 146 169 196 232 280
#     4  10  20  36  57  77  96 118 151 211 278 312
#     4  10  21  31  51  74 100 129 168 196 243 310
#     4   9  17  28  45  70 100 135 173 209 242 276
#     4   9  17  28  45  70 100 135 173 209 242 276
#
# _framework density 24.237625000000001
#
# number of rings (size 3 to 8) (size 9 to 14) (size 15 to 20)
#    0.000    2.250    1.250    2.250    5.250    2.000 
#    0.000    0.000    0.000   52.500    0.000    0.000 
#    0.000   70.000    0.000    0.000    0.000    0.000 
#
# Total GULP energy -357888.889197 kJ/mol
# GULP energy per Si atom -5592.013894 kJ/mol
# Density = 2.418246 g / cm^3
# Si number density = 24.237625 Si / 1000 Ang^3
#
#
#
# Elastic Constant Matrix: (Units=GPa)
#
#
# Indices 1 2 3 4 5 6 
#
# 1 36.6800 25.0759 21.8873 0.0000 0.0000 0.0000
# 2 25.0759 160.7709 68.2122 0.0000 0.0000 0.0000
# 3 21.8873 68.2122 250.4657 0.0000 0.0000 0.0000
# 4 0.0000 0.0000 0.0000 25.0664 0.0000 0.0000
# 5 0.0000 0.0000 0.0000 0.0000 12.5891 0.0000
# 6 0.0000 0.0000 0.0000 0.0000 0.0000 27.9476
#
#
#
# Elastic Compliance Matrix: (Units=1/GPa)
#
#
# Indices 1 2 3 4 5 6 
#
# 1 0.031058 -0.004175 -0.001577 0.000000 0.000000 0.000000
# 2 -0.004175 0.007594 -0.001703 0.000000 0.000000 0.000000
# 3 -0.001577 -0.001703 0.004594 0.000000 0.000000 0.000000
# 4 0.000000 0.000000 0.000000 0.039894 0.000000 0.000000
# 5 0.000000 0.000000 0.000000 0.000000 0.079434 0.000000
# 6 0.000000 0.000000 0.000000 0.000000 0.000000 0.035781
#
#
# Mechanical properties :
#
#
# Convention : Reuss Voigt Hill
#
# Bulk Modulus (GPa) = 35.29154 75.36306 55.32730
# Shear Modulus (GPa) = 22.45056 35.30335 28.87696
#
# Velocity S-wave (km/s) = 3.04677 3.82062 3.45543
# Velocity P-wave (km/s) = 5.19320 7.11504 6.22869
#
# Compressibility (1/GPa) = 0.02833540
#
# Stress axis : x y z
#
# Youngs Moduli (GPa) = 32.19776 131.68448 217.66348
#
# Poissons Ratio (x) = 0.54980 0.34326
# Poissons Ratio (y) = 0.13443 0.37074
# Poissons Ratio (z) = 0.05078 0.22430
#
# Static dielectric constant tensor:
#      x y z
#    x 1.974000 0.000000 0.000000 
#    y 0.000000 1.897590 0.000000 
#    z 0.000000 0.000000 1.963480 
# 
# From -- ./inp_files/22110.got.cif
#   From: 2010.05.17/outbox.cif.g08.bks.cpg/sg55_12_cif.got.tgz:22110.got - 2010.06.03 13:27:54.
