data_PCOD9425353
_publ_section_title
;
Structure prediction by ZEFSAII (Michael W. Deem and Ramdas Pophale) SiO2 
 PCOD9425353
Probable space group: P B A M
;
_chemical_formula_sum "Si O2"
_cell_formula_units_Z 36
_cell_length_a 5.044590
_cell_length_b 26.423229
_cell_length_c 15.932088
_cell_angle_alpha 90.000000
_cell_angle_beta 90.000000
_cell_angle_gamma 90.000000
_cell_volume 2123.657422
_symmetry_space_group_name_H-M "P B A M"
_symmetry_group_IT_number 55
_symmetry_cell_setting 'orthorhombic'
loop_
_space_group_symop_operation_xyz
x,y,z
-x,-y,z
1/2+x,1/2-y,-z
1/2-x,1/2+y,-z
-x,-y,-z
x,y,-z
1/2-x,1/2+y,z
1/2+x,1/2-y,z
loop_
_atom_site_type_symbol
_atom_site_label
_atom_site_fract_x
_atom_site_fract_y
_atom_site_fract_z
Si Si1 0.104323 0.857262 0.595542
Si Si2 0.555698 0.214851 0.500000
Si Si3 0.943353 0.784953 0.091129
Si Si4 0.736445 0.033417 0.598245
Si Si5 0.154998 0.213325 0.727740
O O1 0.990749 0.865936 0.500000
O O2 0.353925 0.820497 0.576862
O O3 0.200443 0.910712 0.631366
O O4 0.910963 0.827405 0.656736
O O5 0.767095 0.261288 0.500000
O O6 0.240226 0.762771 0.092760
O O7 0.881061 0.811127 0.179461
O O8 0.902020 0.810325 0.000000
O O9 0.664214 0.042750 0.500000
O O10 0.500000 0.000000 0.635871
O O11 0.000000 0.000000 0.600729
O O12 0.932288 0.257544 0.721826
#
# Coordination Sequence:
#
# PCOD9425353 Si02
#       5
#     8   4   8   8   8
#     4   9  20  32  44  64  82 118 141 176 207 251
#     4  10  20  30  40  58  84 112 138 160 192 240
#     4   8  14  25  40  57  79 109 140 169 200 232
#     4   9  18  32  46  60  76 100 140 183 217 243
#     4  10  19  29  42  62  89 116 142 169 199 248
#
# _framework density 16.951888
#
# number of rings (size 3 to 8) (size 9 to 14) (size 15 to 20)
#    0.667    2.222    0.000    1.333    0.000    3.556 
#    0.000    0.000    0.000    0.000    0.000    0.000 
#    0.000    1.778    0.000    0.000    0.000    0.444 
#
# Total GULP energy -200448.148617 kJ/mol
# GULP energy per Si atom -5568.004128 kJ/mol
# Density = 1.691330 g / cm^3
# Si number density = 16.951888 Si / 1000 Ang^3
#
#
#
# Elastic Constant Matrix: (Units=GPa)
#
#
# Indices 1 2 3 4 5 6 
#
# 1 52.6874 1.3774 -1.3699 0.0000 0.0000 0.0000
# 2 1.3774 67.9036 9.3478 0.0000 0.0000 0.0000
# 3 -1.3699 9.3478 85.8106 0.0000 0.0000 0.0000
# 4 0.0000 0.0000 0.0000 3.6052 0.0000 0.0000
# 5 0.0000 0.0000 0.0000 0.0000 15.7448 0.0000
# 6 0.0000 0.0000 0.0000 0.0000 0.0000 6.8433
#
#
#
# Elastic Compliance Matrix: (Units=1/GPa)
#
#
# Indices 1 2 3 4 5 6 
#
# 1 0.019000 -0.000434 0.000351 0.000000 0.000000 0.000000
# 2 -0.000434 0.014961 -0.001637 0.000000 0.000000 0.000000
# 3 0.000351 -0.001637 0.011837 0.000000 0.000000 0.000000
# 4 0.000000 0.000000 0.000000 0.277373 0.000000 0.000000
# 5 0.000000 0.000000 0.000000 0.000000 0.063513 0.000000
# 6 0.000000 0.000000 0.000000 0.000000 0.000000 0.146129
#
#
# Mechanical properties :
#
#
# Convention : Reuss Voigt Hill
#
# Bulk Modulus (GPa) = 23.60770 25.01246 24.31008
# Shear Modulus (GPa) = 9.08474 18.37508 13.72991
#
# Velocity S-wave (km/s) = 2.31749 3.29592 2.84902
# Velocity P-wave (km/s) = 4.59538 5.41028 5.01940
#
# Compressibility (1/GPa) = 0.04235906
#
# Stress axis : x y z
#
# Youngs Moduli (GPa) = 52.63071 66.84100 84.47754
#
# Poissons Ratio (x) = 0.02899 -0.02961
# Poissons Ratio (y) = 0.02282 0.13826
# Poissons Ratio (z) = -0.01845 0.10940
#
# Static dielectric constant tensor:
#      x y z
#    x 1.617530 0.000000 0.000000 
#    y 0.000000 1.555400 0.000000 
#    z 0.000000 0.000000 1.670010 
# 
# From -- ./inp_files/20426.got.cif
#   From: 2010.05.17/outbox.cif.g08.bks.cpg/sg55_11_cif.got.tgz:20426.got - 2010.06.03 13:27:54.
