data_PCOD9425700
_publ_section_title
;
Structure prediction by ZEFSAII (Michael W. Deem and Ramdas Pophale) SiO2 
 PCOD9425700
Probable space group: P B A M
;
_chemical_formula_sum "Si O2"
_cell_formula_units_Z 56
_cell_length_a 25.143412
_cell_length_b 14.624923
_cell_length_c 8.910061
_cell_angle_alpha 90.000000
_cell_angle_beta 90.000000
_cell_angle_gamma 90.000000
_cell_volume 3276.411769
_symmetry_space_group_name_H-M "P B A M"
_symmetry_group_IT_number 55
_symmetry_cell_setting 'orthorhombic'
loop_
_space_group_symop_operation_xyz
x,y,z
-x,-y,z
1/2+x,1/2-y,-z
1/2-x,1/2+y,-z
-x,-y,-z
x,y,-z
1/2-x,1/2+y,z
1/2+x,1/2-y,z
loop_
_atom_site_type_symbol
_atom_site_label
_atom_site_fract_x
_atom_site_fract_y
_atom_site_fract_z
Si Si1 0.896581 0.192091 0.675010
Si Si2 0.000429 0.107575 0.820457
Si Si3 0.108222 0.166439 0.673938
Si Si4 0.706997 0.230868 0.180420
Si Si5 0.824388 0.014820 0.667418
Si Si6 0.809878 0.333694 0.320100
Si Si7 0.282278 0.981943 0.824602
O O1 0.912219 0.202818 0.500000
O O2 0.853165 0.111137 0.681621
O O3 0.863792 0.280945 0.725643
O O4 0.947115 0.158513 0.767537
O O5 0.051144 0.158916 0.750985
O O6 0.995899 0.891867 0.000000
O O7 0.000000 0.000000 0.771728
O O8 0.103780 0.194725 0.500000
O O9 0.152412 0.226477 0.757993
O O10 0.132184 0.064069 0.676808
O O11 0.757936 0.283413 0.250322
O O12 0.707987 0.123165 0.220380
O O13 0.709877 0.238995 0.000000
O O14 0.799369 0.008777 0.500000
O O15 0.780056 0.002052 0.791983
O O16 0.805271 0.327297 0.500000
O O17 0.810941 0.438340 0.267134
O O18 0.294189 0.991892 0.000000
#
# Coordination Sequence:
#
# PCOD9425700 Si02
#       7
#     8   8   8   8   8   8   8
#     4  10  21  37  56  80 112 149 189 230 273 329
#     4  11  23  36  55  83 115 150 185 227 279 335
#     4  11  22  36  57  82 112 152 189 229 278 329
#     4  11  23  37  55  82 115 150 188 231 282 336
#     4  10  19  32  53  81 114 149 187 227 269 330
#     4  11  22  36  57  83 112 149 190 233 280 332
#     4  11  23  36  54  81 116 153 186 230 282 336
#
# _framework density 17.091868000000002
#
# number of rings (size 3 to 8) (size 9 to 14) (size 15 to 20)
#    0.000    1.286    4.286    2.143    0.000    4.571 
#    0.000    0.000    0.000    0.857    0.000    6.000 
#    0.000    0.000    0.000    0.000    0.000    0.000 
#
# Total GULP energy -312644.830996 kJ/mol
# GULP energy per Si atom -5582.943411 kJ/mol
# Density = 1.705297 g / cm^3
# Si number density = 17.091868 Si / 1000 Ang^3
#
#
#
# Elastic Constant Matrix: (Units=GPa)
#
#
# Indices 1 2 3 4 5 6 
#
# 1 71.9963 10.9269 24.7117 0.0000 0.0000 0.0000
# 2 10.9269 61.5092 24.5799 0.0000 0.0000 0.0000
# 3 24.7117 24.5799 52.0893 0.0000 0.0000 0.0000
# 4 0.0000 0.0000 0.0000 21.1381 0.0000 0.0000
# 5 0.0000 0.0000 0.0000 0.0000 151.5427 0.0000
# 6 0.0000 0.0000 0.0000 0.0000 0.0000 26.3671
#
#
#
# Elastic Compliance Matrix: (Units=1/GPa)
#
#
# Indices 1 2 3 4 5 6 
#
# 1 0.016594 0.000244 -0.007988 0.000000 0.000000 0.000000
# 2 0.000244 0.020039 -0.009572 0.000000 0.000000 0.000000
# 3 -0.007988 -0.009572 0.027504 0.000000 0.000000 0.000000
# 4 0.000000 0.000000 0.000000 0.047308 0.000000 0.000000
# 5 0.000000 0.000000 0.000000 0.000000 0.006599 0.000000
# 6 0.000000 0.000000 0.000000 0.000000 0.000000 0.037926
#
#
# Mechanical properties :
#
#
# Convention : Reuss Voigt Hill
#
# Bulk Modulus (GPa) = 33.89074 34.00352 33.94713
# Shear Modulus (GPa) = 24.94547 48.16800 36.55673
#
# Velocity S-wave (km/s) = 3.82448 5.31441 4.62977
# Velocity P-wave (km/s) = 6.27485 7.58914 6.96308
#
# Compressibility (1/GPa) = 0.02950658
#
# Stress axis : x y z
#
# Youngs Moduli (GPa) = 60.26198 49.90151 36.35825
#
# Poissons Ratio (x) = -0.01218 0.29042
# Poissons Ratio (y) = -0.01471 0.34802
# Poissons Ratio (z) = 0.48135 0.47766
#
# Static dielectric constant tensor:
#      x y z
#    x 1.549310 0.000000 0.000000 
#    y 0.000000 1.590110 0.000000 
#    z 0.000000 0.000000 1.587370 
# 
# From -- ./inp_files/8663.got.cif
#   From: 2010.05.17/outbox.cif.g08.bks.cpg/sg55_5_cif.got.tgz:8663.got - 2010.06.03 13:27:54.
