data_PCOD9425562
_publ_section_title
;
Structure prediction by ZEFSAII (Michael W. Deem and Ramdas Pophale) SiO2 
 PCOD9425562
Probable space group: P B A M
;
_chemical_formula_sum "Si O2"
_cell_formula_units_Z 56
_cell_length_a 11.973069
_cell_length_b 15.625613
_cell_length_c 13.960426
_cell_angle_alpha 90.000000
_cell_angle_beta 90.000000
_cell_angle_gamma 90.000000
_cell_volume 2611.807834
_symmetry_space_group_name_H-M "P B A M"
_symmetry_group_IT_number 55
_symmetry_cell_setting 'orthorhombic'
loop_
_space_group_symop_operation_xyz
x,y,z
-x,-y,z
1/2+x,1/2-y,-z
1/2-x,1/2+y,-z
-x,-y,-z
x,y,-z
1/2-x,1/2+y,z
1/2+x,1/2-y,z
loop_
_atom_site_type_symbol
_atom_site_label
_atom_site_fract_x
_atom_site_fract_y
_atom_site_fract_z
Si Si1 0.935032 0.590665 0.111297
Si Si2 0.416060 0.930266 0.393685
Si Si3 0.741902 0.539184 0.251913
Si Si4 0.479816 0.735321 0.391043
Si Si5 0.306479 0.651269 0.257484
Si Si6 0.406734 0.241754 0.191975
Si Si7 0.524878 0.589701 0.849395
O O1 0.817654 0.570855 0.163210
O O2 0.000000 0.500000 0.115034
O O3 0.008212 0.665162 0.162807
O O4 0.920241 0.613843 0.000000
O O5 0.392936 0.963028 0.500000
O O6 0.300105 0.916076 0.340542
O O7 0.471283 0.837821 0.397606
O O8 0.500000 0.000000 0.347058
O O9 0.754682 0.438642 0.275264
O O10 0.613411 0.557436 0.230867
O O11 0.505396 0.704390 0.500000
O O12 0.364488 0.693569 0.350463
O O13 0.561918 0.725480 0.299842
O O14 0.219263 0.710405 0.202546
O O15 0.407471 0.625281 0.187876
O O16 0.418536 0.321371 0.118927
O O17 0.500000 0.500000 0.901834
#
# Coordination Sequence:
#
# PCOD9425562 Si02
#       7
#     8   8   8   8   8   8   8
#     4  11  23  40  67 105 132 160 222 295 353 404
#     4  10  19  31  54  89 123 162 213 265 320 386
#     4  11  19  39  63  87 134 173 208 275 335 404
#     4  10  21  35  54  89 130 164 215 270 320 392
#     4  10  21  36  60  90 121 176 219 260 331 401
#     4  11  20  38  67  88 129 175 218 274 341 405
#     4   9  22  38  61  92 126 172 220 259 327 408
#
# _framework density 21.441088000000001
#
# number of rings (size 3 to 8) (size 9 to 14) (size 15 to 20)
#    0.000    1.714    2.857    2.143    2.000    1.143 
#    0.000    5.000    0.000   24.429    0.000    0.000 
#    0.000    0.000    0.000    0.000    0.000    0.000 
#
# Total GULP energy -311780.639636 kJ/mol
# GULP energy per Si atom -5567.511422 kJ/mol
# Density = 2.139229 g / cm^3
# Si number density = 21.441088 Si / 1000 Ang^3
#
#
#
# Elastic Constant Matrix: (Units=GPa)
#
#
# Indices 1 2 3 4 5 6 
#
# 1 111.8164 29.3036 38.5562 0.0000 0.0000 0.0000
# 2 29.3036 132.6634 22.4703 0.0000 0.0000 0.0000
# 3 38.5562 22.4703 116.2858 0.0000 0.0000 0.0000
# 4 0.0000 0.0000 0.0000 -22.0345 0.0000 0.0000
# 5 0.0000 0.0000 0.0000 0.0000 -38.7196 0.0000
# 6 0.0000 0.0000 0.0000 0.0000 0.0000 41.7519
#
#
#
# Elastic Compliance Matrix: (Units=1/GPa)
#
#
# Indices 1 2 3 4 5 6 
#
# 1 0.010492 -0.001787 -0.003133 0.000000 0.000000 0.000000
# 2 -0.001787 0.008097 -0.000972 0.000000 0.000000 0.000000
# 3 -0.003133 -0.000972 0.009826 0.000000 0.000000 0.000000
# 4 0.000000 0.000000 0.000000 -0.045383 0.000000 0.000000
# 5 0.000000 0.000000 0.000000 0.000000 -0.025827 0.000000
# 6 0.000000 0.000000 0.000000 0.000000 0.000000 0.023951
#
#
# Mechanical properties :
#
#
# Convention : Reuss Voigt Hill
#
# Bulk Modulus (GPa) = 60.13044 60.15842 60.14443
# Shear Modulus (GPa) = -3300.13621 14.22859 -1642.95381
#
# Velocity S-wave (km/s) = -39.27475 2.57886 -27.71151
# Velocity P-wave (km/s) = 45.03964 6.08160 31.55617
#
# Compressibility (1/GPa) = 0.01663051
#
# Stress axis : x y z
#
# Youngs Moduli (GPa) = 95.31097 123.49912 101.76746
#
# Poissons Ratio (x) = 0.22067 0.31889
# Poissons Ratio (y) = 0.17030 0.09894
# Poissons Ratio (z) = 0.29866 0.12007
#
# Static dielectric constant tensor:
#      x y z
#    x 1.802190 0.000000 0.000000 
#    y 0.000000 1.894630 0.000000 
#    z 0.000000 0.000000 1.818530 
# 
# From -- ./inp_files/18393.got.cif
#   From: 2010.05.17/outbox.cif.g08.bks.cpg/sg55_10_cif.got.tgz:18393.got - 2010.06.03 13:27:54.
