data_PCOD9425715
_publ_section_title
;
Structure prediction by ZEFSAII (Michael W. Deem and Ramdas Pophale) SiO2 
 PCOD9425715
Probable space group: P B A M
;
_chemical_formula_sum "Si O2"
_cell_formula_units_Z 48
_cell_length_a 17.083599
_cell_length_b 18.558510
_cell_length_c 8.395622
_cell_angle_alpha 90.000000
_cell_angle_beta 90.000000
_cell_angle_gamma 90.000000
_cell_volume 2661.799572
_symmetry_space_group_name_H-M "P B A M"
_symmetry_group_IT_number 55
_symmetry_cell_setting 'orthorhombic'
loop_
_space_group_symop_operation_xyz
x,y,z
-x,-y,z
1/2+x,1/2-y,-z
1/2-x,1/2+y,-z
-x,-y,-z
x,y,-z
1/2-x,1/2+y,z
1/2+x,1/2-y,z
loop_
_atom_site_type_symbol
_atom_site_label
_atom_site_fract_x
_atom_site_fract_y
_atom_site_fract_z
Si Si1 0.822991 0.405530 0.190488
Si Si2 0.169039 0.166475 0.692109
Si Si3 0.587357 0.480270 0.307306
Si Si4 0.992944 0.417402 0.692160
Si Si5 0.741345 0.553825 0.190581
Si Si6 0.856200 0.671717 0.692523
O O1 0.756640 0.352195 0.253785
O O2 0.795374 0.485790 0.243978
O O3 0.908959 0.389083 0.253523
O O4 0.823021 0.404689 0.000000
O O5 0.166671 0.166519 0.500000
O O6 0.114911 0.099572 0.746442
O O7 0.145100 0.245722 0.748290
O O8 0.500000 0.500000 0.253346
O O9 0.587700 0.480836 0.500000
O O10 0.654291 0.535390 0.250090
O O11 0.994779 0.418154 0.500000
O O12 0.066295 0.370414 0.748847
O O13 0.000000 0.500000 0.749017
O O14 0.780784 0.626193 0.254384
O O15 0.741124 0.555236 0.000000
O O16 0.857457 0.672124 0.500000
#
# Coordination Sequence:
#
# PCOD9425715 Si02
#       6
#     8   8   8   8   8   8
#     4  10  20  34  53  77 106 141 177 212 260 320
#     4   9  19  36  56  76 103 139 178 222 268 314
#     4   9  18  35  58  80 103 136 182 227 265 312
#     4  10  19  32  54  81 108 139 177 220 264 313
#     4  10  20  33  53  78 106 140 175 215 264 321
#     4  10  20  35  54  78 107 140 179 223 269 316
#
# _framework density 18.032914000000002
#
# number of rings (size 3 to 8) (size 9 to 14) (size 15 to 20)
#    0.000    2.333    1.667    1.000    0.000    3.333 
#    3.000    0.000    0.000    0.000    0.000    0.000 
#    0.000    0.000    0.000    0.000    0.000    0.000 
#
# Total GULP energy -267795.960940 kJ/mol
# GULP energy per Si atom -5579.082520 kJ/mol
# Density = 1.799187 g / cm^3
# Si number density = 18.032914 Si / 1000 Ang^3
#
#
#
# Elastic Constant Matrix: (Units=GPa)
#
#
# Indices 1 2 3 4 5 6 
#
# 1 170.7049 92.1136 13.1164 0.0000 0.0000 0.0000
# 2 92.1136 133.4507 18.0739 0.0000 0.0000 0.0000
# 3 13.1164 18.0739 3.7695 0.0000 0.0000 0.0000
# 4 0.0000 0.0000 0.0000 2.6410 0.0000 0.0000
# 5 0.0000 0.0000 0.0000 0.0000 -10.3703 0.0000
# 6 0.0000 0.0000 0.0000 0.0000 0.0000 22.3483
#
#
#
# Elastic Compliance Matrix: (Units=1/GPa)
#
#
# Indices 1 2 3 4 5 6 
#
# 1 0.009362 -0.005847 -0.004540 0.000000 0.000000 0.000000
# 2 -0.005847 0.025024 -0.099641 0.000000 0.000000 0.000000
# 3 -0.004540 -0.099641 0.758844 0.000000 0.000000 0.000000
# 4 0.000000 0.000000 0.000000 0.378650 0.000000 0.000000
# 5 0.000000 0.000000 0.000000 0.000000 -0.096429 0.000000
# 6 0.000000 0.000000 0.000000 0.000000 0.000000 0.044746
#
#
# Mechanical properties :
#
#
# Convention : Reuss Voigt Hill
#
# Bulk Modulus (GPa) = 1.74467 61.61477 31.67972
# Shear Modulus (GPa) = 3.26518 15.23187 9.24852
#
# Velocity S-wave (km/s) = 1.34707 2.90947 2.26712
# Velocity P-wave (km/s) = 1.84094 6.74751 4.94560
#
# Compressibility (1/GPa) = 0.57317463
#
# Stress axis : x y z
#
# Youngs Moduli (GPa) = 106.81317 39.96111 1.31779
#
# Poissons Ratio (x) = 0.23366 0.00598
# Poissons Ratio (y) = 0.62457 0.13131
# Poissons Ratio (z) = 0.48494 3.98175
#
# Static dielectric constant tensor:
#      x y z
#    x 1.596050 0.000000 0.000000 
#    y 0.000000 1.621180 0.000000 
#    z 0.000000 0.000000 1.606650 
# 
# From -- ./inp_files/5541.got.cif
#   From: 2010.05.17/outbox.cif.g08.bks.cpg/sg55_3_cif.got.tgz:5541.got - 2010.06.03 13:27:54.
