data_PCOD9425767
_publ_section_title
;
Structure prediction by ZEFSAII (Michael W. Deem and Ramdas Pophale) SiO2 
 PCOD9425767
Probable space group: P B A M
;
_chemical_formula_sum "Si O2"
_cell_formula_units_Z 48
_cell_length_a 29.350454
_cell_length_b 8.438785
_cell_length_c 7.403665
_cell_angle_alpha 90.000000
_cell_angle_beta 90.000000
_cell_angle_gamma 90.000000
_cell_volume 1833.755820
_symmetry_space_group_name_H-M "P B A M"
_symmetry_group_IT_number 55
_symmetry_cell_setting 'orthorhombic'
loop_
_space_group_symop_operation_xyz
x,y,z
-x,-y,z
1/2+x,1/2-y,-z
1/2-x,1/2+y,-z
-x,-y,-z
x,y,-z
1/2-x,1/2+y,z
1/2+x,1/2-y,z
loop_
_atom_site_type_symbol
_atom_site_label
_atom_site_fract_x
_atom_site_fract_y
_atom_site_fract_z
Si Si1 0.570394 0.045207 0.205749
Si Si2 0.770206 0.562384 0.721165
Si Si3 0.487925 0.255385 0.703995
Si Si4 0.149161 0.235802 0.294270
Si Si5 0.404311 0.431857 0.278676
Si Si6 0.683731 0.738317 0.280736
O O1 0.533013 0.187096 0.206215
O O2 0.615949 0.111779 0.294006
O O3 0.546033 0.897203 0.299306
O O4 0.579635 0.001976 0.000000
O O5 0.771294 0.561245 0.500000
O O6 0.803139 0.705331 0.782510
O O7 0.793158 0.400082 0.781713
O O8 0.718432 0.597877 0.772286
O O9 0.501562 0.297575 0.500000
O O10 0.455266 0.391187 0.782269
O O11 0.159067 0.185936 0.500000
O O12 0.119153 0.094034 0.215886
O O13 0.407206 0.433866 0.500000
O O14 0.367514 0.298577 0.224590
O O15 0.682989 0.742965 0.500000
#
# Coordination Sequence:
#
# PCOD9425767 Si02
#       6
#     8   8   8   8   8   8
#     4  11  22  36  53  76 103 135 172 215 260 310
#     4   9  16  25  44  71 105 139 169 207 255 303
#     4  10  19  35  57  79 102 134 172 215 260 311
#     4  10  19  33  51  75 104 138 174 212 254 303
#     4   9  18  30  49  76 106 134 170 214 259 306
#     4   9  15  25  41  71 107 136 165 207 257 303
#
# _framework density 26.175785999999999
#
# number of rings (size 3 to 8) (size 9 to 14) (size 15 to 20)
#    0.000    2.333    0.000    5.000    0.000    7.333 
#    0.000    5.000    0.000    0.000    0.000   11.667 
#    0.000    0.000    0.000    0.000    0.000    0.000 
#
# Total GULP energy -268570.957667 kJ/mol
# GULP energy per Si atom -5595.228285 kJ/mol
# Density = 2.611621 g / cm^3
# Si number density = 26.175786 Si / 1000 Ang^3
#
#
#
# Elastic Constant Matrix: (Units=GPa)
#
#
# Indices 1 2 3 4 5 6 
#
# 1 136.8278 19.2651 -6.1374 0.0000 0.0000 0.0000
# 2 19.2651 77.8880 -1.0758 0.0000 0.0000 0.0000
# 3 -6.1374 -1.0758 99.9216 0.0000 0.0000 0.0000
# 4 0.0000 0.0000 0.0000 -53.6074 0.0000 0.0000
# 5 0.0000 0.0000 0.0000 0.0000 47.4565 0.0000
# 6 0.0000 0.0000 0.0000 0.0000 0.0000 54.1041
#
#
#
# Elastic Compliance Matrix: (Units=1/GPa)
#
#
# Indices 1 2 3 4 5 6 
#
# 1 0.007592 -0.001872 0.000446 0.000000 0.000000 0.000000
# 2 -0.001872 0.013302 0.000028 0.000000 0.000000 0.000000
# 3 0.000446 0.000028 0.010036 0.000000 0.000000 0.000000
# 4 0.000000 0.000000 0.000000 -0.018654 0.000000 0.000000
# 5 0.000000 0.000000 0.000000 0.000000 0.021072 0.000000
# 6 0.000000 0.000000 0.000000 0.000000 0.000000 0.018483
#
#
# Mechanical properties :
#
#
# Convention : Reuss Voigt Hill
#
# Bulk Modulus (GPa) = 35.54248 37.63790 36.59019
# Shear Modulus (GPa) = 78.12081 29.76302 53.94191
#
# Velocity S-wave (km/s) = 5.46896 3.37567 4.54448
# Velocity P-wave (km/s) = 7.31349 5.44092 6.44557
#
# Compressibility (1/GPa) = 0.02813535
#
# Stress axis : x y z
#
# Youngs Moduli (GPa) = 131.71764 75.17506 99.64575
#
# Poissons Ratio (x) = 0.14070 -0.04446
# Poissons Ratio (y) = 0.24653 -0.00282
# Poissons Ratio (z) = -0.05877 -0.00212
#
# Static dielectric constant tensor:
#      x y z
#    x 1.969240 0.000000 0.000000 
#    y 0.000000 2.103820 0.000000 
#    z 0.000000 0.000000 2.003420 
# 
# From -- ./inp_files/10528.got.cif
#   From: 2010.05.17/outbox.cif.g08.bks.cpg/sg55_6_cif.got.tgz:10528.got - 2010.06.03 13:27:54.
