data_PCOD9425785
_publ_section_title
;
Structure prediction by ZEFSAII (Michael W. Deem and Ramdas Pophale) SiO2 
 PCOD9425785
Probable space group: P B A M
;
_chemical_formula_sum "Si O2"
_cell_formula_units_Z 48
_cell_length_a 17.040922
_cell_length_b 18.719626
_cell_length_c 7.534063
_cell_angle_alpha 90.000000
_cell_angle_beta 90.000000
_cell_angle_gamma 90.000000
_cell_volume 2403.363735
_symmetry_space_group_name_H-M "P B A M"
_symmetry_group_IT_number 55
_symmetry_cell_setting 'orthorhombic'
loop_
_space_group_symop_operation_xyz
x,y,z
-x,-y,z
1/2+x,1/2-y,-z
1/2-x,1/2+y,-z
-x,-y,-z
x,y,-z
1/2-x,1/2+y,z
1/2+x,1/2-y,z
loop_
_atom_site_type_symbol
_atom_site_label
_atom_site_fract_x
_atom_site_fract_y
_atom_site_fract_z
Si Si1 0.853362 0.829508 0.289603
Si Si2 0.490667 0.417908 0.214817
Si Si3 0.318945 0.393843 0.207027
Si Si4 0.254772 0.045599 0.715325
Si Si5 0.156711 0.328508 0.704369
Si Si6 0.585858 0.023881 0.717308
O O1 0.837847 0.822181 0.500000
O O2 0.785501 0.882046 0.219368
O O3 0.855061 0.749516 0.214293
O O4 0.935385 0.870425 0.267108
O O5 0.500000 0.500000 0.276042
O O6 0.407193 0.386774 0.277279
O O7 0.487639 0.419943 0.000000
O O8 0.295953 0.477310 0.224941
O O9 0.248545 0.349705 0.293461
O O10 0.318302 0.374692 0.000000
O O11 0.252739 0.045279 0.500000
O O12 0.344023 0.029625 0.770128
O O13 0.130143 0.324157 0.500000
O O14 0.111120 0.397083 0.780737
O O15 0.586089 0.025110 0.500000
O O16 0.500000 0.000000 0.775078
#
# Coordination Sequence:
#
# PCOD9425785 Si02
#       6
#     8   8   8   8   8   8
#     4  10  20  33  50  77 106 133 167 211 265 311
#     4  10  20  34  52  76 105 137 174 214 253 306
#     4  10  19  33  53  74  97 135 176 204 248 305
#     4   9  17  30  50  73  98 128 164 207 252 304
#     4   9  19  35  51  74 105 132 167 215 261 305
#     4   8  14  28  50  70  91 125 166 203 243 295
#
# _framework density 19.972007999999999
#
# number of rings (size 3 to 8) (size 9 to 14) (size 15 to 20)
#    0.000    2.667    1.667    1.500    0.000    2.333 
#    3.000    0.000    0.000    8.000    0.000    0.000 
#    0.000    0.000    0.000    0.000    0.000    0.000 
#
# Total GULP energy -267729.609376 kJ/mol
# GULP energy per Si atom -5577.700195 kJ/mol
# Density = 1.992655 g / cm^3
# Si number density = 19.972008 Si / 1000 Ang^3
#
#
#
# Elastic Constant Matrix: (Units=GPa)
#
#
# Indices 1 2 3 4 5 6 
#
# 1 160.2696 95.9152 -8.0068 0.0000 0.0000 0.0000
# 2 95.9152 157.6708 -1.3752 0.0000 0.0000 0.0000
# 3 -8.0068 -1.3752 48.5391 0.0000 0.0000 0.0000
# 4 0.0000 0.0000 0.0000 15.3168 0.0000 0.0000
# 5 0.0000 0.0000 0.0000 0.0000 41.1601 0.0000
# 6 0.0000 0.0000 0.0000 0.0000 0.0000 19.7628
#
#
#
# Elastic Compliance Matrix: (Units=1/GPa)
#
#
# Indices 1 2 3 4 5 6 
#
# 1 0.009914 -0.006018 0.001465 0.000000 0.000000 0.000000
# 2 -0.006018 0.009997 -0.000710 0.000000 0.000000 0.000000
# 3 0.001465 -0.000710 0.020824 0.000000 0.000000 0.000000
# 4 0.000000 0.000000 0.000000 0.065288 0.000000 0.000000
# 5 0.000000 0.000000 0.000000 0.000000 0.024295 0.000000
# 6 0.000000 0.000000 0.000000 0.000000 0.000000 0.050600
#
#
# Mechanical properties :
#
#
# Convention : Reuss Voigt Hill
#
# Bulk Modulus (GPa) = 33.10248 59.94953 46.52601
# Shear Modulus (GPa) = 24.81208 33.91101 29.36155
#
# Velocity S-wave (km/s) = 3.52851 4.12506 3.83839
# Velocity P-wave (km/s) = 5.76289 7.26430 6.55672
#
# Compressibility (1/GPa) = 0.03020921
#
# Stress axis : x y z
#
# Youngs Moduli (GPa) = 100.86246 100.02677 48.02263
#
# Poissons Ratio (x) = 0.60201 -0.07035
# Poissons Ratio (y) = 0.60704 0.03407
# Poissons Ratio (z) = -0.14776 0.07097
#
# Static dielectric constant tensor:
#      x y z
#    x 1.686010 0.000000 0.000000 
#    y 0.000000 1.696090 0.000000 
#    z 0.000000 0.000000 1.737980 
# 
# From -- ./inp_files/5543.got.cif
#   From: 2010.05.17/outbox.cif.g08.bks.cpg/sg55_3_cif.got.tgz:5543.got - 2010.06.03 13:27:54.
