data_PCOD9425268
_publ_section_title
;
Structure prediction by ZEFSAII (Michael W. Deem and Ramdas Pophale) SiO2 
 PCOD9425268
Probable space group: P B A M
;
_chemical_formula_sum "Si O2"
_cell_formula_units_Z 56
_cell_length_a 10.599726
_cell_length_b 15.693849
_cell_length_c 13.947589
_cell_angle_alpha 90.000000
_cell_angle_beta 90.000000
_cell_angle_gamma 90.000000
_cell_volume 2320.188394
_symmetry_space_group_name_H-M "P B A M"
_symmetry_group_IT_number 55
_symmetry_cell_setting 'orthorhombic'
loop_
_space_group_symop_operation_xyz
x,y,z
-x,-y,z
1/2+x,1/2-y,-z
1/2-x,1/2+y,-z
-x,-y,-z
x,y,-z
1/2-x,1/2+y,z
1/2+x,1/2-y,z
loop_
_atom_site_type_symbol
_atom_site_label
_atom_site_fract_x
_atom_site_fract_y
_atom_site_fract_z
Si Si1 0.420150 0.574226 0.341780
Si Si2 0.818183 0.618520 0.890407
Si Si3 0.333834 0.045783 0.765725
Si Si4 0.970744 0.096916 0.856459
Si Si5 0.289601 0.747484 0.392678
Si Si6 0.217676 0.193928 0.106581
Si Si7 0.037990 0.658421 0.617242
O O1 0.500000 0.500000 0.392112
O O2 0.301286 0.531674 0.286536
O O3 0.510554 0.609436 0.257651
O O4 0.359878 0.655005 0.393921
O O5 0.865165 0.538371 0.827556
O O6 0.667528 0.610647 0.892939
O O7 0.822864 0.714799 0.850224
O O8 0.869093 0.615466 0.000000
O O9 0.305806 0.128358 0.834542
O O10 0.423917 0.077431 0.680577
O O11 0.082781 0.149703 0.900800
O O12 0.000000 0.000000 0.877000
O O13 0.266068 0.778474 0.500000
O O14 0.398262 0.810249 0.355854
O O15 0.149475 0.726383 0.355357
O O16 0.271486 0.207780 0.000000
O O17 0.044899 0.646749 0.500000
#
# Coordination Sequence:
#
# PCOD9425268 Si02
#       7
#     8   8   8   8   8   8   8
#     4   9  16  29  48  78 109 140 192 251 305 354
#     4  11  21  33  55  86 118 153 202 258 311 367
#     4  10  19  33  54  81 114 155 192 254 310 374
#     4  10  18  34  56  81 114 153 197 253 301 360
#     4   9  18  32  53  84 122 159 200 256 316 372
#     4  10  21  33  52  87 117 152 201 249 307 368
#     4   9  19  35  57  89 125 163 207 262 319 380
#
# _framework density 24.135971999999999
#
# number of rings (size 3 to 8) (size 9 to 14) (size 15 to 20)
#    0.000    2.286    4.286    0.857    2.000    0.857 
#    0.000    0.000    0.000    1.714   11.143    7.000 
#    0.000   65.143    0.000    0.000    0.000    0.000 
#
# Total GULP energy -312355.154268 kJ/mol
# GULP energy per Si atom -5577.770612 kJ/mol
# Density = 2.408104 g / cm^3
# Si number density = 24.135972 Si / 1000 Ang^3
#
#
#
# Elastic Constant Matrix: (Units=GPa)
#
#
# Indices 1 2 3 4 5 6 
#
# 1 60.1451 28.2589 24.8895 0.0000 0.0000 0.0000
# 2 28.2589 155.3918 46.6719 0.0000 0.0000 0.0000
# 3 24.8895 46.6719 106.2192 0.0000 0.0000 0.0000
# 4 0.0000 0.0000 0.0000 27.7374 0.0000 0.0000
# 5 0.0000 0.0000 0.0000 0.0000 6.4298 0.0000
# 6 0.0000 0.0000 0.0000 0.0000 0.0000 36.9637
#
#
#
# Elastic Compliance Matrix: (Units=1/GPa)
#
#
# Indices 1 2 3 4 5 6 
#
# 1 0.019198 -0.002466 -0.003415 0.000000 0.000000 0.000000
# 2 -0.002466 0.007730 -0.002819 0.000000 0.000000 0.000000
# 3 -0.003415 -0.002819 0.011453 0.000000 0.000000 0.000000
# 4 0.000000 0.000000 0.000000 0.036052 0.000000 0.000000
# 5 0.000000 0.000000 0.000000 0.000000 0.155527 0.000000
# 6 0.000000 0.000000 0.000000 0.000000 0.000000 0.027054
#
#
# Mechanical properties :
#
#
# Convention : Reuss Voigt Hill
#
# Bulk Modulus (GPa) = 47.65864 57.93295 52.79580
# Shear Modulus (GPa) = 17.76779 29.02189 23.39484
#
# Velocity S-wave (km/s) = 2.71616 3.47137 3.11673
# Velocity P-wave (km/s) = 5.44293 6.33420 5.90540
#
# Compressibility (1/GPa) = 0.02098255
#
# Stress axis : x y z
#
# Youngs Moduli (GPa) = 52.08828 129.35959 87.31051
#
# Poissons Ratio (x) = 0.31894 0.29818
# Poissons Ratio (y) = 0.12843 0.24612
# Poissons Ratio (z) = 0.17789 0.36466
#
# Static dielectric constant tensor:
#      x y z
#    x 1.899770 0.000000 0.000000 
#    y 0.000000 2.167640 0.000000 
#    z 0.000000 0.000000 2.012550 
# 
# From -- ./inp_files/18373.got.cif
#   From: 2010.05.17/outbox.cif.g08.bks.cpg/sg55_10_cif.got.tgz:18373.got - 2010.06.03 13:27:54.
