data_PCOD9425087
_publ_section_title
;
Structure prediction by ZEFSAII (Michael W. Deem and Ramdas Pophale) SiO2 
 PCOD9425087
Probable space group: P B A M
;
_chemical_formula_sum "Si O2"
_cell_formula_units_Z 40
_cell_length_a 16.206843
_cell_length_b 16.191688
_cell_length_c 8.735418
_cell_angle_alpha 90.000000
_cell_angle_beta 90.000000
_cell_angle_gamma 90.000000
_cell_volume 2292.314719
_symmetry_space_group_name_H-M "P B A M"
_symmetry_group_IT_number 55
_symmetry_cell_setting 'orthorhombic'
loop_
_space_group_symop_operation_xyz
x,y,z
-x,-y,z
1/2+x,1/2-y,-z
1/2-x,1/2+y,-z
-x,-y,-z
x,y,-z
1/2-x,1/2+y,z
1/2+x,1/2-y,z
loop_
_atom_site_type_symbol
_atom_site_label
_atom_site_fract_x
_atom_site_fract_y
_atom_site_fract_z
Si Si1 0.626099 0.960029 0.686018
Si Si2 0.311858 0.561934 0.682723
Si Si3 0.040156 0.370918 0.314865
Si Si4 0.925819 0.067413 0.175902
Si Si5 0.058845 0.191602 0.816221
O O1 0.626864 0.959542 0.500000
O O2 0.717411 0.936648 0.737948
O O3 0.599028 0.052690 0.730459
O O4 0.552403 0.898640 0.268116
O O5 0.313614 0.570746 0.500000
O O6 0.353828 0.474667 0.727840
O O7 0.367549 0.634074 0.754643
O O8 0.042143 0.364564 0.500000
O O9 0.064432 0.284230 0.243129
O O10 0.971712 0.149488 0.233899
O O11 0.898743 0.078710 0.000000
O O12 0.000000 0.000000 0.174404
O O13 0.059815 0.188278 0.000000
#
# Coordination Sequence:
#
# PCOD9425087 Si02
#       5
#     8   8   8   8   8
#     4   8  17  34  55  77 100 129 167 213 257 297
#     4  10  18  31  53  79 103 129 168 211 253 301
#     4   9  17  35  58  74  97 134 171 208 254 299
#     4   8  16  31  48  67 100 137 163 199 249 294
#     4  10  20  34  50  74 107 137 169 207 249 298
#
# _framework density 17.449611000000001
#
# number of rings (size 3 to 8) (size 9 to 14) (size 15 to 20)
#    0.000    3.000    0.000    3.600    0.000    4.400 
#    3.600    6.000    0.000    0.000    0.000    0.000 
#    0.000    0.000    0.000    0.000    0.000    0.000 
#
# Total GULP energy -222827.475197 kJ/mol
# GULP energy per Si atom -5570.686880 kJ/mol
# Density = 1.740989 g / cm^3
# Si number density = 17.449611 Si / 1000 Ang^3
#
#
#
# Elastic Constant Matrix: (Units=GPa)
#
#
# Indices 1 2 3 4 5 6 
#
# 1 124.0973 62.4196 30.8011 0.0000 0.0000 0.0000
# 2 62.4196 114.2200 27.6902 0.0000 0.0000 0.0000
# 3 30.8011 27.6902 32.5613 0.0000 0.0000 0.0000
# 4 0.0000 0.0000 0.0000 17.1456 0.0000 0.0000
# 5 0.0000 0.0000 0.0000 0.0000 -5.4857 0.0000
# 6 0.0000 0.0000 0.0000 0.0000 0.0000 11.0795
#
#
#
# Elastic Compliance Matrix: (Units=1/GPa)
#
#
# Indices 1 2 3 4 5 6 
#
# 1 0.012424 -0.004964 -0.007531 0.000000 0.000000 0.000000
# 2 -0.004964 0.013012 -0.006370 0.000000 0.000000 0.000000
# 3 -0.007531 -0.006370 0.043253 0.000000 0.000000 0.000000
# 4 0.000000 0.000000 0.000000 0.058324 0.000000 0.000000
# 5 0.000000 0.000000 0.000000 0.000000 -0.182292 0.000000
# 6 0.000000 0.000000 0.000000 0.000000 0.000000 0.090257
#
#
# Mechanical properties :
#
#
# Convention : Reuss Voigt Hill
#
# Bulk Modulus (GPa) = 32.30124 56.96672 44.63398
# Shear Modulus (GPa) = 60.22152 14.54572 37.38362
#
# Velocity S-wave (km/s) = 5.88104 2.89032 4.63360
# Velocity P-wave (km/s) = 8.04157 6.62238 7.36623
#
# Compressibility (1/GPa) = 0.03095856
#
# Stress axis : x y z
#
# Youngs Moduli (GPa) = 80.48771 76.85236 23.12003
#
# Poissons Ratio (x) = 0.38148 0.17413
# Poissons Ratio (y) = 0.39953 0.14727
# Poissons Ratio (z) = 0.60618 0.48954
#
# Static dielectric constant tensor:
#      x y z
#    x 1.602320 0.000000 0.000000 
#    y 0.000000 1.588230 0.000000 
#    z 0.000000 0.000000 1.588140 
# 
# From -- ./inp_files/8475.got.cif
#   From: 2010.05.17/outbox.cif.g08.bks.cpg/sg55_5_cif.got.tgz:8475.got - 2010.06.03 13:27:54.
