data_PCOD9425797
_publ_section_title
;
Structure prediction by ZEFSAII (Michael W. Deem and Ramdas Pophale) SiO2 
 PCOD9425797
Probable space group: P B A M
;
_chemical_formula_sum "Si O2"
_cell_formula_units_Z 64
_cell_length_a 20.366933
_cell_length_b 13.393473
_cell_length_c 12.376883
_cell_angle_alpha 90.000000
_cell_angle_beta 90.000000
_cell_angle_gamma 90.000000
_cell_volume 3376.215247
_symmetry_space_group_name_H-M "P B A M"
_symmetry_group_IT_number 55
_symmetry_cell_setting 'orthorhombic'
loop_
_space_group_symop_operation_xyz
x,y,z
-x,-y,z
1/2+x,1/2-y,-z
1/2-x,1/2+y,-z
-x,-y,-z
x,y,-z
1/2-x,1/2+y,z
1/2+x,1/2-y,z
loop_
_atom_site_type_symbol
_atom_site_label
_atom_site_fract_x
_atom_site_fract_y
_atom_site_fract_z
Si Si1 0.160527 0.660357 0.274012
Si Si2 0.722861 0.025346 0.380666
Si Si3 0.137300 0.039535 0.697989
Si Si4 0.072360 0.539371 0.875949
Si Si5 0.147229 0.354058 0.789752
Si Si6 0.790151 0.843557 0.125314
Si Si7 0.913653 0.160916 0.627757
Si Si8 0.060945 0.236443 0.624704
O O1 0.178394 0.572464 0.358068
O O2 0.098729 0.623738 0.203659
O O3 0.222730 0.664549 0.193333
O O4 0.142136 0.762737 0.332171
O O5 0.711117 0.065768 0.500000
O O6 0.797549 0.990494 0.367837
O O7 0.704106 0.104045 0.288484
O O8 0.091955 0.942324 0.692845
O O9 0.164683 0.074222 0.814552
O O10 0.101353 0.134280 0.645633
O O11 0.120979 0.445547 0.859956
O O12 0.000000 0.500000 0.849344
O O13 0.072772 0.573189 0.000000
O O14 0.172885 0.261747 0.859117
O O15 0.090262 0.315330 0.709090
O O16 0.778448 0.865544 0.000000
O O17 0.906256 0.139617 0.500000
O O18 0.984595 0.211752 0.642383
O O19 0.069649 0.267953 0.500000
#
# Coordination Sequence:
#
# PCOD9425797 Si02
#       8
#     8   8   8   8   8   8   8   8
#     4  10  21  35  52  79 106 136 176 218 265 318
#     4  10  19  33  53  78 109 137 167 213 266 319
#     4  10  21  35  54  79 106 141 182 221 262 316
#     4  10  20  35  54  74 100 135 174 218 264 312
#     4  10  20  34  55  80 105 136 176 218 267 322
#     4  10  21  38  57  77 105 138 175 225 273 313
#     4  11  21  35  55  79 111 147 180 217 265 322
#     4  10  20  34  54  80 111 146 180 217 264 323
#
# _framework density 18.956136000000001
#
# number of rings (size 3 to 8) (size 9 to 14) (size 15 to 20)
#    0.000    1.875    0.000    4.500    0.000    1.000 
#    0.000    9.375    0.000   13.500    0.000    0.000 
#    0.000    0.000    0.000    0.000    0.000    0.000 
#
# Total GULP energy -357418.968907 kJ/mol
# GULP energy per Si atom -5584.671389 kJ/mol
# Density = 1.891299 g / cm^3
# Si number density = 18.956136 Si / 1000 Ang^3
#
#
#
# Elastic Constant Matrix: (Units=GPa)
#
#
# Indices 1 2 3 4 5 6 
#
# 1 56.6151 -5.9108 25.9625 0.0000 0.0000 0.0000
# 2 -5.9108 48.8719 5.2340 0.0000 0.0000 0.0000
# 3 25.9625 5.2340 65.2303 0.0000 0.0000 0.0000
# 4 0.0000 0.0000 0.0000 10.2538 0.0000 0.0000
# 5 0.0000 0.0000 0.0000 0.0000 23.1387 0.0000
# 6 0.0000 0.0000 0.0000 0.0000 0.0000 30.0013
#
#
#
# Elastic Compliance Matrix: (Units=1/GPa)
#
#
# Indices 1 2 3 4 5 6 
#
# 1 0.022241 0.003669 -0.009146 0.000000 0.000000 0.000000
# 2 0.003669 0.021244 -0.003165 0.000000 0.000000 0.000000
# 3 -0.009146 -0.003165 0.019225 0.000000 0.000000 0.000000
# 4 0.000000 0.000000 0.000000 0.097524 0.000000 0.000000
# 5 0.000000 0.000000 0.000000 0.000000 0.043218 0.000000
# 6 0.000000 0.000000 0.000000 0.000000 0.000000 0.033332
#
#
# Mechanical properties :
#
#
# Convention : Reuss Voigt Hill
#
# Bulk Modulus (GPa) = 22.01411 24.58763 23.30087
# Shear Modulus (GPa) = 18.57288 22.37421 20.47354
#
# Velocity S-wave (km/s) = 3.13354 3.43930 3.28997
# Velocity P-wave (km/s) = 4.97298 5.36383 5.17210
#
# Compressibility (1/GPa) = 0.04542540
#
# Stress axis : x y z
#
# Youngs Moduli (GPa) = 44.96281 47.07118 52.01646
#
# Poissons Ratio (x) = -0.17273 0.47577
# Poissons Ratio (y) = -0.16499 0.16464
# Poissons Ratio (z) = 0.41125 0.14899
#
# Static dielectric constant tensor:
#      x y z
#    x 1.663530 0.000000 0.000000 
#    y 0.000000 1.646420 0.000000 
#    z 0.000000 0.000000 1.626240 
# 
# From -- ./inp_files/15783.got.cif
#   From: 2010.05.17/outbox.cif.g08.bks.cpg/sg55_8_cif.got.tgz:15783.got - 2010.06.03 13:27:54.
