data_PCOD9425040
_publ_section_title
;
Structure prediction by ZEFSAII (Michael W. Deem and Ramdas Pophale) SiO2 
 PCOD9425040
Probable space group: P B A M
;
_chemical_formula_sum "Si O2"
_cell_formula_units_Z 56
_cell_length_a 18.559305
_cell_length_b 11.047810
_cell_length_c 13.067270
_cell_angle_alpha 90.000000
_cell_angle_beta 90.000000
_cell_angle_gamma 90.000000
_cell_volume 2679.308799
_symmetry_space_group_name_H-M "P B A M"
_symmetry_group_IT_number 55
_symmetry_cell_setting 'orthorhombic'
loop_
_space_group_symop_operation_xyz
x,y,z
-x,-y,z
1/2+x,1/2-y,-z
1/2-x,1/2+y,-z
-x,-y,-z
x,y,-z
1/2-x,1/2+y,z
1/2+x,1/2-y,z
loop_
_atom_site_type_symbol
_atom_site_label
_atom_site_fract_x
_atom_site_fract_y
_atom_site_fract_z
Si Si1 0.423453 0.536201 0.786312
Si Si2 0.538482 0.278906 0.608959
Si Si3 0.917218 0.541836 0.299219
Si Si4 0.620195 0.647953 0.386901
Si Si5 0.711487 0.874206 0.617302
Si Si6 0.280410 0.622659 0.170811
Si Si7 0.684736 0.109733 0.116663
O O1 0.500000 0.500000 0.833840
O O2 0.441703 0.638778 0.703580
O O3 0.391082 0.430553 0.714200
O O4 0.361417 0.585531 0.858208
O O5 0.558057 0.335009 0.500000
O O6 0.575170 0.150816 0.621227
O O7 0.452029 0.269929 0.610267
O O8 0.859268 0.447619 0.344701
O O9 0.880472 0.594776 0.196684
O O10 0.000000 0.500000 0.280908
O O11 0.621869 0.587846 0.500000
O O12 0.688889 0.733551 0.380342
O O13 0.729899 0.906628 0.500000
O O14 0.770551 0.889497 0.705647
O O15 0.271719 0.764804 0.142146
O O16 0.229425 0.516624 0.127085
O O17 0.660202 0.120357 0.000000
#
# Coordination Sequence:
#
# PCOD9425040 Si02
#       7
#     8   8   8   8   8   8   8
#     4  10  20  35  58  86 121 160 206 256 306 372
#     4  10  18  30  53  85 121 165 203 244 298 368
#     4  11  21  37  62  91 124 163 213 264 318 378
#     4   9  17  30  49  79 120 167 205 239 288 358
#     4  10  21  34  55  90 132 171 207 248 306 381
#     4  11  23  43  66  94 127 168 211 264 323 391
#     4  11  25  46  70  94 122 165 216 274 333 381
#
# _framework density 20.900914
#
# number of rings (size 3 to 8) (size 9 to 14) (size 15 to 20)
#    0.000    1.714    2.857    2.143    0.000    3.714 
#    0.000    2.143    0.000    3.429    0.000    0.000 
#    0.000    0.000    0.000    0.000    0.000    0.000 
#
# Total GULP energy -312165.399603 kJ/mol
# GULP energy per Si atom -5574.382136 kJ/mol
# Density = 2.085334 g / cm^3
# Si number density = 20.900914 Si / 1000 Ang^3
#
#
#
# Elastic Constant Matrix: (Units=GPa)
#
#
# Indices 1 2 3 4 5 6 
#
# 1 70.0820 16.0184 9.4303 0.0000 0.0000 0.0000
# 2 16.0184 83.5831 11.4509 0.0000 0.0000 0.0000
# 3 9.4303 11.4509 83.1801 0.0000 0.0000 0.0000
# 4 0.0000 0.0000 0.0000 24.9945 0.0000 0.0000
# 5 0.0000 0.0000 0.0000 0.0000 11.6565 0.0000
# 6 0.0000 0.0000 0.0000 0.0000 0.0000 30.4779
#
#
#
# Elastic Compliance Matrix: (Units=1/GPa)
#
#
# Indices 1 2 3 4 5 6 
#
# 1 0.015067 -0.002705 -0.001336 0.000000 0.000000 0.000000
# 2 -0.002705 0.012680 -0.001439 0.000000 0.000000 0.000000
# 3 -0.001336 -0.001439 0.012372 0.000000 0.000000 0.000000
# 4 0.000000 0.000000 0.000000 0.040009 0.000000 0.000000
# 5 0.000000 0.000000 0.000000 0.000000 0.085789 0.000000
# 6 0.000000 0.000000 0.000000 0.000000 0.000000 0.032811
#
#
# Mechanical properties :
#
#
# Convention : Reuss Voigt Hill
#
# Bulk Modulus (GPa) = 34.29402 34.51604 34.40503
# Shear Modulus (GPa) = 22.78891 26.75548 24.77219
#
# Velocity S-wave (km/s) = 3.30560 3.58174 3.44644
# Velocity P-wave (km/s) = 5.56892 5.80131 5.68630
#
# Compressibility (1/GPa) = 0.02915960
#
# Stress axis : x y z
#
# Youngs Moduli (GPa) = 66.37056 78.86697 80.83005
#
# Poissons Ratio (x) = 0.21330 0.10798
# Poissons Ratio (y) = 0.17950 0.11631
# Poissons Ratio (z) = 0.08866 0.11348
#
# Static dielectric constant tensor:
#      x y z
#    x 1.761320 0.000000 0.000000 
#    y 0.000000 1.792850 0.000000 
#    z 0.000000 0.000000 1.727790 
# 
# From -- ./inp_files/15311.got.cif
#   From: 2010.05.17/outbox.cif.g08.bks.cpg/sg55_8_cif.got.tgz:15311.got - 2010.06.03 13:27:54.
