data_PCOD9425669
_publ_section_title
;
Structure prediction by ZEFSAII (Michael W. Deem and Ramdas Pophale) SiO2 
 PCOD9425669
Probable space group: P B A M
;
_chemical_formula_sum "Si O2"
_cell_formula_units_Z 40
_cell_length_a 18.687799
_cell_length_b 13.965334
_cell_length_c 8.017096
_cell_angle_alpha 90.000000
_cell_angle_beta 90.000000
_cell_angle_gamma 90.000000
_cell_volume 2092.312575
_symmetry_space_group_name_H-M "P B A M"
_symmetry_group_IT_number 55
_symmetry_cell_setting 'orthorhombic'
loop_
_space_group_symop_operation_xyz
x,y,z
-x,-y,z
1/2+x,1/2-y,-z
1/2-x,1/2+y,-z
-x,-y,-z
x,y,-z
1/2-x,1/2+y,z
1/2+x,1/2-y,z
loop_
_atom_site_type_symbol
_atom_site_label
_atom_site_fract_x
_atom_site_fract_y
_atom_site_fract_z
Si Si1 0.468188 0.899703 0.298367
Si Si2 0.316775 0.818717 0.703998
Si Si3 0.878412 0.882731 0.298227
Si Si4 0.969686 0.197866 0.196678
Si Si5 0.829870 0.089028 0.301980
O O1 0.468268 0.901637 0.500000
O O2 0.386403 0.879935 0.245170
O O3 0.513730 0.807314 0.245610
O O4 0.500000 0.000000 0.237554
O O5 0.315477 0.817645 0.500000
O O6 0.332469 0.709511 0.757123
O O7 0.242624 0.863191 0.765051
O O8 0.876885 0.884282 0.500000
O O9 0.960392 0.862825 0.249075
O O10 0.848864 0.983651 0.234116
O O11 0.898290 0.156419 0.277618
O O12 0.961505 0.191064 0.000000
O O13 0.818572 0.077064 0.500000
#
# Coordination Sequence:
#
# PCOD9425669 Si02
#       5
#     8   8   8   8   8
#     4   9  18  35  59  81 102 132 170 210 253 305
#     4   8  16  31  51  78 105 128 163 212 261 305
#     4   9  18  34  54  75 102 135 171 212 257 304
#     4  11  22  34  50  74 105 138 173 212 253 302
#     4  10  19  32  53  77 102 134 172 215 258 301
#
# _framework density 19.117601000000001
#
# number of rings (size 3 to 8) (size 9 to 14) (size 15 to 20)
#    0.000    2.600    0.000    3.600    0.000    5.200 
#    0.000   10.000    0.000    2.400    0.000    0.000 
#    0.000    0.000    0.000    0.000    0.000    0.000 
#
# Total GULP energy -223177.329968 kJ/mol
# GULP energy per Si atom -5579.433249 kJ/mol
# Density = 1.907409 g / cm^3
# Si number density = 19.117601 Si / 1000 Ang^3
#
#
#
# Elastic Constant Matrix: (Units=GPa)
#
#
# Indices 1 2 3 4 5 6 
#
# 1 111.5834 80.3844 -15.2169 0.0000 0.0000 0.0000
# 2 80.3844 112.6524 -12.9657 0.0000 0.0000 0.0000
# 3 -15.2169 -12.9657 8.3752 0.0000 0.0000 0.0000
# 4 0.0000 0.0000 0.0000 0.3463 0.0000 0.0000
# 5 0.0000 0.0000 0.0000 0.0000 -17.3666 0.0000
# 6 0.0000 0.0000 0.0000 0.0000 0.0000 19.1060
#
#
#
# Elastic Compliance Matrix: (Units=1/GPa)
#
#
# Indices 1 2 3 4 5 6 
#
# 1 0.020385 -0.012513 0.017667 0.000000 0.000000 0.000000
# 2 -0.012513 0.018482 0.005878 0.000000 0.000000 0.000000
# 3 0.017667 0.005878 0.160599 0.000000 0.000000 0.000000
# 4 0.000000 0.000000 0.000000 2.887981 0.000000 0.000000
# 5 0.000000 0.000000 0.000000 0.000000 -0.057582 0.000000
# 6 0.000000 0.000000 0.000000 0.000000 0.000000 0.052340
#
#
# Mechanical properties :
#
#
# Convention : Reuss Voigt Hill
#
# Bulk Modulus (GPa) = 4.51407 37.44606 20.98007
# Shear Modulus (GPa) = 1.59541 12.44442 7.01992
#
# Velocity S-wave (km/s) = 0.91451 2.55412 1.91832
# Velocity P-wave (km/s) = 1.86587 5.32239 3.98806
#
# Compressibility (1/GPa) = 0.22152976
#
# Stress axis : x y z
#
# Youngs Moduli (GPa) = 49.05458 54.10657 6.22670
#
# Poissons Ratio (x) = 0.67703 -0.11001
# Poissons Ratio (y) = 0.61381 -0.03660
# Poissons Ratio (z) = -0.86665 -0.31802
#
# Static dielectric constant tensor:
#      x y z
#    x 1.639890 0.000000 0.000000 
#    y 0.000000 1.665940 0.000000 
#    z 0.000000 0.000000 1.662830 
# 
# From -- ./inp_files/3618.got.cif
#   From: 2010.05.17/outbox.cif.g08.bks.cpg/sg55_2_cif.got.tgz:3618.got - 2010.06.03 13:27:54.
