data_PCOD9425711
_publ_section_title
;
Structure prediction by ZEFSAII (Michael W. Deem and Ramdas Pophale) SiO2 
 PCOD9425711
Probable space group: P B A M
;
_chemical_formula_sum "Si O2"
_cell_formula_units_Z 64
_cell_length_a 20.494390
_cell_length_b 19.947222
_cell_length_c 7.596392
_cell_angle_alpha 90.000000
_cell_angle_beta 90.000000
_cell_angle_gamma 90.000000
_cell_volume 3105.451745
_symmetry_space_group_name_H-M "P B A M"
_symmetry_group_IT_number 55
_symmetry_cell_setting 'orthorhombic'
loop_
_space_group_symop_operation_xyz
x,y,z
-x,-y,z
1/2+x,1/2-y,-z
1/2-x,1/2+y,-z
-x,-y,-z
x,y,-z
1/2-x,1/2+y,z
1/2+x,1/2-y,z
loop_
_atom_site_type_symbol
_atom_site_label
_atom_site_fract_x
_atom_site_fract_y
_atom_site_fract_z
Si Si1 0.401748 0.182531 0.710462
Si Si2 0.996047 0.793361 0.285778
Si Si3 0.227032 0.750888 0.209255
Si Si4 0.132153 0.282733 0.704938
Si Si5 0.067157 0.534596 0.284448
Si Si6 0.825337 0.570816 0.287271
Si Si7 0.543660 0.560020 0.206956
Si Si8 0.317382 0.396119 0.790964
O O1 0.409476 0.181830 0.500000
O O2 0.445059 0.244914 0.774825
O O3 0.326112 0.194913 0.750471
O O4 0.426414 0.110938 0.776587
O O5 0.996196 0.795896 0.500000
O O6 0.928802 0.758856 0.223794
O O7 0.007586 0.868692 0.223088
O O8 0.299673 0.743251 0.282142
O O9 0.197596 0.821387 0.280445
O O10 0.233969 0.756711 0.000000
O O11 0.116242 0.293929 0.500000
O O12 0.147380 0.357041 0.778989
O O13 0.067121 0.535486 0.500000
O O14 0.127989 0.488927 0.228717
O O15 0.000000 0.500000 0.229346
O O16 0.827038 0.572970 0.500000
O O17 0.749828 0.564193 0.236010
O O18 0.500000 0.500000 0.283272
O O19 0.616615 0.571386 0.281966
O O20 0.552489 0.544305 0.000000
O O21 0.327418 0.388006 0.000000
#
# Coordination Sequence:
#
# PCOD9425711 Si02
#       8
#     8   8   8   8   8   8   8   8
#     4  10  19  32  54  80 108 140 172 214 263 309
#     4  10  20  34  55  82 108 136 172 217 268 314
#     4  10  19  33  53  76 101 135 177 216 256 308
#     4   9  18  33  53  79 109 137 171 217 262 307
#     4   9  17  31  52  79 109 140 175 212 255 310
#     4   9  17  31  54  80 105 139 178 213 251 304
#     4  10  21  38  57  75 101 138 177 218 269 322
#     4   9  18  34  54  74 100 135 174 216 258 308
#
# _framework density 20.608917000000002
#
# number of rings (size 3 to 8) (size 9 to 14) (size 15 to 20)
#    0.000    2.500    1.250    1.125    0.000    4.750 
#    2.250    0.625    0.000    3.000    0.000    0.000 
#    0.000    0.000    0.000    0.000    0.000    0.000 
#
# Total GULP energy -357175.580778 kJ/mol
# GULP energy per Si atom -5580.868450 kJ/mol
# Density = 2.056201 g / cm^3
# Si number density = 20.608917 Si / 1000 Ang^3
#
#
#
# Elastic Constant Matrix: (Units=GPa)
#
#
# Indices 1 2 3 4 5 6 
#
# 1 115.7790 39.8833 -12.2468 0.0000 0.0000 0.0000
# 2 39.8833 87.5523 -10.2362 0.0000 0.0000 0.0000
# 3 -12.2468 -10.2362 38.1079 0.0000 0.0000 0.0000
# 4 0.0000 0.0000 0.0000 -12.8525 0.0000 0.0000
# 5 0.0000 0.0000 0.0000 0.0000 -6.1434 0.0000
# 6 0.0000 0.0000 0.0000 0.0000 0.0000 33.4788
#
#
#
# Elastic Compliance Matrix: (Units=1/GPa)
#
#
# Indices 1 2 3 4 5 6 
#
# 1 0.010411 -0.004492 0.002139 0.000000 0.000000 0.000000
# 2 -0.004492 0.013731 0.002244 0.000000 0.000000 0.000000
# 3 0.002139 0.002244 0.027532 0.000000 0.000000 0.000000
# 4 0.000000 0.000000 0.000000 -0.077806 0.000000 0.000000
# 5 0.000000 0.000000 0.000000 0.000000 -0.162775 0.000000
# 6 0.000000 0.000000 0.000000 0.000000 0.000000 0.029870
#
#
# Mechanical properties :
#
#
# Convention : Reuss Voigt Hill
#
# Bulk Modulus (GPa) = 19.43438 30.69332 25.06385
# Shear Modulus (GPa) = -35.29366 17.83249 -8.73058
#
# Velocity S-wave (km/s) = -4.14278 2.94476 -2.06046
# Velocity P-wave (km/s) = 3.66509 5.14662 2.55487
#
# Compressibility (1/GPa) = 0.05145520
#
# Stress axis : x y z
#
# Youngs Moduli (GPa) = 96.05254 72.82972 36.32193
#
# Poissons Ratio (x) = 0.32719 -0.07769
# Poissons Ratio (y) = 0.43152 -0.08152
# Poissons Ratio (z) = -0.20546 -0.16346
#
# Static dielectric constant tensor:
#      x y z
#    x 1.729990 0.000000 0.000000 
#    y 0.000000 1.716940 0.000000 
#    z 0.000000 0.000000 1.776000 
# 
# From -- ./inp_files/7931.got.cif
#   From: 2010.05.17/outbox.cif.g08.bks.cpg/sg55_4_cif.got.tgz:7931.got - 2010.06.03 13:27:54.
