data_PCOD9425636
_publ_section_title
;
Structure prediction by ZEFSAII (Michael W. Deem and Ramdas Pophale) SiO2 
 PCOD9425636
Probable space group: P B A M
;
_chemical_formula_sum "Si O2"
_cell_formula_units_Z 48
_cell_length_a 17.040071
_cell_length_b 12.664414
_cell_length_c 12.960123
_cell_angle_alpha 90.000000
_cell_angle_beta 90.000000
_cell_angle_gamma 90.000000
_cell_volume 2796.827122
_symmetry_space_group_name_H-M "P B A M"
_symmetry_group_IT_number 55
_symmetry_cell_setting 'orthorhombic'
loop_
_space_group_symop_operation_xyz
x,y,z
-x,-y,z
1/2+x,1/2-y,-z
1/2-x,1/2+y,-z
-x,-y,-z
x,y,-z
1/2-x,1/2+y,z
1/2+x,1/2-y,z
loop_
_atom_site_type_symbol
_atom_site_label
_atom_site_fract_x
_atom_site_fract_y
_atom_site_fract_z
Si Si1 0.537010 0.387083 0.231523
Si Si2 0.589572 0.018183 0.623905
Si Si3 0.706838 0.862738 0.266175
Si Si4 0.180679 0.021958 0.884681
Si Si5 0.889999 0.210293 0.119442
Si Si6 0.147449 0.246460 0.375879
O O1 0.500000 0.500000 0.263953
O O2 0.601544 0.415151 0.144697
O O3 0.470010 0.316011 0.180118
O O4 0.581890 0.328790 0.323942
O O5 0.587904 0.015486 0.500000
O O6 0.646027 0.925957 0.663419
O O7 0.500000 0.000000 0.660965
O O8 0.624346 0.133202 0.652736
O O9 0.757276 0.946974 0.201386
O O10 0.659446 0.793779 0.183773
O O11 0.768893 0.791234 0.329836
O O12 0.158305 0.899386 0.881575
O O13 0.207065 0.049885 0.000000
O O14 0.904037 0.240352 0.000000
O O15 0.147903 0.237267 0.500000
#
# Coordination Sequence:
#
# PCOD9425636 Si02
#       6
#     8   8   8   8   8   8
#     4   9  18  33  54  78 103 133 168 211 258 303
#     4  10  21  37  55  74 102 141 176 210 263 325
#     4  11  20  33  53  76 103 134 173 218 256 299
#     4   9  18  32  50  74 104 135 166 204 255 310
#     4  10  19  32  52  76 101 132 171 211 254 307
#     4  10  21  36  54  78 106 136 174 217 261 312
#
# _framework density 17.162305
#
# number of rings (size 3 to 8) (size 9 to 14) (size 15 to 20)
#    0.000    2.167    0.000    3.500    0.000    2.333 
#    0.000    0.833    0.000   13.000    0.000    0.000 
#    0.000    0.000    0.000    0.000    0.000    0.000 
#
# Total GULP energy -267715.590089 kJ/mol
# GULP energy per Si atom -5577.408127 kJ/mol
# Density = 1.712324 g / cm^3
# Si number density = 17.162305 Si / 1000 Ang^3
#
#
#
# Elastic Constant Matrix: (Units=GPa)
#
#
# Indices 1 2 3 4 5 6 
#
# 1 118.7622 53.0120 35.0657 0.0000 0.0000 0.0000
# 2 53.0120 70.7191 41.7505 0.0000 0.0000 0.0000
# 3 35.0657 41.7505 62.1953 0.0000 0.0000 0.0000
# 4 0.0000 0.0000 0.0000 20.0322 0.0000 0.0000
# 5 0.0000 0.0000 0.0000 0.0000 15.9058 0.0000
# 6 0.0000 0.0000 0.0000 0.0000 0.0000 26.2340
#
#
#
# Elastic Compliance Matrix: (Units=1/GPa)
#
#
# Indices 1 2 3 4 5 6 
#
# 1 0.012715 -0.008778 -0.001276 0.000000 0.000000 0.000000
# 2 -0.008778 0.029483 -0.014842 0.000000 0.000000 0.000000
# 3 -0.001276 -0.014842 0.026761 0.000000 0.000000 0.000000
# 4 0.000000 0.000000 0.000000 0.049920 0.000000 0.000000
# 5 0.000000 0.000000 0.000000 0.000000 0.062870 0.000000
# 6 0.000000 0.000000 0.000000 0.000000 0.000000 0.038119
#
#
# Mechanical properties :
#
#
# Convention : Reuss Voigt Hill
#
# Bulk Modulus (GPa) = 52.17503 56.81477 54.49490
# Shear Modulus (GPa) = 18.11262 20.55761 19.33511
#
# Velocity S-wave (km/s) = 3.25217 3.46473 3.36013
# Velocity P-wave (km/s) = 6.67601 7.01299 6.84658
#
# Compressibility (1/GPa) = 0.01916626
#
# Stress axis : x y z
#
# Youngs Moduli (GPa) = 78.64528 33.91772 37.36724
#
# Poissons Ratio (x) = 0.29773 0.04769
# Poissons Ratio (y) = 0.69035 0.55462
# Poissons Ratio (z) = 0.10038 0.50342
#
# Static dielectric constant tensor:
#      x y z
#    x 1.577430 0.000000 0.000000 
#    y 0.000000 1.571490 0.000000 
#    z 0.000000 0.000000 1.554560 
# 
# From -- ./inp_files/13184.got.cif
#   From: 2010.05.17/outbox.cif.g08.bks.cpg/sg55_7_cif.got.tgz:13184.got - 2010.06.03 13:27:54.
