data_PCOD9425343
_publ_section_title
;
Structure prediction by ZEFSAII (Michael W. Deem and Ramdas Pophale) SiO2 
 PCOD9425343
Probable space group: P B A M
;
_chemical_formula_sum "Si O2"
_cell_formula_units_Z 64
_cell_length_a 26.895543
_cell_length_b 18.735744
_cell_length_c 8.956786
_cell_angle_alpha 90.000000
_cell_angle_beta 90.000000
_cell_angle_gamma 90.000000
_cell_volume 4513.396195
_symmetry_space_group_name_H-M "P B A M"
_symmetry_group_IT_number 55
_symmetry_cell_setting 'orthorhombic'
loop_
_space_group_symop_operation_xyz
x,y,z
-x,-y,z
1/2+x,1/2-y,-z
1/2-x,1/2+y,-z
-x,-y,-z
x,y,-z
1/2-x,1/2+y,z
1/2+x,1/2-y,z
loop_
_atom_site_type_symbol
_atom_site_label
_atom_site_fract_x
_atom_site_fract_y
_atom_site_fract_z
Si Si1 0.855086 0.669268 0.176881
Si Si2 0.800429 0.208200 0.327199
Si Si3 0.056707 0.416714 0.678876
Si Si4 0.850248 0.338587 0.178627
Si Si5 0.745581 0.081788 0.820866
Si Si6 0.558493 0.917500 0.319982
Si Si7 0.241076 0.573764 0.319481
Si Si8 0.696128 0.295518 0.670948
O O1 0.904072 0.636124 0.248698
O O2 0.807784 0.618572 0.214857
O O3 0.841384 0.748285 0.233751
O O4 0.859854 0.669811 0.000000
O O5 0.814436 0.196903 0.500000
O O6 0.838553 0.259885 0.242610
O O7 0.787398 0.135021 0.243624
O O8 0.748479 0.252475 0.327207
O O9 0.060648 0.412154 0.500000
O O10 0.067952 0.499266 0.719123
O O11 0.999115 0.402282 0.717339
O O12 0.902818 0.367829 0.235666
O O13 0.808031 0.390693 0.247997
O O14 0.846760 0.339170 0.000000
O O15 0.747723 0.005165 0.743324
O O16 0.749415 0.076050 0.000000
O O17 0.564373 0.910619 0.500000
O O18 0.236208 0.574242 0.500000
O O19 0.287497 0.625538 0.279785
O O20 0.678676 0.298163 0.500000
#
# Coordination Sequence:
#
# PCOD9425343 Si02
#       8
#     8   8   8   8   8   8   8   8
#     4  10  19  28  41  61  85 112 141 172 212 255
#     4   9  17  30  45  60  81 112 145 176 208 250
#     4   9  18  31  46  61  81 110 145 181 212 246
#     4  11  20  29  43  63  86 113 143 179 219 255
#     4  10  19  29  42  64  90 114 141 176 215 254
#     4   9  18  32  46  61  81 110 146 180 213 251
#     4  10  19  30  44  62  84 114 148 178 209 253
#     4   8  16  29  43  58  78 107 143 176 206 242
#
# _framework density 14.180009999999999
#
# number of rings (size 3 to 8) (size 9 to 14) (size 15 to 20)
#    0.000    2.500    0.000    4.875    0.000    8.000 
#    0.000    1.250    0.000    0.000    0.000    0.000 
#    0.000    1.000    0.000   10.500    0.000    5.000 
#
# Total GULP energy -356743.290921 kJ/mol
# GULP energy per Si atom -5574.113921 kJ/mol
# Density = 1.414774 g / cm^3
# Si number density = 14.180010 Si / 1000 Ang^3
#
#
#
# Elastic Constant Matrix: (Units=GPa)
#
#
# Indices 1 2 3 4 5 6 
#
# 1 75.9846 50.6289 44.7997 0.0000 0.0000 0.0000
# 2 50.6289 103.3626 50.2490 0.0000 0.0000 0.0000
# 3 44.7997 50.2490 66.8062 0.0000 0.0000 0.0000
# 4 0.0000 0.0000 0.0000 19.7188 0.0000 0.0000
# 5 0.0000 0.0000 0.0000 0.0000 15.7964 0.0000
# 6 0.0000 0.0000 0.0000 0.0000 0.0000 26.1887
#
#
#
# Elastic Compliance Matrix: (Units=1/GPa)
#
#
# Indices 1 2 3 4 5 6 
#
# 1 0.024056 -0.006212 -0.011459 0.000000 0.000000 0.000000
# 2 -0.006212 0.016856 -0.008512 0.000000 0.000000 0.000000
# 3 -0.011459 -0.008512 0.029056 0.000000 0.000000 0.000000
# 4 0.000000 0.000000 0.000000 0.050713 0.000000 0.000000
# 5 0.000000 0.000000 0.000000 0.000000 0.063306 0.000000
# 6 0.000000 0.000000 0.000000 0.000000 0.000000 0.038184
#
#
# Mechanical properties :
#
#
# Convention : Reuss Voigt Hill
#
# Bulk Modulus (GPa) = 56.81823 59.72318 58.27071
# Shear Modulus (GPa) = 17.83137 19.03916 18.43527
#
# Velocity S-wave (km/s) = 3.54997 3.66823 3.60959
# Velocity P-wave (km/s) = 7.54714 7.75568 7.65212
#
# Compressibility (1/GPa) = 0.01759999
#
# Stress axis : x y z
#
# Youngs Moduli (GPa) = 41.56969 59.32671 34.41661
#
# Poissons Ratio (x) = 0.36856 0.39438
# Poissons Ratio (y) = 0.25824 0.29297
# Poissons Ratio (z) = 0.47635 0.50501
#
# Static dielectric constant tensor:
#      x y z
#    x 1.449230 0.000000 0.000000 
#    y 0.000000 1.464510 0.000000 
#    z 0.000000 0.000000 1.470910 
# 
# From -- ./inp_files/8162.got.cif
#   From: 2010.05.17/outbox.cif.g08.bks.cpg/sg55_5_cif.got.tgz:8162.got - 2010.06.03 13:27:54.
