data_PCOD9425795
_publ_section_title
;
Structure prediction by ZEFSAII (Michael W. Deem and Ramdas Pophale) SiO2 
 PCOD9425795
Probable space group: P B A M
;
_chemical_formula_sum "Si O2"
_cell_formula_units_Z 64
_cell_length_a 29.225992
_cell_length_b 13.137632
_cell_length_c 7.462285
_cell_angle_alpha 90.000000
_cell_angle_beta 90.000000
_cell_angle_gamma 90.000000
_cell_volume 2865.221394
_symmetry_space_group_name_H-M "P B A M"
_symmetry_group_IT_number 55
_symmetry_cell_setting 'orthorhombic'
loop_
_space_group_symop_operation_xyz
x,y,z
-x,-y,z
1/2+x,1/2-y,-z
1/2-x,1/2+y,-z
-x,-y,-z
x,y,-z
1/2-x,1/2+y,z
1/2+x,1/2-y,z
loop_
_atom_site_type_symbol
_atom_site_label
_atom_site_fract_x
_atom_site_fract_y
_atom_site_fract_z
Si Si1 0.295182 0.440968 0.218670
Si Si2 0.805917 0.496690 0.780457
Si Si3 0.485036 0.887608 0.284087
Si Si4 0.430164 0.244821 0.291780
Si Si5 0.171818 0.722940 0.795627
Si Si6 0.879221 0.658247 0.787713
Si Si7 0.551018 0.522392 0.783277
Si Si8 0.365061 0.614879 0.780837
O O1 0.242433 0.453951 0.267956
O O2 0.315266 0.332911 0.282852
O O3 0.325062 0.538114 0.277146
O O4 0.298244 0.441320 0.000000
O O5 0.808808 0.380648 0.714631
O O6 0.848272 0.565754 0.717928
O O7 0.807792 0.492275 0.000000
O O8 0.485984 0.887471 0.500000
O O9 0.523652 0.807908 0.221308
O O10 0.433277 0.859831 0.234798
O O11 0.500000 0.000000 0.222717
O O12 0.425684 0.216753 0.500000
O O13 0.382994 0.212124 0.202064
O O14 0.434209 0.365797 0.274962
O O15 0.189159 0.726640 0.000000
O O16 0.864150 0.768951 0.717334
O O17 0.870618 0.661433 0.000000
O O18 0.500000 0.500000 0.719907
O O19 0.587294 0.437772 0.726465
O O20 0.550864 0.522711 0.000000
O O21 0.364216 0.616968 0.000000
#
# Coordination Sequence:
#
# PCOD9425795 Si02
#       8
#     8   8   8   8   8   8   8   8
#     4   9  17  30  51  79 108 140 176 219 270 324
#     4   9  19  31  51  85 112 136 177 229 275 315
#     4  10  22  39  56  75 105 147 186 215 265 333
#     4  11  22  35  54  79 107 140 181 229 272 318
#     4  10  19  34  56  80 109 143 181 222 270 326
#     4  10  20  34  54  83 112 137 178 230 269 310
#     4  10  19  33  53  78 107 141 180 218 267 327
#     4   9  17  30  49  76 108 142 174 211 266 323
#
# _framework density 22.336845
#
# number of rings (size 3 to 8) (size 9 to 14) (size 15 to 20)
#    0.000    2.250    1.250    1.875    1.750    2.500 
#    0.000    0.625    0.000    1.500    0.000    0.000 
#    0.000    0.000    0.000    0.000    0.000    0.000 
#
# Total GULP energy -357622.842851 kJ/mol
# GULP energy per Si atom -5587.856920 kJ/mol
# Density = 2.228600 g / cm^3
# Si number density = 22.336845 Si / 1000 Ang^3
#
#
#
# Elastic Constant Matrix: (Units=GPa)
#
#
# Indices 1 2 3 4 5 6 
#
# 1 126.6315 67.0650 -6.6410 0.0000 0.0000 0.0000
# 2 67.0650 171.8931 4.3031 0.0000 0.0000 0.0000
# 3 -6.6410 4.3031 64.6127 0.0000 0.0000 0.0000
# 4 0.0000 0.0000 0.0000 5.6446 0.0000 0.0000
# 5 0.0000 0.0000 0.0000 0.0000 10.0722 0.0000
# 6 0.0000 0.0000 0.0000 0.0000 0.0000 39.4793
#
#
#
# Elastic Compliance Matrix: (Units=1/GPa)
#
#
# Indices 1 2 3 4 5 6 
#
# 1 0.010061 -0.003958 0.001298 0.000000 0.000000 0.000000
# 2 -0.003958 0.007384 -0.000899 0.000000 0.000000 0.000000
# 3 0.001298 -0.000899 0.015670 0.000000 0.000000 0.000000
# 4 0.000000 0.000000 0.000000 0.177160 0.000000 0.000000
# 5 0.000000 0.000000 0.000000 0.000000 0.099283 0.000000
# 6 0.000000 0.000000 0.000000 0.000000 0.000000 0.025330
#
#
# Mechanical properties :
#
#
# Convention : Reuss Voigt Hill
#
# Bulk Modulus (GPa) = 38.46469 54.73240 46.59855
# Shear Modulus (GPa) = 14.25834 30.93323 22.59579
#
# Velocity S-wave (km/s) = 2.52927 3.72540 3.18401
# Velocity P-wave (km/s) = 5.07812 6.56210 5.86722
#
# Compressibility (1/GPa) = 0.02599787
#
# Stress axis : x y z
#
# Youngs Moduli (GPa) = 99.39261 135.42333 63.81598
#
# Poissons Ratio (x) = 0.53599 -0.08281
# Poissons Ratio (y) = 0.39338 0.05734
# Poissons Ratio (z) = -0.12898 0.12169
#
# Static dielectric constant tensor:
#      x y z
#    x 1.772840 0.000000 0.000000 
#    y 0.000000 1.806060 0.000000 
#    z 0.000000 0.000000 1.868170 
# 
# From -- ./inp_files/10838.got.cif
#   From: 2010.05.17/outbox.cif.g08.bks.cpg/sg55_6_cif.got.tgz:10838.got - 2010.06.03 13:27:54.
