data_PCOD9425930
_publ_section_title
;
Structure prediction by ZEFSAII (Michael W. Deem and Ramdas Pophale) SiO2 
 PCOD9425930
Probable space group: P B A M
;
_chemical_formula_sum "Si O2"
_cell_formula_units_Z 64
_cell_length_a 12.903425
_cell_length_b 13.284442
_cell_length_c 17.134465
_cell_angle_alpha 90.000000
_cell_angle_beta 90.000000
_cell_angle_gamma 90.000000
_cell_volume 2937.100908
_symmetry_space_group_name_H-M "P B A M"
_symmetry_group_IT_number 55
_symmetry_cell_setting 'orthorhombic'
loop_
_space_group_symop_operation_xyz
x,y,z
-x,-y,z
1/2+x,1/2-y,-z
1/2-x,1/2+y,-z
-x,-y,-z
x,y,-z
1/2-x,1/2+y,z
1/2+x,1/2-y,z
loop_
_atom_site_type_symbol
_atom_site_label
_atom_site_fract_x
_atom_site_fract_y
_atom_site_fract_z
Si Si1 0.443341 0.602203 0.880413
Si Si2 0.893102 0.861536 0.293557
Si Si3 0.751063 0.519183 0.912913
Si Si4 0.043344 0.772570 0.587699
Si Si5 0.327033 0.470098 0.409691
Si Si6 0.602323 0.944650 0.377597
Si Si7 0.329362 0.108248 0.215867
Si Si8 0.875152 0.228715 0.914142
O O1 0.500000 0.500000 0.904307
O O2 0.451440 0.615158 0.787114
O O3 0.328334 0.576409 0.907652
O O4 0.504998 0.694476 0.915179
O O5 0.775064 0.851975 0.260927
O O6 0.953611 0.779592 0.346054
O O7 0.886099 0.955930 0.351410
O O8 0.816632 0.492337 0.836923
O O9 0.690658 0.625172 0.902279
O O10 0.797422 0.521383 0.000000
O O11 0.000485 0.789964 0.500000
O O12 0.128196 0.859137 0.604535
O O13 0.102028 0.666669 0.587176
O O14 0.348114 0.494730 0.500000
O O15 0.205195 0.490576 0.394871
O O16 0.595942 0.921528 0.285565
O O17 0.500000 0.000000 0.405423
O O18 0.360941 0.194927 0.156101
O O19 0.847636 0.269069 0.000000
#
# Coordination Sequence:
#
# PCOD9425930 Si02
#       8
#     8   8   8   8   8   8   8   8
#     4   9  16  28  50  78 110 148 189 236 289 342
#     4  10  20  35  59  91 124 157 198 251 302 355
#     4   9  18  33  54  82 113 145 188 244 302 352
#     4  11  23  40  65  92 121 159 200 250 310 367
#     4  10  22  41  64  91 121 156 205 257 307 369
#     4  11  26  44  62  87 123 164 205 251 306 368
#     4  10  22  37  58  85 117 159 202 246 296 358
#     4  10  19  33  56  84 117 156 198 244 292 351
#
# _framework density 21.790196000000002
#
# number of rings (size 3 to 8) (size 9 to 14) (size 15 to 20)
#    0.000    2.000    0.000    3.375    0.000   10.500 
#    0.000    2.500    0.000    4.500    0.000    0.000 
#    0.000    0.000    0.000    0.000    0.000    0.000 
#
# Total GULP energy -356948.097380 kJ/mol
# GULP energy per Si atom -5577.314022 kJ/mol
# Density = 2.174060 g / cm^3
# Si number density = 21.790196 Si / 1000 Ang^3
#
#
#
# Elastic Constant Matrix: (Units=GPa)
#
#
# Indices 1 2 3 4 5 6 
#
# 1 36.6293 5.2687 9.3103 0.0000 0.0000 0.0000
# 2 5.2687 49.8943 26.3402 0.0000 0.0000 0.0000
# 3 9.3103 26.3402 148.9570 0.0000 0.0000 0.0000
# 4 0.0000 0.0000 0.0000 22.6384 0.0000 0.0000
# 5 0.0000 0.0000 0.0000 0.0000 20.3621 0.0000
# 6 0.0000 0.0000 0.0000 0.0000 0.0000 21.8898
#
#
#
# Elastic Compliance Matrix: (Units=1/GPa)
#
#
# Indices 1 2 3 4 5 6 
#
# 1 0.027966 -0.002239 -0.001352 0.000000 0.000000 0.000000
# 2 -0.002239 0.022285 -0.003801 0.000000 0.000000 0.000000
# 3 -0.001352 -0.003801 0.007470 0.000000 0.000000 0.000000
# 4 0.000000 0.000000 0.000000 0.044173 0.000000 0.000000
# 5 0.000000 0.000000 0.000000 0.000000 0.049111 0.000000
# 6 0.000000 0.000000 0.000000 0.000000 0.000000 0.045683
#
#
# Mechanical properties :
#
#
# Convention : Reuss Voigt Hill
#
# Bulk Modulus (GPa) = 23.28980 35.25765 29.27373
# Shear Modulus (GPa) = 22.14492 25.94882 24.04687
#
# Velocity S-wave (km/s) = 3.19137 3.45461 3.32560
# Velocity P-wave (km/s) = 4.92861 5.66816 5.31128
#
# Compressibility (1/GPa) = 0.04293725
#
# Stress axis : x y z
#
# Youngs Moduli (GPa) = 35.75730 44.87250 133.86987
#
# Poissons Ratio (x) = 0.10049 0.18099
# Poissons Ratio (y) = 0.08008 0.50881
# Poissons Ratio (z) = 0.04834 0.17055
#
# Static dielectric constant tensor:
#      x y z
#    x 1.852710 0.000000 0.000000 
#    y 0.000000 1.773970 0.000000 
#    z 0.000000 0.000000 1.823560 
# 
# From -- ./inp_files/21663.got.cif
#   From: 2010.05.17/outbox.cif.g08.bks.cpg/sg55_11_cif.got.tgz:21663.got - 2010.06.03 13:27:54.
