data_PCOD9425085
_publ_section_title
;
Structure prediction by ZEFSAII (Michael W. Deem and Ramdas Pophale) SiO2 
 PCOD9425085
Probable space group: P B A M
;
_chemical_formula_sum "Si O2"
_cell_formula_units_Z 48
_cell_length_a 30.065050
_cell_length_b 10.568832
_cell_length_c 8.408109
_cell_angle_alpha 90.000000
_cell_angle_beta 90.000000
_cell_angle_gamma 90.000000
_cell_volume 2671.697340
_symmetry_space_group_name_H-M "P B A M"
_symmetry_group_IT_number 55
_symmetry_cell_setting 'orthorhombic'
loop_
_space_group_symop_operation_xyz
x,y,z
-x,-y,z
1/2+x,1/2-y,-z
1/2-x,1/2+y,-z
-x,-y,-z
x,y,-z
1/2-x,1/2+y,z
1/2+x,1/2-y,z
loop_
_atom_site_type_symbol
_atom_site_label
_atom_site_fract_x
_atom_site_fract_y
_atom_site_fract_z
Si Si1 0.782412 0.485583 0.309518
Si Si2 0.524421 0.373612 0.194560
Si Si3 0.472063 0.122700 0.808002
Si Si4 0.384172 0.013595 0.309773
Si Si5 0.384166 0.731547 0.191456
Si Si6 0.283360 0.731496 0.190783
O O1 0.781054 0.487620 0.500000
O O2 0.833506 0.457395 0.259159
O O3 0.749653 0.377270 0.248513
O O4 0.771367 0.627044 0.248871
O O5 0.500000 0.500000 0.248935
O O6 0.496750 0.249943 0.243621
O O7 0.575559 0.357039 0.246996
O O8 0.524744 0.375127 0.000000
O O9 0.421769 0.109031 0.748839
O O10 0.500000 0.000000 0.753610
O O11 0.471654 0.120955 0.000000
O O12 0.385067 0.006636 0.500000
O O13 0.395145 0.875248 0.239976
O O14 0.334067 0.704636 0.248364
O O15 0.383339 0.725994 0.000000
O O16 0.283502 0.732884 0.000000
#
# Coordination Sequence:
#
# PCOD9425085 Si02
#       6
#     8   8   8   8   8   8
#     4  10  21  38  57  78 111 149 181 220 280 343
#     4   9  17  31  51  75 105 137 170 208 259 318
#     4  10  18  31  53  78 102 135 175 215 262 310
#     4  10  20  33  53  79 105 137 179 220 263 313
#     4   9  17  33  55  77 105 137 176 218 261 313
#     4  10  20  35  58  84 108 138 184 237 275 316
#
# _framework density 17.966107000000001
#
# number of rings (size 3 to 8) (size 9 to 14) (size 15 to 20)
#    0.000    2.333    1.667    1.500    0.000    3.000 
#    3.000    0.000    0.000    2.000    0.000    0.000 
#    0.000    0.000    0.000    0.000    0.000    0.000 
#
# Total GULP energy -267730.148585 kJ/mol
# GULP energy per Si atom -5577.711429 kJ/mol
# Density = 1.792522 g / cm^3
# Si number density = 17.966107 Si / 1000 Ang^3
#
#
#
# Elastic Constant Matrix: (Units=GPa)
#
#
# Indices 1 2 3 4 5 6 
#
# 1 138.2908 94.3813 18.1626 0.0000 0.0000 0.0000
# 2 94.3813 130.1750 17.1991 0.0000 0.0000 0.0000
# 3 18.1626 17.1991 12.4692 0.0000 0.0000 0.0000
# 4 0.0000 0.0000 0.0000 2.1984 0.0000 0.0000
# 5 0.0000 0.0000 0.0000 0.0000 20.5159 0.0000
# 6 0.0000 0.0000 0.0000 0.0000 0.0000 37.3154
#
#
#
# Elastic Compliance Matrix: (Units=1/GPa)
#
#
# Indices 1 2 3 4 5 6 
#
# 1 0.014996 -0.009767 -0.008372 0.000000 0.000000 0.000000
# 2 -0.009767 0.015755 -0.007505 0.000000 0.000000 0.000000
# 3 -0.008372 -0.007505 0.102744 0.000000 0.000000 0.000000
# 4 0.000000 0.000000 0.000000 0.454870 0.000000 0.000000
# 5 0.000000 0.000000 0.000000 0.000000 0.048743 0.000000
# 6 0.000000 0.000000 0.000000 0.000000 0.000000 0.026799
#
#
# Mechanical properties :
#
#
# Convention : Reuss Voigt Hill
#
# Bulk Modulus (GPa) = 12.16427 60.04679 36.10553
# Shear Modulus (GPa) = 6.73314 22.08541 14.40928
#
# Velocity S-wave (km/s) = 1.93800 3.50992 2.83508
# Velocity P-wave (km/s) = 3.43411 7.06547 5.55491
#
# Compressibility (1/GPa) = 0.08220795
#
# Stress axis : x y z
#
# Youngs Moduli (GPa) = 66.68292 63.47318 9.73292
#
# Poissons Ratio (x) = 0.61992 0.08149
# Poissons Ratio (y) = 0.65127 0.07304
# Poissons Ratio (z) = 0.55829 0.47634
#
# Static dielectric constant tensor:
#      x y z
#    x 1.640930 0.000000 0.000000 
#    y 0.000000 1.583210 0.000000 
#    z 0.000000 0.000000 1.613410 
# 
# From -- ./inp_files/10514.got.cif
#   From: 2010.05.17/outbox.cif.g08.bks.cpg/sg55_6_cif.got.tgz:10514.got - 2010.06.03 13:27:54.
