data_PCOD9425843
_publ_section_title
;
Structure prediction by ZEFSAII (Michael W. Deem and Ramdas Pophale) SiO2 
 PCOD9425843
Probable space group: P B A M
;
_chemical_formula_sum "Si O2"
_cell_formula_units_Z 64
_cell_length_a 20.835435
_cell_length_b 16.891335
_cell_length_c 8.745017
_cell_angle_alpha 90.000000
_cell_angle_beta 90.000000
_cell_angle_gamma 90.000000
_cell_volume 3077.706525
_symmetry_space_group_name_H-M "P B A M"
_symmetry_group_IT_number 55
_symmetry_cell_setting 'orthorhombic'
loop_
_space_group_symop_operation_xyz
x,y,z
-x,-y,z
1/2+x,1/2-y,-z
1/2-x,1/2+y,-z
-x,-y,-z
x,y,-z
1/2-x,1/2+y,z
1/2+x,1/2-y,z
loop_
_atom_site_type_symbol
_atom_site_label
_atom_site_fract_x
_atom_site_fract_y
_atom_site_fract_z
Si Si1 0.355624 0.609627 0.318736
Si Si2 0.626441 0.718663 0.680237
Si Si3 0.606736 0.222889 0.686457
Si Si4 0.273902 0.168087 0.174166
Si Si5 0.155327 0.940392 0.818907
Si Si6 0.022586 0.643102 0.682022
Si Si7 0.293691 0.900194 0.319146
Si Si8 0.619884 0.971332 0.826500
O O1 0.362633 0.598779 0.500000
O O2 0.397347 0.685493 0.267599
O O3 0.283337 0.637751 0.279990
O O4 0.366644 0.526469 0.237267
O O5 0.639027 0.713811 0.500000
O O6 0.688448 0.756236 0.762199
O O7 0.615595 0.631613 0.745815
O O8 0.568584 0.780293 0.703280
O O9 0.605722 0.221983 0.500000
O O10 0.547139 0.169824 0.738080
O O11 0.673826 0.182307 0.731991
O O12 0.327324 0.098905 0.171183
O O13 0.251148 0.180069 0.000000
O O14 0.229040 0.926372 0.764840
O O15 0.152876 0.936343 0.000000
O O16 0.020225 0.626460 0.500000
O O17 0.055398 0.569596 0.765905
O O18 0.280363 0.897180 0.500000
O O19 0.349515 0.963673 0.284030
O O20 0.612990 0.001374 0.000000
#
# Coordination Sequence:
#
# PCOD9425843 Si02
#       8
#     8   8   8   8   8   8   8   8
#     4  11  21  36  59  83 113 149 192 238 289 348
#     4  10  20  35  59  85 108 145 194 235 279 340
#     4   9  21  39  59  85 112 146 192 244 287 332
#     4  10  19  33  54  81 116 150 182 228 288 342
#     4  12  24  38  56  84 120 150 184 236 296 349
#     4   9  19  39  62  82 111 150 197 241 281 332
#     4  11  21  36  60  88 118 150 190 234 286 347
#     4  10  20  34  54  84 120 154 188 229 281 335
#
# _framework density 20.794705
#
# number of rings (size 3 to 8) (size 9 to 14) (size 15 to 20)
#    0.000    1.750    1.250    3.750    0.000    3.000 
#    0.000    7.500    0.000    3.750    0.000    0.000 
#    0.000    0.000    0.000    0.000    0.000    0.000 
#
# Total GULP energy -357691.028826 kJ/mol
# GULP energy per Si atom -5588.922325 kJ/mol
# Density = 2.074738 g / cm^3
# Si number density = 20.794705 Si / 1000 Ang^3
#
#
#
# Elastic Constant Matrix: (Units=GPa)
#
#
# Indices 1 2 3 4 5 6 
#
# 1 36.1401 -16.6944 4.8806 0.0000 0.0000 0.0000
# 2 -16.6944 53.6814 10.4873 0.0000 0.0000 0.0000
# 3 4.8806 10.4873 36.0471 0.0000 0.0000 0.0000
# 4 0.0000 0.0000 0.0000 18.2458 0.0000 0.0000
# 5 0.0000 0.0000 0.0000 0.0000 0.4573 0.0000
# 6 0.0000 0.0000 0.0000 0.0000 0.0000 25.4717
#
#
#
# Elastic Compliance Matrix: (Units=1/GPa)
#
#
# Indices 1 2 3 4 5 6 
#
# 1 0.034485 0.012338 -0.008258 0.000000 0.000000 0.000000
# 2 0.012338 0.024165 -0.008701 0.000000 0.000000 0.000000
# 3 -0.008258 -0.008701 0.031391 0.000000 0.000000 0.000000
# 4 0.000000 0.000000 0.000000 0.054807 0.000000 0.000000
# 5 0.000000 0.000000 0.000000 0.000000 2.186971 0.000000
# 6 0.000000 0.000000 0.000000 0.000000 0.000000 0.039259
#
#
# Mechanical properties :
#
#
# Convention : Reuss Voigt Hill
#
# Bulk Modulus (GPa) = 12.37662 13.69062 13.03362
# Shear Modulus (GPa) = 2.07706 17.31461 9.69583
#
# Velocity S-wave (km/s) = 1.00050 2.88869 2.16166
# Velocity P-wave (km/s) = 2.70174 4.20999 3.53719
#
# Compressibility (1/GPa) = 0.08079748
#
# Stress axis : x y z
#
# Youngs Moduli (GPa) = 28.99847 41.38186 31.85622
#
# Poissons Ratio (x) = -0.51056 0.26308
# Poissons Ratio (y) = -0.35778 0.27718
# Poissons Ratio (z) = 0.23948 0.36006
#
# Static dielectric constant tensor:
#      x y z
#    x 1.744180 0.000000 0.000000 
#    y 0.000000 1.772790 0.000000 
#    z 0.000000 0.000000 1.706600 
# 
# From -- ./inp_files/9728.got.cif
#   From: 2010.05.17/outbox.cif.g08.bks.cpg/sg55_5_cif.got.tgz:9728.got - 2010.06.03 13:27:54.
