data_PCOD9425178
_publ_section_title
;
Structure prediction by ZEFSAII (Michael W. Deem and Ramdas Pophale) SiO2 
 PCOD9425178
Probable space group: P B A M
;
_chemical_formula_sum "Si O2"
_cell_formula_units_Z 64
_cell_length_a 30.528352
_cell_length_b 8.112890
_cell_length_c 12.878493
_cell_angle_alpha 90.000000
_cell_angle_beta 90.000000
_cell_angle_gamma 90.000000
_cell_volume 3189.657079
_symmetry_space_group_name_H-M "P B A M"
_symmetry_group_IT_number 55
_symmetry_cell_setting 'orthorhombic'
loop_
_space_group_symop_operation_xyz
x,y,z
-x,-y,z
1/2+x,1/2-y,-z
1/2-x,1/2+y,-z
-x,-y,-z
x,y,-z
1/2-x,1/2+y,z
1/2+x,1/2-y,z
loop_
_atom_site_type_symbol
_atom_site_label
_atom_site_fract_x
_atom_site_fract_y
_atom_site_fract_z
Si Si1 0.050376 0.061029 0.882935
Si Si2 0.864536 0.162650 0.875716
Si Si3 0.119571 0.229168 0.614105
Si Si4 0.142304 0.563155 0.288360
Si Si5 0.533870 0.228571 0.693005
Si Si6 0.554114 0.855379 0.377452
Si Si7 0.268379 0.183899 0.378169
Si Si8 0.690476 0.488685 0.703245
O O1 0.049225 0.213512 0.805168
O O2 0.087652 0.924013 0.856789
O O3 0.060591 0.113755 0.000000
O O4 0.000000 0.000000 0.880980
O O5 0.860560 0.343928 0.822507
O O6 0.828423 0.054364 0.812562
O O7 0.857920 0.167659 0.000000
O O8 0.129359 0.298840 0.500000
O O9 0.129991 0.371485 0.698407
O O10 0.068645 0.182484 0.619005
O O11 0.149147 0.075213 0.639385
O O12 0.105093 0.665121 0.352184
O O13 0.189921 0.579329 0.339469
O O14 0.482820 0.261133 0.672351
O O15 0.542955 0.036851 0.668423
O O16 0.547046 0.858666 0.500000
O O17 0.258215 0.158049 0.500000
O O18 0.227003 0.152891 0.303314
O O19 0.285375 0.367160 0.358543
#
# Coordination Sequence:
#
# PCOD9425178 Si02
#       8
#     8   8   8   8   8   8   8   8
#     4  10  20  36  59  82 113 160 208 261 311 350
#     4  10  22  43  63  86 122 163 207 262 312 357
#     4  11  20  35  58  87 125 162 199 246 306 367
#     4  10  21  36  60  88 119 162 207 251 301 362
#     4  10  18  32  54  82 116 161 208 247 297 367
#     4  10  19  34  55  82 124 168 200 243 306 364
#     4  11  21  36  58  88 123 154 196 245 298 367
#     4  11  23  39  61  91 121 162 200 251 309 368
#
# _framework density 20.064852999999999
#
# number of rings (size 3 to 8) (size 9 to 14) (size 15 to 20)
#    0.000    1.625    1.250    6.000    0.000    0.000 
#    0.000    6.875    0.000    3.375    0.000    0.000 
#    0.000    0.000    0.000    0.000    0.000    0.000 
#
# Total GULP energy -356640.443157 kJ/mol
# GULP energy per Si atom -5572.506924 kJ/mol
# Density = 2.001918 g / cm^3
# Si number density = 20.064853 Si / 1000 Ang^3
#
#
#
# Elastic Constant Matrix: (Units=GPa)
#
#
# Indices 1 2 3 4 5 6 
#
# 1 76.7075 13.8211 28.9974 0.0000 0.0000 0.0000
# 2 13.8211 23.8528 32.4668 0.0000 0.0000 0.0000
# 3 28.9974 32.4668 140.8112 0.0000 0.0000 0.0000
# 4 0.0000 0.0000 0.0000 30.9209 0.0000 0.0000
# 5 0.0000 0.0000 0.0000 0.0000 29.4913 0.0000
# 6 0.0000 0.0000 0.0000 0.0000 0.0000 30.0803
#
#
#
# Elastic Compliance Matrix: (Units=1/GPa)
#
#
# Indices 1 2 3 4 5 6 
#
# 1 0.014787 -0.006447 -0.001559 0.000000 0.000000 0.000000
# 2 -0.006447 0.063909 -0.013408 0.000000 0.000000 0.000000
# 3 -0.001559 -0.013408 0.010514 0.000000 0.000000 0.000000
# 4 0.000000 0.000000 0.000000 0.032341 0.000000 0.000000
# 5 0.000000 0.000000 0.000000 0.000000 0.033908 0.000000
# 6 0.000000 0.000000 0.000000 0.000000 0.000000 0.033244
#
#
# Mechanical properties :
#
#
# Convention : Reuss Voigt Hill
#
# Bulk Modulus (GPa) = 21.55911 43.54909 32.55410
# Shear Modulus (GPa) = 20.24358 29.17091 24.70725
#
# Velocity S-wave (km/s) = 3.17978 3.81705 3.51289
# Velocity P-wave (km/s) = 4.92436 6.41699 5.71958
#
# Compressibility (1/GPa) = 0.04638411
#
# Stress axis : x y z
#
# Youngs Moduli (GPa) = 67.62544 15.64721 95.10966
#
# Poissons Ratio (x) = 0.10087 0.14826
# Poissons Ratio (y) = 0.43595 1.27523
# Poissons Ratio (z) = 0.10541 0.20980
#
# Static dielectric constant tensor:
#      x y z
#    x 1.808600 0.000000 0.000000 
#    y 0.000000 1.792460 0.000000 
#    z 0.000000 0.000000 1.696200 
# 
# From -- ./inp_files/16217.got.cif
#   From: 2010.05.17/outbox.cif.g08.bks.cpg/sg55_9_cif.got.tgz:16217.got - 2010.06.03 13:27:54.
