data_PCOD9425607
_publ_section_title
;
Structure prediction by ZEFSAII (Michael W. Deem and Ramdas Pophale) SiO2 
 PCOD9425607
Probable space group: P B A M
;
_chemical_formula_sum "Si O2"
_cell_formula_units_Z 56
_cell_length_a 15.297580
_cell_length_b 22.581330
_cell_length_c 7.721041
_cell_angle_alpha 90.000000
_cell_angle_beta 90.000000
_cell_angle_gamma 90.000000
_cell_volume 2667.154104
_symmetry_space_group_name_H-M "P B A M"
_symmetry_group_IT_number 55
_symmetry_cell_setting 'orthorhombic'
loop_
_space_group_symop_operation_xyz
x,y,z
-x,-y,z
1/2+x,1/2-y,-z
1/2-x,1/2+y,-z
-x,-y,-z
x,y,-z
1/2-x,1/2+y,z
1/2+x,1/2-y,z
loop_
_atom_site_type_symbol
_atom_site_label
_atom_site_fract_x
_atom_site_fract_y
_atom_site_fract_z
Si Si1 0.492966 0.567729 0.794003
Si Si2 0.827167 0.285024 0.208066
Si Si3 0.649453 0.973335 0.294685
Si Si4 0.651551 0.649910 0.786976
Si Si5 0.801986 0.884724 0.294046
Si Si6 0.477796 0.126898 0.210069
Si Si7 0.663756 0.106309 0.199145
O O1 0.500000 0.500000 0.724803
O O2 0.568500 0.611748 0.726446
O O3 0.397720 0.596854 0.768729
O O4 0.507445 0.563052 0.000000
O O5 0.841251 0.218188 0.268658
O O6 0.737660 0.320023 0.250837
O O7 0.907660 0.325175 0.272613
O O8 0.831476 0.283780 0.000000
O O9 0.659624 0.982896 0.500000
O O10 0.729580 0.932154 0.229698
O O11 0.562005 0.936109 0.262749
O O12 0.649762 0.036202 0.204554
O O13 0.741799 0.620299 0.726331
O O14 0.647947 0.649590 0.000000
O O15 0.803417 0.889114 0.500000
O O16 0.576120 0.134602 0.276513
O O17 0.479804 0.128763 0.000000
O O18 0.667704 0.126946 0.000000
#
# Coordination Sequence:
#
# PCOD9425607 Si02
#       7
#     8   8   8   8   8   8   8
#     4  10  20  35  57  84 111 142 182 226 273 324
#     4   9  18  35  56  77 103 136 175 216 260 311
#     4  10  20  33  50  74 104 135 168 207 251 304
#     4   9  19  34  54  80 106 134 173 220 262 307
#     4  10  21  36  54  77 106 141 179 219 265 316
#     4   9  18  31  50  75 101 132 167 205 251 303
#     4  10  19  32  51  76 105 133 164 206 256 307
#
# _framework density 20.996162999999999
#
# number of rings (size 3 to 8) (size 9 to 14) (size 15 to 20)
#    0.000    2.429    0.000    2.143    0.000    6.571 
#    0.000    6.429    0.000    3.429    0.000    0.000 
#    0.000    0.000    0.000    0.000    0.000    0.000 
#
# Total GULP energy -312489.664471 kJ/mol
# GULP energy per Si atom -5580.172580 kJ/mol
# Density = 2.094837 g / cm^3
# Si number density = 20.996163 Si / 1000 Ang^3
#
#
#
# Elastic Constant Matrix: (Units=GPa)
#
#
# Indices 1 2 3 4 5 6 
#
# 1 180.6952 72.7910 -3.0629 0.0000 0.0000 0.0000
# 2 72.7910 127.2143 -0.2224 0.0000 0.0000 0.0000
# 3 -3.0629 -0.2224 32.1276 0.0000 0.0000 0.0000
# 4 0.0000 0.0000 0.0000 -20.1103 0.0000 0.0000
# 5 0.0000 0.0000 0.0000 0.0000 -2.7748 0.0000
# 6 0.0000 0.0000 0.0000 0.0000 0.0000 17.3095
#
#
#
# Elastic Compliance Matrix: (Units=1/GPa)
#
#
# Indices 1 2 3 4 5 6 
#
# 1 0.007206 -0.004122 0.000658 0.000000 0.000000 0.000000
# 2 -0.004122 0.010219 -0.000322 0.000000 0.000000 0.000000
# 3 0.000658 -0.000322 0.031186 0.000000 0.000000 0.000000
# 4 0.000000 0.000000 0.000000 -0.049726 0.000000 0.000000
# 5 0.000000 0.000000 0.000000 0.000000 -0.360387 0.000000
# 6 0.000000 0.000000 0.000000 0.000000 0.000000 0.057772
#
#
# Mechanical properties :
#
#
# Convention : Reuss Voigt Hill
#
# Bulk Modulus (GPa) = 24.36676 53.22759 38.79717
# Shear Modulus (GPa) = -17.70047 16.92032 -0.39008
#
# Velocity S-wave (km/s) = -2.90665 2.84188 -0.43150
# Velocity P-wave (km/s) = 0.60471 6.01452 4.27435
#
# Compressibility (1/GPa) = 0.04103952
#
# Stress axis : x y z
#
# Youngs Moduli (GPa) = 138.77657 97.85942 32.06520
#
# Poissons Ratio (x) = 0.40337 -0.02111
# Poissons Ratio (y) = 0.57203 0.01033
# Poissons Ratio (z) = -0.09137 0.03153
#
# Static dielectric constant tensor:
#      x y z
#    x 1.763230 0.000000 0.000000 
#    y 0.000000 1.737910 0.000000 
#    z 0.000000 0.000000 1.766650 
# 
# From -- ./inp_files/6171.got.cif
#   From: 2010.05.17/outbox.cif.g08.bks.cpg/sg55_4_cif.got.tgz:6171.got - 2010.06.03 13:27:54.
