data_PCOD9425129
_publ_section_title
;
Structure prediction by ZEFSAII (Michael W. Deem and Ramdas Pophale) SiO2 
 PCOD9425129
Probable space group: P B A M
;
_chemical_formula_sum "Si O2"
_cell_formula_units_Z 32
_cell_length_a 15.547011
_cell_length_b 9.092248
_cell_length_c 9.770730
_cell_angle_alpha 90.000000
_cell_angle_beta 90.000000
_cell_angle_gamma 90.000000
_cell_volume 1381.163813
_symmetry_space_group_name_H-M "P B A M"
_symmetry_group_IT_number 55
_symmetry_cell_setting 'orthorhombic'
loop_
_space_group_symop_operation_xyz
x,y,z
-x,-y,z
1/2+x,1/2-y,-z
1/2-x,1/2+y,-z
-x,-y,-z
x,y,-z
1/2-x,1/2+y,z
1/2+x,1/2-y,z
loop_
_atom_site_type_symbol
_atom_site_label
_atom_site_fract_x
_atom_site_fract_y
_atom_site_fract_z
Si Si1 0.228334 0.597056 0.731203
Si Si2 0.630633 0.609544 0.354329
Si Si3 0.402756 0.617683 0.846037
Si Si4 0.418535 0.892090 0.339256
O O1 0.296334 0.515983 0.633305
O O2 0.297199 0.636340 0.847852
O O3 0.155180 0.474894 0.747360
O O4 0.179316 0.738713 0.674773
O O5 0.583130 0.621824 0.500000
O O6 0.584730 0.545124 0.219800
O O7 0.434876 0.739574 0.737854
O O8 0.434446 0.634985 0.000000
O O9 0.393556 0.871358 0.500000
O O10 0.500000 0.000000 0.339113
#
# Coordination Sequence:
#
# PCOD9425129 Si02
#       4
#     8   8   8   8
#     4  10  20  33  62  86 117 150 201 250 303 351
#     4  10  18  31  58  84 107 143 196 249 293 340
#     4  10  22  37  57  85 117 156 200 244 293 354
#     4  11  23  39  62  93 126 160 200 249 308 366
#
# _framework density 23.168866999999999
#
# number of rings (size 3 to 8) (size 9 to 14) (size 15 to 20)
#    1.500    0.250    2.500    3.000    0.000    4.500 
#    0.000    1.250    0.000    6.000    0.000    0.000 
#    0.000    0.000    0.000    0.000    0.000    0.000 
#
# Total GULP energy -178181.126008 kJ/mol
# GULP energy per Si atom -5568.160188 kJ/mol
# Density = 2.311613 g / cm^3
# Si number density = 23.168867 Si / 1000 Ang^3
#
#
#
# Elastic Constant Matrix: (Units=GPa)
#
#
# Indices 1 2 3 4 5 6 
#
# 1 64.1550 15.4905 6.5530 0.0000 0.0000 0.0000
# 2 15.4905 145.6218 52.5690 0.0000 0.0000 0.0000
# 3 6.5530 52.5690 110.1464 0.0000 0.0000 0.0000
# 4 0.0000 0.0000 0.0000 1.7535 0.0000 0.0000
# 5 0.0000 0.0000 0.0000 0.0000 20.7568 0.0000
# 6 0.0000 0.0000 0.0000 0.0000 0.0000 53.4075
#
#
#
# Elastic Compliance Matrix: (Units=1/GPa)
#
#
# Indices 1 2 3 4 5 6 
#
# 1 0.016001 -0.001641 -0.000169 0.000000 0.000000 0.000000
# 2 -0.001641 0.008465 -0.003942 0.000000 0.000000 0.000000
# 3 -0.000169 -0.003942 0.010970 0.000000 0.000000 0.000000
# 4 0.000000 0.000000 0.000000 0.570272 0.000000 0.000000
# 5 0.000000 0.000000 0.000000 0.000000 0.048177 0.000000
# 6 0.000000 0.000000 0.000000 0.000000 0.000000 0.018724
#
#
# Mechanical properties :
#
#
# Convention : Reuss Voigt Hill
#
# Bulk Modulus (GPa) = 41.78571 52.12758 46.95664
# Shear Modulus (GPa) = 7.22448 31.53760 19.38104
#
# Velocity S-wave (km/s) = 1.76775 3.69346 2.89539
# Velocity P-wave (km/s) = 4.71604 6.38253 5.61149
#
# Compressibility (1/GPa) = 0.02393163
#
# Stress axis : x y z
#
# Youngs Moduli (GPa) = 62.49704 118.13548 91.15441
#
# Poissons Ratio (x) = 0.19388 0.01537
# Poissons Ratio (y) = 0.10257 0.35936
# Poissons Ratio (z) = 0.01054 0.46573
#
# Static dielectric constant tensor:
#      x y z
#    x 1.969740 0.000000 0.000000 
#    y 0.000000 1.864680 0.000000 
#    z 0.000000 0.000000 1.711450 
# 
# From -- ./inp_files/8427.got.cif
#   From: 2010.05.17/outbox.cif.g08.bks.cpg/sg55_5_cif.got.tgz:8427.got - 2010.06.03 13:27:54.
