data_PCOD9425534
_publ_section_title
;
Structure prediction by ZEFSAII (Michael W. Deem and Ramdas Pophale) SiO2 
 PCOD9425534
Probable space group: P B A M
;
_chemical_formula_sum "Si O2"
_cell_formula_units_Z 56
_cell_length_a 14.017688
_cell_length_b 24.801444
_cell_length_c 7.732908
_cell_angle_alpha 90.000000
_cell_angle_beta 90.000000
_cell_angle_gamma 90.000000
_cell_volume 2688.414320
_symmetry_space_group_name_H-M "P B A M"
_symmetry_group_IT_number 55
_symmetry_cell_setting 'orthorhombic'
loop_
_space_group_symop_operation_xyz
x,y,z
-x,-y,z
1/2+x,1/2-y,-z
1/2-x,1/2+y,-z
-x,-y,-z
x,y,-z
1/2-x,1/2+y,z
1/2+x,1/2-y,z
loop_
_atom_site_type_symbol
_atom_site_label
_atom_site_fract_x
_atom_site_fract_y
_atom_site_fract_z
Si Si1 0.109007 0.120890 0.294634
Si Si2 0.300638 0.063202 0.293918
Si Si3 0.589727 0.832249 0.203092
Si Si4 0.725602 0.057026 0.792048
Si Si5 0.940514 0.050297 0.796761
Si Si6 0.124429 0.334507 0.212747
Si Si7 0.222638 0.225948 0.791590
O O1 0.102650 0.114982 0.500000
O O2 0.195161 0.081882 0.230379
O O3 0.143682 0.180920 0.252588
O O4 0.008632 0.101918 0.219896
O O5 0.301283 0.069656 0.500000
O O6 0.375290 0.106040 0.220174
O O7 0.317525 0.001280 0.249774
O O8 0.483836 0.825865 0.274384
O O9 0.675891 0.796005 0.276991
O O10 0.583857 0.819133 0.000000
O O11 0.834649 0.057374 0.723974
O O12 0.666194 0.108252 0.729017
O O13 0.728959 0.061847 0.000000
O O14 0.927368 0.038701 0.000000
O O15 0.000000 0.000000 0.720242
O O16 0.190401 0.284654 0.267564
O O17 0.122926 0.334844 0.000000
O O18 0.228882 0.227375 0.000000
#
# Coordination Sequence:
#
# PCOD9425534 Si02
#       7
#     8   8   8   8   8   8   8
#     4  10  20  33  52  77 106 142 178 215 261 314
#     4  10  20  34  52  76 106 140 178 216 260 314
#     4   9  18  34  57  79 102 135 173 213 259 314
#     4  10  20  34  53  77 109 141 176 222 268 317
#     4  10  19  31  51  80 109 139 175 218 268 317
#     4   9  19  35  55  81 106 134 173 219 267 310
#     4   9  18  34  56  78 102 133 174 218 258 310
#
# _framework density 20.830120999999998
#
# number of rings (size 3 to 8) (size 9 to 14) (size 15 to 20)
#    0.000    2.429    1.429    0.857    0.000    3.714 
#    0.000    9.286    0.000    3.429    0.000    0.000 
#    0.000    0.000    0.000    0.000    0.000    0.000 
#
# Total GULP energy -312600.669433 kJ/mol
# GULP energy per Si atom -5582.154811 kJ/mol
# Density = 2.078271 g / cm^3
# Si number density = 20.830121 Si / 1000 Ang^3
#
#
#
# Elastic Constant Matrix: (Units=GPa)
#
#
# Indices 1 2 3 4 5 6 
#
# 1 113.2961 50.2040 4.4467 0.0000 0.0000 0.0000
# 2 50.2040 117.6344 -11.1065 0.0000 0.0000 0.0000
# 3 4.4467 -11.1065 29.1393 0.0000 0.0000 0.0000
# 4 0.0000 0.0000 0.0000 -47.2204 0.0000 0.0000
# 5 0.0000 0.0000 0.0000 0.0000 -2.3350 0.0000
# 6 0.0000 0.0000 0.0000 0.0000 0.0000 18.4063
#
#
#
# Elastic Compliance Matrix: (Units=1/GPa)
#
#
# Indices 1 2 3 4 5 6 
#
# 1 0.011253 -0.005150 -0.003680 0.000000 0.000000 0.000000
# 2 -0.005150 0.011175 0.005045 0.000000 0.000000 0.000000
# 3 -0.003680 0.005045 0.036803 0.000000 0.000000 0.000000
# 4 0.000000 0.000000 0.000000 -0.021177 0.000000 0.000000
# 5 0.000000 0.000000 0.000000 0.000000 -0.428272 0.000000
# 6 0.000000 0.000000 0.000000 0.000000 0.000000 0.054329
#
#
# Mechanical properties :
#
#
# Convention : Reuss Voigt Hill
#
# Bulk Modulus (GPa) = 19.35695 38.57313 28.96504
# Shear Modulus (GPa) = -16.07202 8.20522 -3.93340
#
# Velocity S-wave (km/s) = -2.78074 1.98687 -1.37565
# Velocity P-wave (km/s) = 0.99853 4.88075 3.37821
#
# Compressibility (1/GPa) = 0.05166104
#
# Stress axis : x y z
#
# Youngs Moduli (GPa) = 88.86571 89.48405 27.17206
#
# Poissons Ratio (x) = 0.46084 0.10000
# Poissons Ratio (y) = 0.45766 -0.13709
# Poissons Ratio (z) = 0.32704 -0.45147
#
# Static dielectric constant tensor:
#      x y z
#    x 1.749130 0.000000 0.000000 
#    y 0.000000 1.724310 0.000000 
#    z 0.000000 0.000000 1.748360 
# 
# From -- ./inp_files/6086.got.cif
#   From: 2010.05.17/outbox.cif.g08.bks.cpg/sg55_4_cif.got.tgz:6086.got - 2010.06.03 13:27:54.
