data_PCOD9425855
_publ_section_title
;
Structure prediction by ZEFSAII (Michael W. Deem and Ramdas Pophale) SiO2 
 PCOD9425855
Probable space group: P B A M
;
_chemical_formula_sum "Si O2"
_cell_formula_units_Z 56
_cell_length_a 14.230207
_cell_length_b 19.599531
_cell_length_c 7.479319
_cell_angle_alpha 90.000000
_cell_angle_beta 90.000000
_cell_angle_gamma 90.000000
_cell_volume 2086.022332
_symmetry_space_group_name_H-M "P B A M"
_symmetry_group_IT_number 55
_symmetry_cell_setting 'orthorhombic'
loop_
_space_group_symop_operation_xyz
x,y,z
-x,-y,z
1/2+x,1/2-y,-z
1/2-x,1/2+y,-z
-x,-y,-z
x,y,-z
1/2-x,1/2+y,z
1/2+x,1/2-y,z
loop_
_atom_site_type_symbol
_atom_site_label
_atom_site_fract_x
_atom_site_fract_y
_atom_site_fract_z
Si Si1 0.711314 0.499466 0.216883
Si Si2 0.894507 0.432724 0.795109
Si Si3 0.432079 0.713440 0.283214
Si Si4 0.784478 0.298657 0.291876
Si Si5 0.927614 0.636074 0.210013
Si Si6 0.968846 0.929195 0.293776
Si Si7 0.786241 0.148849 0.215404
O O1 0.817552 0.484968 0.279302
O O2 0.643769 0.441465 0.291394
O O3 0.673854 0.574747 0.267391
O O4 0.711388 0.495389 0.000000
O O5 0.841213 0.359465 0.797820
O O6 0.996279 0.416486 0.713704
O O7 0.909942 0.453763 0.000000
O O8 0.433143 0.711475 0.500000
O O9 0.322836 0.708122 0.223388
O O10 0.467707 0.787142 0.226500
O O11 0.484683 0.645648 0.215883
O O12 0.781832 0.316584 0.500000
O O13 0.824312 0.221413 0.278968
O O14 0.822201 0.642001 0.282067
O O15 0.917286 0.620538 0.000000
O O16 0.999425 0.929107 0.500000
O O17 0.000000 0.000000 0.203931
O O18 0.786253 0.151702 0.000000
#
# Coordination Sequence:
#
# PCOD9425855 Si02
#       7
#     8   8   8   8   8   8   8
#     4  10  21  36  56  81 111 146 182 224 274 327
#     4  10  20  34  54  82 111 143 184 224 270 327
#     4   9  18  34  53  75 103 135 177 223 269 321
#     4  10  19  33  55  78 102 141 184 226 273 322
#     4   9  19  34  54  79 107 142 180 222 269 317
#     4  10  21  37  56  78 108 144 181 225 276 329
#     4   9  19  36  55  79 112 145 180 225 272 323
#
# _framework density 26.84535
#
# number of rings (size 3 to 8) (size 9 to 14) (size 15 to 20)
#    0.000    2.429    1.429    0.429    0.000    4.286 
#    0.000    5.714    0.000    0.000    0.000    6.000 
#    0.000    0.000    0.000    0.000    0.000    0.000 
#
# Total GULP energy -313215.984508 kJ/mol
# GULP energy per Si atom -5593.142581 kJ/mol
# Density = 2.678425 g / cm^3
# Si number density = 26.845350 Si / 1000 Ang^3
#
#
#
# Elastic Constant Matrix: (Units=GPa)
#
#
# Indices 1 2 3 4 5 6 
#
# 1 69.1390 9.1700 7.5278 0.0000 0.0000 0.0000
# 2 9.1700 171.6462 3.1796 0.0000 0.0000 0.0000
# 3 7.5278 3.1796 101.5339 0.0000 0.0000 0.0000
# 4 0.0000 0.0000 0.0000 9.3907 0.0000 0.0000
# 5 0.0000 0.0000 0.0000 0.0000 4.7915 0.0000
# 6 0.0000 0.0000 0.0000 0.0000 0.0000 58.3997
#
#
#
# Elastic Compliance Matrix: (Units=1/GPa)
#
#
# Indices 1 2 3 4 5 6 
#
# 1 0.014681 -0.000765 -0.001065 0.000000 0.000000 0.000000
# 2 -0.000765 0.005869 -0.000127 0.000000 0.000000 0.000000
# 3 -0.001065 -0.000127 0.009932 0.000000 0.000000 0.000000
# 4 0.000000 0.000000 0.000000 0.106489 0.000000 0.000000
# 5 0.000000 0.000000 0.000000 0.000000 0.208702 0.000000
# 6 0.000000 0.000000 0.000000 0.000000 0.000000 0.017123
#
#
# Mechanical properties :
#
#
# Convention : Reuss Voigt Hill
#
# Bulk Modulus (GPa) = 37.63718 42.45266 40.04492
# Shear Modulus (GPa) = 13.31328 36.01249 24.66288
#
# Velocity S-wave (km/s) = 2.22935 3.66659 3.03430
# Velocity P-wave (km/s) = 4.54721 5.81148 5.21778
#
# Compressibility (1/GPa) = 0.02656947
#
# Stress axis : x y z
#
# Youngs Moduli (GPa) = 68.11563 170.38279 100.68632
#
# Poissons Ratio (x) = 0.13027 0.10718
# Poissons Ratio (y) = 0.05208 0.01280
# Poissons Ratio (z) = 0.07251 0.02166
#
# Static dielectric constant tensor:
#      x y z
#    x 2.215650 0.000000 0.000000 
#    y 0.000000 2.084940 0.000000 
#    z 0.000000 0.000000 1.998570 
# 
# From -- ./inp_files/6026.got.cif
#   From: 2010.05.17/outbox.cif.g08.bks.cpg/sg55_4_cif.got.tgz:6026.got - 2010.06.03 13:27:54.
