data_PCOD9425051
_publ_section_title
;
Structure prediction by ZEFSAII (Michael W. Deem and Ramdas Pophale) SiO2 
 PCOD9425051
Probable space group: P B A M
;
_chemical_formula_sum "Si O2"
_cell_formula_units_Z 64
_cell_length_a 14.875514
_cell_length_b 31.399253
_cell_length_c 7.997868
_cell_angle_alpha 90.000000
_cell_angle_beta 90.000000
_cell_angle_gamma 90.000000
_cell_volume 3735.644406
_symmetry_space_group_name_H-M "P B A M"
_symmetry_group_IT_number 55
_symmetry_cell_setting 'orthorhombic'
loop_
_space_group_symop_operation_xyz
x,y,z
-x,-y,z
1/2+x,1/2-y,-z
1/2-x,1/2+y,-z
-x,-y,-z
x,y,-z
1/2-x,1/2+y,z
1/2+x,1/2-y,z
loop_
_atom_site_type_symbol
_atom_site_label
_atom_site_fract_x
_atom_site_fract_y
_atom_site_fract_z
Si Si1 0.892342 0.455003 0.697301
Si Si2 0.816144 0.796102 0.300083
Si Si3 0.502907 0.734635 0.803268
Si Si4 0.903038 0.550071 0.197578
Si Si5 0.795751 0.211488 0.797375
Si Si6 0.308954 0.869453 0.808587
Si Si7 0.322286 0.133172 0.704016
Si Si8 0.986510 0.671284 0.692998
O O1 0.877900 0.459717 0.500000
O O2 0.876959 0.500954 0.777783
O O3 0.832151 0.415690 0.760203
O O4 0.998046 0.443909 0.723442
O O5 0.823464 0.798650 0.500000
O O6 0.915792 0.794232 0.225518
O O7 0.761640 0.752536 0.259604
O O8 0.758430 0.836654 0.238875
O O9 0.599777 0.716562 0.751461
O O10 0.484891 0.778067 0.705031
O O11 0.508791 0.745098 0.000000
O O12 0.830083 0.583877 0.264832
O O13 0.913617 0.557996 0.000000
O O14 0.755037 0.166818 0.732292
O O15 0.788942 0.210868 0.000000
O O16 0.407123 0.847802 0.802095
O O17 0.278632 0.875747 0.000000
O O18 0.319323 0.132574 0.500000
O O19 0.415987 0.155732 0.749809
O O20 0.972895 0.657935 0.500000
#
# Coordination Sequence:
#
# PCOD9425051 Si02
#       8
#     8   8   8   8   8   8   8   8
#     4  10  18  31  48  67  95 129 160 194 238 291
#     4  11  21  34  51  72  97 127 165 206 244 286
#     4  11  22  35  48  69 100 131 166 203 244 288
#     4  10  19  30  45  70  99 125 157 198 241 288
#     4  10  21  35  50  69  96 131 166 200 240 289
#     4  10  20  33  48  69  98 131 164 200 244 286
#     4   9  19  32  47  70  98 127 164 201 241 284
#     4  11  19  30  48  70  97 130 168 201 236 281
#
# _framework density 17.132252000000001
#
# number of rings (size 3 to 8) (size 9 to 14) (size 15 to 20)
#    0.000    1.750    3.750    2.625    0.000    1.000 
#    0.000    2.500    0.000    0.000    0.000    0.875 
#    0.000    7.000    0.000    0.000    0.000    0.000 
#
# Total GULP energy -356976.549835 kJ/mol
# GULP energy per Si atom -5577.758591 kJ/mol
# Density = 1.709326 g / cm^3
# Si number density = 17.132252 Si / 1000 Ang^3
#
#
#
# Elastic Constant Matrix: (Units=GPa)
#
#
# Indices 1 2 3 4 5 6 
#
# 1 80.2299 37.4523 3.7179 0.0000 0.0000 0.0000
# 2 37.4523 115.9067 -0.8059 0.0000 0.0000 0.0000
# 3 3.7179 -0.8059 25.4068 0.0000 0.0000 0.0000
# 4 0.0000 0.0000 0.0000 15.0611 0.0000 0.0000
# 5 0.0000 0.0000 0.0000 0.0000 4.0932 0.0000
# 6 0.0000 0.0000 0.0000 0.0000 0.0000 27.4984
#
#
#
# Elastic Compliance Matrix: (Units=1/GPa)
#
#
# Indices 1 2 3 4 5 6 
#
# 1 0.014814 -0.004803 -0.002320 0.000000 0.000000 0.000000
# 2 -0.004803 0.010187 0.001026 0.000000 0.000000 0.000000
# 3 -0.002320 0.001026 0.039732 0.000000 0.000000 0.000000
# 4 0.000000 0.000000 0.000000 0.066396 0.000000 0.000000
# 5 0.000000 0.000000 0.000000 0.000000 0.244306 0.000000
# 6 0.000000 0.000000 0.000000 0.000000 0.000000 0.036366
#
#
# Mechanical properties :
#
#
# Convention : Reuss Voigt Hill
#
# Bulk Modulus (GPa) = 19.03383 33.58576 26.30980
# Shear Modulus (GPa) = 11.32487 21.40916 16.36702
#
# Velocity S-wave (km/s) = 2.57383 3.53886 3.09420
# Velocity P-wave (km/s) = 4.46843 6.02863 5.30619
#
# Compressibility (1/GPa) = 0.05253803
#
# Stress axis : x y z
#
# Youngs Moduli (GPa) = 67.50504 98.16749 25.16889
#
# Poissons Ratio (x) = 0.47148 0.05839
# Poissons Ratio (y) = 0.32421 -0.02582
# Poissons Ratio (z) = 0.15662 -0.10072
#
# Static dielectric constant tensor:
#      x y z
#    x 1.565710 0.000000 0.000000 
#    y 0.000000 1.619270 0.000000 
#    z 0.000000 0.000000 1.627570 
# 
# From -- ./inp_files/6954.got.cif
#   From: 2010.05.17/outbox.cif.g08.bks.cpg/sg55_4_cif.got.tgz:6954.got - 2010.06.03 13:27:54.
