data_PCOD9425905
_publ_section_title
;
Structure prediction by ZEFSAII (Michael W. Deem and Ramdas Pophale) SiO2 
 PCOD9425905
Probable space group: P B A M
;
_chemical_formula_sum "Si O2"
_cell_formula_units_Z 64
_cell_length_a 29.073386
_cell_length_b 13.168882
_cell_length_c 7.432296
_cell_angle_alpha 90.000000
_cell_angle_beta 90.000000
_cell_angle_gamma 90.000000
_cell_volume 2845.558498
_symmetry_space_group_name_H-M "P B A M"
_symmetry_group_IT_number 55
_symmetry_cell_setting 'orthorhombic'
loop_
_space_group_symop_operation_xyz
x,y,z
-x,-y,z
1/2+x,1/2-y,-z
1/2-x,1/2+y,-z
-x,-y,-z
x,y,-z
1/2-x,1/2+y,z
1/2+x,1/2-y,z
loop_
_atom_site_type_symbol
_atom_site_label
_atom_site_fract_x
_atom_site_fract_y
_atom_site_fract_z
Si Si1 0.879316 0.339956 0.715961
Si Si2 0.638088 0.616474 0.292418
Si Si3 0.168641 0.285656 0.710658
Si Si4 0.302887 0.002329 0.280079
Si Si5 0.014308 0.611290 0.215306
Si Si6 0.066646 0.244129 0.782750
Si Si7 0.798785 0.933182 0.279841
Si Si8 0.447391 0.515615 0.217823
O O1 0.874840 0.336443 0.500000
O O2 0.864032 0.229267 0.786557
O O3 0.845461 0.428489 0.780688
O O4 0.932716 0.362398 0.751543
O O5 0.652753 0.628239 0.500000
O O6 0.670800 0.528563 0.214998
O O7 0.587005 0.569680 0.286578
O O8 0.180712 0.281870 0.500000
O O9 0.192228 0.386637 0.784649
O O10 0.113806 0.297465 0.727800
O O11 0.182705 0.175678 0.785246
O O12 0.304305 0.999828 0.500000
O O13 0.254091 0.050026 0.230536
O O14 0.000000 0.500000 0.284263
O O15 0.978402 0.696144 0.281635
O O16 0.008580 0.608794 0.000000
O O17 0.067948 0.127437 0.721276
O O18 0.065253 0.241319 0.000000
O O19 0.802053 0.932893 0.500000
O O20 0.500000 0.500000 0.271680
O O21 0.445573 0.511715 0.000000
#
# Coordination Sequence:
#
# PCOD9425905 Si02
#       8
#     8   8   8   8   8   8   8   8
#     4  10  21  35  53  81 113 143 176 222 272 315
#     4  10  20  34  52  77 108 138 173 219 266 312
#     4  10  19  33  56  81 105 138 179 220 263 314
#     4   9  19  33  53  81 109 139 177 218 267 321
#     4  10  21  37  57  79 106 145 187 220 262 321
#     4  10  20  34  53  77 106 139 175 221 270 316
#     4   9  18  32  52  79 106 136 175 221 266 313
#     4  10  20  34  52  74 102 139 177 214 262 318
#
# _framework density 22.491191000000001
#
# number of rings (size 3 to 8) (size 9 to 14) (size 15 to 20)
#    0.000    2.250    1.250    1.500    1.750    2.500 
#    0.000    0.000    0.000    3.000    0.000    0.000 
#    0.000    0.000    0.000    0.000    0.000    0.000 
#
# Total GULP energy -357684.399061 kJ/mol
# GULP energy per Si atom -5588.818735 kJ/mol
# Density = 2.244000 g / cm^3
# Si number density = 22.491191 Si / 1000 Ang^3
#
#
#
# Elastic Constant Matrix: (Units=GPa)
#
#
# Indices 1 2 3 4 5 6 
#
# 1 133.0127 70.3417 -13.2858 0.0000 0.0000 0.0000
# 2 70.3417 171.6250 8.4925 0.0000 0.0000 0.0000
# 3 -13.2858 8.4925 70.3357 0.0000 0.0000 0.0000
# 4 0.0000 0.0000 0.0000 -6.8574 0.0000 0.0000
# 5 0.0000 0.0000 0.0000 0.0000 18.3226 0.0000
# 6 0.0000 0.0000 0.0000 0.0000 0.0000 40.0321
#
#
#
# Elastic Compliance Matrix: (Units=1/GPa)
#
#
# Indices 1 2 3 4 5 6 
#
# 1 0.009984 -0.004210 0.002394 0.000000 0.000000 0.000000
# 2 -0.004210 0.007637 -0.001717 0.000000 0.000000 0.000000
# 3 0.002394 -0.001717 0.014877 0.000000 0.000000 0.000000
# 4 0.000000 0.000000 0.000000 -0.145829 0.000000 0.000000
# 5 0.000000 0.000000 0.000000 0.000000 0.054577 0.000000
# 6 0.000000 0.000000 0.000000 0.000000 0.000000 0.024980
#
#
# Mechanical properties :
#
#
# Convention : Reuss Voigt Hill
#
# Bulk Modulus (GPa) = 39.32205 56.23002 47.77603
# Shear Modulus (GPa) = -274.29435 30.92781 -121.68327
#
# Velocity S-wave (km/s) = -11.05537 3.71227 -7.36343
# Velocity P-wave (km/s) = 12.05986 6.59013 7.14179
#
# Compressibility (1/GPa) = 0.02543103
#
# Stress axis : x y z
#
# Youngs Moduli (GPa) = 100.16183 130.93611 67.21715
#
# Poissons Ratio (x) = 0.55130 -0.16093
# Poissons Ratio (y) = 0.42172 0.11544
# Poissons Ratio (z) = -0.23981 0.22488
#
# Static dielectric constant tensor:
#      x y z
#    x 1.770360 0.000000 0.000000 
#    y 0.000000 1.825350 0.000000 
#    z 0.000000 0.000000 1.867460 
# 
# From -- ./inp_files/16056.got.cif
#   From: 2010.05.17/outbox.cif.g08.bks.cpg/sg55_9_cif.got.tgz:16056.got - 2010.06.03 13:27:54.
