data_PCOD9425301
_publ_section_title
;
Structure prediction by ZEFSAII (Michael W. Deem and Ramdas Pophale) SiO2 
 PCOD9425301
Probable space group: P B A M
;
_chemical_formula_sum "Si O2"
_cell_formula_units_Z 52
_cell_length_a 7.780290
_cell_length_b 14.268571
_cell_length_c 19.146621
_cell_angle_alpha 90.000000
_cell_angle_beta 90.000000
_cell_angle_gamma 90.000000
_cell_volume 2125.535713
_symmetry_space_group_name_H-M "P B A M"
_symmetry_group_IT_number 55
_symmetry_cell_setting 'orthorhombic'
loop_
_space_group_symop_operation_xyz
x,y,z
-x,-y,z
1/2+x,1/2-y,-z
1/2-x,1/2+y,-z
-x,-y,-z
x,y,-z
1/2-x,1/2+y,z
1/2+x,1/2-y,z
loop_
_atom_site_type_symbol
_atom_site_label
_atom_site_fract_x
_atom_site_fract_y
_atom_site_fract_z
Si Si1 0.414178 0.624661 0.000000
Si Si2 0.578391 0.327112 0.318626
Si Si3 0.500000 0.500000 0.123351
Si Si4 0.128729 0.705855 0.780080
Si Si5 0.223649 0.040409 0.581419
Si Si6 0.584129 0.150103 0.418413
Si Si7 0.681514 0.162673 0.000000
Si Si8 0.199963 0.365276 0.849174
O O1 0.389503 0.566625 0.070972
O O2 0.334711 0.725959 0.000000
O O3 0.618580 0.638967 0.000000
O O4 0.421998 0.290834 0.272180
O O5 0.580661 0.413436 0.370479
O O6 0.613040 0.237551 0.368622
O O7 0.724736 0.348310 0.260976
O O8 0.646832 0.560157 0.162097
O O9 0.960427 0.645533 0.796894
O O10 0.207574 0.762597 0.845221
O O11 0.176514 0.043198 0.500000
O O12 0.392037 0.108080 0.589200
O O13 0.291342 0.936757 0.597895
O O14 0.608245 0.176172 0.500000
O O15 0.618143 0.122993 0.073755
#
# Coordination Sequence:
#
# PCOD9425301 Si02
#       8
#     4   8   4   8   8   8   4   8
#     4   9  18  32  60  95 106 150 180 235 306 365
#     4  11  19  39  57  83 118 167 194 259 292 377
#     4   9  18  34  58  84 122 140 191 238 302 346
#     4  10  23  36  57  81 121 155 212 223 301 369
#     4   9  18  34  59  87 115 152 203 256 304 354
#     4   9  18  34  59  88 116 155 206 252 303 359
#     4  10  18  34  68  80 114 144 192 240 304 342
#     4  10  20  39  59  89 111 158 196 250 291 365
#
# _framework density 24.464421000000002
#
# number of rings (size 3 to 8) (size 9 to 14) (size 15 to 20)
#    0.000    2.308    1.538    3.692    0.000    0.000 
#    5.538    0.000    3.385   24.923    0.000    0.000 
#    0.000    0.000    0.000    0.000    0.000    0.000 
#
# Total GULP energy -290654.218198 kJ/mol
# GULP energy per Si atom -5589.504196 kJ/mol
# Density = 2.440874 g / cm^3
# Si number density = 24.464421 Si / 1000 Ang^3
#
#
#
# Elastic Constant Matrix: (Units=GPa)
#
#
# Indices 1 2 3 4 5 6 
#
# 1 82.8690 20.1125 9.6501 0.0000 0.0000 0.0000
# 2 20.1125 72.6228 13.9970 0.0000 0.0000 0.0000
# 3 9.6501 13.9970 38.5720 0.0000 0.0000 0.0000
# 4 0.0000 0.0000 0.0000 -30.2876 0.0000 0.0000
# 5 0.0000 0.0000 0.0000 0.0000 0.0453 0.0000
# 6 0.0000 0.0000 0.0000 0.0000 0.0000 28.9225
#
#
#
# Elastic Compliance Matrix: (Units=1/GPa)
#
#
# Indices 1 2 3 4 5 6 
#
# 1 0.013094 -0.003220 -0.002107 0.000000 0.000000 0.000000
# 2 -0.003220 0.015597 -0.004854 0.000000 0.000000 0.000000
# 3 -0.002107 -0.004854 0.028214 0.000000 0.000000 0.000000
# 4 0.000000 0.000000 0.000000 -0.033017 0.000000 0.000000
# 5 0.000000 0.000000 0.000000 0.000000 22.061879 0.000000
# 6 0.000000 0.000000 0.000000 0.000000 0.000000 0.034575
#
#
# Mechanical properties :
#
#
# Convention : Reuss Voigt Hill
#
# Bulk Modulus (GPa) = 27.36582 31.28699 29.32640
# Shear Modulus (GPa) = 0.22570 9.75632 4.99101
#
# Velocity S-wave (km/s) = 0.30407 1.99915 1.42987
# Velocity P-wave (km/s) = 3.36653 4.25974 3.83920
#
# Compressibility (1/GPa) = 0.03654194
#
# Stress axis : x y z
#
# Youngs Moduli (GPa) = 76.36972 64.11414 35.44302
#
# Poissons Ratio (x) = 0.20646 0.07469
# Poissons Ratio (y) = 0.24592 0.17205
# Poissons Ratio (z) = 0.16094 0.31123
#
# Static dielectric constant tensor:
#      x y z
#    x 1.928340 0.000000 0.000000 
#    y 0.000000 1.997380 0.000000 
#    z 0.000000 0.000000 2.018540 
# 
# From -- ./inp_files/22593.got.cif
#   From: 2010.05.17/outbox.cif.g08.bks.cpg/sg55_12_cif.got.tgz:22593.got - 2010.06.03 13:27:54.
