data_PCOD9425878
_publ_section_title
;
Structure prediction by ZEFSAII (Michael W. Deem and Ramdas Pophale) SiO2 
 PCOD9425878
Probable space group: P B A M
;
_chemical_formula_sum "Si O2"
_cell_formula_units_Z 48
_cell_length_a 16.891148
_cell_length_b 18.512036
_cell_length_c 8.749324
_cell_angle_alpha 90.000000
_cell_angle_beta 90.000000
_cell_angle_gamma 90.000000
_cell_volume 2735.822096
_symmetry_space_group_name_H-M "P B A M"
_symmetry_group_IT_number 55
_symmetry_cell_setting 'orthorhombic'
loop_
_space_group_symop_operation_xyz
x,y,z
-x,-y,z
1/2+x,1/2-y,-z
1/2-x,1/2+y,-z
-x,-y,-z
x,y,-z
1/2-x,1/2+y,z
1/2+x,1/2-y,z
loop_
_atom_site_type_symbol
_atom_site_label
_atom_site_fract_x
_atom_site_fract_y
_atom_site_fract_z
Si Si1 0.146485 0.668047 0.316423
Si Si2 0.253541 0.550203 0.183454
Si Si3 0.995637 0.585141 0.183006
Si Si4 0.665628 0.666909 0.683470
Si Si5 0.171625 0.409176 0.683082
Si Si6 0.414415 0.472893 0.815817
O O1 0.147636 0.665078 0.500000
O O2 0.221726 0.624460 0.252054
O O3 0.147591 0.751673 0.267615
O O4 0.068717 0.627828 0.254766
O O5 0.197816 0.486280 0.247709
O O6 0.342827 0.527244 0.226838
O O7 0.247198 0.551586 0.000000
O O8 0.911820 0.612854 0.245904
O O9 0.000000 0.500000 0.223716
O O10 0.998878 0.590764 0.000000
O O11 0.657883 0.663076 0.500000
O O12 0.756030 0.644500 0.720628
O O13 0.609712 0.605685 0.754458
O O14 0.165029 0.415150 0.500000
O O15 0.500000 0.500000 0.762133
O O16 0.415770 0.469595 0.000000
#
# Coordination Sequence:
#
# PCOD9425878 Si02
#       6
#     8   8   8   8   8   8
#     4  11  22  37  56  80 113 147 182 226 278 327
#     4  10  19  33  55  81 109 141 182 225 268 324
#     4  11  22  35  55  84 115 143 183 227 269 326
#     4   9  21  39  57  81 111 144 183 228 275 325
#     4  10  19  35  58  80 107 143 182 221 270 325
#     4   9  19  37  60  83 110 144 185 229 272 324
#
# _framework density 17.545000000000002
#
# number of rings (size 3 to 8) (size 9 to 14) (size 15 to 20)
#    0.000    2.000    1.667    2.000    0.000    3.667 
#    3.000    0.000    0.000    0.000    0.000    0.000 
#    0.000    0.000    0.000    0.000    0.000    0.000 
#
# Total GULP energy -267947.573808 kJ/mol
# GULP energy per Si atom -5582.241121 kJ/mol
# Density = 1.750507 g / cm^3
# Si number density = 17.545000 Si / 1000 Ang^3
#
#
#
# Elastic Constant Matrix: (Units=GPa)
#
#
# Indices 1 2 3 4 5 6 
#
# 1 142.0482 90.3570 38.8120 0.0000 0.0000 0.0000
# 2 90.3570 147.9512 43.3372 0.0000 0.0000 0.0000
# 3 38.8120 43.3372 39.7432 0.0000 0.0000 0.0000
# 4 0.0000 0.0000 0.0000 35.4552 0.0000 0.0000
# 5 0.0000 0.0000 0.0000 0.0000 25.9058 0.0000
# 6 0.0000 0.0000 0.0000 0.0000 0.0000 20.8162
#
#
#
# Elastic Compliance Matrix: (Units=1/GPa)
#
#
# Indices 1 2 3 4 5 6 
#
# 1 0.012311 -0.005873 -0.005618 0.000000 0.000000 0.000000
# 2 -0.005873 0.012732 -0.008149 0.000000 0.000000 0.000000
# 3 -0.005618 -0.008149 0.039534 0.000000 0.000000 0.000000
# 4 0.000000 0.000000 0.000000 0.028205 0.000000 0.000000
# 5 0.000000 0.000000 0.000000 0.000000 0.038601 0.000000
# 6 0.000000 0.000000 0.000000 0.000000 0.000000 0.048040
#
#
# Mechanical properties :
#
#
# Convention : Reuss Voigt Hill
#
# Bulk Modulus (GPa) = 39.52985 74.97278 57.25132
# Shear Modulus (GPa) = 22.01332 26.91784 24.46558
#
# Velocity S-wave (km/s) = 3.54599 3.92116 3.73828
# Velocity P-wave (km/s) = 6.27254 7.95771 7.16484
#
# Compressibility (1/GPa) = 0.02529734
#
# Stress axis : x y z
#
# Youngs Moduli (GPa) = 81.23102 78.53957 25.29456
#
# Poissons Ratio (x) = 0.46123 0.14212
# Poissons Ratio (y) = 0.47704 0.20612
# Poissons Ratio (z) = 0.45639 0.64001
#
# Static dielectric constant tensor:
#      x y z
#    x 1.598950 0.000000 0.000000 
#    y 0.000000 1.576230 0.000000 
#    z 0.000000 0.000000 1.588230 
# 
# From -- ./inp_files/7571.got.cif
#   From: 2010.05.17/outbox.cif.g08.bks.cpg/sg55_4_cif.got.tgz:7571.got - 2010.06.03 13:27:54.
