data_PCOD9425205
_publ_section_title
;
Structure prediction by ZEFSAII (Michael W. Deem and Ramdas Pophale) SiO2 
 PCOD9425205
Probable space group: P B A M
;
_chemical_formula_sum "Si O2"
_cell_formula_units_Z 52
_cell_length_a 14.458558
_cell_length_b 21.067708
_cell_length_c 9.610577
_cell_angle_alpha 90.000000
_cell_angle_beta 90.000000
_cell_angle_gamma 90.000000
_cell_volume 2927.465155
_symmetry_space_group_name_H-M "P B A M"
_symmetry_group_IT_number 55
_symmetry_cell_setting 'orthorhombic'
loop_
_space_group_symop_operation_xyz
x,y,z
-x,-y,z
1/2+x,1/2-y,-z
1/2-x,1/2+y,-z
-x,-y,-z
x,y,-z
1/2-x,1/2+y,z
1/2+x,1/2-y,z
loop_
_atom_site_type_symbol
_atom_site_label
_atom_site_fract_x
_atom_site_fract_y
_atom_site_fract_z
Si Si1 0.000000 0.000000 0.752783
Si Si2 0.823157 0.426082 0.833663
Si Si3 0.144379 0.102080 0.656368
Si Si4 0.163524 0.430445 0.831703
Si Si5 0.998581 0.337153 0.832372
Si Si6 0.869786 0.111743 0.840185
Si Si7 0.008722 0.793362 0.334686
O O1 0.936088 0.049865 0.835214
O O2 0.071292 0.044190 0.668839
O O3 0.727422 0.407121 0.762567
O O4 0.850750 0.497035 0.785515
O O5 0.904844 0.376562 0.806461
O O6 0.809465 0.428652 0.000000
O O7 0.181568 0.103890 0.500000
O O8 0.085105 0.165512 0.682704
O O9 0.266888 0.408270 0.795487
O O10 0.084572 0.381535 0.788187
O O11 0.159166 0.431572 0.000000
O O12 0.998240 0.272534 0.746260
O O13 0.004926 0.325380 0.000000
O O14 0.912411 0.163873 0.737896
O O15 0.866912 0.134958 0.000000
O O16 0.024792 0.785787 0.500000
#
# Coordination Sequence:
#
# PCOD9425205 Si02
#       7
#     4   8   8   8   8   8   8
#     4  10  18  32  56  86 116 144 178 228 280 332
#     4  10  20  36  59  88 113 142 184 235 285 330
#     4  10  21  36  56  82 114 150 186 227 279 337
#     4   9  18  35  58  87 114 142 181 231 283 332
#     4  10  21  38  60  80 110 151 192 231 273 330
#     4  10  19  33  58  88 115 142 182 229 281 334
#     4  10  23  40  55  78 115 154 190 228 277 332
#
# _framework density 17.762806999999999
#
# number of rings (size 3 to 8) (size 9 to 14) (size 15 to 20)
#    0.000    2.154    1.538    1.385    0.000    7.385 
#    0.000    6.154    0.000    1.846    0.000    0.000 
#    0.000    0.000    0.000    0.000    0.000    0.000 
#
# Total GULP energy -290065.053493 kJ/mol
# GULP energy per Si atom -5578.174106 kJ/mol
# Density = 1.772238 g / cm^3
# Si number density = 17.762807 Si / 1000 Ang^3
#
#
#
# Elastic Constant Matrix: (Units=GPa)
#
#
# Indices 1 2 3 4 5 6 
#
# 1 111.7731 74.4174 51.8455 0.0000 0.0000 0.0000
# 2 74.4174 161.3688 74.1775 0.0000 0.0000 0.0000
# 3 51.8455 74.1775 64.7044 0.0000 0.0000 0.0000
# 4 0.0000 0.0000 0.0000 2.5766 0.0000 0.0000
# 5 0.0000 0.0000 0.0000 0.0000 6.5133 0.0000
# 6 0.0000 0.0000 0.0000 0.0000 0.0000 -567.5293
#
#
#
# Elastic Compliance Matrix: (Units=1/GPa)
#
#
# Indices 1 2 3 4 5 6 
#
# 1 0.014861 -0.002917 -0.008564 0.000000 0.000000 0.000000
# 2 -0.002917 0.013673 -0.013338 0.000000 0.000000 0.000000
# 3 -0.008564 -0.013338 0.037608 0.000000 0.000000 0.000000
# 4 0.000000 0.000000 0.000000 0.388114 0.000000 0.000000
# 5 0.000000 0.000000 0.000000 0.000000 0.153533 0.000000
# 6 0.000000 0.000000 0.000000 0.000000 0.000000 -0.001762
#
#
# Mechanical properties :
#
#
# Convention : Reuss Voigt Hill
#
# Bulk Modulus (GPa) = 60.58901 82.08081 71.33491
# Shear Modulus (GPa) = 7.56241 -102.52750 -47.48255
#
# Velocity S-wave (km/s) = 2.06559 -7.60563 -5.17585
# Velocity P-wave (km/s) = 6.31451 5.55138 2.12781
#
# Compressibility (1/GPa) = 0.01650464
#
# Stress axis : x y z
#
# Youngs Moduli (GPa) = 67.29069 73.13538 26.59038
#
# Poissons Ratio (x) = 0.21332 0.22771
# Poissons Ratio (y) = 0.19627 0.35466
# Poissons Ratio (z) = 0.57626 0.97548
#
# Static dielectric constant tensor:
#      x y z
#    x 1.587440 0.000000 0.000000 
#    y 0.000000 1.598810 0.000000 
#    z 0.000000 0.000000 1.592840 
# 
# From -- ./inp_files/5928.got.cif
#   From: 2010.05.17/outbox.cif.g08.bks.cpg/sg55_3_cif.got.tgz:5928.got - 2010.06.03 13:27:54.
