data_PCOD9425845
_publ_section_title
;
Structure prediction by ZEFSAII (Michael W. Deem and Ramdas Pophale) SiO2 
 PCOD9425845
Probable space group: P B A M
;
_chemical_formula_sum "Si O2"
_cell_formula_units_Z 64
_cell_length_a 23.826092
_cell_length_b 11.454013
_cell_length_c 13.161203
_cell_angle_alpha 90.000000
_cell_angle_beta 90.000000
_cell_angle_gamma 90.000000
_cell_volume 3591.749780
_symmetry_space_group_name_H-M "P B A M"
_symmetry_group_IT_number 55
_symmetry_cell_setting 'orthorhombic'
loop_
_space_group_symop_operation_xyz
x,y,z
-x,-y,z
1/2+x,1/2-y,-z
1/2-x,1/2+y,-z
-x,-y,-z
x,y,-z
1/2-x,1/2+y,z
1/2+x,1/2-y,z
loop_
_atom_site_type_symbol
_atom_site_label
_atom_site_fract_x
_atom_site_fract_y
_atom_site_fract_z
Si Si1 0.344914 0.945302 0.117803
Si Si2 0.845871 0.037636 0.619195
Si Si3 0.238270 0.567885 0.728956
Si Si4 0.364811 0.185140 0.617931
Si Si5 0.483368 0.322705 0.120300
Si Si6 0.052253 0.582060 0.783021
Si Si7 0.313870 0.683080 0.886069
Si Si8 0.088221 0.034979 0.806859
O O1 0.346240 0.805327 0.125048
O O2 0.294742 0.987847 0.190327
O O3 0.401758 0.006426 0.155519
O O4 0.334560 0.975807 0.000000
O O5 0.849014 0.007447 0.500000
O O6 0.856184 0.176025 0.629984
O O7 0.785888 0.000179 0.666067
O O8 0.891930 0.975444 0.690533
O O9 0.192016 0.623171 0.655607
O O10 0.268393 0.666171 0.798004
O O11 0.375058 0.160430 0.500000
O O12 0.415059 0.136857 0.687198
O O13 0.469369 0.191295 0.150967
O O14 0.538072 0.373715 0.176387
O O15 0.433601 0.410478 0.153233
O O16 0.492586 0.333020 0.000000
O O17 0.000000 0.500000 0.755587
O O18 0.358484 0.579738 0.870093
O O19 0.289758 0.679370 0.000000
#
# Coordination Sequence:
#
# PCOD9425845 Si02
#       8
#     8   8   8   8   8   8   8   8
#     4  10  21  36  54  83 118 153 189 228 279 337
#     4  10  20  37  59  83 112 147 188 234 285 331
#     4  10  20  34  58  84 113 146 189 232 278 336
#     4  10  21  39  58  79 110 146 186 236 287 332
#     4  11  21  36  57  83 114 148 186 225 277 335
#     4  11  23  38  58  83 112 149 191 236 281 337
#     4  10  19  33  54  81 116 153 185 225 279 332
#     4  10  20  35  55  82 112 146 190 229 272 328
#
# _framework density 17.818612999999999
#
# number of rings (size 3 to 8) (size 9 to 14) (size 15 to 20)
#    0.000    1.750    1.250    4.125    0.000    2.250 
#    0.000    1.875    0.000   14.250    0.000    0.000 
#    0.000    0.000    0.000    0.000    0.000    0.000 
#
# Total GULP energy -357257.368598 kJ/mol
# GULP energy per Si atom -5582.146384 kJ/mol
# Density = 1.777806 g / cm^3
# Si number density = 17.818613 Si / 1000 Ang^3
#
#
#
# Elastic Constant Matrix: (Units=GPa)
#
#
# Indices 1 2 3 4 5 6 
#
# 1 95.2638 43.2914 66.9362 0.0000 0.0000 0.0000
# 2 43.2914 78.8718 53.8861 0.0000 0.0000 0.0000
# 3 66.9362 53.8861 155.2207 0.0000 0.0000 0.0000
# 4 0.0000 0.0000 0.0000 27.3650 0.0000 0.0000
# 5 0.0000 0.0000 0.0000 0.0000 14.5590 0.0000
# 6 0.0000 0.0000 0.0000 0.0000 0.0000 24.7852
#
#
#
# Elastic Compliance Matrix: (Units=1/GPa)
#
#
# Indices 1 2 3 4 5 6 
#
# 1 0.016746 -0.005582 -0.005284 0.000000 0.000000 0.000000
# 2 -0.005582 0.018482 -0.004009 0.000000 0.000000 0.000000
# 3 -0.005284 -0.004009 0.010113 0.000000 0.000000 0.000000
# 4 0.000000 0.000000 0.000000 0.036543 0.000000 0.000000
# 5 0.000000 0.000000 0.000000 0.000000 0.068686 0.000000
# 6 0.000000 0.000000 0.000000 0.000000 0.000000 0.040347
#
#
# Mechanical properties :
#
#
# Convention : Reuss Voigt Hill
#
# Bulk Modulus (GPa) = 64.13769 73.06486 68.60128
# Shear Modulus (GPa) = 22.13735 24.35801 23.24768
#
# Velocity S-wave (km/s) = 3.52855 3.70130 3.61596
# Velocity P-wave (km/s) = 7.25767 7.70455 7.48445
#
# Compressibility (1/GPa) = 0.01559146
#
# Stress axis : x y z
#
# Youngs Moduli (GPa) = 59.71438 54.10804 98.88534
#
# Poissons Ratio (x) = 0.30202 0.52249
# Poissons Ratio (y) = 0.33332 0.39642
# Poissons Ratio (z) = 0.31552 0.21692
#
# Static dielectric constant tensor:
#      x y z
#    x 1.603090 0.000000 0.000000 
#    y 0.000000 1.596680 0.000000 
#    z 0.000000 0.000000 1.588040 
# 
# From -- ./inp_files/13596.got.cif
#   From: 2010.05.17/outbox.cif.g08.bks.cpg/sg55_7_cif.got.tgz:13596.got - 2010.06.03 13:27:54.
