data_PCOD9425940
_publ_section_title
;
Structure prediction by ZEFSAII (Michael W. Deem and Ramdas Pophale) SiO2 
 PCOD9425940
Probable space group: P B A M
;
_chemical_formula_sum "Si O2"
_cell_formula_units_Z 48
_cell_length_a 16.852461
_cell_length_b 8.462305
_cell_length_c 16.161581
_cell_angle_alpha 90.000000
_cell_angle_beta 90.000000
_cell_angle_gamma 90.000000
_cell_volume 2304.813814
_symmetry_space_group_name_H-M "P B A M"
_symmetry_group_IT_number 55
_symmetry_cell_setting 'orthorhombic'
loop_
_space_group_symop_operation_xyz
x,y,z
-x,-y,z
1/2+x,1/2-y,-z
1/2-x,1/2+y,-z
-x,-y,-z
x,y,-z
1/2-x,1/2+y,z
1/2+x,1/2-y,z
loop_
_atom_site_type_symbol
_atom_site_label
_atom_site_fract_x
_atom_site_fract_y
_atom_site_fract_z
Si Si1 0.843750 0.726785 0.748914
Si Si2 0.714662 0.412186 0.593999
Si Si3 0.749210 0.985808 0.849275
Si Si4 0.480918 0.311576 0.751044
Si Si5 0.372173 0.251186 0.405470
Si Si6 0.369539 0.259563 0.909579
O O1 0.827044 0.798430 0.659248
O O2 0.808837 0.856953 0.812293
O O3 0.792832 0.574336 0.772541
O O4 0.937408 0.716195 0.760138
O O5 0.697963 0.360274 0.500000
O O6 0.809184 0.390591 0.604683
O O7 0.680090 0.587972 0.602621
O O8 0.678932 0.902676 0.898962
O O9 0.801740 0.106992 0.900763
O O10 0.500000 0.500000 0.744630
O O11 0.435281 0.258780 0.667944
O O12 0.427048 0.283263 0.831695
O O13 0.404101 0.247626 0.500000
O O14 0.407939 0.269138 0.000000
#
# Coordination Sequence:
#
# PCOD9425940 Si02
#       6
#     8   8   8   8   8   8
#     4  11  21  39  62  87 120 160 204 251 302 369
#     4  10  19  33  56  86 116 158 204 251 294 349
#     4  10  22  41  65  87 115 160 205 250 299 361
#     4  12  23  38  58  93 126 161 202 246 314 359
#     4  10  21  37  61  89 124 161 208 253 299 358
#     4  11  23  42  65  92 122 156 202 253 303 366
#
# _framework density 20.825977999999999
#
# number of rings (size 3 to 8) (size 9 to 14) (size 15 to 20)
#    0.000    1.333    3.333    3.500    0.000    2.000 
#    0.000    2.500    0.000    0.000    0.000    9.333 
#    0.000    0.000    0.000    0.000    0.000    0.000 
#
# Total GULP energy -268323.666207 kJ/mol
# GULP energy per Si atom -5590.076379 kJ/mol
# Density = 2.077858 g / cm^3
# Si number density = 20.825978 Si / 1000 Ang^3
#
#
#
# Elastic Constant Matrix: (Units=GPa)
#
#
# Indices 1 2 3 4 5 6 
#
# 1 95.4239 -9.8443 40.4955 0.0000 0.0000 0.0000
# 2 -9.8443 3.1125 -1.5797 0.0000 0.0000 0.0000
# 3 40.4955 -1.5797 133.0733 0.0000 0.0000 0.0000
# 4 0.0000 0.0000 0.0000 7.6854 0.0000 0.0000
# 5 0.0000 0.0000 0.0000 0.0000 9.6591 0.0000
# 6 0.0000 0.0000 0.0000 0.0000 0.0000 -1.0484
#
#
#
# Elastic Compliance Matrix: (Units=1/GPa)
#
#
# Indices 1 2 3 4 5 6 
#
# 1 0.018261 0.055268 -0.004901 0.000000 0.000000 0.000000
# 2 0.055268 0.490502 -0.010996 0.000000 0.000000 0.000000
# 3 -0.004901 -0.010996 0.008876 0.000000 0.000000 0.000000
# 4 0.000000 0.000000 0.000000 0.130116 0.000000 0.000000
# 5 0.000000 0.000000 0.000000 0.000000 0.103530 0.000000
# 6 0.000000 0.000000 0.000000 0.000000 0.000000 -0.953813
#
#
# Mechanical properties :
#
#
# Convention : Reuss Voigt Hill
#
# Bulk Modulus (GPa) = 1.67678 32.19476 16.93577
# Shear Modulus (GPa) = -60.62214 16.76177 -21.93019
#
# Velocity S-wave (km/s) = -5.40112 2.84006 -3.24855
# Velocity P-wave (km/s) = 6.17165 5.12319 2.43332
#
# Compressibility (1/GPa) = 0.59638168
#
# Stress axis : x y z
#
# Youngs Moduli (GPa) = 54.76132 2.03873 112.66947
#
# Poissons Ratio (x) = -0.11268 0.55218
# Poissons Ratio (y) = -3.02657 1.23890
# Poissons Ratio (z) = 0.26838 0.02242
#
# Static dielectric constant tensor:
#      x y z
#    x 1.718750 0.000000 0.000000 
#    y 0.000000 1.772180 0.000000 
#    z 0.000000 0.000000 1.751420 
# 
# From -- ./inp_files/17334.got.cif
#   From: 2010.05.17/outbox.cif.g08.bks.cpg/sg55_9_cif.got.tgz:17334.got - 2010.06.03 13:27:54.
