data_PCOD9425358
_publ_section_title
;
Structure prediction by ZEFSAII (Michael W. Deem and Ramdas Pophale) SiO2 
 PCOD9425358
Probable space group: P B A M
;
_chemical_formula_sum "Si O2"
_cell_formula_units_Z 48
_cell_length_a 25.244556
_cell_length_b 8.289411
_cell_length_c 12.144683
_cell_angle_alpha 90.000000
_cell_angle_beta 90.000000
_cell_angle_gamma 90.000000
_cell_volume 2541.426729
_symmetry_space_group_name_H-M "P B A M"
_symmetry_group_IT_number 55
_symmetry_cell_setting 'orthorhombic'
loop_
_space_group_symop_operation_xyz
x,y,z
-x,-y,z
1/2+x,1/2-y,-z
1/2-x,1/2+y,-z
-x,-y,-z
x,y,-z
1/2-x,1/2+y,z
1/2+x,1/2-y,z
loop_
_atom_site_type_symbol
_atom_site_label
_atom_site_fract_x
_atom_site_fract_y
_atom_site_fract_z
Si Si1 0.922372 0.366120 0.369993
Si Si2 0.170857 0.199463 0.000000
Si Si3 0.410246 0.588093 0.824783
Si Si4 0.777307 0.149919 0.000000
Si Si5 0.580729 0.935316 0.000000
Si Si6 0.039560 0.264400 0.369724
Si Si7 0.518868 0.272165 0.000000
Si Si8 0.358085 0.237087 0.176465
O O1 0.915136 0.340819 0.500000
O O2 0.937210 0.554760 0.353471
O O3 0.870785 0.313344 0.301534
O O4 0.977082 0.272959 0.336759
O O5 0.134422 0.190838 0.108822
O O6 0.204157 0.034005 0.000000
O O7 0.214456 0.336803 0.000000
O O8 0.425310 0.644509 0.702956
O O9 0.389894 0.406167 0.834708
O O10 0.462030 0.629407 0.895326
O O11 0.803386 0.229071 0.110703
O O12 0.540577 0.784816 0.000000
O O13 0.615141 0.906298 0.107398
O O14 0.550168 0.101556 0.000000
O O15 0.041448 0.228032 0.500000
#
# Coordination Sequence:
#
# PCOD9425358 Si02
#       8
#     8   4   8   4   4   8   4   8
#     4   9  18  32  49  71 101 136 171 200 226 270
#     4   9  20  36  52  72  95 120 154 200 251 298
#     4  10  20  32  47  71  99 123 155 200 246 289
#     4   9  20  36  52  72  95 120 154 200 251 298
#     4  10  19  29  43  65  94 128 162 192 228 281
#     4   9  18  32  49  71 101 136 171 200 226 270
#     4  10  19  29  43  65  94 128 162 192 228 281
#     4  10  20  32  47  71  99 123 155 200 246 289
#
# _framework density 18.887028000000001
#
# number of rings (size 3 to 8) (size 9 to 14) (size 15 to 20)
#    0.000    2.500    0.000    4.500    0.000   10.667 
#    0.000    1.667    0.000    1.000    0.000    0.000 
#    0.000    0.000    0.000    0.000    0.000    0.000 
#
# Total GULP energy -267599.570593 kJ/mol
# GULP energy per Si atom -5574.991054 kJ/mol
# Density = 1.884404 g / cm^3
# Si number density = 18.887028 Si / 1000 Ang^3
#
#
#
# Elastic Constant Matrix: (Units=GPa)
#
#
# Indices 1 2 3 4 5 6 
#
# 1 58.6846 27.2314 26.1639 0.0000 0.0000 0.0000
# 2 27.2314 43.4664 21.4547 0.0000 0.0000 0.0000
# 3 26.1639 21.4547 80.8581 0.0000 0.0000 0.0000
# 4 0.0000 0.0000 0.0000 14.7997 0.0000 0.0000
# 5 0.0000 0.0000 0.0000 0.0000 19.2925 0.0000
# 6 0.0000 0.0000 0.0000 0.0000 0.0000 32.2379
#
#
#
# Elastic Compliance Matrix: (Units=1/GPa)
#
#
# Indices 1 2 3 4 5 6 
#
# 1 0.025432 -0.013660 -0.004605 0.000000 0.000000 0.000000
# 2 -0.013660 0.033811 -0.004551 0.000000 0.000000 0.000000
# 3 -0.004605 -0.004551 0.015065 0.000000 0.000000 0.000000
# 4 0.000000 0.000000 0.000000 0.067569 0.000000 0.000000
# 5 0.000000 0.000000 0.000000 0.000000 0.051834 0.000000
# 6 0.000000 0.000000 0.000000 0.000000 0.000000 0.031019
#
#
# Mechanical properties :
#
#
# Convention : Reuss Voigt Hill
#
# Bulk Modulus (GPa) = 34.87277 36.96768 35.92022
# Shear Modulus (GPa) = 17.86227 20.47662 19.16944
#
# Velocity S-wave (km/s) = 3.07863 3.29624 3.18929
# Velocity P-wave (km/s) = 5.58043 5.83973 5.71155
#
# Compressibility (1/GPa) = 0.02867567
#
# Stress axis : x y z
#
# Youngs Moduli (GPa) = 39.32078 29.57644 66.37954
#
# Poissons Ratio (x) = 0.40402 0.30565
# Poissons Ratio (y) = 0.53713 0.30210
# Poissons Ratio (z) = 0.18106 0.13461
#
# Static dielectric constant tensor:
#      x y z
#    x 1.666560 0.000000 0.000000 
#    y 0.000000 1.698710 0.000000 
#    z 0.000000 0.000000 1.564700 
# 
# From -- ./inp_files/15916.got.cif
#   From: 2010.05.17/outbox.cif.g08.bks.cpg/sg55_8_cif.got.tgz:15916.got - 2010.06.03 13:27:54.
