data_PCOD9425378
_publ_section_title
;
Structure prediction by ZEFSAII (Michael W. Deem and Ramdas Pophale) SiO2 
 PCOD9425378
Probable space group: P B A M
;
_chemical_formula_sum "Si O2"
_cell_formula_units_Z 44
_cell_length_a 7.701655
_cell_length_b 23.007682
_cell_length_c 10.268766
_cell_angle_alpha 90.000000
_cell_angle_beta 90.000000
_cell_angle_gamma 90.000000
_cell_volume 1819.596882
_symmetry_space_group_name_H-M "P B A M"
_symmetry_group_IT_number 55
_symmetry_cell_setting 'orthorhombic'
loop_
_space_group_symop_operation_xyz
x,y,z
-x,-y,z
1/2+x,1/2-y,-z
1/2-x,1/2+y,-z
-x,-y,-z
x,y,-z
1/2-x,1/2+y,z
1/2+x,1/2-y,z
loop_
_atom_site_type_symbol
_atom_site_label
_atom_site_fract_x
_atom_site_fract_y
_atom_site_fract_z
Si Si1 0.228129 0.259189 0.500000
Si Si2 0.595283 0.844967 0.500000
Si Si3 0.556046 0.407239 0.157041
Si Si4 0.505411 0.882119 0.783529
Si Si5 0.776661 0.511237 0.844410
Si Si6 0.148601 0.699647 0.000000
Si Si7 0.338961 0.301880 0.220454
O O1 0.223706 0.189407 0.500000
O O2 0.049618 0.294132 0.500000
O O3 0.318431 0.277596 0.365003
O O4 0.561953 0.877499 0.633926
O O5 0.387383 0.447101 0.188521
O O6 0.714304 0.447811 0.206141
O O7 0.506281 0.343625 0.209031
O O8 0.555598 0.402027 0.000000
O O9 0.438172 0.947113 0.811259
O O10 0.631608 0.851171 0.886401
O O11 0.332689 0.840832 0.805104
O O12 0.780748 0.504459 0.000000
O O13 0.152604 0.750984 0.113999
#
# Coordination Sequence:
#
# PCOD9425378 Si02
#       7
#     4   4   8   8   8   4   8
#     4  10  20  34  47  65  99 133 158 191 236 286
#     4  10  20  34  47  65  99 133 158 191 236 286
#     4   8  13  23  40  61  86 116 147 183 231 282
#     4  10  19  30  44  66  94 123 154 191 234 280
#     4   8  13  23  40  61  86 116 147 183 231 282
#     4  12  18  26  46  64  92 116 158 194 222 276
#     4  10  19  30  44  66  94 123 154 191 234 280
#
# _framework density 24.181177999999999
#
# number of rings (size 3 to 8) (size 9 to 14) (size 15 to 20)
#    0.000    2.545    3.636    1.636    0.000    0.000 
#    0.000    0.909    0.000    5.455    0.000    0.000 
#    0.000   20.364    0.000    0.000    0.000    0.000 
#
# Total GULP energy -245043.311710 kJ/mol
# GULP energy per Si atom -5569.166175 kJ/mol
# Density = 2.412614 g / cm^3
# Si number density = 24.181178 Si / 1000 Ang^3
#
#
#
# Elastic Constant Matrix: (Units=GPa)
#
#
# Indices 1 2 3 4 5 6 
#
# 1 50.9875 10.7909 13.9915 0.0000 0.0000 0.0000
# 2 10.7909 196.7547 72.7503 0.0000 0.0000 0.0000
# 3 13.9915 72.7503 126.4715 0.0000 0.0000 0.0000
# 4 0.0000 0.0000 0.0000 7.1803 0.0000 0.0000
# 5 0.0000 0.0000 0.0000 0.0000 11.7063 0.0000
# 6 0.0000 0.0000 0.0000 0.0000 0.0000 41.7520
#
#
#
# Elastic Compliance Matrix: (Units=1/GPa)
#
#
# Indices 1 2 3 4 5 6 
#
# 1 0.020247 -0.000358 -0.002034 0.000000 0.000000 0.000000
# 2 -0.000358 0.006462 -0.003677 0.000000 0.000000 0.000000
# 3 -0.002034 -0.003677 0.010247 0.000000 0.000000 0.000000
# 4 0.000000 0.000000 0.000000 0.139270 0.000000 0.000000
# 5 0.000000 0.000000 0.000000 0.000000 0.085424 0.000000
# 6 0.000000 0.000000 0.000000 0.000000 0.000000 0.023951
#
#
# Mechanical properties :
#
#
# Convention : Reuss Voigt Hill
#
# Bulk Modulus (GPa) = 40.29559 63.25324 51.77442
# Shear Modulus (GPa) = 16.33923 30.57313 23.45618
#
# Velocity S-wave (km/s) = 2.60224 3.55961 3.11789
# Velocity P-wave (km/s) = 5.07239 6.56576 5.86679
#
# Compressibility (1/GPa) = 0.02481661
#
# Stress axis : x y z
#
# Youngs Moduli (GPa) = 49.39111 154.75438 97.58711
#
# Poissons Ratio (x) = 0.05547 0.19846
# Poissons Ratio (y) = 0.01770 0.35887
# Poissons Ratio (z) = 0.10044 0.56909
#
# Static dielectric constant tensor:
#      x y z
#    x 2.353450 0.000000 0.000000 
#    y 0.000000 4.387450 0.000000 
#    z 0.000000 0.000000 1.702920 
# 
# From -- ./inp_files/13483.got.cif
#   From: 2010.05.17/outbox.cif.g08.bks.cpg/sg55_7_cif.got.tgz:13483.got - 2010.06.03 13:27:54.
