data_PCOD9425693
_publ_section_title
;
Structure prediction by ZEFSAII (Michael W. Deem and Ramdas Pophale) SiO2 
 PCOD9425693
Probable space group: P B A M
;
_chemical_formula_sum "Si O2"
_cell_formula_units_Z 64
_cell_length_a 23.856027
_cell_length_b 16.192020
_cell_length_c 7.543635
_cell_angle_alpha 90.000000
_cell_angle_beta 90.000000
_cell_angle_gamma 90.000000
_cell_volume 2913.934706
_symmetry_space_group_name_H-M "P B A M"
_symmetry_group_IT_number 55
_symmetry_cell_setting 'orthorhombic'
loop_
_space_group_symop_operation_xyz
x,y,z
-x,-y,z
1/2+x,1/2-y,-z
1/2-x,1/2+y,-z
-x,-y,-z
x,y,-z
1/2-x,1/2+y,z
1/2+x,1/2-y,z
loop_
_atom_site_type_symbol
_atom_site_label
_atom_site_fract_x
_atom_site_fract_y
_atom_site_fract_z
Si Si1 0.933952 0.752025 0.293132
Si Si2 0.654017 0.964230 0.286384
Si Si3 0.992120 0.095076 0.717281
Si Si4 0.953034 0.566912 0.716938
Si Si5 0.748114 0.572897 0.284398
Si Si6 0.314500 0.210524 0.206997
Si Si7 0.132115 0.879094 0.298924
Si Si8 0.304163 0.750939 0.793813
O O1 0.949354 0.749138 0.500000
O O2 0.954196 0.662335 0.220483
O O3 0.866199 0.757239 0.284500
O O4 0.964036 0.834585 0.221147
O O5 0.652976 0.964353 0.500000
O O6 0.649062 0.870976 0.226115
O O7 0.605767 0.026259 0.227956
O O8 0.713960 0.997590 0.225640
O O9 0.995008 0.095347 0.500000
O O10 0.929550 0.118981 0.777924
O O11 0.000000 0.000000 0.772255
O O12 0.954483 0.569412 0.500000
O O13 0.000000 0.500000 0.771180
O O14 0.746111 0.574680 0.500000
O O15 0.684565 0.572245 0.216876
O O16 0.781120 0.655700 0.229533
O O17 0.344573 0.286156 0.301374
O O18 0.250265 0.200035 0.274793
O O19 0.310108 0.232850 0.000000
O O20 0.125773 0.910561 0.500000
O O21 0.311375 0.731734 0.000000
#
# Coordination Sequence:
#
# PCOD9425693 Si02
#       8
#     8   8   8   8   8   8   8   8
#     4  10  19  34  58  81 109 146 183 227 272 320
#     4  10  19  32  53  81 111 140 179 222 267 324
#     4   9  19  34  55  86 113 137 179 231 279 325
#     4   9  18  31  51  80 113 145 181 220 265 326
#     4   9  17  32  54  80 108 137 176 224 268 319
#     4  10  22  36  51  77 111 144 179 221 270 326
#     4   9  18  34  57  79 106 142 180 221 273 323
#     4  10  20  35  53  75 106 142 181 221 269 323
#
# _framework density 21.963429000000001
#
# number of rings (size 3 to 8) (size 9 to 14) (size 15 to 20)
#    0.000    2.500    1.250    0.750    1.750    3.000 
#    0.000    3.125    0.000    2.250    0.000    0.000 
#    0.000    0.000    0.000    0.000    0.000    0.000 
#
# Total GULP energy -356863.009860 kJ/mol
# GULP energy per Si atom -5575.984529 kJ/mol
# Density = 2.191344 g / cm^3
# Si number density = 21.963429 Si / 1000 Ang^3
#
#
#
# Elastic Constant Matrix: (Units=GPa)
#
#
# Indices 1 2 3 4 5 6 
#
# 1 142.2648 65.2559 0.1849 0.0000 0.0000 0.0000
# 2 65.2559 116.1343 0.6505 0.0000 0.0000 0.0000
# 3 0.1849 0.6505 52.4538 0.0000 0.0000 0.0000
# 4 0.0000 0.0000 0.0000 138.5238 0.0000 0.0000
# 5 0.0000 0.0000 0.0000 0.0000 -21.9523 0.0000
# 6 0.0000 0.0000 0.0000 0.0000 0.0000 26.5653
#
#
#
# Elastic Compliance Matrix: (Units=1/GPa)
#
#
# Indices 1 2 3 4 5 6 
#
# 1 0.009470 -0.005321 0.000033 0.000000 0.000000 0.000000
# 2 -0.005321 0.011601 -0.000125 0.000000 0.000000 0.000000
# 3 0.000033 -0.000125 0.019066 0.000000 0.000000 0.000000
# 4 0.000000 0.000000 0.000000 0.007219 0.000000 0.000000
# 5 0.000000 0.000000 0.000000 0.000000 -0.045553 0.000000
# 6 0.000000 0.000000 0.000000 0.000000 0.000000 0.037643
#
#
# Mechanical properties :
#
#
# Convention : Reuss Voigt Hill
#
# Bulk Modulus (GPa) = 34.11855 49.22617 41.67236
# Shear Modulus (GPa) = 83.27262 44.94480 64.10871
#
# Velocity S-wave (km/s) = 6.16413 4.52856 5.40853
# Velocity P-wave (km/s) = 8.13818 7.05729 7.61693
#
# Compressibility (1/GPa) = 0.02930957
#
# Stress axis : x y z
#
# Youngs Moduli (GPa) = 105.59695 86.19578 52.44982
#
# Poissons Ratio (x) = 0.45868 -0.00171
# Poissons Ratio (y) = 0.56192 0.00656
# Poissons Ratio (z) = -0.00344 0.01079
#
# Static dielectric constant tensor:
#      x y z
#    x 1.814290 0.000000 0.000000 
#    y 0.000000 1.780610 0.000000 
#    z 0.000000 0.000000 1.890340 
# 
# From -- ./inp_files/9801.got.cif
#   From: 2010.05.17/outbox.cif.g08.bks.cpg/sg55_5_cif.got.tgz:9801.got - 2010.06.03 13:27:54.
