data_PCOD9425107
_publ_section_title
;
Structure prediction by ZEFSAII (Michael W. Deem and Ramdas Pophale) SiO2 
 PCOD9425107
Probable space group: P B A M
;
_chemical_formula_sum "Si O2"
_cell_formula_units_Z 64
_cell_length_a 22.534945
_cell_length_b 17.961620
_cell_length_c 8.092506
_cell_angle_alpha 90.000000
_cell_angle_beta 90.000000
_cell_angle_gamma 90.000000
_cell_volume 3275.556060
_symmetry_space_group_name_H-M "P B A M"
_symmetry_group_IT_number 55
_symmetry_cell_setting 'orthorhombic'
loop_
_space_group_symop_operation_xyz
x,y,z
-x,-y,z
1/2+x,1/2-y,-z
1/2-x,1/2+y,-z
-x,-y,-z
x,y,-z
1/2-x,1/2+y,z
1/2+x,1/2-y,z
loop_
_atom_site_type_symbol
_atom_site_label
_atom_site_fract_x
_atom_site_fract_y
_atom_site_fract_z
Si Si1 0.119345 0.732952 0.695613
Si Si2 0.565941 0.086101 0.298060
Si Si3 0.571476 0.920919 0.298598
Si Si4 0.531776 0.645369 0.197821
Si Si5 0.104058 0.127708 0.302395
Si Si6 0.635906 0.534886 0.198903
Si Si7 0.151365 0.284497 0.303249
Si Si8 0.222143 0.840178 0.193110
O O1 0.132210 0.732356 0.500000
O O2 0.110337 0.648844 0.756469
O O3 0.058888 0.779679 0.724098
O O4 0.171226 0.778034 0.784567
O O5 0.566849 0.086837 0.500000
O O6 0.497071 0.091737 0.249402
O O7 0.605368 0.154092 0.236438
O O8 0.588717 0.004241 0.246490
O O9 0.572360 0.919790 0.500000
O O10 0.464182 0.630723 0.244406
O O11 0.575830 0.578404 0.251903
O O12 0.536326 0.651831 0.000000
O O13 0.104077 0.129008 0.500000
O O14 0.137410 0.201778 0.238709
O O15 0.133532 0.050449 0.248988
O O16 0.691623 0.584031 0.259875
O O17 0.636859 0.538471 0.000000
O O18 0.141745 0.281209 0.500000
O O19 0.217661 0.312871 0.274586
O O20 0.234432 0.850555 0.000000
#
# Coordination Sequence:
#
# PCOD9425107 Si02
#       8
#     8   8   8   8   8   8   8   8
#     4  10  18  31  54  82 110 138 177 227 269 310
#     4   8  14  28  50  76 108 140 167 205 264 319
#     4   8  14  26  49  81 110 135 166 209 263 320
#     4  10  20  34  54  81 115 150 180 213 266 331
#     4  11  22  34  54  86 113 137 178 228 275 323
#     4   9  20  38  56  76 106 144 183 220 266 328
#     4  10  21  37  55  78 108 141 182 229 269 317
#     4  10  22  40  57  73 102 144 186 221 268 328
#
# _framework density 19.538668000000001
#
# number of rings (size 3 to 8) (size 9 to 14) (size 15 to 20)
#    0.000    2.500    0.000    4.125    0.000    7.500 
#    2.250    0.000    0.000    0.750    0.000    5.250 
#    0.000    0.000    0.000    0.000    0.000    0.000 
#
# Total GULP energy -357086.863682 kJ/mol
# GULP energy per Si atom -5579.482245 kJ/mol
# Density = 1.949420 g / cm^3
# Si number density = 19.538668 Si / 1000 Ang^3
#
#
#
# Elastic Constant Matrix: (Units=GPa)
#
#
# Indices 1 2 3 4 5 6 
#
# 1 69.4379 61.0646 -5.1575 0.0000 0.0000 0.0000
# 2 61.0646 158.5436 8.5232 0.0000 0.0000 0.0000
# 3 -5.1575 8.5232 5.1218 0.0000 0.0000 0.0000
# 4 0.0000 0.0000 0.0000 -160.9607 0.0000 0.0000
# 5 0.0000 0.0000 0.0000 0.0000 3.8504 0.0000
# 6 0.0000 0.0000 0.0000 0.0000 0.0000 6.7877
#
#
#
# Elastic Compliance Matrix: (Units=1/GPa)
#
#
# Indices 1 2 3 4 5 6 
#
# 1 0.032634 -0.015744 0.059061 0.000000 0.000000 0.000000
# 2 -0.015744 0.014523 -0.040022 0.000000 0.000000 0.000000
# 3 0.059061 -0.040022 0.321315 0.000000 0.000000 0.000000
# 4 0.000000 0.000000 0.000000 -0.006213 0.000000 0.000000
# 5 0.000000 0.000000 0.000000 0.000000 0.259715 0.000000
# 6 0.000000 0.000000 0.000000 0.000000 0.000000 0.147325
#
#
# Mechanical properties :
#
#
# Convention : Reuss Voigt Hill
#
# Bulk Modulus (GPa) = 2.66622 40.21822 21.44222
# Shear Modulus (GPa) = 5.63234 -18.81965 -6.59365
#
# Velocity S-wave (km/s) = 1.69968 -3.10691 -1.83902
# Velocity P-wave (km/s) = 2.28461 2.78533 2.54730
#
# Compressibility (1/GPa) = 0.37506267
#
# Stress axis : x y z
#
# Youngs Moduli (GPa) = 30.64297 68.85610 3.11221
#
# Poissons Ratio (x) = 1.08409 -0.18381
# Poissons Ratio (y) = 0.48245 0.12456
# Poissons Ratio (z) = -1.80981 2.75574
#
# Static dielectric constant tensor:
#      x y z
#    x 1.655980 0.000000 0.000000 
#    y 0.000000 1.709550 0.000000 
#    z 0.000000 0.000000 1.691100 
# 
# From -- ./inp_files/9064.got.cif
#   From: 2010.05.17/outbox.cif.g08.bks.cpg/sg55_5_cif.got.tgz:9064.got - 2010.06.03 13:27:54.
