data_PCOD9425312
_publ_section_title
;
Structure prediction by ZEFSAII (Michael W. Deem and Ramdas Pophale) SiO2 
 PCOD9425312
Probable space group: P B A M
;
_chemical_formula_sum "Si O2"
_cell_formula_units_Z 64
_cell_length_a 24.654400
_cell_length_b 15.262661
_cell_length_c 7.501817
_cell_angle_alpha 90.000000
_cell_angle_beta 90.000000
_cell_angle_gamma 90.000000
_cell_volume 2822.871842
_symmetry_space_group_name_H-M "P B A M"
_symmetry_group_IT_number 55
_symmetry_cell_setting 'orthorhombic'
loop_
_space_group_symop_operation_xyz
x,y,z
-x,-y,z
1/2+x,1/2-y,-z
1/2-x,1/2+y,-z
-x,-y,-z
x,y,-z
1/2-x,1/2+y,z
1/2+x,1/2-y,z
loop_
_atom_site_type_symbol
_atom_site_label
_atom_site_fract_x
_atom_site_fract_y
_atom_site_fract_z
Si Si1 0.641602 0.858602 0.794416
Si Si2 0.524696 0.907005 0.782519
Si Si3 0.115502 0.846162 0.206680
Si Si4 0.565301 0.234800 0.218498
Si Si5 0.221160 0.936041 0.208819
Si Si6 0.263922 0.633330 0.700762
Si Si7 0.316077 0.815662 0.205140
Si Si8 0.001631 0.100633 0.217826
O O1 0.586692 0.900287 0.720002
O O2 0.629625 0.755450 0.794597
O O3 0.698768 0.870814 0.702091
O O4 0.649152 0.888413 0.000000
O O5 0.483839 0.829659 0.728190
O O6 0.500000 0.000000 0.733836
O O7 0.527644 0.901473 0.000000
O O8 0.166072 0.896973 0.289064
O O9 0.055684 0.859790 0.279426
O O10 0.111277 0.876342 0.000000
O O11 0.623891 0.200851 0.281864
O O12 0.549520 0.333613 0.274266
O O13 0.566756 0.234658 0.000000
O O14 0.275339 0.888973 0.283711
O O15 0.219137 0.040342 0.219584
O O16 0.221242 0.910141 0.000000
O O17 0.284467 0.638046 0.500000
O O18 0.284729 0.722242 0.791810
O O19 0.325904 0.842097 0.000000
O O20 0.004041 0.100933 0.000000
O O21 0.000000 0.000000 0.274759
#
# Coordination Sequence:
#
# PCOD9425312 Si02
#       8
#     8   8   8   8   8   8   8   8
#     4  10  18  35  60  83 111 146 192 239 279 331
#     4   9  17  28  50  84 117 144 174 226 289 338
#     4   9  16  30  52  79 109 141 180 229 277 322
#     4   9  17  29  47  81 119 142 172 222 281 340
#     4  10  21  37  59  85 110 143 193 241 286 337
#     4  12  26  40  56  81 116 155 195 236 289 344
#     4  10  21  38  61  87 115 149 191 238 285 337
#     4   9  16  25  42  75 114 144 167 210 278 336
#
# _framework density 22.671945999999998
#
# number of rings (size 3 to 8) (size 9 to 14) (size 15 to 20)
#    0.000    2.250    2.500    1.125    3.500    0.500 
#    0.000    0.000    0.000    1.125    0.000    0.875 
#    0.000    0.000    0.000    0.000    0.000    0.000 
#
# Total GULP energy -357262.263012 kJ/mol
# GULP energy per Si atom -5582.222860 kJ/mol
# Density = 2.262034 g / cm^3
# Si number density = 22.671946 Si / 1000 Ang^3
#
#
#
# Elastic Constant Matrix: (Units=GPa)
#
#
# Indices 1 2 3 4 5 6 
#
# 1 48.3763 -28.8653 -1.6889 0.0000 0.0000 0.0000
# 2 -28.8653 40.2806 -7.8841 0.0000 0.0000 0.0000
# 3 -1.6889 -7.8841 59.4268 0.0000 0.0000 0.0000
# 4 0.0000 0.0000 0.0000 26.0835 0.0000 0.0000
# 5 0.0000 0.0000 0.0000 0.0000 -19.3873 0.0000
# 6 0.0000 0.0000 0.0000 0.0000 0.0000 33.1461
#
#
#
# Elastic Compliance Matrix: (Units=1/GPa)
#
#
# Indices 1 2 3 4 5 6 
#
# 1 0.037368 0.027706 0.004738 0.000000 0.000000 0.000000
# 2 0.027706 0.046029 0.006894 0.000000 0.000000 0.000000
# 3 0.004738 0.006894 0.017877 0.000000 0.000000 0.000000
# 4 0.000000 0.000000 0.000000 0.038338 0.000000 0.000000
# 5 0.000000 0.000000 0.000000 0.000000 -0.051580 0.000000
# 6 0.000000 0.000000 0.000000 0.000000 0.000000 0.030169
#
#
# Mechanical properties :
#
#
# Convention : Reuss Voigt Hill
#
# Bulk Modulus (GPa) = 5.55713 7.91187 6.73450
# Shear Modulus (GPa) = 50.24608 20.40324 35.32466
#
# Velocity S-wave (km/s) = 4.71278 3.00314 3.95153
# Velocity P-wave (km/s) = 5.66306 3.93985 4.87815
#
# Compressibility (1/GPa) = 0.17994909
#
# Stress axis : x y z
#
# Youngs Moduli (GPa) = 26.76072 21.72530 55.93873
#
# Poissons Ratio (x) = -0.60191 -0.26502
# Poissons Ratio (y) = -0.74142 -0.38565
# Poissons Ratio (z) = -0.12678 -0.14978
#
# Static dielectric constant tensor:
#      x y z
#    x 1.898230 0.000000 0.000000 
#    y 0.000000 1.799110 0.000000 
#    z 0.000000 0.000000 1.765870 
# 
# From -- ./inp_files/9818.got.cif
#   From: 2010.05.17/outbox.cif.g08.bks.cpg/sg55_5_cif.got.tgz:9818.got - 2010.06.03 13:27:54.
