data_PCOD9425130
_publ_section_title
;
Structure prediction by ZEFSAII (Michael W. Deem and Ramdas Pophale) SiO2 
 PCOD9425130
Probable space group: P B A M
;
_chemical_formula_sum "Si O2"
_cell_formula_units_Z 52
_cell_length_a 7.222032
_cell_length_b 24.686073
_cell_length_c 13.749951
_cell_angle_alpha 90.000000
_cell_angle_beta 90.000000
_cell_angle_gamma 90.000000
_cell_volume 2451.390890
_symmetry_space_group_name_H-M "P B A M"
_symmetry_group_IT_number 55
_symmetry_cell_setting 'orthorhombic'
loop_
_space_group_symop_operation_xyz
x,y,z
-x,-y,z
1/2+x,1/2-y,-z
1/2-x,1/2+y,-z
-x,-y,-z
x,y,-z
1/2-x,1/2+y,z
1/2+x,1/2-y,z
loop_
_atom_site_type_symbol
_atom_site_label
_atom_site_fract_x
_atom_site_fract_y
_atom_site_fract_z
Si Si1 0.706224 0.161471 0.500000
Si Si2 0.788297 0.294032 0.106278
Si Si3 0.857505 0.613013 0.704315
Si Si4 0.774322 0.840485 0.694017
Si Si5 0.123143 0.049767 0.610109
Si Si6 0.198380 0.718062 0.500000
Si Si7 0.716626 0.169909 0.893681
Si Si8 0.500000 0.000000 0.664485
O O1 0.727636 0.126424 0.401737
O O2 0.822181 0.217159 0.500000
O O3 0.497055 0.186270 0.500000
O O4 0.683816 0.314527 0.201971
O O5 0.803972 0.229409 0.113730
O O6 0.994429 0.318784 0.105363
O O7 0.703190 0.306242 0.000000
O O8 0.056925 0.643095 0.699398
O O9 0.901592 0.549686 0.719098
O O10 0.748895 0.635953 0.796719
O O11 0.878726 0.896442 0.673477
O O12 0.794504 0.801199 0.600762
O O13 0.066107 0.062670 0.500000
O O14 0.335045 0.029003 0.607109
O O15 0.000000 0.000000 0.646241
O O16 0.764158 0.146151 0.000000
#
# Coordination Sequence:
#
# PCOD9425130 Si02
#       8
#     4   8   8   8   8   4   8   4
#     4  10  20  31  46  70 103 127 164 198 250 312
#     4   9  17  30  51  73  97 133 168 205 258 309
#     4   9  19  32  50  73  95 135 170 206 254 312
#     4   9  17  32  51  67 102 135 160 206 261 305
#     4  10  20  35  54  79 104 136 182 219 256 312
#     4  10  18  32  45  68 100 133 154 199 257 304
#     4   9  17  32  50  73 101 129 169 211 251 310
#     4  10  21  36  57  72 106 142 177 219 268 306
#
# _framework density 21.212446
#
# number of rings (size 3 to 8) (size 9 to 14) (size 15 to 20)
#    0.000    2.615    0.769    1.154    4.308    0.000 
#    5.538    0.385    0.000    1.385    0.000    0.000 
#    0.000    0.000    0.000    0.000    0.000    0.000 
#
# Total GULP energy -290304.093238 kJ/mol
# GULP energy per Si atom -5582.771024 kJ/mol
# Density = 2.116417 g / cm^3
# Si number density = 21.212446 Si / 1000 Ang^3
#
#
#
# Elastic Constant Matrix: (Units=GPa)
#
#
# Indices 1 2 3 4 5 6 
#
# 1 67.1445 11.7919 32.0222 0.0000 0.0000 0.0000
# 2 11.7919 74.2342 69.1885 0.0000 0.0000 0.0000
# 3 32.0222 69.1885 188.7765 0.0000 0.0000 0.0000
# 4 0.0000 0.0000 0.0000 13.5690 0.0000 0.0000
# 5 0.0000 0.0000 0.0000 0.0000 6.7950 0.0000
# 6 0.0000 0.0000 0.0000 0.0000 0.0000 22.3070
#
#
#
# Elastic Compliance Matrix: (Units=1/GPa)
#
#
# Indices 1 2 3 4 5 6 
#
# 1 0.016204 -0.000018 -0.002742 0.000000 0.000000 0.000000
# 2 -0.000018 0.020460 -0.007496 0.000000 0.000000 0.000000
# 3 -0.002742 -0.007496 0.008510 0.000000 0.000000 0.000000
# 4 0.000000 0.000000 0.000000 0.073697 0.000000 0.000000
# 5 0.000000 0.000000 0.000000 0.000000 0.147168 0.000000
# 6 0.000000 0.000000 0.000000 0.000000 0.000000 0.044829
#
#
# Mechanical properties :
#
#
# Convention : Reuss Voigt Hill
#
# Bulk Modulus (GPa) = 40.54866 61.79560 51.17213
# Shear Modulus (GPa) = 14.72316 23.01103 18.86710
#
# Velocity S-wave (km/s) = 2.63740 3.29719 2.98558
# Velocity P-wave (km/s) = 5.33212 6.60986 6.00507
#
# Compressibility (1/GPa) = 0.02466173
#
# Stress axis : x y z
#
# Youngs Moduli (GPa) = 61.71248 48.87587 117.51385
#
# Poissons Ratio (x) = 0.00090 0.32222
# Poissons Ratio (y) = 0.00113 0.88085
# Poissons Ratio (z) = 0.16921 0.36636
#
# Static dielectric constant tensor:
#      x y z
#    x 1.843510 0.000000 0.000000 
#    y 0.000000 1.738400 0.000000 
#    z 0.000000 0.000000 1.763170 
# 
# From -- ./inp_files/17593.got.cif
#   From: 2010.05.17/outbox.cif.g08.bks.cpg/sg55_9_cif.got.tgz:17593.got - 2010.06.03 13:27:54.
