data_PCOD9425315
_publ_section_title
;
Structure prediction by ZEFSAII (Michael W. Deem and Ramdas Pophale) SiO2 
 PCOD9425315
Probable space group: P B A M
;
_chemical_formula_sum "Si O2"
_cell_formula_units_Z 64
_cell_length_a 13.141078
_cell_length_b 28.773728
_cell_length_c 7.554691
_cell_angle_alpha 90.000000
_cell_angle_beta 90.000000
_cell_angle_gamma 90.000000
_cell_volume 2856.563171
_symmetry_space_group_name_H-M "P B A M"
_symmetry_group_IT_number 55
_symmetry_cell_setting 'orthorhombic'
loop_
_space_group_symop_operation_xyz
x,y,z
-x,-y,z
1/2+x,1/2-y,-z
1/2-x,1/2+y,-z
-x,-y,-z
x,y,-z
1/2-x,1/2+y,z
1/2+x,1/2-y,z
loop_
_atom_site_type_symbol
_atom_site_label
_atom_site_fract_x
_atom_site_fract_y
_atom_site_fract_z
Si Si1 0.825447 0.701242 0.716138
Si Si2 0.035619 0.652336 0.717262
Si Si3 0.236068 0.953850 0.284462
Si Si4 0.532499 0.051733 0.283888
Si Si5 0.261929 0.202195 0.698691
Si Si6 0.594719 0.467638 0.714144
Si Si7 0.365928 0.361283 0.286710
Si Si8 0.591185 0.360532 0.195636
O O1 0.831401 0.701257 0.500000
O O2 0.794071 0.752702 0.777275
O O3 0.730592 0.668929 0.767422
O O4 0.933110 0.679581 0.772982
O O5 0.037522 0.651502 0.500000
O O6 0.028262 0.597995 0.772249
O O7 0.136537 0.679445 0.778487
O O8 0.235726 0.953325 0.500000
O O9 0.349949 0.942313 0.229889
O O10 0.158300 0.913790 0.227436
O O11 0.195330 0.004153 0.231561
O O12 0.528575 0.051262 0.500000
O O13 0.500000 0.000000 0.225966
O O14 0.293329 0.217207 0.500000
O O15 0.175771 0.163031 0.685855
O O16 0.500000 0.500000 0.767064
O O17 0.591605 0.464380 0.500000
O O18 0.590097 0.415858 0.783124
O O19 0.369673 0.361549 0.500000
O O20 0.475686 0.344367 0.225975
O O21 0.623642 0.347777 0.000000
#
# Coordination Sequence:
#
# PCOD9425315 Si02
#       8
#     8   8   8   8   8   8   8   8
#     4   9  18  33  59  90 116 142 182 241 299 344
#     4   9  17  31  51  85 120 140 176 234 291 344
#     4   9  16  28  49  81 115 146 178 221 284 342
#     4   9  16  25  42  75 117 148 172 216 279 342
#     4  10  22  37  59  87 114 149 190 239 293 345
#     4  10  19  34  57  84 111 145 190 237 287 342
#     4  10  18  35  61  88 115 145 188 241 289 345
#     4  12  26  40  54  79 118 161 200 240 288 343
#
# _framework density 22.404544999999999
#
# number of rings (size 3 to 8) (size 9 to 14) (size 15 to 20)
#    0.000    2.250    2.500    1.125    3.500    0.250 
#    0.000    0.625    0.000    0.750    0.000    0.875 
#    0.000    0.000    0.000    0.000    0.000    0.000 
#
# Total GULP energy -357319.616593 kJ/mol
# GULP energy per Si atom -5583.119009 kJ/mol
# Density = 2.235355 g / cm^3
# Si number density = 22.404545 Si / 1000 Ang^3
#
#
#
# Elastic Constant Matrix: (Units=GPa)
#
#
# Indices 1 2 3 4 5 6 
#
# 1 136.0867 71.6397 2.5919 0.0000 0.0000 0.0000
# 2 71.6397 145.8039 3.8292 0.0000 0.0000 0.0000
# 3 2.5919 3.8292 55.7257 0.0000 0.0000 0.0000
# 4 0.0000 0.0000 0.0000 -2.9752 0.0000 0.0000
# 5 0.0000 0.0000 0.0000 0.0000 59.3879 0.0000
# 6 0.0000 0.0000 0.0000 0.0000 0.0000 34.9517
#
#
#
# Elastic Compliance Matrix: (Units=1/GPa)
#
#
# Indices 1 2 3 4 5 6 
#
# 1 0.009913 -0.004867 -0.000127 0.000000 0.000000 0.000000
# 2 -0.004867 0.009261 -0.000410 0.000000 0.000000 0.000000
# 3 -0.000127 -0.000410 0.017979 0.000000 0.000000 0.000000
# 4 0.000000 0.000000 0.000000 -0.336108 0.000000 0.000000
# 5 0.000000 0.000000 0.000000 0.000000 0.016838 0.000000
# 6 0.000000 0.000000 0.000000 0.000000 0.000000 0.028611
#
#
# Mechanical properties :
#
#
# Convention : Reuss Voigt Hill
#
# Bulk Modulus (GPa) = 37.95778 54.85977 46.40878
# Shear Modulus (GPa) = -21.37520 35.57657 7.10068
#
# Velocity S-wave (km/s) = -3.09213 3.98919 1.78219
# Velocity P-wave (km/s) = 2.05680 6.76442 4.99939
#
# Compressibility (1/GPa) = 0.02634506
#
# Stress axis : x y z
#
# Youngs Moduli (GPa) = 100.87797 107.98170 55.62009
#
# Poissons Ratio (x) = 0.52558 0.00704
# Poissons Ratio (y) = 0.49101 0.02280
# Poissons Ratio (z) = 0.01277 0.04427
#
# Static dielectric constant tensor:
#      x y z
#    x 1.792950 0.000000 0.000000 
#    y 0.000000 1.813650 0.000000 
#    z 0.000000 0.000000 1.865620 
# 
# From -- ./inp_files/4488.got.cif
#   From: 2010.05.17/outbox.cif.g08.bks.cpg/sg55_3_cif.got.tgz:4488.got - 2010.06.03 13:27:54.
