data_PCOD9425257
_publ_section_title
;
Structure prediction by ZEFSAII (Michael W. Deem and Ramdas Pophale) SiO2 
 PCOD9425257
Probable space group: P B A M
;
_chemical_formula_sum "Si O2"
_cell_formula_units_Z 48
_cell_length_a 29.934969
_cell_length_b 5.258245
_cell_length_c 14.859936
_cell_angle_alpha 90.000000
_cell_angle_beta 90.000000
_cell_angle_gamma 90.000000
_cell_volume 2339.034186
_symmetry_space_group_name_H-M "P B A M"
_symmetry_group_IT_number 55
_symmetry_cell_setting 'orthorhombic'
loop_
_space_group_symop_operation_xyz
x,y,z
-x,-y,z
1/2+x,1/2-y,-z
1/2-x,1/2+y,-z
-x,-y,-z
x,y,-z
1/2-x,1/2+y,z
1/2+x,1/2-y,z
loop_
_atom_site_type_symbol
_atom_site_label
_atom_site_fract_x
_atom_site_fract_y
_atom_site_fract_z
Si Si1 0.077457 0.080311 0.771404
Si Si2 0.637589 0.138754 0.101556
Si Si3 0.724735 0.947820 0.798959
Si Si4 0.453374 0.073269 0.152210
Si Si5 0.805456 0.515704 0.601122
Si Si6 0.365814 0.484825 0.599877
O O1 0.119174 0.123843 0.840265
O O2 0.097675 0.007584 0.676481
O O3 0.053087 0.353193 0.771904
O O4 0.047583 0.855370 0.810028
O O5 0.676503 0.007946 0.158979
O O6 0.592554 0.967695 0.098232
O O7 0.651753 0.198911 0.000000
O O8 0.757772 0.173704 0.827969
O O9 0.723326 0.967165 0.689973
O O10 0.500000 0.000000 0.106352
O O11 0.784621 0.509550 0.500000
O O12 0.830093 0.786502 0.611876
O O13 0.841190 0.286068 0.603978
O O14 0.384867 0.516015 0.500000
#
# Coordination Sequence:
#
# PCOD9425257 Si02
#       6
#     8   8   8   8   8   8
#     4  10  20  38  63  90 127 158 202 247 313 370
#     4  10  25  43  66  92 122 163 211 261 313 375
#     4  12  26  41  62  88 127 169 208 254 302 363
#     4  10  22  40  67  95 124 161 199 260 324 376
#     4  10  20  36  59  90 123 159 207 259 307 359
#     4  10  18  33  62  91 121 164 208 249 305 368
#
# _framework density 20.521291999999999
#
# number of rings (size 3 to 8) (size 9 to 14) (size 15 to 20)
#    1.000    0.667    1.667    3.500    2.333    2.333 
#    0.000    0.833    0.000    3.000    0.000    0.000 
#    0.000    0.000    0.000    0.000    0.000    0.000 
#
# Total GULP energy -267684.137584 kJ/mol
# GULP energy per Si atom -5576.752866 kJ/mol
# Density = 2.047458 g / cm^3
# Si number density = 20.521292 Si / 1000 Ang^3
#
#
#
# Elastic Constant Matrix: (Units=GPa)
#
#
# Indices 1 2 3 4 5 6 
#
# 1 75.6018 10.3388 28.7375 0.0000 0.0000 0.0000
# 2 10.3388 50.6163 15.9019 0.0000 0.0000 0.0000
# 3 28.7375 15.9019 87.9102 0.0000 0.0000 0.0000
# 4 0.0000 0.0000 0.0000 -60.4504 0.0000 0.0000
# 5 0.0000 0.0000 0.0000 0.0000 -48.8832 0.0000
# 6 0.0000 0.0000 0.0000 0.0000 0.0000 35.4840
#
#
#
# Elastic Compliance Matrix: (Units=1/GPa)
#
#
# Indices 1 2 3 4 5 6 
#
# 1 0.015231 -0.001640 -0.004682 0.000000 0.000000 0.000000
# 2 -0.001640 0.021123 -0.003285 0.000000 0.000000 0.000000
# 3 -0.004682 -0.003285 0.013500 0.000000 0.000000 0.000000
# 4 0.000000 0.000000 0.000000 -0.016542 0.000000 0.000000
# 5 0.000000 0.000000 0.000000 0.000000 -0.020457 0.000000
# 6 0.000000 0.000000 0.000000 0.000000 0.000000 0.028182
#
#
# Mechanical properties :
#
#
# Convention : Reuss Voigt Hill
#
# Bulk Modulus (GPa) = 32.63682 36.00943 34.32312
# Shear Modulus (GPa) = 70.95694 -4.15992 33.39851
#
# Velocity S-wave (km/s) = 5.88662 -1.42532 4.03861
# Velocity P-wave (km/s) = 7.88299 3.85704 6.20557
#
# Compressibility (1/GPa) = 0.03064024
#
# Stress axis : x y z
#
# Youngs Moduli (GPa) = 65.65411 47.34073 74.07351
#
# Poissons Ratio (x) = 0.07764 0.34684
# Poissons Ratio (y) = 0.10768 0.24332
# Poissons Ratio (z) = 0.30742 0.15551
#
# Static dielectric constant tensor:
#      x y z
#    x 1.732240 0.000000 0.000000 
#    y 0.000000 1.738850 0.000000 
#    z 0.000000 0.000000 1.722490 
# 
# From -- ./inp_files/20055.got.cif
#   From: 2010.05.17/outbox.cif.g08.bks.cpg/sg55_11_cif.got.tgz:20055.got - 2010.06.03 13:27:54.
