data_PCOD9425026
_publ_section_title
;
Structure prediction by ZEFSAII (Michael W. Deem and Ramdas Pophale) SiO2 
 PCOD9425026
Probable space group: P B A M
;
_chemical_formula_sum "Si O2"
_cell_formula_units_Z 56
_cell_length_a 16.104771
_cell_length_b 21.287983
_cell_length_c 9.290141
_cell_angle_alpha 90.000000
_cell_angle_beta 90.000000
_cell_angle_gamma 90.000000
_cell_volume 3185.014208
_symmetry_space_group_name_H-M "P B A M"
_symmetry_group_IT_number 55
_symmetry_cell_setting 'orthorhombic'
loop_
_space_group_symop_operation_xyz
x,y,z
-x,-y,z
1/2+x,1/2-y,-z
1/2-x,1/2+y,-z
-x,-y,-z
x,y,-z
1/2-x,1/2+y,z
1/2+x,1/2-y,z
loop_
_atom_site_type_symbol
_atom_site_label
_atom_site_fract_x
_atom_site_fract_y
_atom_site_fract_z
Si Si1 0.584426 0.775670 0.172551
Si Si2 0.073828 0.049204 0.660078
Si Si3 0.267764 0.546580 0.168776
Si Si4 0.869046 0.521843 0.334282
Si Si5 0.943052 0.803277 0.669464
Si Si6 0.018848 0.603850 0.667641
Si Si7 0.231029 0.192649 0.173849
O O1 0.520808 0.728840 0.251418
O O2 0.554903 0.843827 0.228603
O O3 0.683247 0.770656 0.207557
O O4 0.576489 0.771006 0.000000
O O5 0.113843 0.045726 0.500000
O O6 0.139311 0.033508 0.782000
O O7 0.046572 0.121296 0.678673
O O8 0.000000 0.000000 0.663490
O O9 0.208890 0.495504 0.239898
O O10 0.252278 0.619282 0.215188
O O11 0.256391 0.545069 0.000000
O O12 0.845342 0.531682 0.500000
O O13 0.925206 0.458762 0.328679
O O14 0.927043 0.579954 0.290217
O O15 0.940253 0.786104 0.500000
O O16 0.854068 0.788050 0.745544
O O17 0.017520 0.625176 0.500000
O O18 0.218164 0.194908 0.000000
#
# Coordination Sequence:
#
# PCOD9425026 Si02
#       7
#     8   8   8   8   8   8   8
#     4  11  21  35  55  79 110 146 178 218 272 323
#     4   9  19  37  58  78 101 132 173 220 270 317
#     4  10  18  30  51  79 107 136 178 218 258 317
#     4   9  17  30  48  74 106 139 174 214 257 298
#     4  10  21  36  57  83 106 136 180 226 269 319
#     4   9  18  31  49  74 106 141 177 213 251 302
#     4   9  19  35  53  76 105 141 181 221 266 319
#
# _framework density 17.582339000000001
#
# number of rings (size 3 to 8) (size 9 to 14) (size 15 to 20)
#    0.000    2.429    1.429    2.143    0.000    3.143 
#    0.000    2.857    0.000    5.143    0.000    0.000 
#    0.000    0.000    0.000    0.000    0.000    0.000 
#
# Total GULP energy -312017.480033 kJ/mol
# GULP energy per Si atom -5571.740715 kJ/mol
# Density = 1.754232 g / cm^3
# Si number density = 17.582339 Si / 1000 Ang^3
#
#
#
# Elastic Constant Matrix: (Units=GPa)
#
#
# Indices 1 2 3 4 5 6 
#
# 1 112.1840 38.3857 49.8808 0.0000 0.0000 0.0000
# 2 38.3857 31.0195 23.4229 0.0000 0.0000 0.0000
# 3 49.8808 23.4229 50.9334 0.0000 0.0000 0.0000
# 4 0.0000 0.0000 0.0000 23.5832 0.0000 0.0000
# 5 0.0000 0.0000 0.0000 0.0000 25.6841 0.0000
# 6 0.0000 0.0000 0.0000 0.0000 0.0000 30.9670
#
#
#
# Elastic Compliance Matrix: (Units=1/GPa)
#
#
# Indices 1 2 3 4 5 6 
#
# 1 0.019399 -0.014799 -0.012192 0.000000 0.000000 0.000000
# 2 -0.014799 0.060678 -0.013411 0.000000 0.000000 0.000000
# 3 -0.012192 -0.013411 0.037741 0.000000 0.000000 0.000000
# 4 0.000000 0.000000 0.000000 0.042403 0.000000 0.000000
# 5 0.000000 0.000000 0.000000 0.000000 0.038935 0.000000
# 6 0.000000 0.000000 0.000000 0.000000 0.000000 0.032292
#
#
# Mechanical properties :
#
#
# Convention : Reuss Voigt Hill
#
# Bulk Modulus (GPa) = 27.01727 46.39064 36.70395
# Shear Modulus (GPa) = 15.40406 21.54338 18.47372
#
# Velocity S-wave (km/s) = 2.96313 3.50421 3.24496
# Velocity P-wave (km/s) = 5.20637 6.54329 5.91274
#
# Compressibility (1/GPa) = 0.03701336
#
# Stress axis : x y z
#
# Youngs Moduli (GPa) = 51.54984 16.48047 26.49634
#
# Poissons Ratio (x) = 0.24389 0.32305
# Poissons Ratio (y) = 0.76289 0.35534
# Poissons Ratio (z) = 0.62850 0.22102
#
# Static dielectric constant tensor:
#      x y z
#    x 1.614900 0.000000 0.000000 
#    y 0.000000 1.594730 0.000000 
#    z 0.000000 0.000000 1.595000 
# 
# From -- ./inp_files/6079.got.cif
#   From: 2010.05.17/outbox.cif.g08.bks.cpg/sg55_4_cif.got.tgz:6079.got - 2010.06.03 13:27:54.
