data_PCOD9425842
_publ_section_title
;
Structure prediction by ZEFSAII (Michael W. Deem and Ramdas Pophale) SiO2 
 PCOD9425842
Probable space group: P B A M
;
_chemical_formula_sum "Si O2"
_cell_formula_units_Z 52
_cell_length_a 19.836957
_cell_length_b 9.223086
_cell_length_c 15.182485
_cell_angle_alpha 90.000000
_cell_angle_beta 90.000000
_cell_angle_gamma 90.000000
_cell_volume 2777.756489
_symmetry_space_group_name_H-M "P B A M"
_symmetry_group_IT_number 55
_symmetry_cell_setting 'orthorhombic'
loop_
_space_group_symop_operation_xyz
x,y,z
-x,-y,z
1/2+x,1/2-y,-z
1/2-x,1/2+y,-z
-x,-y,-z
x,y,-z
1/2-x,1/2+y,z
1/2+x,1/2-y,z
loop_
_atom_site_type_symbol
_atom_site_label
_atom_site_fract_x
_atom_site_fract_y
_atom_site_fract_z
Si Si1 0.000000 0.500000 0.163716
Si Si2 0.261338 0.053781 0.596867
Si Si3 0.653917 0.662163 0.597137
Si Si4 0.617390 0.195202 0.097836
Si Si5 0.144034 0.979604 0.896466
Si Si6 0.785775 0.506569 0.207565
Si Si7 0.894697 0.270522 0.219102
O O1 0.050476 0.399588 0.108559
O O2 0.046745 0.610410 0.217913
O O3 0.286097 0.002929 0.500000
O O4 0.184063 0.000042 0.600127
O O5 0.287764 0.983778 0.686706
O O6 0.283374 0.221897 0.600557
O O7 0.622314 0.683559 0.500000
O O8 0.612802 0.701378 0.684080
O O9 0.607478 0.365523 0.109602
O O10 0.671172 0.135583 0.166698
O O11 0.645691 0.171954 0.000000
O O12 0.212491 0.991332 0.837571
O O13 0.099108 0.854099 0.853506
O O14 0.159314 0.952362 0.000000
O O15 0.826348 0.356976 0.191385
#
# Coordination Sequence:
#
# PCOD9425842 Si02
#       7
#     4   8   8   8   8   8   8
#     4  10  23  42  57  72 102 146 189 226 267 318
#     4   9  17  28  48  78 112 143 170 205 257 321
#     4   9  17  31  52  81 111 142 174 211 264 320
#     4  10  22  37  56  79 107 145 184 225 267 319
#     4  11  22  34  53  82 109 136 176 225 277 323
#     4  10  19  33  54  81 116 143 170 213 271 331
#     4  10  21  36  55  78 108 145 180 220 269 316
#
# _framework density 18.720144000000001
#
# number of rings (size 3 to 8) (size 9 to 14) (size 15 to 20)
#    0.000    2.154    1.538    1.615    2.154    5.538 
#    0.000    1.923    0.000    0.923    0.000    1.077 
#    0.000    0.000    0.000    0.000    0.000    0.000 
#
# Total GULP energy -289470.596028 kJ/mol
# GULP energy per Si atom -5566.742231 kJ/mol
# Density = 1.867754 g / cm^3
# Si number density = 18.720144 Si / 1000 Ang^3
#
#
#
# Elastic Constant Matrix: (Units=GPa)
#
#
# Indices 1 2 3 4 5 6 
#
# 1 42.4541 22.6547 13.5371 0.0000 0.0000 0.0000
# 2 22.6547 69.8609 51.2662 0.0000 0.0000 0.0000
# 3 13.5371 51.2662 115.0916 0.0000 0.0000 0.0000
# 4 0.0000 0.0000 0.0000 24.9755 0.0000 0.0000
# 5 0.0000 0.0000 0.0000 0.0000 11.6830 0.0000
# 6 0.0000 0.0000 0.0000 0.0000 0.0000 13.5452
#
#
#
# Elastic Compliance Matrix: (Units=1/GPa)
#
#
# Indices 1 2 3 4 5 6 
#
# 1 0.028584 -0.010105 0.001139 0.000000 0.000000 0.000000
# 2 -0.010105 0.024838 -0.009875 0.000000 0.000000 0.000000
# 3 0.001139 -0.009875 0.012953 0.000000 0.000000 0.000000
# 4 0.000000 0.000000 0.000000 0.040039 0.000000 0.000000
# 5 0.000000 0.000000 0.000000 0.000000 0.085594 0.000000
# 6 0.000000 0.000000 0.000000 0.000000 0.000000 0.073827
#
#
# Mechanical properties :
#
#
# Convention : Reuss Voigt Hill
#
# Bulk Modulus (GPa) = 34.85177 44.70249 39.77713
# Shear Modulus (GPa) = 15.97021 19.37064 17.67042
#
# Velocity S-wave (km/s) = 2.92396 3.22024 3.07567
# Velocity P-wave (km/s) = 5.48243 6.14474 5.82301
#
# Compressibility (1/GPa) = 0.02869295
#
# Stress axis : x y z
#
# Youngs Moduli (GPa) = 34.98450 40.26110 77.19926
#
# Poissons Ratio (x) = 0.40685 -0.08795
# Poissons Ratio (y) = 0.35353 0.76235
# Poissons Ratio (z) = -0.03986 0.39758
#
# Static dielectric constant tensor:
#      x y z
#    x 1.651110 0.000000 0.000000 
#    y 0.000000 1.684460 0.000000 
#    z 0.000000 0.000000 1.676160 
# 
# From -- ./inp_files/19702.got.cif
#   From: 2010.05.17/outbox.cif.g08.bks.cpg/sg55_10_cif.got.tgz:19702.got - 2010.06.03 13:27:54.
