data_PCOD9425065
_publ_section_title
;
Structure prediction by ZEFSAII (Michael W. Deem and Ramdas Pophale) SiO2 
 PCOD9425065
Probable space group: P B A M
;
_chemical_formula_sum "Si O2"
_cell_formula_units_Z 64
_cell_length_a 14.790265
_cell_length_b 31.465062
_cell_length_c 8.030576
_cell_angle_alpha 90.000000
_cell_angle_beta 90.000000
_cell_angle_gamma 90.000000
_cell_volume 3737.242197
_symmetry_space_group_name_H-M "P B A M"
_symmetry_group_IT_number 55
_symmetry_cell_setting 'orthorhombic'
loop_
_space_group_symop_operation_xyz
x,y,z
-x,-y,z
1/2+x,1/2-y,-z
1/2-x,1/2+y,-z
-x,-y,-z
x,y,-z
1/2-x,1/2+y,z
1/2+x,1/2-y,z
loop_
_atom_site_type_symbol
_atom_site_label
_atom_site_fract_x
_atom_site_fract_y
_atom_site_fract_z
Si Si1 0.323984 0.704286 0.806161
Si Si2 0.183990 0.635023 0.300992
Si Si3 0.507322 0.171567 0.190874
Si Si4 0.208049 0.787101 0.298264
Si Si5 0.893750 0.547572 0.703956
Si Si6 0.397048 0.048399 0.297092
Si Si7 0.686459 0.131686 0.691999
Si Si8 0.493913 0.264562 0.693609
O O1 0.265694 0.662285 0.771209
O O2 0.263909 0.745593 0.757382
O O3 0.419380 0.705522 0.711775
O O4 0.343881 0.707184 0.000000
O O5 0.193363 0.634920 0.500000
O O6 0.167510 0.586618 0.241951
O O7 0.091197 0.658791 0.254069
O O8 0.484491 0.252005 0.500000
O O9 0.585274 0.150637 0.300429
O O10 0.515289 0.222096 0.205140
O O11 0.214501 0.787757 0.500000
O O12 0.251546 0.831080 0.233233
O O13 0.102838 0.782841 0.252377
O O14 0.893005 0.548774 0.500000
O O15 0.871811 0.499363 0.754859
O O16 0.826839 0.584511 0.764865
O O17 0.998307 0.556236 0.753670
O O18 0.397380 0.048824 0.500000
O O19 0.715201 0.126519 0.500000
O O20 0.019302 0.341902 0.000000
#
# Coordination Sequence:
#
# PCOD9425065 Si02
#       8
#     8   8   8   8   8   8   8   8
#     4  12  24  35  50  73 100 130 165 209 252 292
#     4  11  20  33  51  71  97 136 174 205 243 297
#     4  12  22  30  45  72 103 133 168 207 246 288
#     4  10  21  34  52  73  96 130 169 203 242 295
#     4   8  13  24  44  73 102 125 159 204 244 292
#     4   8  14  24  44  73  99 127 163 202 245 290
#     4  10  18  31  51  73  98 133 168 201 246 298
#     4  11  22  37  52  68  96 132 171 208 243 291
#
# _framework density 17.124925999999999
#
# number of rings (size 3 to 8) (size 9 to 14) (size 15 to 20)
#    0.000    1.750    3.750    3.750    0.000    0.500 
#    0.000    0.000    0.000    2.250    0.000    0.875 
#    0.000    7.000    0.000    0.000    0.000    0.000 
#
# Total GULP energy -357010.403169 kJ/mol
# GULP energy per Si atom -5578.287550 kJ/mol
# Density = 1.708595 g / cm^3
# Si number density = 17.124926 Si / 1000 Ang^3
#
#
#
# Elastic Constant Matrix: (Units=GPa)
#
#
# Indices 1 2 3 4 5 6 
#
# 1 58.4918 29.9426 9.2389 0.0000 0.0000 0.0000
# 2 29.9426 125.1600 6.4373 0.0000 0.0000 0.0000
# 3 9.2389 6.4373 24.2288 0.0000 0.0000 0.0000
# 4 0.0000 0.0000 0.0000 -7.5203 0.0000 0.0000
# 5 0.0000 0.0000 0.0000 0.0000 17.1325 0.0000
# 6 0.0000 0.0000 0.0000 0.0000 0.0000 22.8401
#
#
#
# Elastic Compliance Matrix: (Units=1/GPa)
#
#
# Indices 1 2 3 4 5 6 
#
# 1 0.020472 -0.004558 -0.006595 0.000000 0.000000 0.000000
# 2 -0.004558 0.009115 -0.000684 0.000000 0.000000 0.000000
# 3 -0.006595 -0.000684 0.043970 0.000000 0.000000 0.000000
# 4 0.000000 0.000000 0.000000 -0.132973 0.000000 0.000000
# 5 0.000000 0.000000 0.000000 0.000000 0.058369 0.000000
# 6 0.000000 0.000000 0.000000 0.000000 0.000000 0.043783
#
#
# Mechanical properties :
#
#
# Convention : Reuss Voigt Hill
#
# Bulk Modulus (GPa) = 20.04711 33.23536 26.64124
# Shear Modulus (GPa) = 60.21388 17.30789 38.76089
#
# Velocity S-wave (km/s) = 5.93615 3.18258 4.76270
# Velocity P-wave (km/s) = 7.66261 5.74062 6.77017
#
# Compressibility (1/GPa) = 0.04988251
#
# Stress axis : x y z
#
# Youngs Moduli (GPa) = 48.84819 109.70392 22.74289
#
# Poissons Ratio (x) = 0.50006 0.14999
# Poissons Ratio (y) = 0.22267 0.01555
# Poissons Ratio (z) = 0.32216 0.07500
#
# Static dielectric constant tensor:
#      x y z
#    x 1.566780 0.000000 0.000000 
#    y 0.000000 1.622550 0.000000 
#    z 0.000000 0.000000 1.594830 
# 
# From -- ./inp_files/6903.got.cif
#   From: 2010.05.17/outbox.cif.g08.bks.cpg/sg55_4_cif.got.tgz:6903.got - 2010.06.03 13:27:54.
