data_PCOD9425803
_publ_section_title
;
Structure prediction by ZEFSAII (Michael W. Deem and Ramdas Pophale) SiO2 
 PCOD9425803
Probable space group: P B A M
;
_chemical_formula_sum "Si O2"
_cell_formula_units_Z 48
_cell_length_a 31.574173
_cell_length_b 8.956836
_cell_length_c 7.897003
_cell_angle_alpha 90.000000
_cell_angle_beta 90.000000
_cell_angle_gamma 90.000000
_cell_volume 2233.309481
_symmetry_space_group_name_H-M "P B A M"
_symmetry_group_IT_number 55
_symmetry_cell_setting 'orthorhombic'
loop_
_space_group_symop_operation_xyz
x,y,z
-x,-y,z
1/2+x,1/2-y,-z
1/2-x,1/2+y,-z
-x,-y,-z
x,y,-z
1/2-x,1/2+y,z
1/2+x,1/2-y,z
loop_
_atom_site_type_symbol
_atom_site_label
_atom_site_fract_x
_atom_site_fract_y
_atom_site_fract_z
Si Si1 0.383165 0.868363 0.293536
Si Si2 0.965274 0.792677 0.293374
Si Si3 0.640706 0.799630 0.705327
Si Si4 0.219580 0.894802 0.190811
Si Si5 0.200659 0.217088 0.305454
Si Si6 0.943540 0.132141 0.706352
O O1 0.385680 0.870062 0.500000
O O2 0.429881 0.822955 0.233386
O O3 0.347162 0.748628 0.245620
O O4 0.367211 0.030688 0.239692
O O5 0.965979 0.787225 0.500000
O O6 0.014090 0.779780 0.238450
O O7 0.949813 0.959381 0.246588
O O8 0.641858 0.797586 0.500000
O O9 0.684047 0.727557 0.767305
O O10 0.600446 0.702124 0.763145
O O11 0.264862 0.817386 0.211916
O O12 0.212682 0.043670 0.298607
O O13 0.214163 0.947220 0.000000
O O14 0.202545 0.267651 0.500000
O O15 0.942972 0.135904 0.500000
#
# Coordination Sequence:
#
# PCOD9425803 Si02
#       6
#     8   8   8   8   8   8
#     4   9  18  30  50  79 110 140 178 225 275 327
#     4   8  13  24  41  71 110 143 175 222 278 327
#     4  10  19  33  53  80 110 146 187 226 270 329
#     4  12  25  40  58  83 112 144 181 229 281 331
#     4  11  22  39  61  83 108 144 185 228 275 333
#     4   8  14  24  44  72 107 145 181 222 273 327
#
# _framework density 21.492767000000001
#
# number of rings (size 3 to 8) (size 9 to 14) (size 15 to 20)
#    0.000    2.333    0.000    5.000    0.000    4.667 
#    0.000    4.167    0.000    0.000    0.000   12.833 
#    0.000    0.000    0.000    0.000    0.000    0.000 
#
# Total GULP energy -268049.666412 kJ/mol
# GULP energy per Si atom -5584.368050 kJ/mol
# Density = 2.144385 g / cm^3
# Si number density = 21.492767 Si / 1000 Ang^3
#
#
#
# Elastic Constant Matrix: (Units=GPa)
#
#
# Indices 1 2 3 4 5 6 
#
# 1 44.5736 -34.8128 9.9557 0.0000 0.0000 0.0000
# 2 -34.8128 6.8121 -2.1081 0.0000 0.0000 0.0000
# 3 9.9557 -2.1081 27.7463 0.0000 0.0000 0.0000
# 4 0.0000 0.0000 0.0000 -7.6094 0.0000 0.0000
# 5 0.0000 0.0000 0.0000 0.0000 -38.2894 0.0000
# 6 0.0000 0.0000 0.0000 0.0000 0.0000 36.5745
#
#
#
# Elastic Compliance Matrix: (Units=1/GPa)
#
#
# Indices 1 2 3 4 5 6 
#
# 1 -0.007499 -0.038391 -0.000226 0.000000 0.000000 0.000000
# 2 -0.038391 -0.046220 0.010263 0.000000 0.000000 0.000000
# 3 -0.000226 0.010263 0.036902 0.000000 0.000000 0.000000
# 4 0.000000 0.000000 0.000000 -0.131417 0.000000 0.000000
# 5 0.000000 0.000000 0.000000 0.000000 -0.026117 0.000000
# 6 0.000000 0.000000 0.000000 0.000000 0.000000 0.027341
#
#
# Mechanical properties :
#
#
# Convention : Reuss Voigt Hill
#
# Bulk Modulus (GPa) = -13.60103 2.80020 -5.40041
# Shear Modulus (GPa) = -43.55048 5.20828 -19.17110
#
# Velocity S-wave (km/s) = -4.50631 1.55837 -2.98984
# Velocity P-wave (km/s) = 5.78081 2.13160 3.79960
#
# Compressibility (1/GPa) = -0.07352387
#
# Stress axis : x y z
#
# Youngs Moduli (GPa) = -133.35964 -21.63577 27.09897
#
# Poissons Ratio (x) = -0.83061 0.00613
# Poissons Ratio (y) = -5.11978 -0.27813
# Poissons Ratio (z) = -0.03018 0.22206
#
# Static dielectric constant tensor:
#      x y z
#    x 1.760920 0.000000 0.000000 
#    y 0.000000 1.740710 0.000000 
#    z 0.000000 0.000000 1.790670 
# 
# From -- ./inp_files/2904.got.cif
#   From: 2010.05.17/outbox.cif.g08.bks.cpg/sg55_2_cif.got.tgz:2904.got - 2010.06.03 13:27:54.
