data_PCOD9425047
_publ_section_title
;
Structure prediction by ZEFSAII (Michael W. Deem and Ramdas Pophale) SiO2 
 PCOD9425047
Probable space group: P B A M
;
_chemical_formula_sum "Si O2"
_cell_formula_units_Z 48
_cell_length_a 17.063475
_cell_length_b 9.573880
_cell_length_c 14.305927
_cell_angle_alpha 90.000000
_cell_angle_beta 90.000000
_cell_angle_gamma 90.000000
_cell_volume 2337.068623
_symmetry_space_group_name_H-M "P B A M"
_symmetry_group_IT_number 55
_symmetry_cell_setting 'orthorhombic'
loop_
_space_group_symop_operation_xyz
x,y,z
-x,-y,z
1/2+x,1/2-y,-z
1/2-x,1/2+y,-z
-x,-y,-z
x,y,-z
1/2-x,1/2+y,z
1/2+x,1/2-y,z
loop_
_atom_site_type_symbol
_atom_site_label
_atom_site_fract_x
_atom_site_fract_y
_atom_site_fract_z
Si Si1 0.787118 0.628275 0.390124
Si Si2 0.435417 0.672750 0.828326
Si Si3 0.589907 0.021443 0.756516
Si Si4 0.199720 0.006806 0.099600
Si Si5 0.683658 0.424790 0.698951
Si Si6 0.898588 0.259963 0.108214
O O1 0.800902 0.621529 0.500000
O O2 0.852595 0.543676 0.330861
O O3 0.789749 0.786203 0.353526
O O4 0.704814 0.557240 0.362623
O O5 0.409076 0.833751 0.815156
O O6 0.380847 0.595917 0.903001
O O7 0.405897 0.598057 0.732610
O O8 0.525791 0.674322 0.854181
O O9 0.500000 0.000000 0.724130
O O10 0.607324 0.893333 0.825625
O O11 0.175190 0.844806 0.109757
O O12 0.228575 0.054443 0.201229
O O13 0.242002 0.027030 0.000000
O O14 0.913416 0.297959 0.000000
#
# Coordination Sequence:
#
# PCOD9425047 Si02
#       6
#     8   8   8   8   8   8
#     4  11  22  41  63  79 105 147 193 245 301 344
#     4   8  17  32  52  80 120 148 185 227 267 329
#     4   9  20  36  54  88 115 147 185 241 286 329
#     4   9  18  33  53  80 115 152 182 219 272 333
#     4   9  22  37  55  85 108 142 191 239 279 343
#     4  10  18  30  56  88 120 157 191 216 266 341
#
# _framework density 20.538550000000001
#
# number of rings (size 3 to 8) (size 9 to 14) (size 15 to 20)
#    1.000    1.667    0.000    1.500    2.333    5.333 
#    0.000    1.667    0.000    0.000    0.000    4.667 
#    0.000    0.000    0.000    0.000    0.000    0.000 
#
# Total GULP energy -267414.453556 kJ/mol
# GULP energy per Si atom -5571.134449 kJ/mol
# Density = 2.049180 g / cm^3
# Si number density = 20.538550 Si / 1000 Ang^3
#
#
#
# Elastic Constant Matrix: (Units=GPa)
#
#
# Indices 1 2 3 4 5 6 
#
# 1 48.8237 9.6217 31.0059 0.0000 0.0000 0.0000
# 2 9.6217 51.9232 61.3020 0.0000 0.0000 0.0000
# 3 31.0059 61.3020 160.9135 0.0000 0.0000 0.0000
# 4 0.0000 0.0000 0.0000 21.0693 0.0000 0.0000
# 5 0.0000 0.0000 0.0000 0.0000 34.2412 0.0000
# 6 0.0000 0.0000 0.0000 0.0000 0.0000 15.6415
#
#
#
# Elastic Compliance Matrix: (Units=1/GPa)
#
#
# Indices 1 2 3 4 5 6 
#
# 1 0.023429 0.001796 -0.005199 0.000000 0.000000 0.000000
# 2 0.001796 0.035140 -0.013733 0.000000 0.000000 0.000000
# 3 -0.005199 -0.013733 0.012448 0.000000 0.000000 0.000000
# 4 0.000000 0.000000 0.000000 0.047463 0.000000 0.000000
# 5 0.000000 0.000000 0.000000 0.000000 0.029205 0.000000
# 6 0.000000 0.000000 0.000000 0.000000 0.000000 0.063932
#
#
# Mechanical properties :
#
#
# Convention : Reuss Voigt Hill
#
# Bulk Modulus (GPa) = 27.21375 51.72443 39.46909
# Shear Modulus (GPa) = 19.36953 24.83912 22.10433
#
# Velocity S-wave (km/s) = 3.07430 3.48140 3.28416
# Velocity P-wave (km/s) = 5.08730 6.43420 5.79998
#
# Compressibility (1/GPa) = 0.03674613
#
# Stress axis : x y z
#
# Youngs Moduli (GPa) = 42.68137 28.45748 80.33352
#
# Poissons Ratio (x) = -0.05112 0.41764
# Poissons Ratio (y) = -0.07667 1.10324
# Poissons Ratio (z) = 0.22189 0.39081
#
# Static dielectric constant tensor:
#      x y z
#    x 1.794460 0.000000 0.000000 
#    y 0.000000 1.744840 0.000000 
#    z 0.000000 0.000000 1.706480 
# 
# From -- ./inp_files/19641.got.cif
#   From: 2010.05.17/outbox.cif.g08.bks.cpg/sg55_10_cif.got.tgz:19641.got - 2010.06.03 13:27:54.
