data_PCOD9425632
_publ_section_title
;
Structure prediction by ZEFSAII (Michael W. Deem and Ramdas Pophale) SiO2 
 PCOD9425632
Probable space group: P B A M
;
_chemical_formula_sum "Si O2"
_cell_formula_units_Z 56
_cell_length_a 17.245134
_cell_length_b 20.096944
_cell_length_c 7.573349
_cell_angle_alpha 90.000000
_cell_angle_beta 90.000000
_cell_angle_gamma 90.000000
_cell_volume 2624.729584
_symmetry_space_group_name_H-M "P B A M"
_symmetry_group_IT_number 55
_symmetry_cell_setting 'orthorhombic'
loop_
_space_group_symop_operation_xyz
x,y,z
-x,-y,z
1/2+x,1/2-y,-z
1/2-x,1/2+y,-z
-x,-y,-z
x,y,-z
1/2-x,1/2+y,z
1/2+x,1/2-y,z
loop_
_atom_site_type_symbol
_atom_site_label
_atom_site_fract_x
_atom_site_fract_y
_atom_site_fract_z
Si Si1 0.012034 0.927416 0.204398
Si Si2 0.440609 0.853127 0.797003
Si Si3 0.837826 0.528265 0.793314
Si Si4 0.114904 0.618432 0.293671
Si Si5 0.007454 0.215481 0.783376
Si Si6 0.187494 0.893445 0.713466
Si Si7 0.671333 0.748615 0.297126
O O1 0.972838 0.859522 0.275089
O O2 0.103549 0.912439 0.213408
O O3 0.986710 0.932067 0.000000
O O4 0.000000 0.000000 0.287132
O O5 0.390897 0.912475 0.714474
O O6 0.530600 0.875417 0.793830
O O7 0.440222 0.777765 0.724470
O O8 0.414632 0.847410 0.000000
O O9 0.852950 0.455526 0.718521
O O10 0.750846 0.553415 0.768978
O O11 0.857009 0.522288 0.000000
O O12 0.102055 0.633862 0.500000
O O13 0.171782 0.676644 0.221765
O O14 0.920700 0.230991 0.714894
O O15 0.003846 0.216325 0.000000
O O16 0.182184 0.891557 0.500000
O O17 0.209396 0.818556 0.777966
O O18 0.697467 0.752660 0.500000
#
# Coordination Sequence:
#
# PCOD9425632 Si02
#       7
#     8   8   8   8   8   8   8
#     4   9  17  31  53  78 102 128 162 207 254 300
#     4   9  18  32  49  70  98 132 168 205 245 294
#     4  11  22  34  48  70 103 137 169 207 251 298
#     4  10  19  32  52  76 100 128 166 208 250 298
#     4   8  14  27  48  71  94 122 157 195 237 288
#     4  10  20  35  53  72  98 132 169 207 251 301
#     4   8  16  31  50  70  92 120 156 199 243 292
#
# _framework density 21.335531
#
# number of rings (size 3 to 8) (size 9 to 14) (size 15 to 20)
#    0.000    2.714    0.000    1.714    0.000    4.286 
#    0.000    1.429    0.000    1.714    0.000    0.000 
#    0.000    0.000    0.000    0.000    0.000    0.000 
#
# Total GULP energy -311952.634301 kJ/mol
# GULP energy per Si atom -5570.582755 kJ/mol
# Density = 2.128697 g / cm^3
# Si number density = 21.335531 Si / 1000 Ang^3
#
#
#
# Elastic Constant Matrix: (Units=GPa)
#
#
# Indices 1 2 3 4 5 6 
#
# 1 15.8630 28.7812 -12.0408 0.0000 0.0000 0.0000
# 2 28.7812 226.3430 0.4975 0.0000 0.0000 0.0000
# 3 -12.0408 0.4975 62.4309 0.0000 0.0000 0.0000
# 4 0.0000 0.0000 0.0000 -13.0606 0.0000 0.0000
# 5 0.0000 0.0000 0.0000 0.0000 21.7061 0.0000
# 6 0.0000 0.0000 0.0000 0.0000 0.0000 5.5843
#
#
#
# Elastic Compliance Matrix: (Units=1/GPa)
#
#
# Indices 1 2 3 4 5 6 
#
# 1 0.101456 -0.012944 0.019671 0.000000 0.000000 0.000000
# 2 -0.012944 0.006070 -0.002545 0.000000 0.000000 0.000000
# 3 0.019671 -0.002545 0.019832 0.000000 0.000000 0.000000
# 4 0.000000 0.000000 0.000000 -0.076566 0.000000 0.000000
# 5 0.000000 0.000000 0.000000 0.000000 0.046070 0.000000
# 6 0.000000 0.000000 0.000000 0.000000 0.000000 0.179074
#
#
# Mechanical properties :
#
#
# Convention : Reuss Voigt Hill
#
# Bulk Modulus (GPa) = 7.36806 37.67917 22.52361
# Shear Modulus (GPa) = 15.98405 22.00589 18.99497
#
# Velocity S-wave (km/s) = 2.74008 3.21506 2.98702
# Velocity P-wave (km/s) = 3.67037 5.61077 4.74090
#
# Compressibility (1/GPa) = 0.13572096
#
# Stress axis : x y z
#
# Youngs Moduli (GPa) = 9.85646 164.75520 50.42405
#
# Poissons Ratio (x) = 2.13262 -0.99187
# Poissons Ratio (y) = 0.12758 0.12832
# Poissons Ratio (z) = -0.19388 0.41928
#
# Static dielectric constant tensor:
#      x y z
#    x 1.717200 0.000000 0.000000 
#    y 0.000000 1.864100 0.000000 
#    z 0.000000 0.000000 1.821530 
# 
# From -- ./inp_files/7804.got.cif
#   From: 2010.05.17/outbox.cif.g08.bks.cpg/sg55_4_cif.got.tgz:7804.got - 2010.06.03 13:27:54.
