data_PCOD9425902
_publ_section_title
;
Structure prediction by ZEFSAII (Michael W. Deem and Ramdas Pophale) SiO2 
 PCOD9425902
Probable space group: P B A M
;
_chemical_formula_sum "Si O2"
_cell_formula_units_Z 48
_cell_length_a 29.892194
_cell_length_b 10.360866
_cell_length_c 9.151339
_cell_angle_alpha 90.000000
_cell_angle_beta 90.000000
_cell_angle_gamma 90.000000
_cell_volume 2834.252201
_symmetry_space_group_name_H-M "P B A M"
_symmetry_group_IT_number 55
_symmetry_cell_setting 'orthorhombic'
loop_
_space_group_symop_operation_xyz
x,y,z
-x,-y,z
1/2+x,1/2-y,-z
1/2-x,1/2+y,-z
-x,-y,-z
x,y,-z
1/2-x,1/2+y,z
1/2+x,1/2-y,z
loop_
_atom_site_type_symbol
_atom_site_label
_atom_site_fract_x
_atom_site_fract_y
_atom_site_fract_z
Si Si1 0.115131 0.217095 0.326691
Si Si2 0.467841 0.120246 0.174819
Si Si3 0.212950 0.510434 0.824470
Si Si4 0.118898 0.522877 0.673255
Si Si5 0.526427 0.369863 0.825094
Si Si6 0.209273 0.210310 0.175539
O O1 0.117057 0.196791 0.500000
O O2 0.108754 0.370839 0.299644
O O3 0.073381 0.144156 0.256260
O O4 0.162268 0.181828 0.253066
O O5 0.421084 0.103833 0.256431
O O6 0.494654 0.249346 0.212492
O O7 0.500000 0.000000 0.211143
O O8 0.460027 0.118198 0.000000
O O9 0.166694 0.548398 0.747200
O O10 0.252754 0.607391 0.782891
O O11 0.222119 0.359328 0.789129
O O12 0.207221 0.518559 0.000000
O O13 0.121341 0.542806 0.500000
O O14 0.500000 0.500000 0.790252
O O15 0.534496 0.365658 0.000000
O O16 0.203310 0.203407 0.000000
#
# Coordination Sequence:
#
# PCOD9425902 Si02
#       6
#     8   8   8   8   8   8
#     4  10  20  34  54  78 106 141 175 209 256 313
#     4  10  19  33  56  80 101 132 175 217 254 298
#     4   9  18  34  55  77 102 133 172 216 258 303
#     4  10  20  33  53  80 107 137 173 214 258 306
#     4  10  21  37  55  77 105 137 174 217 261 306
#     4   9  18  34  56  78 101 133 173 216 258 303
#
# _framework density 16.935683999999998
#
# number of rings (size 3 to 8) (size 9 to 14) (size 15 to 20)
#    0.000    2.333    1.667    1.000    0.000    3.333 
#    3.000    0.000    0.000    0.000    0.000    0.000 
#    0.000    0.000    0.000    0.000    0.000    0.000 
#
# Total GULP energy -267817.437348 kJ/mol
# GULP energy per Si atom -5579.529945 kJ/mol
# Density = 1.689714 g / cm^3
# Si number density = 16.935684 Si / 1000 Ang^3
#
#
#
# Elastic Constant Matrix: (Units=GPa)
#
#
# Indices 1 2 3 4 5 6 
#
# 1 180.0989 94.9009 67.7523 0.0000 0.0000 0.0000
# 2 94.9009 109.1809 44.1325 0.0000 0.0000 0.0000
# 3 67.7523 44.1325 33.0285 0.0000 0.0000 0.0000
# 4 0.0000 0.0000 0.0000 11.1827 0.0000 0.0000
# 5 0.0000 0.0000 0.0000 0.0000 -17.5815 0.0000
# 6 0.0000 0.0000 0.0000 0.0000 0.0000 28.0633
#
#
#
# Elastic Compliance Matrix: (Units=1/GPa)
#
#
# Indices 1 2 3 4 5 6 
#
# 1 0.024548 -0.002137 -0.047501 0.000000 0.000000 0.000000
# 2 -0.002137 0.020102 -0.022477 0.000000 0.000000 0.000000
# 3 -0.047501 -0.022477 0.157751 0.000000 0.000000 0.000000
# 4 0.000000 0.000000 0.000000 0.089424 0.000000 0.000000
# 5 0.000000 0.000000 0.000000 0.000000 -0.056878 0.000000
# 6 0.000000 0.000000 0.000000 0.000000 0.000000 0.035634
#
#
# Mechanical properties :
#
#
# Convention : Reuss Voigt Hill
#
# Bulk Modulus (GPa) = 17.19062 81.76441 49.47751
# Shear Modulus (GPa) = 11.51543 12.03439 11.77491
#
# Velocity S-wave (km/s) = 2.61042 2.66859 2.63966
# Velocity P-wave (km/s) = 4.38842 7.60785 6.21038
#
# Compressibility (1/GPa) = 0.05817127
#
# Stress axis : x y z
#
# Youngs Moduli (GPa) = 40.73636 49.74656 6.33912
#
# Poissons Ratio (x) = 0.10630 0.30111
# Poissons Ratio (y) = 0.08704 0.14248
# Poissons Ratio (z) = 1.93502 1.11815
#
# Static dielectric constant tensor:
#      x y z
#    x 1.535190 0.000000 0.000000 
#    y 0.000000 1.568100 0.000000 
#    z 0.000000 0.000000 1.557210 
# 
# From -- ./inp_files/2896.got.cif
#   From: 2010.05.17/outbox.cif.g08.bks.cpg/sg55_2_cif.got.tgz:2896.got - 2010.06.03 13:27:54.
