data_PCOD9425197
_publ_section_title
;
Structure prediction by ZEFSAII (Michael W. Deem and Ramdas Pophale) SiO2 
 PCOD9425197
Probable space group: P B A M
;
_chemical_formula_sum "Si O2"
_cell_formula_units_Z 64
_cell_length_a 12.449371
_cell_length_b 31.177200
_cell_length_c 7.432620
_cell_angle_alpha 90.000000
_cell_angle_beta 90.000000
_cell_angle_gamma 90.000000
_cell_volume 2884.871332
_symmetry_space_group_name_H-M "P B A M"
_symmetry_group_IT_number 55
_symmetry_cell_setting 'orthorhombic'
loop_
_space_group_symop_operation_xyz
x,y,z
-x,-y,z
1/2+x,1/2-y,-z
1/2-x,1/2+y,-z
-x,-y,-z
x,y,-z
1/2-x,1/2+y,z
1/2+x,1/2-y,z
loop_
_atom_site_type_symbol
_atom_site_label
_atom_site_fract_x
_atom_site_fract_y
_atom_site_fract_z
Si Si1 0.052001 0.790063 0.220229
Si Si2 0.323987 0.121288 0.786782
Si Si3 0.772072 0.676116 0.793190
Si Si4 0.726082 0.080544 0.281587
Si Si5 0.938799 0.041092 0.286759
Si Si6 0.508504 0.807347 0.779849
Si Si7 0.995105 0.450894 0.716631
Si Si8 0.078983 0.125940 0.217101
O O1 0.173377 0.797899 0.285573
O O2 0.019978 0.742193 0.271514
O O3 0.975910 0.829410 0.278402
O O4 0.052567 0.791511 0.000000
O O5 0.398732 0.160212 0.716445
O O6 0.391390 0.077417 0.763184
O O7 0.201947 0.120821 0.716893
O O8 0.314187 0.128228 0.000000
O O9 0.738284 0.626804 0.786065
O O10 0.890978 0.678335 0.715129
O O11 0.782592 0.690580 0.000000
O O12 0.725400 0.081419 0.500000
O O13 0.817332 0.047609 0.219706
O O14 0.605379 0.071215 0.220005
O O15 0.927516 0.034006 0.500000
O O16 0.007154 0.084598 0.264174
O O17 0.000000 0.000000 0.210126
O O18 0.511025 0.809582 0.000000
O O19 0.998365 0.452009 0.500000
O O20 0.000000 0.500000 0.779914
O O21 0.081179 0.127529 0.000000
#
# Coordination Sequence:
#
# PCOD9425197 Si02
#       8
#     8   8   8   8   8   8   8   8
#     4   9  18  31  51  80 109 138 176 220 263 311
#     4  10  21  36  54  80 113 143 175 221 271 316
#     4  10  18  32  56  79 102 140 182 217 264 321
#     4  10  20  36  56  79 106 136 176 227 272 309
#     4  10  22  38  58  80 105 141 182 222 266 319
#     4   9  18  31  51  80 109 138 176 220 263 311
#     4  10  22  38  58  80 105 141 182 222 266 319
#     4  10  21  36  54  80 113 143 175 221 271 316
#
# _framework density 22.184698000000001
#
# number of rings (size 3 to 8) (size 9 to 14) (size 15 to 20)
#    0.000    2.250    2.500    0.000    3.500    1.000 
#    0.000    0.000    0.000    3.000    0.000    0.000 
#    0.000    0.000    0.000    0.000    0.000    0.000 
#
# Total GULP energy -357360.004489 kJ/mol
# GULP energy per Si atom -5583.750070 kJ/mol
# Density = 2.213421 g / cm^3
# Si number density = 22.184698 Si / 1000 Ang^3
#
#
#
# Elastic Constant Matrix: (Units=GPa)
#
#
# Indices 1 2 3 4 5 6 
#
# 1 103.7714 -0.9787 -7.9543 0.0000 0.0000 0.0000
# 2 -0.9787 77.2198 -19.9315 0.0000 0.0000 0.0000
# 3 -7.9543 -19.9315 66.7643 0.0000 0.0000 0.0000
# 4 0.0000 0.0000 0.0000 -113.5169 0.0000 0.0000
# 5 0.0000 0.0000 0.0000 0.0000 16.9662 0.0000
# 6 0.0000 0.0000 0.0000 0.0000 0.0000 36.4175
#
#
#
# Elastic Compliance Matrix: (Units=1/GPa)
#
#
# Indices 1 2 3 4 5 6 
#
# 1 0.009740 0.000458 0.001297 0.000000 0.000000 0.000000
# 2 0.000458 0.014053 0.004250 0.000000 0.000000 0.000000
# 3 0.001297 0.004250 0.016401 0.000000 0.000000 0.000000
# 4 0.000000 0.000000 0.000000 -0.008809 0.000000 0.000000
# 5 0.000000 0.000000 0.000000 0.000000 0.058941 0.000000
# 6 0.000000 0.000000 0.000000 0.000000 0.000000 0.027459
#
#
# Mechanical properties :
#
#
# Convention : Reuss Voigt Hill
#
# Bulk Modulus (GPa) = 19.15514 21.11407 20.13460
# Shear Modulus (GPa) = 40.59228 6.41470 23.50349
#
# Velocity S-wave (km/s) = 4.28219 1.70228 3.25844
# Velocity P-wave (km/s) = 5.75349 3.66084 4.82205
#
# Compressibility (1/GPa) = 0.05220532
#
# Stress axis : x y z
#
# Youngs Moduli (GPa) = 102.66599 71.16020 60.97061
#
# Poissons Ratio (x) = -0.03261 -0.07910
# Poissons Ratio (y) = -0.04705 -0.25912
# Poissons Ratio (z) = -0.13319 -0.30242
#
# Static dielectric constant tensor:
#      x y z
#    x 1.813340 0.000000 0.000000 
#    y 0.000000 1.798550 0.000000 
#    z 0.000000 0.000000 1.858980 
# 
# From -- ./inp_files/4592.got.cif
#   From: 2010.05.17/outbox.cif.g08.bks.cpg/sg55_3_cif.got.tgz:4592.got - 2010.06.03 13:27:54.
