data_PCOD9425379
_publ_section_title
;
Structure prediction by ZEFSAII (Michael W. Deem and Ramdas Pophale) SiO2 
 PCOD9425379
Probable space group: P B A M
;
_chemical_formula_sum "Si O2"
_cell_formula_units_Z 64
_cell_length_a 15.702616
_cell_length_b 19.350669
_cell_length_c 10.520746
_cell_angle_alpha 90.000000
_cell_angle_beta 90.000000
_cell_angle_gamma 90.000000
_cell_volume 3196.793108
_symmetry_space_group_name_H-M "P B A M"
_symmetry_group_IT_number 55
_symmetry_cell_setting 'orthorhombic'
loop_
_space_group_symop_operation_xyz
x,y,z
-x,-y,z
1/2+x,1/2-y,-z
1/2-x,1/2+y,-z
-x,-y,-z
x,y,-z
1/2-x,1/2+y,z
1/2+x,1/2-y,z
loop_
_atom_site_type_symbol
_atom_site_label
_atom_site_fract_x
_atom_site_fract_y
_atom_site_fract_z
Si Si1 0.680226 0.156953 0.647436
Si Si2 0.682404 0.317356 0.358610
Si Si3 0.474387 0.320198 0.642391
Si Si4 0.517039 0.578951 0.856879
Si Si5 0.237922 0.449851 0.145719
Si Si6 0.974427 0.340323 0.352446
Si Si7 0.678669 0.414947 0.139982
Si Si8 0.078190 0.552694 0.855544
O O1 0.699169 0.139127 0.500000
O O2 0.703204 0.237413 0.666769
O O3 0.725087 0.108256 0.749594
O O4 0.577267 0.151962 0.663010
O O5 0.712931 0.335628 0.500000
O O6 0.578502 0.322073 0.361814
O O7 0.716078 0.368922 0.251871
O O8 0.444657 0.338634 0.500000
O O9 0.442472 0.372584 0.750097
O O10 0.452441 0.240326 0.667856
O O11 0.500000 0.500000 0.817647
O O12 0.419791 0.605956 0.868872
O O13 0.554172 0.581169 0.000000
O O14 0.315858 0.502846 0.165333
O O15 0.160419 0.504441 0.157052
O O16 0.238132 0.423459 0.000000
O O17 0.955071 0.357340 0.500000
O O18 0.929790 0.389215 0.250961
O O19 0.717332 0.403540 0.000000
O O20 0.000000 0.500000 0.840077
O O21 0.074084 0.580880 0.000000
#
# Coordination Sequence:
#
# PCOD9425379 Si02
#       8
#     8   8   8   8   8   8   8   8
#     4   9  17  29  47  71  94 119 154 195 233 269
#     4   8  15  29  48  69  92 116 149 193 231 267
#     4   8  15  28  46  70  95 118 148 187 230 273
#     4   9  17  30  50  74  95 116 149 191 234 281
#     4  10  20  32  46  67  96 126 157 193 232 274
#     4   9  17  29  46  68  94 122 156 195 230 269
#     4   9  18  32  49  69  93 121 153 190 232 279
#     4  10  19  30  44  66  95 126 160 195 227 264
#
# _framework density 20.020061999999999
#
# number of rings (size 3 to 8) (size 9 to 14) (size 15 to 20)
#    0.000    3.000    1.250    1.500    0.000    2.500 
#    0.000    2.500    2.750    0.000    0.000    0.000 
#    0.000    0.000    0.000    0.000    0.000    0.000 
#
# Total GULP energy -356814.832914 kJ/mol
# GULP energy per Si atom -5575.231764 kJ/mol
# Density = 1.997450 g / cm^3
# Si number density = 20.020062 Si / 1000 Ang^3
#
#
#
# Elastic Constant Matrix: (Units=GPa)
#
#
# Indices 1 2 3 4 5 6 
#
# 1 41.2399 3.9748 11.0020 0.0000 0.0000 0.0000
# 2 3.9748 104.8817 124.7776 0.0000 0.0000 0.0000
# 3 11.0020 124.7776 179.4940 0.0000 0.0000 0.0000
# 4 0.0000 0.0000 0.0000 57.8287 0.0000 0.0000
# 5 0.0000 0.0000 0.0000 0.0000 9.6194 0.0000
# 6 0.0000 0.0000 0.0000 0.0000 0.0000 19.8153
#
#
#
# Elastic Compliance Matrix: (Units=1/GPa)
#
#
# Indices 1 2 3 4 5 6 
#
# 1 0.025112 0.005085 -0.005074 0.000000 0.000000 0.000000
# 2 0.005085 0.056154 -0.039348 0.000000 0.000000 0.000000
# 3 -0.005074 -0.039348 0.033235 0.000000 0.000000 0.000000
# 4 0.000000 0.000000 0.000000 0.017292 0.000000 0.000000
# 5 0.000000 0.000000 0.000000 0.000000 0.103957 0.000000
# 6 0.000000 0.000000 0.000000 0.000000 0.000000 0.050466
#
#
# Mechanical properties :
#
#
# Convention : Reuss Voigt Hill
#
# Bulk Modulus (GPa) = 27.91169 67.23605 47.57387
# Shear Modulus (GPa) = 13.26852 29.84342 21.55597
#
# Velocity S-wave (km/s) = 2.57721 3.86512 3.28490
# Velocity P-wave (km/s) = 4.77788 7.31957 6.18078
#
# Compressibility (1/GPa) = 0.03582728
#
# Stress axis : x y z
#
# Youngs Moduli (GPa) = 39.82174 17.80831 30.08859
#
# Poissons Ratio (x) = -0.09055 0.15267
# Poissons Ratio (y) = -0.20249 1.18391
# Poissons Ratio (z) = 0.20206 0.70071
#
# Static dielectric constant tensor:
#      x y z
#    x 1.853780 0.000000 0.000000 
#    y 0.000000 1.663430 0.000000 
#    z 0.000000 0.000000 1.713560 
# 
# From -- ./inp_files/9191.got.cif
#   From: 2010.05.17/outbox.cif.g08.bks.cpg/sg55_5_cif.got.tgz:9191.got - 2010.06.03 13:27:54.
