data_PCOD9425759
_publ_section_title
;
Structure prediction by ZEFSAII (Michael W. Deem and Ramdas Pophale) SiO2 
 PCOD9425759
Probable space group: P B A M
;
_chemical_formula_sum "Si O2"
_cell_formula_units_Z 64
_cell_length_a 15.102671
_cell_length_b 28.286476
_cell_length_c 8.470189
_cell_angle_alpha 90.000000
_cell_angle_beta 90.000000
_cell_angle_gamma 90.000000
_cell_volume 3618.476097
_symmetry_space_group_name_H-M "P B A M"
_symmetry_group_IT_number 55
_symmetry_cell_setting 'orthorhombic'
loop_
_space_group_symop_operation_xyz
x,y,z
-x,-y,z
1/2+x,1/2-y,-z
1/2-x,1/2+y,-z
-x,-y,-z
x,y,-z
1/2-x,1/2+y,z
1/2+x,1/2-y,z
loop_
_atom_site_type_symbol
_atom_site_label
_atom_site_fract_x
_atom_site_fract_y
_atom_site_fract_z
Si Si1 0.593496 0.826244 0.688489
Si Si2 0.401103 0.823464 0.813857
Si Si3 0.895745 0.053569 0.808939
Si Si4 0.272017 0.364639 0.688899
Si Si5 0.096716 0.055560 0.808021
Si Si6 0.402802 0.282008 0.308453
Si Si7 0.104627 0.218217 0.311803
Si Si8 0.271591 0.636996 0.812282
O O1 0.583573 0.825439 0.500000
O O2 0.499198 0.839152 0.762726
O O3 0.614620 0.772037 0.741018
O O4 0.675139 0.858682 0.736696
O O5 0.324541 0.859276 0.763146
O O6 0.382652 0.773278 0.728486
O O7 0.399150 0.815594 0.000000
O O8 0.824074 0.088330 0.736506
O O9 0.995993 0.067363 0.759023
O O10 0.883573 0.998617 0.763553
O O11 0.891608 0.056389 0.000000
O O12 0.264620 0.361758 0.500000
O O13 0.332035 0.320245 0.746657
O O14 0.168695 0.093280 0.752840
O O15 0.096251 0.056746 0.000000
O O16 0.400773 0.282447 0.500000
O O17 0.503725 0.294046 0.262329
O O18 0.112942 0.212163 0.500000
O O19 0.173891 0.184316 0.228247
O O20 0.261815 0.632840 0.000000
#
# Coordination Sequence:
#
# PCOD9425759 Si02
#       8
#     8   8   8   8   8   8   8   8
#     4  10  20  36  53  71  99 138 173 210 258 307
#     4  11  22  36  52  73 100 135 176 218 255 300
#     4   9  17  34  55  76 103 139 173 205 248 302
#     4  11  20  32  51  77 105 135 170 212 257 307
#     4   8  17  33  54  77 106 137 168 206 252 301
#     4   8  17  31  48  69  99 135 169 200 243 298
#     4  10  19  33  50  73 106 142 173 208 252 301
#     4  11  20  31  50  78 104 133 173 215 254 302
#
# _framework density 17.687004000000002
#
# number of rings (size 3 to 8) (size 9 to 14) (size 15 to 20)
#    0.000    2.250    0.000    5.625    0.000    1.000 
#    0.000    9.375    0.000    0.750    0.000    5.250 
#    0.000    0.000    0.000    0.000    0.000    0.000 
#
# Total GULP energy -357287.688172 kJ/mol
# GULP energy per Si atom -5582.620128 kJ/mol
# Density = 1.764675 g / cm^3
# Si number density = 17.687004 Si / 1000 Ang^3
#
#
#
# Elastic Constant Matrix: (Units=GPa)
#
#
# Indices 1 2 3 4 5 6 
#
# 1 122.0456 62.7664 8.3279 0.0000 0.0000 0.0000
# 2 62.7664 55.6574 -1.0055 0.0000 0.0000 0.0000
# 3 8.3279 -1.0055 25.9387 0.0000 0.0000 0.0000
# 4 0.0000 0.0000 0.0000 18.0962 0.0000 0.0000
# 5 0.0000 0.0000 0.0000 0.0000 26.6239 0.0000
# 6 0.0000 0.0000 0.0000 0.0000 0.0000 29.5110
#
#
#
# Elastic Compliance Matrix: (Units=1/GPa)
#
#
# Indices 1 2 3 4 5 6 
#
# 1 0.020917 -0.023727 -0.007635 0.000000 0.000000 0.000000
# 2 -0.023727 0.044893 0.009358 0.000000 0.000000 0.000000
# 3 -0.007635 0.009358 0.041367 0.000000 0.000000 0.000000
# 4 0.000000 0.000000 0.000000 0.055260 0.000000 0.000000
# 5 0.000000 0.000000 0.000000 0.000000 0.037560 0.000000
# 6 0.000000 0.000000 0.000000 0.000000 0.000000 0.033886
#
#
# Mechanical properties :
#
#
# Convention : Reuss Voigt Hill
#
# Bulk Modulus (GPa) = 15.83058 38.20214 27.01636
# Shear Modulus (GPa) = 16.72538 23.74976 20.23757
#
# Velocity S-wave (km/s) = 3.07845 3.66837 3.38628
# Velocity P-wave (km/s) = 4.64818 6.29194 5.53146
#
# Compressibility (1/GPa) = 0.06316887
#
# Stress axis : x y z
#
# Youngs Moduli (GPa) = 47.80825 22.27510 24.17407
#
# Poissons Ratio (x) = 0.52851 0.18458
# Poissons Ratio (y) = 1.13432 -0.22622
# Poissons Ratio (z) = 0.36503 -0.20845
#
# Static dielectric constant tensor:
#      x y z
#    x 1.604900 0.000000 0.000000 
#    y 0.000000 1.592690 0.000000 
#    z 0.000000 0.000000 1.599700 
# 
# From -- ./inp_files/6923.got.cif
#   From: 2010.05.17/outbox.cif.g08.bks.cpg/sg55_4_cif.got.tgz:6923.got - 2010.06.03 13:27:54.
