data_PCOD9425982
_publ_section_title
;
Structure prediction by ZEFSAII (Michael W. Deem and Ramdas Pophale) SiO2 
 PCOD9425982
Probable space group: P B A M
;
_chemical_formula_sum "Si O2"
_cell_formula_units_Z 52
_cell_length_a 24.674392
_cell_length_b 8.149578
_cell_length_c 11.612192
_cell_angle_alpha 90.000000
_cell_angle_beta 90.000000
_cell_angle_gamma 90.000000
_cell_volume 2335.047873
_symmetry_space_group_name_H-M "P B A M"
_symmetry_group_IT_number 55
_symmetry_cell_setting 'orthorhombic'
loop_
_space_group_symop_operation_xyz
x,y,z
-x,-y,z
1/2+x,1/2-y,-z
1/2-x,1/2+y,-z
-x,-y,-z
x,y,-z
1/2-x,1/2+y,z
1/2+x,1/2-y,z
loop_
_atom_site_type_symbol
_atom_site_label
_atom_site_fract_x
_atom_site_fract_y
_atom_site_fract_z
Si Si1 0.925791 0.144876 0.224631
Si Si2 0.720643 0.763301 0.000000
Si Si3 0.331691 0.848890 0.000000
Si Si4 0.124366 0.986326 0.000000
Si Si5 0.971392 0.679828 0.860514
Si Si6 0.875569 0.512536 0.768277
Si Si7 0.327963 0.465416 0.364320
Si Si8 0.271738 0.138975 0.733112
O O1 0.909744 0.038106 0.114003
O O2 0.899965 0.329296 0.230772
O O3 0.890473 0.053899 0.323500
O O4 0.988290 0.190742 0.200098
O O5 0.727226 0.836313 0.128757
O O6 0.768140 0.629934 0.000000
O O7 0.664431 0.668230 0.000000
O O8 0.357370 0.938657 0.105508
O O9 0.343464 0.655806 0.000000
O O10 0.924057 0.645031 0.764584
O O11 0.000000 0.500000 0.869419
O O12 0.960035 0.720191 0.000000
O O13 0.818058 0.498439 0.702093
O O14 0.325904 0.488451 0.500000
O O15 0.289598 0.599689 0.302840
O O16 0.295778 0.300576 0.326543
#
# Coordination Sequence:
#
# PCOD9425982 Si02
#       8
#     8   4   4   4   8   8   8   8
#     4  10  20  36  58  79 113 159 199 240 290 354
#     4  12  23  34  54  83 124 153 186 232 303 373
#     4  12  24  28  48  80 123 158 183 226 284 361
#     4  12  21  34  50  84 120 150 185 229 303 362
#     4   9  16  29  55  81 110 154 195 236 287 359
#     4  10  19  34  52  79 114 152 196 232 291 351
#     4  11  23  40  60  85 118 158 202 244 289 343
#     4  11  23  38  61  86 119 156 193 241 297 358
#
# _framework density 22.269351
#
# number of rings (size 3 to 8) (size 9 to 14) (size 15 to 20)
#    0.000    1.385    4.615    3.231    2.154    0.000 
#    0.000    1.538    0.000   12.462    0.000    0.000 
#    0.000    7.385    0.000    0.000    0.000    0.000 
#
# Total GULP energy -289481.066613 kJ/mol
# GULP energy per Si atom -5566.943589 kJ/mol
# Density = 2.221866 g / cm^3
# Si number density = 22.269351 Si / 1000 Ang^3
#
#
#
# Elastic Constant Matrix: (Units=GPa)
#
#
# Indices 1 2 3 4 5 6 
#
# 1 58.7395 -5.9022 14.1062 0.0000 0.0000 0.0000
# 2 -5.9022 42.8594 21.4383 0.0000 0.0000 0.0000
# 3 14.1062 21.4383 86.3531 0.0000 0.0000 0.0000
# 4 0.0000 0.0000 0.0000 -5.2513 0.0000 0.0000
# 5 0.0000 0.0000 0.0000 0.0000 15.2610 0.0000
# 6 0.0000 0.0000 0.0000 0.0000 0.0000 31.7958
#
#
#
# Elastic Compliance Matrix: (Units=1/GPa)
#
#
# Indices 1 2 3 4 5 6 
#
# 1 0.018491 0.004633 -0.004171 0.000000 0.000000 0.000000
# 2 0.004633 0.027801 -0.007659 0.000000 0.000000 0.000000
# 3 -0.004171 -0.007659 0.014163 0.000000 0.000000 0.000000
# 4 0.000000 0.000000 0.000000 -0.190428 0.000000 0.000000
# 5 0.000000 0.000000 0.000000 0.000000 0.065527 0.000000
# 6 0.000000 0.000000 0.000000 0.000000 0.000000 0.031451
#
#
# Mechanical properties :
#
#
# Convention : Reuss Voigt Hill
#
# Bulk Modulus (GPa) = 21.70992 27.47071 24.59032
# Shear Modulus (GPa) = -1539.41570 18.91507 -760.25031
#
# Velocity S-wave (km/s) = -26.32056 2.91757 -18.49675
# Velocity P-wave (km/s) = 30.23120 4.86950 21.09755
#
# Compressibility (1/GPa) = 0.04606188
#
# Stress axis : x y z
#
# Youngs Moduli (GPa) = 54.07903 35.96994 70.60616
#
# Poissons Ratio (x) = -0.16664 0.29449
# Poissons Ratio (y) = -0.25053 0.54075
# Poissons Ratio (z) = 0.22555 0.27548
#
# Static dielectric constant tensor:
#      x y z
#    x 2.020440 0.000000 0.000000 
#    y 0.000000 1.963650 0.000000 
#    z 0.000000 0.000000 1.576160 
# 
# From -- ./inp_files/15983.got.cif
#   From: 2010.05.17/outbox.cif.g08.bks.cpg/sg55_8_cif.got.tgz:15983.got - 2010.06.03 13:27:54.
