data_PCOD9425038
_publ_section_title
;
Structure prediction by ZEFSAII (Michael W. Deem and Ramdas Pophale) SiO2 
 PCOD9425038
Probable space group: P B A M
;
_chemical_formula_sum "Si O2"
_cell_formula_units_Z 64
_cell_length_a 17.729494
_cell_length_b 22.181949
_cell_length_c 7.578481
_cell_angle_alpha 90.000000
_cell_angle_beta 90.000000
_cell_angle_gamma 90.000000
_cell_volume 2980.425082
_symmetry_space_group_name_H-M "P B A M"
_symmetry_group_IT_number 55
_symmetry_cell_setting 'orthorhombic'
loop_
_space_group_symop_operation_xyz
x,y,z
-x,-y,z
1/2+x,1/2-y,-z
1/2-x,1/2+y,-z
-x,-y,-z
x,y,-z
1/2-x,1/2+y,z
1/2+x,1/2-y,z
loop_
_atom_site_type_symbol
_atom_site_label
_atom_site_fract_x
_atom_site_fract_y
_atom_site_fract_z
Si Si1 0.837196 0.467611 0.285327
Si Si2 0.773846 0.142905 0.794509
Si Si3 0.665843 0.772138 0.286260
Si Si4 0.218236 0.126674 0.289384
Si Si5 0.563798 0.420675 0.789460
Si Si6 0.619416 0.099346 0.294622
Si Si7 0.599894 0.555659 0.216050
Si Si8 0.542906 0.864212 0.714672
O O1 0.832701 0.470401 0.500000
O O2 0.761230 0.433731 0.222689
O O3 0.853915 0.534712 0.219279
O O4 0.905733 0.422332 0.241386
O O5 0.818643 0.204996 0.775106
O O6 0.690852 0.143276 0.713676
O O7 0.826111 0.089586 0.719153
O O8 0.761967 0.131040 0.000000
O O9 0.665782 0.771036 0.500000
O O10 0.734188 0.815924 0.226595
O O11 0.589011 0.805092 0.226758
O O12 0.226455 0.126188 0.500000
O O13 0.129926 0.125631 0.251306
O O14 0.478004 0.411374 0.728661
O O15 0.591126 0.486616 0.725298
O O16 0.559184 0.425189 0.000000
O O17 0.602410 0.087312 0.500000
O O18 0.541947 0.126076 0.219829
O O19 0.602720 0.556215 0.000000
O O20 0.541943 0.860774 0.500000
#
# Coordination Sequence:
#
# PCOD9425038 Si02
#       8
#     8   8   8   8   8   8   8   8
#     4   8  14  26  49  80 109 134 159 194 245 303
#     4  11  22  36  51  70 100 135 172 211 252 294
#     4   9  19  37  54  68  96 135 172 207 248 293
#     4   9  17  30  49  75 104 129 159 206 250 287
#     4   9  16  31  54  75  97 128 167 202 246 304
#     4  10  18  30  53  82 106 129 162 202 249 305
#     4   8  17  33  51  71  98 132 165 204 248 297
#     4   8  15  30  53  78 102 131 167 206 244 292
#
# _framework density 21.473445000000002
#
# number of rings (size 3 to 8) (size 9 to 14) (size 15 to 20)
#    0.000    3.000    0.000    3.750    0.000    2.000 
#    2.250    3.750    0.000    3.000    0.000    0.000 
#    0.000    0.000    0.000    0.000    0.000    0.000 
#
# Total GULP energy -357000.836825 kJ/mol
# GULP energy per Si atom -5578.138075 kJ/mol
# Density = 2.142457 g / cm^3
# Si number density = 21.473445 Si / 1000 Ang^3
#
#
#
# Elastic Constant Matrix: (Units=GPa)
#
#
# Indices 1 2 3 4 5 6 
#
# 1 100.7512 1.2120 -2.4865 0.0000 0.0000 0.0000
# 2 1.2120 40.0405 -5.3952 0.0000 0.0000 0.0000
# 3 -2.4865 -5.3952 43.7084 0.0000 0.0000 0.0000
# 4 0.0000 0.0000 0.0000 13.2338 0.0000 0.0000
# 5 0.0000 0.0000 0.0000 0.0000 -3.6813 0.0000
# 6 0.0000 0.0000 0.0000 0.0000 0.0000 12.1980
#
#
#
# Elastic Compliance Matrix: (Units=1/GPa)
#
#
# Indices 1 2 3 4 5 6 
#
# 1 0.009941 -0.000229 0.000537 0.000000 0.000000 0.000000
# 2 -0.000229 0.025402 0.003123 0.000000 0.000000 0.000000
# 3 0.000537 0.003123 0.023295 0.000000 0.000000 0.000000
# 4 0.000000 0.000000 0.000000 0.075564 0.000000 0.000000
# 5 0.000000 0.000000 0.000000 0.000000 -0.271644 0.000000
# 6 0.000000 0.000000 0.000000 0.000000 0.000000 0.081981
#
#
# Mechanical properties :
#
#
# Convention : Reuss Voigt Hill
#
# Bulk Modulus (GPa) = 15.26682 19.01787 17.14234
# Shear Modulus (GPa) = -123.49089 17.09473 -53.19808
#
# Velocity S-wave (km/s) = -7.59167 2.82456 -4.98274
# Velocity P-wave (km/s) = 8.34983 4.41738 5.01031
#
# Compressibility (1/GPa) = 0.06550153
#
# Stress axis : x y z
#
# Youngs Moduli (GPa) = 100.58894 39.36637 42.92780
#
# Poissons Ratio (x) = 0.00900 -0.02307
# Poissons Ratio (y) = 0.02299 -0.13405
# Poissons Ratio (z) = -0.05405 -0.12292
#
# Static dielectric constant tensor:
#      x y z
#    x 1.792740 0.000000 0.000000 
#    y 0.000000 1.758270 0.000000 
#    z 0.000000 0.000000 1.825880 
# 
# From -- ./inp_files/7996.got.cif
#   From: 2010.05.17/outbox.cif.g08.bks.cpg/sg55_4_cif.got.tgz:7996.got - 2010.06.03 13:27:54.
