data_PCOD9425802
_publ_section_title
;
Structure prediction by ZEFSAII (Michael W. Deem and Ramdas Pophale) SiO2 
 PCOD9425802
Probable space group: P B A M
;
_chemical_formula_sum "Si O2"
_cell_formula_units_Z 48
_cell_length_a 24.366960
_cell_length_b 5.136843
_cell_length_c 21.676261
_cell_angle_alpha 90.000000
_cell_angle_beta 90.000000
_cell_angle_gamma 90.000000
_cell_volume 2713.201287
_symmetry_space_group_name_H-M "P B A M"
_symmetry_group_IT_number 55
_symmetry_cell_setting 'orthorhombic'
loop_
_space_group_symop_operation_xyz
x,y,z
-x,-y,z
1/2+x,1/2-y,-z
1/2-x,1/2+y,-z
-x,-y,-z
x,y,-z
1/2-x,1/2+y,z
1/2+x,1/2-y,z
loop_
_atom_site_type_symbol
_atom_site_label
_atom_site_fract_x
_atom_site_fract_y
_atom_site_fract_z
Si Si1 0.620884 0.549776 0.311693
Si Si2 0.616710 0.123891 0.500000
Si Si3 0.212830 0.891402 0.933238
Si Si4 0.772462 0.116160 0.368696
Si Si5 0.290272 0.470408 0.202319
Si Si6 0.563967 0.067738 0.636171
Si Si7 0.694947 0.624924 0.500000
O O1 0.668622 0.490103 0.361051
O O2 0.658853 0.549392 0.250025
O O3 0.595824 0.825449 0.332075
O O4 0.577360 0.321493 0.322215
O O5 0.655960 0.374053 0.500000
O O6 0.582877 0.114738 0.564817
O O7 0.653701 0.866953 0.500000
O O8 0.237113 0.599968 0.932695
O O9 0.185684 0.945741 0.867341
O O10 0.184392 0.929798 0.000000
O O11 0.768936 0.404851 0.341652
O O12 0.766647 0.147210 0.440783
O O13 0.254856 0.737138 0.208641
O O14 0.500000 0.000000 0.635787
#
# Coordination Sequence:
#
# PCOD9425802 Si02
#       7
#     8   4   8   8   8   8   4
#     4  12  23  39  55  78 105 130 172 210 252 319
#     4  12  21  43  58  75  92 123 162 223 277 314
#     4   8  14  25  44  72 107 145 180 206 229 271
#     4  12  22  35  52  73 102 134 159 192 238 297
#     4  10  19  33  53  79 113 150 175 199 245 296
#     4  12  25  42  61  75  94 125 168 225 281 317
#     4  12  22  37  55  73 102 127 163 199 250 312
#
# _framework density 17.691281
#
# number of rings (size 3 to 8) (size 9 to 14) (size 15 to 20)
#    0.000    1.000    3.333    5.250    0.000    0.000 
#    0.000    2.500    0.000    0.000    0.000    0.000 
#    0.000    4.000    0.000    0.000    0.000    0.000 
#
# Total GULP energy -267418.576624 kJ/mol
# GULP energy per Si atom -5571.220346 kJ/mol
# Density = 1.765101 g / cm^3
# Si number density = 17.691281 Si / 1000 Ang^3
#
#
#
# Elastic Constant Matrix: (Units=GPa)
#
#
# Indices 1 2 3 4 5 6 
#
# 1 57.2375 13.0006 20.2104 0.0000 0.0000 0.0000
# 2 13.0006 96.4982 12.0744 0.0000 0.0000 0.0000
# 3 20.2104 12.0744 147.3245 0.0000 0.0000 0.0000
# 4 0.0000 0.0000 0.0000 14.1031 0.0000 0.0000
# 5 0.0000 0.0000 0.0000 0.0000 9.2219 0.0000
# 6 0.0000 0.0000 0.0000 0.0000 0.0000 21.5559
#
#
#
# Elastic Compliance Matrix: (Units=1/GPa)
#
#
# Indices 1 2 3 4 5 6 
#
# 1 0.018826 -0.002236 -0.002399 0.000000 0.000000 0.000000
# 2 -0.002236 0.010736 -0.000573 0.000000 0.000000 0.000000
# 3 -0.002399 -0.000573 0.007164 0.000000 0.000000 0.000000
# 4 0.000000 0.000000 0.000000 0.070906 0.000000 0.000000
# 5 0.000000 0.000000 0.000000 0.000000 0.108437 0.000000
# 6 0.000000 0.000000 0.000000 0.000000 0.000000 0.046391
#
#
# Mechanical properties :
#
#
# Convention : Reuss Voigt Hill
#
# Bulk Modulus (GPa) = 38.01029 43.51458 40.76243
# Shear Modulus (GPa) = 17.75271 26.02784 21.89028
#
# Velocity S-wave (km/s) = 3.17120 3.83982 3.52141
# Velocity P-wave (km/s) = 5.91106 6.65650 6.29482
#
# Compressibility (1/GPa) = 0.02630867
#
# Stress axis : x y z
#
# Youngs Moduli (GPa) = 53.11753 93.14582 139.58950
#
# Poissons Ratio (x) = 0.20829 0.33493
# Poissons Ratio (y) = 0.11878 0.08000
# Poissons Ratio (z) = 0.12745 0.05338
#
# Static dielectric constant tensor:
#      x y z
#    x 1.575750 0.000000 0.000000 
#    y 0.000000 1.679260 0.000000 
#    z 0.000000 0.000000 1.782580 
# 
# From -- ./inp_files/23158.got.cif
#   From: 2010.05.17/outbox.cif.g08.bks.cpg/sg55_12_cif.got.tgz:23158.got - 2010.06.03 13:27:54.
