data_PCOD9425148
_publ_section_title
;
Structure prediction by ZEFSAII (Michael W. Deem and Ramdas Pophale) SiO2 
 PCOD9425148
Probable space group: P B A M
;
_chemical_formula_sum "Si O2"
_cell_formula_units_Z 64
_cell_length_a 23.738339
_cell_length_b 19.673056
_cell_length_c 8.656941
_cell_angle_alpha 90.000000
_cell_angle_beta 90.000000
_cell_angle_gamma 90.000000
_cell_volume 4042.840553
_symmetry_space_group_name_H-M "P B A M"
_symmetry_group_IT_number 55
_symmetry_cell_setting 'orthorhombic'
loop_
_space_group_symop_operation_xyz
x,y,z
-x,-y,z
1/2+x,1/2-y,-z
1/2-x,1/2+y,-z
-x,-y,-z
x,y,-z
1/2-x,1/2+y,z
1/2+x,1/2-y,z
loop_
_atom_site_type_symbol
_atom_site_label
_atom_site_fract_x
_atom_site_fract_y
_atom_site_fract_z
Si Si1 0.727303 0.643254 0.816498
Si Si2 0.270951 0.650197 0.312717
Si Si3 0.935274 0.632149 0.814973
Si Si4 0.339434 0.235481 0.685212
Si Si5 0.381965 0.005485 0.684791
Si Si6 0.836538 0.719557 0.314358
Si Si7 0.248765 0.999585 0.313663
Si Si8 0.934551 0.356172 0.815175
O O1 0.677828 0.692705 0.758204
O O2 0.784494 0.672035 0.738203
O O3 0.721047 0.565712 0.763782
O O4 0.732926 0.647893 0.000000
O O5 0.270845 0.648735 0.500000
O O6 0.210809 0.683090 0.267985
O O7 0.318589 0.704186 0.266010
O O8 0.275198 0.572552 0.261347
O O9 0.913613 0.561716 0.742096
O O10 0.893163 0.690760 0.758565
O O11 0.999830 0.645829 0.770475
O O12 0.932302 0.626149 0.000000
O O13 0.338336 0.240890 0.500000
O O14 0.397542 0.203560 0.741285
O O15 0.386564 0.011263 0.500000
O O16 0.315624 0.999805 0.722526
O O17 0.408487 0.072354 0.760029
O O18 0.840167 0.716649 0.500000
O O19 0.243514 0.994160 0.500000
O O20 0.930718 0.351967 0.000000
#
# Coordination Sequence:
#
# PCOD9425148 Si02
#       8
#     8   8   8   8   8   8   8   8
#     4  11  21  32  49  75 104 133 164 205 256 305
#     4   8  16  31  51  72  96 123 160 207 253 293
#     4  11  23  36  49  69 102 140 173 213 257 300
#     4  10  19  35  54  73  97 131 172 212 251 297
#     4  11  21  33  51  72  99 138 179 213 245 294
#     4  10  19  33  52  73  96 130 172 215 253 299
#     4  10  18  32  51  74 101 134 168 204 249 301
#     4  11  23  36  50  71 102 137 173 213 258 302
#
# _framework density 15.830453
#
# number of rings (size 3 to 8) (size 9 to 14) (size 15 to 20)
#    0.000    1.750    2.500    4.125    0.000    4.000 
#    0.000    1.250    0.000    0.000    0.000    0.875 
#    0.000    7.000    0.000    0.000    0.000    0.000 
#
# Total GULP energy -357285.931108 kJ/mol
# GULP energy per Si atom -5582.592674 kJ/mol
# Density = 1.579442 g / cm^3
# Si number density = 15.830453 Si / 1000 Ang^3
#
#
#
# Elastic Constant Matrix: (Units=GPa)
#
#
# Indices 1 2 3 4 5 6 
#
# 1 61.6407 38.2507 9.2922 0.0000 0.0000 0.0000
# 2 38.2507 116.8585 11.1713 0.0000 0.0000 0.0000
# 3 9.2922 11.1713 23.2777 0.0000 0.0000 0.0000
# 4 0.0000 0.0000 0.0000 13.9457 0.0000 0.0000
# 5 0.0000 0.0000 0.0000 0.0000 21.2825 0.0000
# 6 0.0000 0.0000 0.0000 0.0000 0.0000 19.1358
#
#
#
# Elastic Compliance Matrix: (Units=1/GPa)
#
#
# Indices 1 2 3 4 5 6 
#
# 1 0.020969 -0.006355 -0.005321 0.000000 0.000000 0.000000
# 2 -0.006355 0.010895 -0.002692 0.000000 0.000000 0.000000
# 3 -0.005321 -0.002692 0.046375 0.000000 0.000000 0.000000
# 4 0.000000 0.000000 0.000000 0.071707 0.000000 0.000000
# 5 0.000000 0.000000 0.000000 0.000000 0.046987 0.000000
# 6 0.000000 0.000000 0.000000 0.000000 0.000000 0.052258
#
#
# Mechanical properties :
#
#
# Convention : Reuss Voigt Hill
#
# Bulk Modulus (GPa) = 20.20035 35.46728 27.83381
# Shear Modulus (GPa) = 16.98216 20.41030 18.69623
#
# Velocity S-wave (km/s) = 3.27884 3.59459 3.44034
# Velocity P-wave (km/s) = 5.20793 6.29930 5.77943
#
# Compressibility (1/GPa) = 0.04950410
#
# Stress axis : x y z
#
# Youngs Moduli (GPa) = 47.69034 91.78681 21.56322
#
# Poissons Ratio (x) = 0.58330 0.11473
# Poissons Ratio (y) = 0.30307 0.05804
# Poissons Ratio (z) = 0.25374 0.24707
#
# Static dielectric constant tensor:
#      x y z
#    x 1.509180 0.000000 0.000000 
#    y 0.000000 1.532410 0.000000 
#    z 0.000000 0.000000 1.529910 
# 
# From -- ./inp_files/8088.got.cif
#   From: 2010.05.17/outbox.cif.g08.bks.cpg/sg55_5_cif.got.tgz:8088.got - 2010.06.03 13:27:54.
