data_PCOD9425875
_publ_section_title
;
Structure prediction by ZEFSAII (Michael W. Deem and Ramdas Pophale) SiO2 
 PCOD9425875
Probable space group: P B A M
;
_chemical_formula_sum "Si O2"
_cell_formula_units_Z 48
_cell_length_a 29.908135
_cell_length_b 10.447154
_cell_length_c 8.663423
_cell_angle_alpha 90.000000
_cell_angle_beta 90.000000
_cell_angle_gamma 90.000000
_cell_volume 2706.928900
_symmetry_space_group_name_H-M "P B A M"
_symmetry_group_IT_number 55
_symmetry_cell_setting 'orthorhombic'
loop_
_space_group_symop_operation_xyz
x,y,z
-x,-y,z
1/2+x,1/2-y,-z
1/2-x,1/2+y,-z
-x,-y,-z
x,y,-z
1/2-x,1/2+y,z
1/2+x,1/2-y,z
loop_
_atom_site_type_symbol
_atom_site_label
_atom_site_fract_x
_atom_site_fract_y
_atom_site_fract_z
Si Si1 0.525369 0.873424 0.186024
Si Si2 0.385499 0.226080 0.684769
Si Si3 0.783356 0.985402 0.184306
Si Si4 0.118670 0.021997 0.315255
Si Si5 0.029486 0.123346 0.813694
Si Si6 0.282874 0.229462 0.314026
O O1 0.575993 0.859403 0.242630
O O2 0.497132 0.749383 0.235740
O O3 0.500000 0.000000 0.240226
O O4 0.526017 0.874173 0.000000
O O5 0.388365 0.216859 0.500000
O O6 0.393478 0.374988 0.727827
O O7 0.334361 0.197376 0.729706
O O8 0.833613 0.950966 0.238610
O O9 0.773373 0.127332 0.251602
O O10 0.749890 0.877968 0.248326
O O11 0.781204 0.990256 0.000000
O O12 0.123568 0.027519 0.500000
O O13 0.078404 0.110071 0.258558
O O14 0.033644 0.123955 0.000000
O O15 0.000000 0.000000 0.769575
O O16 0.280204 0.232819 0.500000
#
# Coordination Sequence:
#
# PCOD9425875 Si02
#       6
#     8   8   8   8   8   8
#     4  10  21  36  53  77 111 147 180 226 282 332
#     4   9  19  35  57  81 107 144 187 226 271 334
#     4  11  22  38  61  89 117 150 193 240 288 346
#     4  10  20  35  57  84 111 145 187 235 285 335
#     4  10  19  33  55  81 107 141 185 231 276 328
#     4  10  21  40  62  86 117 153 190 237 293 348
#
# _framework density 17.732271999999998
#
# number of rings (size 3 to 8) (size 9 to 14) (size 15 to 20)
#    0.000    2.000    1.667    3.500    0.000    4.667 
#    3.000    0.000    0.000    0.000    0.000    0.000 
#    0.000    0.000    0.000    0.000    0.000    0.000 
#
# Total GULP energy -267953.628493 kJ/mol
# GULP energy per Si atom -5582.367260 kJ/mol
# Density = 1.769191 g / cm^3
# Si number density = 17.732272 Si / 1000 Ang^3
#
#
#
# Elastic Constant Matrix: (Units=GPa)
#
#
# Indices 1 2 3 4 5 6 
#
# 1 149.4257 91.9202 48.5861 0.0000 0.0000 0.0000
# 2 91.9202 120.6983 41.9739 0.0000 0.0000 0.0000
# 3 48.5861 41.9739 58.3937 0.0000 0.0000 0.0000
# 4 0.0000 0.0000 0.0000 20.6100 0.0000 0.0000
# 5 0.0000 0.0000 0.0000 0.0000 30.1569 0.0000
# 6 0.0000 0.0000 0.0000 0.0000 0.0000 36.5142
#
#
#
# Elastic Compliance Matrix: (Units=1/GPa)
#
#
# Indices 1 2 3 4 5 6 
#
# 1 0.013677 -0.008611 -0.005190 0.000000 0.000000 0.000000
# 2 -0.008611 0.016468 -0.004673 0.000000 0.000000 0.000000
# 3 -0.005190 -0.004673 0.024802 0.000000 0.000000 0.000000
# 4 0.000000 0.000000 0.000000 0.048520 0.000000 0.000000
# 5 0.000000 0.000000 0.000000 0.000000 0.033160 0.000000
# 6 0.000000 0.000000 0.000000 0.000000 0.000000 0.027387
#
#
# Mechanical properties :
#
#
# Convention : Reuss Voigt Hill
#
# Bulk Modulus (GPa) = 55.55655 77.05315 66.30485
# Shear Modulus (GPa) = 24.15909 27.19205 25.67557
#
# Velocity S-wave (km/s) = 3.69512 3.92021 3.80933
# Velocity P-wave (km/s) = 7.04301 8.00242 7.53800
#
# Compressibility (1/GPa) = 0.01799968
#
# Stress axis : x y z
#
# Youngs Moduli (GPa) = 73.11503 60.72377 40.31897
#
# Poissons Ratio (x) = 0.52290 0.20926
# Poissons Ratio (y) = 0.62960 0.18839
# Poissons Ratio (z) = 0.37948 0.28373
#
# Static dielectric constant tensor:
#      x y z
#    x 1.588430 0.000000 0.000000 
#    y 0.000000 1.590800 0.000000 
#    z 0.000000 0.000000 1.596500 
# 
# From -- ./inp_files/2862.got.cif
#   From: 2010.05.17/outbox.cif.g08.bks.cpg/sg55_2_cif.got.tgz:2862.got - 2010.06.03 13:27:54.
