data_PCOD9425574
_publ_section_title
;
Structure prediction by ZEFSAII (Michael W. Deem and Ramdas Pophale) SiO2 
 PCOD9425574
Probable space group: P B A M
;
_chemical_formula_sum "Si O2"
_cell_formula_units_Z 34
_cell_length_a 19.091905
_cell_length_b 6.899966
_cell_length_c 10.624626
_cell_angle_alpha 90.000000
_cell_angle_beta 90.000000
_cell_angle_gamma 90.000000
_cell_volume 1399.619120
_symmetry_space_group_name_H-M "P B A M"
_symmetry_group_IT_number 55
_symmetry_cell_setting 'orthorhombic'
loop_
_space_group_symop_operation_xyz
x,y,z
-x,-y,z
1/2+x,1/2-y,-z
1/2-x,1/2+y,-z
-x,-y,-z
x,y,-z
1/2-x,1/2+y,z
1/2+x,1/2-y,z
loop_
_atom_site_type_symbol
_atom_site_label
_atom_site_fract_x
_atom_site_fract_y
_atom_site_fract_z
Si Si1 0.161328 0.595311 0.000000
Si Si2 0.000000 0.500000 0.000000
Si Si3 0.055794 0.210465 0.500000
Si Si4 0.399099 0.166478 0.500000
Si Si5 0.883291 0.819467 0.000000
Si Si6 0.851185 0.861455 0.728390
Si Si7 0.193874 0.584365 0.272588
O O1 0.191456 0.668664 0.868245
O O2 0.077104 0.609704 0.000000
O O3 0.172331 0.360359 0.000000
O O4 0.042650 0.291849 0.000000
O O5 0.472348 0.277890 0.500000
O O6 0.080391 0.437063 0.500000
O O7 0.089695 0.116477 0.623701
O O8 0.352094 0.195622 0.624186
O O9 0.872724 0.926929 0.131850
O O10 0.774558 0.934469 0.688559
O O11 0.840630 0.627722 0.736604
#
# Coordination Sequence:
#
# PCOD9425574 Si02
#       7
#     4   2   4   4   4   8   8
#     4   8  17  27  49  73  97 119 156 196 241 274
#     4   8  16  28  48  78 102 112 158 210 246 256
#     4   9  19  30  49  73  96 121 164 208 240 273
#     4   9  19  30  49  73  96 121 164 208 240 273
#     4   8  17  27  49  73  97 119 156 196 241 274
#     4  10  19  32  49  73  99 127 158 197 242 286
#     4  10  19  32  49  73  99 127 158 197 242 286
#
# _framework density 24.292324000000001
#
# number of rings (size 3 to 8) (size 9 to 14) (size 15 to 20)
#    0.706    2.118    0.000    1.412    3.294    0.000 
#    0.000    0.000    0.000    2.824    0.000    1.647 
#    0.000    0.000    0.000    0.000    0.000    0.000 
#
# Total GULP energy -189467.584691 kJ/mol
# GULP energy per Si atom -5572.576020 kJ/mol
# Density = 2.423703 g / cm^3
# Si number density = 24.292324 Si / 1000 Ang^3
#
#
#
# Elastic Constant Matrix: (Units=GPa)
#
#
# Indices 1 2 3 4 5 6 
#
# 1 171.7482 16.7458 93.8598 0.0000 0.0000 0.0000
# 2 16.7458 74.5176 20.9579 0.0000 0.0000 0.0000
# 3 93.8598 20.9579 211.7601 0.0000 0.0000 0.0000
# 4 0.0000 0.0000 0.0000 -11.8823 0.0000 0.0000
# 5 0.0000 0.0000 0.0000 0.0000 446.2803 0.0000
# 6 0.0000 0.0000 0.0000 0.0000 0.0000 26.0977
#
#
#
# Elastic Compliance Matrix: (Units=1/GPa)
#
#
# Indices 1 2 3 4 5 6 
#
# 1 0.007729 -0.000796 -0.003347 0.000000 0.000000 0.000000
# 2 -0.000796 0.013886 -0.001022 0.000000 0.000000 0.000000
# 3 -0.003347 -0.001022 0.006307 0.000000 0.000000 0.000000
# 4 0.000000 0.000000 0.000000 -0.084159 0.000000 0.000000
# 5 0.000000 0.000000 0.000000 0.000000 0.002241 0.000000
# 6 0.000000 0.000000 0.000000 0.000000 0.000000 0.038317
#
#
# Mechanical properties :
#
#
# Convention : Reuss Voigt Hill
#
# Bulk Modulus (GPa) = 56.83981 80.12811 68.48396
# Shear Modulus (GPa) = 9715.82627 113.86331 4914.84479
#
# Velocity S-wave (km/s) = 63.31057 6.85375 45.02889
# Velocity P-wave (km/s) = 73.26496 9.78205 52.26587
#
# Compressibility (1/GPa) = 0.01759330
#
# Stress axis : x y z
#
# Youngs Moduli (GPa) = 129.37871 72.01621 158.55364
#
# Poissons Ratio (x) = 0.05729 0.53070
# Poissons Ratio (y) = 0.10293 0.16199
# Poissons Ratio (z) = 0.43305 0.07358
#
# Static dielectric constant tensor:
#      x y z
#    x 1.843440 0.000000 0.000000 
#    y 0.000000 2.003990 0.000000 
#    z 0.000000 0.000000 1.942830 
# 
# From -- ./inp_files/13085.got.cif
#   From: 2010.05.17/outbox.cif.g08.bks.cpg/sg55_7_cif.got.tgz:13085.got - 2010.06.03 13:27:54.
