data_PCOD9425586
_publ_section_title
;
Structure prediction by ZEFSAII (Michael W. Deem and Ramdas Pophale) SiO2 
 PCOD9425586
Probable space group: P B A M
;
_chemical_formula_sum "Si O2"
_cell_formula_units_Z 56
_cell_length_a 14.147294
_cell_length_b 24.141856
_cell_length_c 8.588666
_cell_angle_alpha 90.000000
_cell_angle_beta 90.000000
_cell_angle_gamma 90.000000
_cell_volume 2933.389601
_symmetry_space_group_name_H-M "P B A M"
_symmetry_group_IT_number 55
_symmetry_cell_setting 'orthorhombic'
loop_
_space_group_symop_operation_xyz
x,y,z
-x,-y,z
1/2+x,1/2-y,-z
1/2-x,1/2+y,-z
-x,-y,-z
x,y,-z
1/2-x,1/2+y,z
1/2+x,1/2-y,z
loop_
_atom_site_type_symbol
_atom_site_label
_atom_site_fract_x
_atom_site_fract_y
_atom_site_fract_z
Si Si1 0.785301 0.962638 0.313614
Si Si2 0.696266 0.730829 0.313706
Si Si3 0.106160 0.938993 0.821405
Si Si4 0.302149 0.868475 0.179549
Si Si5 0.898871 0.524770 0.811209
Si Si6 0.803665 0.835957 0.309630
Si Si7 0.486197 0.334277 0.312961
O O1 0.790312 0.963980 0.500000
O O2 0.789064 0.899156 0.259593
O O3 0.869479 0.001433 0.249397
O O4 0.686463 0.989177 0.258857
O O5 0.687534 0.734173 0.500000
O O6 0.777669 0.686101 0.275073
O O7 0.727620 0.790945 0.254993
O O8 0.597960 0.705133 0.251973
O O9 0.206619 0.905880 0.816571
O O10 0.036258 0.897636 0.733191
O O11 0.077219 0.944422 0.000000
O O12 0.382428 0.911032 0.235967
O O13 0.319892 0.853318 0.000000
O O14 0.000000 0.500000 0.767315
O O15 0.890399 0.523484 0.000000
O O16 0.801468 0.835994 0.500000
O O17 0.909179 0.818398 0.260842
O O18 0.484071 0.331660 0.500000
#
# Coordination Sequence:
#
# PCOD9425586 Si02
#       7
#     8   8   8   8   8   8   8
#     4  10  19  32  50  73 105 135 167 212 258 307
#     4   9  17  32  52  71  94 130 172 209 248 301
#     4   9  17  31  51  74 101 128 162 206 252 304
#     4   8  15  29  49  70  93 125 161 203 249 292
#     4   9  18  34  53  73 103 138 170 209 261 314
#     4   9  19  34  49  73 106 135 166 212 264 305
#     4   9  17  32  54  73  95 133 173 207 254 311
#
# _framework density 19.090541999999999
#
# number of rings (size 3 to 8) (size 9 to 14) (size 15 to 20)
#    0.000    3.000    0.000    1.714    0.000    4.286 
#    2.571    6.429    0.000    0.000    0.000    0.000 
#    0.000    0.000    0.000    0.000    0.000    0.000 
#
# Total GULP energy -312094.815451 kJ/mol
# GULP energy per Si atom -5573.121704 kJ/mol
# Density = 1.904709 g / cm^3
# Si number density = 19.090542 Si / 1000 Ang^3
#
#
#
# Elastic Constant Matrix: (Units=GPa)
#
#
# Indices 1 2 3 4 5 6 
#
# 1 54.9404 30.4199 4.9735 0.0000 0.0000 0.0000
# 2 30.4199 120.5954 9.8832 0.0000 0.0000 0.0000
# 3 4.9735 9.8832 9.5593 0.0000 0.0000 0.0000
# 4 0.0000 0.0000 0.0000 6.8849 0.0000 0.0000
# 5 0.0000 0.0000 0.0000 0.0000 12.7693 0.0000
# 6 0.0000 0.0000 0.0000 0.0000 0.0000 26.3681
#
#
#
# Elastic Compliance Matrix: (Units=1/GPa)
#
#
# Indices 1 2 3 4 5 6 
#
# 1 0.021476 -0.004918 -0.006089 0.000000 0.000000 0.000000
# 2 -0.004918 0.010186 -0.007972 0.000000 0.000000 0.000000
# 3 -0.006089 -0.007972 0.116021 0.000000 0.000000 0.000000
# 4 0.000000 0.000000 0.000000 0.145245 0.000000 0.000000
# 5 0.000000 0.000000 0.000000 0.000000 0.078313 0.000000
# 6 0.000000 0.000000 0.000000 0.000000 0.000000 0.037925
#
#
# Mechanical properties :
#
#
# Convention : Reuss Voigt Hill
#
# Bulk Modulus (GPa) = 9.11376 30.62759 19.87067
# Shear Modulus (GPa) = 10.33701 18.52570 14.43136
#
# Velocity S-wave (km/s) = 2.32948 3.11852 2.75242
# Velocity P-wave (km/s) = 3.46694 5.38935 4.53126
#
# Compressibility (1/GPa) = 0.10972421
#
# Stress axis : x y z
#
# Youngs Moduli (GPa) = 46.56377 98.17225 8.61914
#
# Poissons Ratio (x) = 0.48284 0.05248
# Poissons Ratio (y) = 0.22901 0.06872
# Poissons Ratio (z) = 0.28351 0.78267
#
# Static dielectric constant tensor:
#      x y z
#    x 1.683340 0.000000 0.000000 
#    y 0.000000 1.677600 0.000000 
#    z 0.000000 0.000000 1.650130 
# 
# From -- ./inp_files/6151.got.cif
#   From: 2010.05.17/outbox.cif.g08.bks.cpg/sg55_4_cif.got.tgz:6151.got - 2010.06.03 13:27:54.
