data_PCOD9425419
_publ_section_title
;
Structure prediction by ZEFSAII (Michael W. Deem and Ramdas Pophale) SiO2 
 PCOD9425419
Probable space group: P B A M
;
_chemical_formula_sum "Si O2"
_cell_formula_units_Z 64
_cell_length_a 13.555270
_cell_length_b 16.682706
_cell_length_c 14.630184
_cell_angle_alpha 90.000000
_cell_angle_beta 90.000000
_cell_angle_gamma 90.000000
_cell_volume 3308.449096
_symmetry_space_group_name_H-M "P B A M"
_symmetry_group_IT_number 55
_symmetry_cell_setting 'orthorhombic'
loop_
_space_group_symop_operation_xyz
x,y,z
-x,-y,z
1/2+x,1/2-y,-z
1/2-x,1/2+y,-z
-x,-y,-z
x,y,-z
1/2-x,1/2+y,z
1/2+x,1/2-y,z
loop_
_atom_site_type_symbol
_atom_site_label
_atom_site_fract_x
_atom_site_fract_y
_atom_site_fract_z
Si Si1 0.352088 0.208741 0.750000
Si Si2 0.800284 0.553451 0.750000
Si Si3 0.303836 0.082718 0.106623
Si Si4 0.425456 0.387912 0.750000
Si Si5 0.696164 0.917282 0.393377
Si Si6 0.578025 0.356235 0.893670
Si Si7 0.078025 0.143765 0.393670
Si Si8 0.371004 0.770439 0.750000
O O1 0.361832 0.152432 0.838786
O O2 0.408385 0.291806 0.750000
O O3 0.361832 0.152432 0.661214
O O4 0.240313 0.238837 0.750000
O O5 0.821040 0.499071 0.838517
O O6 0.682629 0.573639 0.750000
O O7 0.821040 0.499071 0.661483
O O8 0.864333 0.634275 0.750000
O O9 0.186232 0.103140 0.115072
O O10 0.328048 0.079413 0.000000
O O11 0.494004 0.403819 0.838071
O O12 0.494004 0.403819 0.661929
O O13 0.671952 0.920587 0.500000
O O14 0.813768 0.896860 0.384928
O O15 0.586633 0.270910 0.841491
O O16 0.554472 0.348490 0.000000
O O17 0.054472 0.151510 0.500000
O O18 0.086633 0.229090 0.341491
#
# Coordination Sequence:
#
# PCOD9425419 Si02
#       8
#     8   8   8   8   8   8   8   8
#     4   8  16  31  48  66  90 121 157 194 226 262
#     4  10  19  30  48  74  97 118 152 194 230 270
#     4   9  18  32  48  67  95 128 155 184 229 279
#     4  10  19  30  48  74  97 118 152 194 230 270
#     4   9  18  32  48  67  95 128 155 184 229 279
#     4   9  18  32  48  67  95 128 155 184 229 279
#     4   9  18  32  48  67  95 128 155 184 229 279
#     4   8  16  31  48  66  90 121 157 194 226 262
#
# _framework density 19.34441
#
# number of rings (size 3 to 8) (size 9 to 14) (size 15 to 20)
#    0.000    3.000    0.000    2.250    0.000    5.000 
#    0.000    7.500    0.000   12.000    0.000   14.000 
#    0.000    0.000    0.000    0.000    0.000    0.000 
#
# Total GULP energy -356615.906909 kJ/mol
# GULP energy per Si atom -5572.123545 kJ/mol
# Density = 1.930038 g / cm^3
# Si number density = 19.344410 Si / 1000 Ang^3
#
#
#
# Elastic Constant Matrix: (Units=GPa)
#
#
# Indices 1 2 3 4 5 6 
#
# 1 18.9889 -7.5736 6.8796 0.0000 0.0000 0.0000
# 2 -7.5736 120.2329 50.1765 0.0000 0.0000 0.0000
# 3 6.8796 50.1765 144.0451 0.0000 0.0000 0.0000
# 4 0.0000 0.0000 0.0000 7.5001 0.0000 0.0000
# 5 0.0000 0.0000 0.0000 0.0000 1.8912 0.0000
# 6 0.0000 0.0000 0.0000 0.0000 0.0000 15.1918
#
#
#
# Elastic Compliance Matrix: (Units=1/GPa)
#
#
# Indices 1 2 3 4 5 6 
#
# 1 0.056520 0.005484 -0.004610 0.000000 0.000000 0.000000
# 2 0.005484 0.010264 -0.003837 0.000000 0.000000 0.000000
# 3 -0.004610 -0.003837 0.008499 0.000000 0.000000 0.000000
# 4 0.000000 0.000000 0.000000 0.133332 0.000000 0.000000
# 5 0.000000 0.000000 0.000000 0.000000 0.528762 0.000000
# 6 0.000000 0.000000 0.000000 0.000000 0.000000 0.065825
#
#
# Mechanical properties :
#
#
# Convention : Reuss Voigt Hill
#
# Bulk Modulus (GPa) = 14.41816 42.47023 28.44420
# Shear Modulus (GPa) = 6.00783 20.50223 13.25503
#
# Velocity S-wave (km/s) = 1.76422 3.25907 2.62050
# Velocity P-wave (km/s) = 3.40874 6.01369 4.88795
#
# Compressibility (1/GPa) = 0.06935696
#
# Stress axis : x y z
#
# Youngs Moduli (GPa) = 17.69291 97.42756 117.65942
#
# Poissons Ratio (x) = -0.53429 0.54237
# Poissons Ratio (y) = -0.09703 0.45149
# Poissons Ratio (z) = 0.08156 0.37386
#
# Static dielectric constant tensor:
#      x y z
#    x 1.738590 0.000000 0.000000 
#    y 0.000000 1.685650 0.000000 
#    z 0.000000 0.000000 1.642190 
# 
# From -- ./inp_files/19584.got.cif
#   From: 2010.05.17/outbox.cif.g08.bks.cpg/sg55_10_cif.got.tgz:19584.got - 2010.06.03 13:27:54.
