data_PCOD9425659
_publ_section_title
;
Structure prediction by ZEFSAII (Michael W. Deem and Ramdas Pophale) SiO2 
 PCOD9425659
Probable space group: P B A M
;
_chemical_formula_sum "Si O2"
_cell_formula_units_Z 56
_cell_length_a 13.256562
_cell_length_b 23.755864
_cell_length_c 9.774864
_cell_angle_alpha 90.000000
_cell_angle_beta 90.000000
_cell_angle_gamma 90.000000
_cell_volume 3078.310767
_symmetry_space_group_name_H-M "P B A M"
_symmetry_group_IT_number 55
_symmetry_cell_setting 'orthorhombic'
loop_
_space_group_symop_operation_xyz
x,y,z
-x,-y,z
1/2+x,1/2-y,-z
1/2-x,1/2+y,-z
-x,-y,-z
x,y,-z
1/2-x,1/2+y,z
1/2+x,1/2-y,z
loop_
_atom_site_type_symbol
_atom_site_label
_atom_site_fract_x
_atom_site_fract_y
_atom_site_fract_z
Si Si1 0.716290 0.048600 0.161144
Si Si2 0.270053 0.739435 0.659048
Si Si3 0.935325 0.329880 0.341100
Si Si4 0.128819 0.328201 0.161567
Si Si5 0.312150 0.057616 0.339336
Si Si6 0.892946 0.873401 0.661214
Si Si7 0.048616 0.938569 0.162522
O O1 0.656687 0.106425 0.181215
O O2 0.833528 0.058877 0.198913
O O3 0.674021 0.997024 0.248039
O O4 0.714325 0.034169 0.000000
O O5 0.281397 0.756872 0.500000
O O6 0.160245 0.711366 0.673467
O O7 0.289254 0.789545 0.762991
O O8 0.350924 0.689385 0.685474
O O9 0.969064 0.326763 0.500000
O O10 0.892491 0.392709 0.315686
O O11 0.023986 0.316324 0.237667
O O12 0.124776 0.316745 0.000000
O O13 0.315300 0.043285 0.500000
O O14 0.202257 0.085271 0.311288
O O15 0.917180 0.877975 0.500000
O O16 0.985780 0.892987 0.752642
O O17 0.040266 0.927343 0.000000
O O18 0.000000 0.000000 0.188773
#
# Coordination Sequence:
#
# PCOD9425659 Si02
#       7
#     8   8   8   8   8   8   8
#     4  10  22  37  51  76 116 151 183 227 277 330
#     4   9  20  40  62  82 108 144 188 235 281 331
#     4   9  20  40  63  84 110 144 185 233 280 333
#     4  11  24  39  56  83 117 149 184 231 280 332
#     4   9  18  34  57  83 108 140 184 229 275 329
#     4   9  18  33  55  83 110 139 181 233 279 324
#     4  10  19  32  52  79 113 152 184 218 273 335
#
# _framework density 18.191794000000002
#
# number of rings (size 3 to 8) (size 9 to 14) (size 15 to 20)
#    0.000    2.429    1.429    2.143    0.000    5.429 
#    0.000    8.571    0.000    0.000    0.000    0.000 
#    0.000    0.000    0.000    0.000    0.000    0.000 
#
# Total GULP energy -312595.699179 kJ/mol
# GULP energy per Si atom -5582.066057 kJ/mol
# Density = 1.815039 g / cm^3
# Si number density = 18.191794 Si / 1000 Ang^3
#
#
#
# Elastic Constant Matrix: (Units=GPa)
#
#
# Indices 1 2 3 4 5 6 
#
# 1 49.9307 13.5038 33.3645 0.0000 0.0000 0.0000
# 2 13.5038 72.3701 62.3707 0.0000 0.0000 0.0000
# 3 33.3645 62.3707 75.0207 0.0000 0.0000 0.0000
# 4 0.0000 0.0000 0.0000 17.1458 0.0000 0.0000
# 5 0.0000 0.0000 0.0000 0.0000 26.0187 0.0000
# 6 0.0000 0.0000 0.0000 0.0000 0.0000 10.9743
#
#
#
# Elastic Compliance Matrix: (Units=1/GPa)
#
#
# Indices 1 2 3 4 5 6 
#
# 1 0.039658 0.027515 -0.040513 0.000000 0.000000 0.000000
# 2 0.027515 0.067832 -0.068632 0.000000 0.000000 0.000000
# 3 -0.040513 -0.068632 0.088406 0.000000 0.000000 0.000000
# 4 0.000000 0.000000 0.000000 0.058323 0.000000 0.000000
# 5 0.000000 0.000000 0.000000 0.000000 0.038434 0.000000
# 6 0.000000 0.000000 0.000000 0.000000 0.000000 0.091122
#
#
# Mechanical properties :
#
#
# Convention : Reuss Voigt Hill
#
# Bulk Modulus (GPa) = 30.63922 46.19994 38.41958
# Shear Modulus (GPa) = 8.96196 16.69992 12.83094
#
# Velocity S-wave (km/s) = 2.22195 3.03312 2.65866
# Velocity P-wave (km/s) = 4.84372 6.14147 5.53079
#
# Compressibility (1/GPa) = 0.03263790
#
# Stress axis : x y z
#
# Youngs Moduli (GPa) = 25.21585 14.74220 11.31142
#
# Poissons Ratio (x) = -0.40564 0.45826
# Poissons Ratio (y) = -0.69382 0.77632
# Poissons Ratio (z) = 1.02157 1.01178
#
# Static dielectric constant tensor:
#      x y z
#    x 1.619600 0.000000 0.000000 
#    y 0.000000 1.613400 0.000000 
#    z 0.000000 0.000000 1.595560 
# 
# From -- ./inp_files/6162.got.cif
#   From: 2010.05.17/outbox.cif.g08.bks.cpg/sg55_4_cif.got.tgz:6162.got - 2010.06.03 13:27:54.
