data_PCOD9425486
_publ_section_title
;
Structure prediction by ZEFSAII (Michael W. Deem and Ramdas Pophale) SiO2 
 PCOD9425486
Probable space group: P B A M
;
_chemical_formula_sum "Si O2"
_cell_formula_units_Z 48
_cell_length_a 16.137722
_cell_length_b 18.887278
_cell_length_c 9.244195
_cell_angle_alpha 90.000000
_cell_angle_beta 90.000000
_cell_angle_gamma 90.000000
_cell_volume 2817.608835
_symmetry_space_group_name_H-M "P B A M"
_symmetry_group_IT_number 55
_symmetry_cell_setting 'orthorhombic'
loop_
_space_group_symop_operation_xyz
x,y,z
-x,-y,z
1/2+x,1/2-y,-z
1/2-x,1/2+y,-z
-x,-y,-z
x,y,-z
1/2-x,1/2+y,z
1/2+x,1/2-y,z
loop_
_atom_site_type_symbol
_atom_site_label
_atom_site_fract_x
_atom_site_fract_y
_atom_site_fract_z
Si Si1 0.579580 0.543145 0.673022
Si Si2 0.076046 0.448075 0.826541
Si Si3 0.916572 0.209630 0.327422
Si Si4 0.249713 0.287920 0.167643
Si Si5 0.917819 0.702604 0.673293
Si Si6 0.256772 0.460320 0.165841
O O1 0.500000 0.500000 0.725862
O O2 0.583549 0.536540 0.500000
O O3 0.571060 0.626488 0.707205
O O4 0.665907 0.516871 0.739042
O O5 0.068269 0.375482 0.738899
O O6 0.164727 0.483116 0.788428
O O7 0.000000 0.500000 0.799480
O O8 0.079428 0.432512 0.000000
O O9 0.901211 0.214980 0.500000
O O10 0.835119 0.235749 0.242705
O O11 0.000704 0.251319 0.293946
O O12 0.166325 0.268086 0.253509
O O13 0.252527 0.374230 0.171714
O O14 0.245602 0.266525 0.000000
O O15 0.906980 0.699356 0.500000
O O16 0.270850 0.481076 0.000000
#
# Coordination Sequence:
#
# PCOD9425486 Si02
#       6
#     8   8   8   8   8   8
#     4   9  17  30  48  68  90 119 154 190 230 275
#     4   9  18  33  51  70  95 125 157 195 236 280
#     4   9  18  32  49  70  96 125 157 196 240 283
#     4   9  17  30  49  70  92 123 163 199 232 281
#     4  10  19  31  49  72  98 126 157 196 242 292
#     4   8  15  28  46  67  89 117 152 187 226 272
#
# _framework density 17.035720999999999
#
# number of rings (size 3 to 8) (size 9 to 14) (size 15 to 20)
#    0.000    3.000    0.000    2.000    0.000    6.000 
#    0.000    1.667    0.000    6.000    0.000    0.000 
#    0.000    0.000    0.000    0.000    0.000    0.000 
#
# Total GULP energy -267372.481422 kJ/mol
# GULP energy per Si atom -5570.260030 kJ/mol
# Density = 1.699695 g / cm^3
# Si number density = 17.035721 Si / 1000 Ang^3
#
#
#
# Elastic Constant Matrix: (Units=GPa)
#
#
# Indices 1 2 3 4 5 6 
#
# 1 209.6002 56.7197 85.0347 0.0000 0.0000 0.0000
# 2 56.7197 27.8887 33.1157 0.0000 0.0000 0.0000
# 3 85.0347 33.1157 63.1466 0.0000 0.0000 0.0000
# 4 0.0000 0.0000 0.0000 13.5467 0.0000 0.0000
# 5 0.0000 0.0000 0.0000 0.0000 31.9676 0.0000
# 6 0.0000 0.0000 0.0000 0.0000 0.0000 29.5574
#
#
#
# Elastic Compliance Matrix: (Units=1/GPa)
#
#
# Indices 1 2 3 4 5 6 
#
# 1 0.012328 -0.014206 -0.009151 0.000000 0.000000 0.000000
# 2 -0.014206 0.111410 -0.039296 0.000000 0.000000 0.000000
# 3 -0.009151 -0.039296 0.048766 0.000000 0.000000 0.000000
# 4 0.000000 0.000000 0.000000 0.073818 0.000000 0.000000
# 5 0.000000 0.000000 0.000000 0.000000 0.031282 0.000000
# 6 0.000000 0.000000 0.000000 0.000000 0.000000 0.033832
#
#
# Mechanical properties :
#
#
# Convention : Reuss Voigt Hill
#
# Bulk Modulus (GPa) = 21.18701 72.26397 46.72549
# Shear Modulus (GPa) = 11.05034 23.39871 17.22453
#
# Velocity S-wave (km/s) = 2.54964 3.71011 3.18320
# Velocity P-wave (km/s) = 4.59689 7.80156 6.40296
#
# Compressibility (1/GPa) = 0.04719873
#
# Stress axis : x y z
#
# Youngs Moduli (GPa) = 81.11752 8.97587 20.50597
#
# Poissons Ratio (x) = 0.12751 0.18764
# Poissons Ratio (y) = 1.15238 0.80579
# Poissons Ratio (z) = 0.74228 0.35271
#
# Static dielectric constant tensor:
#      x y z
#    x 1.586780 0.000000 0.000000 
#    y 0.000000 1.560910 0.000000 
#    z 0.000000 0.000000 1.573680 
# 
# From -- ./inp_files/5566.got.cif
#   From: 2010.05.17/outbox.cif.g08.bks.cpg/sg55_3_cif.got.tgz:5566.got - 2010.06.03 13:27:54.
