data_PCOD9425254
_publ_section_title
;
Structure prediction by ZEFSAII (Michael W. Deem and Ramdas Pophale) SiO2 
 PCOD9425254
Probable space group: P B A M
;
_chemical_formula_sum "Si O2"
_cell_formula_units_Z 64
_cell_length_a 18.375899
_cell_length_b 11.929033
_cell_length_c 15.158071
_cell_angle_alpha 90.000000
_cell_angle_beta 90.000000
_cell_angle_gamma 90.000000
_cell_volume 3322.750807
_symmetry_space_group_name_H-M "P B A M"
_symmetry_group_IT_number 55
_symmetry_cell_setting 'orthorhombic'
loop_
_space_group_symop_operation_xyz
x,y,z
-x,-y,z
1/2+x,1/2-y,-z
1/2-x,1/2+y,-z
-x,-y,-z
x,y,-z
1/2-x,1/2+y,z
1/2+x,1/2-y,z
loop_
_atom_site_type_symbol
_atom_site_label
_atom_site_fract_x
_atom_site_fract_y
_atom_site_fract_z
Si Si1 0.270260 0.611114 0.768854
Si Si2 0.617601 0.195273 0.218504
Si Si3 0.355804 0.261759 0.180470
Si Si4 0.421930 0.755551 0.401378
Si Si5 0.674216 0.469452 0.595409
Si Si6 0.486383 0.132207 0.897063
Si Si7 0.738271 0.076958 0.102069
Si Si8 0.950667 0.107100 0.321985
O O1 0.343107 0.684418 0.778124
O O2 0.202021 0.693904 0.760086
O O3 0.277139 0.532324 0.683237
O O4 0.261280 0.541539 0.857987
O O5 0.602855 0.165208 0.320767
O O6 0.542969 0.196693 0.165112
O O7 0.672070 0.117269 0.163792
O O8 0.406286 0.173968 0.128782
O O9 0.305399 0.337945 0.117734
O O10 0.407227 0.338838 0.240874
O O11 0.428697 0.803130 0.500000
O O12 0.363851 0.653198 0.406815
O O13 0.496547 0.696366 0.368990
O O14 0.709482 0.489112 0.500000
O O15 0.609545 0.557618 0.611479
O O16 0.500000 0.000000 0.881917
O O17 0.499964 0.154797 0.000000
O O18 0.717461 0.073194 0.000000
O O19 0.000000 0.000000 0.294845
#
# Coordination Sequence:
#
# PCOD9425254 Si02
#       8
#     8   8   8   8   8   8   8   8
#     4  10  22  38  58  83 118 154 192 244 299 346
#     4  10  21  38  60  84 115 153 194 241 289 351
#     4  11  22  37  59  87 119 154 193 246 298 352
#     4   9  17  32  58  89 117 150 188 231 287 349
#     4   9  17  33  57  85 117 153 191 231 283 350
#     4  11  23  39  60  85 113 151 195 241 291 349
#     4  11  23  39  59  83 115 156 201 244 294 352
#     4  10  18  33  60  90 120 152 191 242 298 353
#
# _framework density 19.261149
#
# number of rings (size 3 to 8) (size 9 to 14) (size 15 to 20)
#    0.000    1.875    2.500    1.875    0.000    5.500 
#    0.000    1.875    0.000    2.625    0.000    0.000 
#    0.000    0.000    0.000    0.000    0.000    0.000 
#
# Total GULP energy -357041.336521 kJ/mol
# GULP energy per Si atom -5578.770883 kJ/mol
# Density = 1.921731 g / cm^3
# Si number density = 19.261149 Si / 1000 Ang^3
#
#
#
# Elastic Constant Matrix: (Units=GPa)
#
#
# Indices 1 2 3 4 5 6 
#
# 1 77.7899 21.4993 44.3334 0.0000 0.0000 0.0000
# 2 21.4993 38.1179 33.5574 0.0000 0.0000 0.0000
# 3 44.3334 33.5574 164.6765 0.0000 0.0000 0.0000
# 4 0.0000 0.0000 0.0000 15.5115 0.0000 0.0000
# 5 0.0000 0.0000 0.0000 0.0000 15.0000 0.0000
# 6 0.0000 0.0000 0.0000 0.0000 0.0000 21.7418
#
#
#
# Elastic Compliance Matrix: (Units=1/GPa)
#
#
# Indices 1 2 3 4 5 6 
#
# 1 0.016424 -0.006545 -0.003088 0.000000 0.000000 0.000000
# 2 -0.006545 0.034578 -0.005284 0.000000 0.000000 0.000000
# 3 -0.003088 -0.005284 0.007981 0.000000 0.000000 0.000000
# 4 0.000000 0.000000 0.000000 0.064468 0.000000 0.000000
# 5 0.000000 0.000000 0.000000 0.000000 0.066667 0.000000
# 6 0.000000 0.000000 0.000000 0.000000 0.000000 0.045994
#
#
# Mechanical properties :
#
#
# Convention : Reuss Voigt Hill
#
# Bulk Modulus (GPa) = 34.30736 53.26274 43.78505
# Shear Modulus (GPa) = 18.13817 22.53026 20.33422
#
# Velocity S-wave (km/s) = 3.07204 3.42384 3.25270
# Velocity P-wave (km/s) = 5.51666 6.58355 6.07358
#
# Compressibility (1/GPa) = 0.02914826
#
# Stress axis : x y z
#
# Youngs Moduli (GPa) = 60.88719 28.92025 125.30392
#
# Poissons Ratio (x) = 0.18928 0.38692
# Poissons Ratio (y) = 0.39851 0.66213
# Poissons Ratio (z) = 0.18801 0.15282
#
# Static dielectric constant tensor:
#      x y z
#    x 1.686160 0.000000 0.000000 
#    y 0.000000 1.685970 0.000000 
#    z 0.000000 0.000000 1.671880 
# 
# From -- ./inp_files/19504.got.cif
#   From: 2010.05.17/outbox.cif.g08.bks.cpg/sg55_10_cif.got.tgz:19504.got - 2010.06.03 13:27:54.
