data_PCOD9425794
_publ_section_title
;
Structure prediction by ZEFSAII (Michael W. Deem and Ramdas Pophale) SiO2 
 PCOD9425794
Probable space group: P B A M
;
_chemical_formula_sum "Si O2"
_cell_formula_units_Z 64
_cell_length_a 18.034949
_cell_length_b 20.014568
_cell_length_c 7.910569
_cell_angle_alpha 90.000000
_cell_angle_beta 90.000000
_cell_angle_gamma 90.000000
_cell_volume 2855.412538
_symmetry_space_group_name_H-M "P B A M"
_symmetry_group_IT_number 55
_symmetry_cell_setting 'orthorhombic'
loop_
_space_group_symop_operation_xyz
x,y,z
-x,-y,z
1/2+x,1/2-y,-z
1/2-x,1/2+y,-z
-x,-y,-z
x,y,-z
1/2-x,1/2+y,z
1/2+x,1/2-y,z
loop_
_atom_site_type_symbol
_atom_site_label
_atom_site_fract_x
_atom_site_fract_y
_atom_site_fract_z
Si Si1 0.775987 0.554293 0.206164
Si Si2 0.997150 0.902550 0.199157
Si Si3 0.722717 0.795964 0.704906
Si Si4 0.877943 0.992978 0.794026
Si Si5 0.580993 0.722712 0.688376
Si Si6 0.999036 0.652936 0.197717
Si Si7 0.162869 0.309716 0.697629
Si Si8 0.634448 0.930512 0.202177
O O1 0.701771 0.516124 0.263434
O O2 0.780849 0.628371 0.279446
O O3 0.840748 0.503468 0.262983
O O4 0.776704 0.560384 0.000000
O O5 0.027827 0.829742 0.224988
O O6 0.915953 0.923703 0.263903
O O7 0.061449 0.952261 0.260928
O O8 0.993696 0.914795 0.000000
O O9 0.722438 0.793959 0.500000
O O10 0.658578 0.744912 0.768558
O O11 0.799576 0.759966 0.760370
O O12 0.692340 0.870171 0.750479
O O13 0.871885 0.992819 0.000000
O O14 0.595780 0.697607 0.500000
O O15 0.534789 0.790322 0.688043
O O16 0.049525 0.588943 0.244301
O O17 0.911380 0.661165 0.216937
O O18 0.016189 0.666252 0.000000
O O19 0.146444 0.300316 0.500000
O O20 0.639200 0.934086 0.000000
#
# Coordination Sequence:
#
# PCOD9425794 Si02
#       8
#     8   8   8   8   8   8   8   8
#     4  10  20  36  56  79 106 141 182 226 272 321
#     4   9  16  29  49  75 106 141 176 214 259 315
#     4   9  20  37  56  78 110 145 177 217 270 325
#     4   8  16  30  49  73 104 139 178 218 259 312
#     4  10  19  33  53  78 106 137 171 214 266 322
#     4  10  21  38  56  76 102 137 179 225 272 319
#     4  11  23  38  56  83 113 142 179 224 269 323
#     4   9  20  37  58  82 108 139 184 232 272 318
#
# _framework density 22.413574000000001
#
# number of rings (size 3 to 8) (size 9 to 14) (size 15 to 20)
#    0.000    2.500    0.000    2.625    0.000    4.000 
#    0.000    5.625    0.000    0.000    0.000    0.000 
#    0.000    0.000    0.000    0.000    0.000    0.000 
#
# Total GULP energy -356473.579221 kJ/mol
# GULP energy per Si atom -5569.899675 kJ/mol
# Density = 2.236256 g / cm^3
# Si number density = 22.413574 Si / 1000 Ang^3
#
#
#
# Elastic Constant Matrix: (Units=GPa)
#
#
# Indices 1 2 3 4 5 6 
#
# 1 52.3794 -13.4050 -1.7403 0.0000 0.0000 0.0000
# 2 -13.4050 33.3643 -10.5310 0.0000 0.0000 0.0000
# 3 -1.7403 -10.5310 23.9643 0.0000 0.0000 0.0000
# 4 0.0000 0.0000 0.0000 24.4621 0.0000 0.0000
# 5 0.0000 0.0000 0.0000 0.0000 10.6740 0.0000
# 6 0.0000 0.0000 0.0000 0.0000 0.0000 16.8372
#
#
#
# Elastic Compliance Matrix: (Units=1/GPa)
#
#
# Indices 1 2 3 4 5 6 
#
# 1 0.022092 0.010893 0.006391 0.000000 0.000000 0.000000
# 2 0.010893 0.040170 0.018444 0.000000 0.000000 0.000000
# 3 0.006391 0.018444 0.050298 0.000000 0.000000 0.000000
# 4 0.000000 0.000000 0.000000 0.040880 0.000000 0.000000
# 5 0.000000 0.000000 0.000000 0.000000 0.093685 0.000000
# 6 0.000000 0.000000 0.000000 0.000000 0.000000 0.059392
#
#
# Mechanical properties :
#
#
# Convention : Reuss Voigt Hill
#
# Bulk Modulus (GPa) = 5.43430 6.48394 5.95912
# Shear Modulus (GPa) = 16.86914 19.42028 18.14471
#
# Velocity S-wave (km/s) = 2.74639 2.94675 2.84833
# Velocity P-wave (km/s) = 3.53365 3.80485 3.67176
#
# Compressibility (1/GPa) = 0.18401636
#
# Stress axis : x y z
#
# Youngs Moduli (GPa) = 45.26605 24.89399 19.88154
#
# Poissons Ratio (x) = -0.27118 -0.12707
# Poissons Ratio (y) = -0.49309 -0.36669
# Poissons Ratio (z) = -0.28931 -0.45914
#
# Static dielectric constant tensor:
#      x y z
#    x 1.917140 0.000000 0.000000 
#    y 0.000000 2.058160 0.000000 
#    z 0.000000 0.000000 1.838790 
# 
# From -- ./inp_files/7950.got.cif
#   From: 2010.05.17/outbox.cif.g08.bks.cpg/sg55_4_cif.got.tgz:7950.got - 2010.06.03 13:27:54.
