data_PCOD9425128
_publ_section_title
;
Structure prediction by ZEFSAII (Michael W. Deem and Ramdas Pophale) SiO2 
 PCOD9425128
Probable space group: P B A M
;
_chemical_formula_sum "Si O2"
_cell_formula_units_Z 48
_cell_length_a 10.969197
_cell_length_b 30.794815
_cell_length_c 7.607920
_cell_angle_alpha 90.000000
_cell_angle_beta 90.000000
_cell_angle_gamma 90.000000
_cell_volume 2569.912713
_symmetry_space_group_name_H-M "P B A M"
_symmetry_group_IT_number 55
_symmetry_cell_setting 'orthorhombic'
loop_
_space_group_symop_operation_xyz
x,y,z
-x,-y,z
1/2+x,1/2-y,-z
1/2-x,1/2+y,-z
-x,-y,-z
x,y,-z
1/2-x,1/2+y,z
1/2+x,1/2-y,z
loop_
_atom_site_type_symbol
_atom_site_label
_atom_site_fract_x
_atom_site_fract_y
_atom_site_fract_z
Si Si1 0.957457 0.429476 0.710532
Si Si2 0.381635 0.777744 0.500000
Si Si3 0.874402 0.135098 0.789397
Si Si4 0.313288 0.991548 0.287659
Si Si5 0.903969 0.207533 0.500000
Si Si6 0.902679 0.652755 0.198195
Si Si7 0.442040 0.457688 0.199246
O O1 0.950599 0.424801 0.500000
O O2 0.842921 0.458866 0.766559
O O3 0.071661 0.460888 0.749557
O O4 0.990494 0.382651 0.784597
O O5 0.233114 0.770440 0.500000
O O6 0.478262 0.738568 0.500000
O O7 0.411056 0.808049 0.667089
O O8 0.908406 0.176195 0.670965
O O9 0.728012 0.129789 0.763608
O O10 0.942965 0.091192 0.728936
O O11 0.893830 0.140755 0.000000
O O12 0.296393 0.991094 0.500000
O O13 0.198628 0.971005 0.195812
O O14 0.897712 0.669133 0.000000
O O15 0.500000 0.500000 0.289426
O O16 0.491780 0.454922 0.000000
#
# Coordination Sequence:
#
# PCOD9425128 Si02
#       7
#     8   4   8   8   4   8   8
#     4   9  16  29  47  74 108 139 171 219 264 303
#     4  10  22  40  60  86 111 134 177 234 282 341
#     4   9  19  35  56  82 108 142 187 223 261 324
#     4   9  18  28  46  72 105 142 177 216 257 299
#     4  10  22  40  65  83 108 143 175 228 290 335
#     4  10  18  31  57  84 107 140 181 223 270 326
#     4  10  20  33  48  71 108 146 183 225 258 300
#
# _framework density 18.677678
#
# number of rings (size 3 to 8) (size 9 to 14) (size 15 to 20)
#    0.000    2.500    2.500    1.000    1.167    1.667 
#    0.000    3.333    0.000    2.000    0.000    0.000 
#    0.000    0.000    0.000    0.000    0.000    0.000 
#
# Total GULP energy -267293.772296 kJ/mol
# GULP energy per Si atom -5568.620256 kJ/mol
# Density = 1.863517 g / cm^3
# Si number density = 18.677678 Si / 1000 Ang^3
#
#
#
# Elastic Constant Matrix: (Units=GPa)
#
#
# Indices 1 2 3 4 5 6 
#
# 1 36.1095 49.7996 13.9343 0.0000 0.0000 0.0000
# 2 49.7996 120.7247 39.7095 0.0000 0.0000 0.0000
# 3 13.9343 39.7095 53.1623 0.0000 0.0000 0.0000
# 4 0.0000 0.0000 0.0000 3.8658 0.0000 0.0000
# 5 0.0000 0.0000 0.0000 0.0000 7.8053 0.0000
# 6 0.0000 0.0000 0.0000 0.0000 0.0000 38.2829
#
#
#
# Elastic Compliance Matrix: (Units=1/GPa)
#
#
# Indices 1 2 3 4 5 6 
#
# 1 0.064860 -0.028057 0.003956 0.000000 0.000000 0.000000
# 2 -0.028057 0.023118 -0.009914 0.000000 0.000000 0.000000
# 3 0.003956 -0.009914 0.025178 0.000000 0.000000 0.000000
# 4 0.000000 0.000000 0.000000 0.258681 0.000000 0.000000
# 5 0.000000 0.000000 0.000000 0.000000 0.128118 0.000000
# 6 0.000000 0.000000 0.000000 0.000000 0.000000 0.026121
#
#
# Mechanical properties :
#
#
# Convention : Reuss Voigt Hill
#
# Bulk Modulus (GPa) = 22.15901 46.32036 34.23969
# Shear Modulus (GPa) = 8.20817 17.09434 12.65126
#
# Velocity S-wave (km/s) = 2.09861 3.02856 2.60541
# Velocity P-wave (km/s) = 4.21449 6.08960 5.23666
#
# Compressibility (1/GPa) = 0.04512836
#
# Stress axis : x y z
#
# Youngs Moduli (GPa) = 15.41771 43.25677 39.71647
#
# Poissons Ratio (x) = 1.21364 -0.15713
# Poissons Ratio (y) = 0.43257 0.39374
# Poissons Ratio (z) = -0.06100 0.42884
#
# Static dielectric constant tensor:
#      x y z
#    x 1.668260 0.000000 0.000000 
#    y 0.000000 1.661740 0.000000 
#    z 0.000000 0.000000 1.670180 
# 
# From -- ./inp_files/4192.got.cif
#   From: 2010.05.17/outbox.cif.g08.bks.cpg/sg55_3_cif.got.tgz:4192.got - 2010.06.03 13:27:54.
