data_PCOD9425053
_publ_section_title
;
Structure prediction by ZEFSAII (Michael W. Deem and Ramdas Pophale) SiO2 
 PCOD9425053
Probable space group: P B A M
;
_chemical_formula_sum "Si O2"
_cell_formula_units_Z 64
_cell_length_a 31.342420
_cell_length_b 14.911719
_cell_length_c 7.773296
_cell_angle_alpha 90.000000
_cell_angle_beta 90.000000
_cell_angle_gamma 90.000000
_cell_volume 3633.000375
_symmetry_space_group_name_H-M "P B A M"
_symmetry_group_IT_number 55
_symmetry_cell_setting 'orthorhombic'
loop_
_space_group_symop_operation_xyz
x,y,z
-x,-y,z
1/2+x,1/2-y,-z
1/2-x,1/2+y,-z
-x,-y,-z
x,y,-z
1/2-x,1/2+y,z
1/2+x,1/2-y,z
loop_
_atom_site_type_symbol
_atom_site_label
_atom_site_fract_x
_atom_site_fract_y
_atom_site_fract_z
Si Si1 0.628676 0.799254 0.196229
Si Si2 0.452524 0.106067 0.789094
Si Si3 0.450621 0.900299 0.792991
Si Si4 0.137010 0.329787 0.704960
Si Si5 0.709831 0.696207 0.791405
Si Si6 0.830897 0.479462 0.698113
Si Si7 0.263704 0.501349 0.200567
Si Si8 0.794413 0.810988 0.704620
O O1 0.582358 0.822382 0.273283
O O2 0.664806 0.735293 0.275321
O O3 0.651025 0.896680 0.196892
O O4 0.621588 0.768491 0.000000
O O5 0.501352 0.123342 0.737089
O O6 0.441772 0.003404 0.735548
O O7 0.451041 0.106481 0.000000
O O8 0.413378 0.833582 0.736834
O O9 0.450839 0.902251 0.000000
O O10 0.144164 0.331397 0.500000
O O11 0.154398 0.425098 0.771397
O O12 0.166100 0.248959 0.771648
O O13 0.717020 0.593141 0.739521
O O14 0.750392 0.756632 0.738582
O O15 0.708292 0.700653 0.000000
O O16 0.845411 0.469989 0.500000
O O17 0.779999 0.478806 0.701680
O O18 0.292227 0.589694 0.218806
O O19 0.252623 0.490062 0.000000
O O20 0.798457 0.821226 0.500000
#
# Coordination Sequence:
#
# PCOD9425053 Si02
#       8
#     8   8   8   8   8   8   8   8
#     4  10  18  31  49  70  95 129 162 196 238 283
#     4   8  15  27  45  70  98 123 156 195 237 288
#     4   9  16  28  47  70  94 126 160 193 235 290
#     4  10  21  33  45  68  99 129 162 198 239 283
#     4  10  21  33  49  72  96 125 163 201 239 283
#     4  11  20  30  45  68  97 129 163 196 234 281
#     4  11  22  35  48  68  97 127 164 205 240 279
#     4  11  22  35  50  69  96 129 164 201 241 287
#
# _framework density 17.616292000000001
#
# number of rings (size 3 to 8) (size 9 to 14) (size 15 to 20)
#    0.000    2.000    3.750    1.875    0.000    2.000 
#    0.000    1.875    0.000    0.000    0.000    0.875 
#    0.000    7.000    0.000    0.000    0.000    0.000 
#
# Total GULP energy -356937.044613 kJ/mol
# GULP energy per Si atom -5577.141322 kJ/mol
# Density = 1.757620 g / cm^3
# Si number density = 17.616292 Si / 1000 Ang^3
#
#
#
# Elastic Constant Matrix: (Units=GPa)
#
#
# Indices 1 2 3 4 5 6 
#
# 1 113.3205 38.6365 -7.2187 0.0000 0.0000 0.0000
# 2 38.6365 85.9575 -1.2557 0.0000 0.0000 0.0000
# 3 -7.2187 -1.2557 30.0216 0.0000 0.0000 0.0000
# 4 0.0000 0.0000 0.0000 6.8596 0.0000 0.0000
# 5 0.0000 0.0000 0.0000 0.0000 19.4298 0.0000
# 6 0.0000 0.0000 0.0000 0.0000 0.0000 27.6392
#
#
#
# Elastic Compliance Matrix: (Units=1/GPa)
#
#
# Indices 1 2 3 4 5 6 
#
# 1 0.010584 -0.004723 0.002347 0.000000 0.000000 0.000000
# 2 -0.004723 0.013748 -0.000561 0.000000 0.000000 0.000000
# 3 0.002347 -0.000561 0.033850 0.000000 0.000000 0.000000
# 4 0.000000 0.000000 0.000000 0.145781 0.000000 0.000000
# 5 0.000000 0.000000 0.000000 0.000000 0.051467 0.000000
# 6 0.000000 0.000000 0.000000 0.000000 0.000000 0.036180
#
#
# Mechanical properties :
#
#
# Convention : Reuss Voigt Hill
#
# Bulk Modulus (GPa) = 19.11661 32.18040 25.64851
# Shear Modulus (GPa) = 15.87698 24.06157 19.96928
#
# Velocity S-wave (km/s) = 3.00537 3.69978 3.37050
# Velocity P-wave (km/s) = 4.78730 6.04634 5.45327
#
# Compressibility (1/GPa) = 0.05231053
#
# Stress axis : x y z
#
# Youngs Moduli (GPa) = 94.47825 72.73529 29.54175
#
# Poissons Ratio (x) = 0.34355 -0.06935
# Poissons Ratio (y) = 0.44624 0.01656
# Poissons Ratio (z) = -0.22179 0.04078
#
# Static dielectric constant tensor:
#      x y z
#    x 1.636320 0.000000 0.000000 
#    y 0.000000 1.593260 0.000000 
#    z 0.000000 0.000000 1.666040 
# 
# From -- ./inp_files/6926.got.cif
#   From: 2010.05.17/outbox.cif.g08.bks.cpg/sg55_4_cif.got.tgz:6926.got - 2010.06.03 13:27:54.
