data_PCOD9425629
_publ_section_title
;
Structure prediction by ZEFSAII (Michael W. Deem and Ramdas Pophale) SiO2 
 PCOD9425629
Probable space group: P B A M
;
_chemical_formula_sum "Si O2"
_cell_formula_units_Z 48
_cell_length_a 8.497792
_cell_length_b 20.425815
_cell_length_c 16.359719
_cell_angle_alpha 90.000000
_cell_angle_beta 90.000000
_cell_angle_gamma 90.000000
_cell_volume 2839.627220
_symmetry_space_group_name_H-M "P B A M"
_symmetry_group_IT_number 55
_symmetry_cell_setting 'orthorhombic'
loop_
_space_group_symop_operation_xyz
x,y,z
-x,-y,z
1/2+x,1/2-y,-z
1/2-x,1/2+y,-z
-x,-y,-z
x,y,-z
1/2-x,1/2+y,z
1/2+x,1/2-y,z
loop_
_atom_site_type_symbol
_atom_site_label
_atom_site_fract_x
_atom_site_fract_y
_atom_site_fract_z
Si Si1 0.993694 0.422352 0.743906
Si Si2 0.723739 0.673979 0.255241
Si Si3 0.106262 0.649135 0.907096
Si Si4 0.722399 0.225024 0.091248
Si Si5 0.564100 0.275306 0.649429
Si Si6 0.636368 0.845507 0.410128
O O1 0.917843 0.398359 0.830076
O O2 0.901388 0.392148 0.666373
O O3 0.000000 0.500000 0.740731
O O4 0.167658 0.389765 0.738097
O O5 0.684380 0.687234 0.161347
O O6 0.835541 0.735020 0.282860
O O7 0.569853 0.680013 0.310130
O O8 0.254082 0.697553 0.896309
O O9 0.954749 0.697784 0.903814
O O10 0.109448 0.620999 0.000000
O O11 0.781166 0.210998 0.000000
O O12 0.688026 0.317555 0.599436
O O13 0.477044 0.217894 0.599557
O O14 0.612677 0.874944 0.500000
#
# Coordination Sequence:
#
# PCOD9425629 Si02
#       6
#     8   8   8   8   8   8
#     4  10  21  34  47  66  96 137 174 197 226 273
#     4   9  16  29  48  70  97 125 154 194 241 288
#     4   9  17  29  48  73  98 123 154 197 243 287
#     4   9  15  24  42  70  96 116 146 190 242 285
#     4   9  17  30  51  75  95 116 148 195 253 298
#     4  10  19  32  52  75  98 121 151 196 246 295
#
# _framework density 16.903628000000001
#
# number of rings (size 3 to 8) (size 9 to 14) (size 15 to 20)
#    0.000    2.667    0.000    4.500    0.000    0.667 
#    0.000    1.667    0.000    1.000    0.000    0.000 
#    0.000   21.333    0.000    0.000    0.000    0.000 
#
# Total GULP energy -267318.463817 kJ/mol
# GULP energy per Si atom -5569.134663 kJ/mol
# Density = 1.686515 g / cm^3
# Si number density = 16.903628 Si / 1000 Ang^3
#
#
#
# Elastic Constant Matrix: (Units=GPa)
#
#
# Indices 1 2 3 4 5 6 
#
# 1 52.7164 24.8031 38.7631 0.0000 0.0000 0.0000
# 2 24.8031 90.7344 57.7771 0.0000 0.0000 0.0000
# 3 38.7631 57.7771 135.7616 0.0000 0.0000 0.0000
# 4 0.0000 0.0000 0.0000 6.4503 0.0000 0.0000
# 5 0.0000 0.0000 0.0000 0.0000 8.2583 0.0000
# 6 0.0000 0.0000 0.0000 0.0000 0.0000 12.4133
#
#
#
# Elastic Compliance Matrix: (Units=1/GPa)
#
#
# Indices 1 2 3 4 5 6 
#
# 1 0.024627 -0.003093 -0.005715 0.000000 0.000000 0.000000
# 2 -0.003093 0.015506 -0.005716 0.000000 0.000000 0.000000
# 3 -0.005715 -0.005716 0.011430 0.000000 0.000000 0.000000
# 4 0.000000 0.000000 0.000000 0.155032 0.000000 0.000000
# 5 0.000000 0.000000 0.000000 0.000000 0.121091 0.000000
# 6 0.000000 0.000000 0.000000 0.000000 0.000000 0.080559
#
#
# Mechanical properties :
#
#
# Convention : Reuss Voigt Hill
#
# Bulk Modulus (GPa) = 44.41382 57.98879 51.20130
# Shear Modulus (GPa) = 11.24101 15.94897 13.59499
#
# Velocity S-wave (km/s) = 2.58157 3.07502 2.83903
# Velocity P-wave (km/s) = 5.93446 6.85475 6.41114
#
# Compressibility (1/GPa) = 0.02251552
#
# Stress axis : x y z
#
# Youngs Moduli (GPa) = 40.60550 64.48912 87.48570
#
# Poissons Ratio (x) = 0.19944 0.50002
# Poissons Ratio (y) = 0.12558 0.50009
# Poissons Ratio (z) = 0.23208 0.36863
#
# Static dielectric constant tensor:
#      x y z
#    x 1.596960 0.000000 0.000000 
#    y 0.000000 1.528150 0.000000 
#    z 0.000000 0.000000 1.623990 
# 
# From -- ./inp_files/17502.got.cif
#   From: 2010.05.17/outbox.cif.g08.bks.cpg/sg55_9_cif.got.tgz:17502.got - 2010.06.03 13:27:54.
