data_PCOD9425585
_publ_section_title
;
Structure prediction by ZEFSAII (Michael W. Deem and Ramdas Pophale) SiO2 
 PCOD9425585
Probable space group: P B A M
;
_chemical_formula_sum "Si O2"
_cell_formula_units_Z 40
_cell_length_a 26.367874
_cell_length_b 9.921513
_cell_length_c 9.000550
_cell_angle_alpha 90.000000
_cell_angle_beta 90.000000
_cell_angle_gamma 90.000000
_cell_volume 2354.626727
_symmetry_space_group_name_H-M "P B A M"
_symmetry_group_IT_number 55
_symmetry_cell_setting 'orthorhombic'
loop_
_space_group_symop_operation_xyz
x,y,z
-x,-y,z
1/2+x,1/2-y,-z
1/2-x,1/2+y,-z
-x,-y,-z
x,y,-z
1/2-x,1/2+y,z
1/2+x,1/2-y,z
loop_
_atom_site_type_symbol
_atom_site_label
_atom_site_fract_x
_atom_site_fract_y
_atom_site_fract_z
Si Si1 0.283239 0.000762 0.178204
Si Si2 0.557949 0.982608 0.321228
Si Si3 0.866844 0.278029 0.821736
Si Si4 0.141072 0.295806 0.677546
Si Si5 0.665024 0.480716 0.820785
O O1 0.310552 0.875939 0.257371
O O2 0.224721 0.017231 0.219410
O O3 0.316654 0.133196 0.213563
O O4 0.285539 0.979203 0.000000
O O5 0.558564 0.969735 0.500000
O O6 0.592450 0.112242 0.282270
O O7 0.500000 0.000000 0.272431
O O8 0.586120 0.854112 0.252019
O O9 0.858953 0.123770 0.776299
O O10 0.872453 0.281539 0.000000
O O11 0.144494 0.289026 0.500000
O O12 0.139497 0.148014 0.746545
O O13 0.662078 0.469143 0.000000
#
# Coordination Sequence:
#
# PCOD9425585 Si02
#       5
#     8   8   8   8   8
#     4   9  17  32  52  71  97 135 169 193 227 283
#     4   9  19  37  56  70  90 125 165 203 248 300
#     4   9  18  31  50  76  99 124 164 205 238 279
#     4  10  20  32  49  75 101 126 162 205 244 283
#     4  10  19  32  50  73 104 137 163 192 237 292
#
# _framework density 16.987829999999999
#
# number of rings (size 3 to 8) (size 9 to 14) (size 15 to 20)
#    0.000    2.600    0.000    1.800    0.000    6.000 
#    0.000    5.000    0.000    6.000    0.000    0.000 
#    0.000    0.000    0.000    0.000    0.000    0.000 
#
# Total GULP energy -223149.283208 kJ/mol
# GULP energy per Si atom -5578.732080 kJ/mol
# Density = 1.694917 g / cm^3
# Si number density = 16.987830 Si / 1000 Ang^3
#
#
#
# Elastic Constant Matrix: (Units=GPa)
#
#
# Indices 1 2 3 4 5 6 
#
# 1 110.6310 63.1648 29.2264 0.0000 0.0000 0.0000
# 2 63.1648 165.8363 42.7973 0.0000 0.0000 0.0000
# 3 29.2264 42.7973 15.3193 0.0000 0.0000 0.0000
# 4 0.0000 0.0000 0.0000 24.9764 0.0000 0.0000
# 5 0.0000 0.0000 0.0000 0.0000 15.5754 0.0000
# 6 0.0000 0.0000 0.0000 0.0000 0.0000 5.2706
#
#
#
# Elastic Compliance Matrix: (Units=1/GPa)
#
#
# Indices 1 2 3 4 5 6 
#
# 1 0.021058 0.008412 -0.063675 0.000000 0.000000 0.000000
# 2 0.008412 0.024971 -0.085809 0.000000 0.000000 0.000000
# 3 -0.063675 -0.085809 0.426482 0.000000 0.000000 0.000000
# 4 0.000000 0.000000 0.000000 0.040038 0.000000 0.000000
# 5 0.000000 0.000000 0.000000 0.000000 0.064204 0.000000
# 6 0.000000 0.000000 0.000000 0.000000 0.000000 0.189731
#
#
# Mechanical properties :
#
#
# Convention : Reuss Voigt Hill
#
# Bulk Modulus (GPa) = 5.25304 62.46262 33.85783
# Shear Modulus (GPa) = 4.49607 19.60435 12.05021
#
# Velocity S-wave (km/s) = 1.62862 3.40078 2.66624
# Velocity P-wave (km/s) = 2.57594 7.22975 5.42700
#
# Compressibility (1/GPa) = 0.19036602
#
# Stress axis : x y z
#
# Youngs Moduli (GPa) = 47.48817 40.04677 2.34477
#
# Poissons Ratio (x) = -0.33687 0.14930
# Poissons Ratio (y) = -0.39947 0.20120
# Poissons Ratio (z) = 3.02381 3.43638
#
# Static dielectric constant tensor:
#      x y z
#    x 1.556740 0.000000 0.000000 
#    y 0.000000 1.565370 0.000000 
#    z 0.000000 0.000000 1.567060 
# 
# From -- ./inp_files/2296.got.cif
#   From: 2010.05.17/outbox.cif.g08.bks.cpg/sg55_2_cif.got.tgz:2296.got - 2010.06.03 13:27:54.
