data_PCOD9425894
_publ_section_title
;
Structure prediction by ZEFSAII (Michael W. Deem and Ramdas Pophale) SiO2 
 PCOD9425894
Probable space group: P B A M
;
_chemical_formula_sum "Si O2"
_cell_formula_units_Z 48
_cell_length_a 20.304253
_cell_length_b 8.522072
_cell_length_c 12.785424
_cell_angle_alpha 90.000000
_cell_angle_beta 90.000000
_cell_angle_gamma 90.000000
_cell_volume 2212.316968
_symmetry_space_group_name_H-M "P B A M"
_symmetry_group_IT_number 55
_symmetry_cell_setting 'orthorhombic'
loop_
_space_group_symop_operation_xyz
x,y,z
-x,-y,z
1/2+x,1/2-y,-z
1/2-x,1/2+y,-z
-x,-y,-z
x,y,-z
1/2-x,1/2+y,z
1/2+x,1/2-y,z
loop_
_atom_site_type_symbol
_atom_site_label
_atom_site_fract_x
_atom_site_fract_y
_atom_site_fract_z
Si Si1 0.549489 0.790084 0.170136
Si Si2 0.506486 0.312135 0.382708
Si Si3 0.682792 0.681216 0.877270
Si Si4 0.592389 0.145803 0.885952
Si Si5 0.761320 0.448610 0.270486
Si Si6 0.154273 0.275573 0.675041
O O1 0.535270 0.774533 0.293581
O O2 0.603823 0.668125 0.131902
O O3 0.477961 0.768604 0.119387
O O4 0.574106 0.964834 0.140127
O O5 0.500000 0.500000 0.364707
O O6 0.483088 0.278913 0.500000
O O7 0.583110 0.258465 0.373965
O O8 0.698586 0.827826 0.801236
O O9 0.721217 0.546571 0.816451
O O10 0.699988 0.698611 0.000000
O O11 0.639059 0.217225 0.799315
O O12 0.622309 0.153377 0.000000
O O13 0.708096 0.358656 0.341524
O O14 0.809278 0.558148 0.339266
#
# Coordination Sequence:
#
# PCOD9425894 Si02
#       6
#     8   8   8   8   8   8
#     4  10  19  33  56  83 112 149 195 248 300 351
#     4  10  22  42  66  89 114 149 199 262 327 376
#     4  11  20  33  53  82 119 161 200 237 284 351
#     4  10  19  33  55  83 121 161 196 236 287 351
#     4  10  22  35  54  80 122 163 204 240 288 347
#     4  10  21  39  59  87 120 162 198 249 300 358
#
# _framework density 21.696708999999998
#
# number of rings (size 3 to 8) (size 9 to 14) (size 15 to 20)
#    0.000    1.833    1.667    3.500    0.000    3.333 
#    0.000    7.500    0.000   12.000    0.000    0.000 
#    0.000    0.000    0.000    0.000    0.000    0.000 
#
# Total GULP energy -267987.011574 kJ/mol
# GULP energy per Si atom -5583.062741 kJ/mol
# Density = 2.164733 g / cm^3
# Si number density = 21.696709 Si / 1000 Ang^3
#
#
#
# Elastic Constant Matrix: (Units=GPa)
#
#
# Indices 1 2 3 4 5 6 
#
# 1 54.2794 3.5286 -19.7778 0.0000 0.0000 0.0000
# 2 3.5286 34.2127 -0.3198 0.0000 0.0000 0.0000
# 3 -19.7778 -0.3198 79.1829 0.0000 0.0000 0.0000
# 4 0.0000 0.0000 0.0000 14.3322 0.0000 0.0000
# 5 0.0000 0.0000 0.0000 0.0000 -6.3879 0.0000
# 6 0.0000 0.0000 0.0000 0.0000 0.0000 25.3895
#
#
#
# Elastic Compliance Matrix: (Units=1/GPa)
#
#
# Indices 1 2 3 4 5 6 
#
# 1 0.020412 -0.002058 0.005090 0.000000 0.000000 0.000000
# 2 -0.002058 0.029437 -0.000395 0.000000 0.000000 0.000000
# 3 0.005090 -0.000395 0.013899 0.000000 0.000000 0.000000
# 4 0.000000 0.000000 0.000000 0.069773 0.000000 0.000000
# 5 0.000000 0.000000 0.000000 0.000000 -0.156546 0.000000
# 6 0.000000 0.000000 0.000000 0.000000 0.000000 0.039386
#
#
# Mechanical properties :
#
#
# Convention : Reuss Voigt Hill
#
# Bulk Modulus (GPa) = 14.48806 14.94856 14.71831
# Shear Modulus (GPa) = 146.65423 18.94971 82.80197
#
# Velocity S-wave (km/s) = 8.23041 2.95852 6.18435
# Velocity P-wave (km/s) = 9.84944 4.30990 7.60219
#
# Compressibility (1/GPa) = 0.06902234
#
# Stress axis : x y z
#
# Youngs Moduli (GPa) = 48.99182 33.97037 71.94907
#
# Poissons Ratio (x) = 0.06990 -0.36622
# Poissons Ratio (y) = 0.10081 0.02842
# Poissons Ratio (z) = -0.24937 0.01342
#
# Static dielectric constant tensor:
#      x y z
#    x 1.843610 0.000000 0.000000 
#    y 0.000000 1.870300 0.000000 
#    z 0.000000 0.000000 1.754250 
# 
# From -- ./inp_files/15603.got.cif
#   From: 2010.05.17/outbox.cif.g08.bks.cpg/sg55_8_cif.got.tgz:15603.got - 2010.06.03 13:27:54.
