data_PCOD9425439
_publ_section_title
;
Structure prediction by ZEFSAII (Michael W. Deem and Ramdas Pophale) SiO2 
 PCOD9425439
Probable space group: P B A M
;
_chemical_formula_sum "Si O2"
_cell_formula_units_Z 44
_cell_length_a 33.287764
_cell_length_b 5.148922
_cell_length_c 18.651607
_cell_angle_alpha 90.000000
_cell_angle_beta 90.000000
_cell_angle_gamma 90.000000
_cell_volume 3196.812706
_symmetry_space_group_name_H-M "P B A M"
_symmetry_group_IT_number 55
_symmetry_cell_setting 'orthorhombic'
loop_
_space_group_symop_operation_xyz
x,y,z
-x,-y,z
1/2+x,1/2-y,-z
1/2-x,1/2+y,-z
-x,-y,-z
x,y,-z
1/2-x,1/2+y,z
1/2+x,1/2-y,z
loop_
_atom_site_type_symbol
_atom_site_label
_atom_site_fract_x
_atom_site_fract_y
_atom_site_fract_z
Si Si1 0.475279 0.251451 0.912837
Si Si2 0.221304 0.198019 0.266017
Si Si3 0.277417 0.616561 0.577686
Si Si4 0.224652 0.326841 0.000000
Si Si5 0.334396 0.684444 0.129112
Si Si6 0.382826 0.173817 0.913352
O O1 0.500000 0.500000 0.887637
O O2 0.428631 0.239061 0.892789
O O3 0.500000 0.000000 0.890074
O O4 0.475409 0.256832 0.000000
O O5 0.245759 0.467537 0.259263
O O6 0.297649 0.669252 0.345815
O O7 0.188205 0.175954 0.204673
O O8 0.298125 0.652375 0.500000
O O9 0.241145 0.827650 0.578599
O O10 0.198575 0.261739 0.930385
O O11 0.238247 0.625600 0.000000
O O12 0.354114 0.410375 0.108754
O O13 0.367698 0.909476 0.122865
O O14 0.380999 0.140440 0.000000
#
# Coordination Sequence:
#
# PCOD9425439 Si02
#       6
#     8   8   8   4   8   8
#     4   9  17  29  46  64  78  95 123 162 203 248
#     4  10  19  31  43  58  80 106 141 180 208 241
#     4   8  14  25  42  60  76  96 126 167 211 248
#     4  12  22  32  42  52  70 104 148 182 204 224
#     4  12  21  32  43  58  79 109 141 176 212 237
#     4  11  20  33  45  60  81 105 135 170 209 246
#
# _framework density 13.763709
#
# number of rings (size 3 to 8) (size 9 to 14) (size 15 to 20)
#    0.000    1.818    1.818    4.364    0.000    2.909 
#    0.000    0.000    0.000    0.000    0.000    0.000 
#    0.000    0.000    0.000    0.000    0.000   18.182 
#
# Total GULP energy -245263.918017 kJ/mol
# GULP energy per Si atom -5574.179955 kJ/mol
# Density = 1.373238 g / cm^3
# Si number density = 13.763709 Si / 1000 Ang^3
#
#
#
# Elastic Constant Matrix: (Units=GPa)
#
#
# Indices 1 2 3 4 5 6 
#
# 1 41.2735 -1.3220 26.4294 0.0000 0.0000 0.0000
# 2 -1.3220 57.0595 -6.6548 0.0000 0.0000 0.0000
# 3 26.4294 -6.6548 86.9386 0.0000 0.0000 0.0000
# 4 0.0000 0.0000 0.0000 17.4585 0.0000 0.0000
# 5 0.0000 0.0000 0.0000 0.0000 0.1983 0.0000
# 6 0.0000 0.0000 0.0000 0.0000 0.0000 23.0205
#
#
#
# Elastic Compliance Matrix: (Units=1/GPa)
#
#
# Indices 1 2 3 4 5 6 
#
# 1 0.030093 -0.000373 -0.009177 0.000000 0.000000 0.000000
# 2 -0.000373 0.017688 0.001467 0.000000 0.000000 0.000000
# 3 -0.009177 0.001467 0.014404 0.000000 0.000000 0.000000
# 4 0.000000 0.000000 0.000000 0.057279 0.000000 0.000000
# 5 0.000000 0.000000 0.000000 0.000000 5.041666 0.000000
# 6 0.000000 0.000000 0.000000 0.000000 0.000000 0.043440
#
#
# Mechanical properties :
#
#
# Convention : Reuss Voigt Hill
#
# Bulk Modulus (GPa) = 21.72946 24.68630 23.20788
# Shear Modulus (GPa) = 0.95491 19.25674 10.10583
#
# Velocity S-wave (km/s) = 0.83384 3.74451 2.71262
# Velocity P-wave (km/s) = 4.09253 6.05556 5.16811
#
# Compressibility (1/GPa) = 0.04602046
#
# Stress axis : x y z
#
# Youngs Moduli (GPa) = 33.23028 56.53533 69.42301
#
# Poissons Ratio (x) = 0.02109 0.63708
# Poissons Ratio (y) = 0.01240 -0.10187
# Poissons Ratio (z) = 0.30495 -0.08296
#
# Static dielectric constant tensor:
#      x y z
#    x 1.429190 0.000000 0.000000 
#    y 0.000000 1.463950 0.000000 
#    z 0.000000 0.000000 1.467160 
# 
# From -- ./inp_files/20517.got.cif
#   From: 2010.05.17/outbox.cif.g08.bks.cpg/sg55_11_cif.got.tgz:20517.got - 2010.06.03 13:27:54.
