data_PCOD9425835
_publ_section_title
;
Structure prediction by ZEFSAII (Michael W. Deem and Ramdas Pophale) SiO2 
 PCOD9425835
Probable space group: P B A M
;
_chemical_formula_sum "Si O2"
_cell_formula_units_Z 48
_cell_length_a 10.156723
_cell_length_b 28.295036
_cell_length_c 7.438207
_cell_angle_alpha 90.000000
_cell_angle_beta 90.000000
_cell_angle_gamma 90.000000
_cell_volume 2137.627950
_symmetry_space_group_name_H-M "P B A M"
_symmetry_group_IT_number 55
_symmetry_cell_setting 'orthorhombic'
loop_
_space_group_symop_operation_xyz
x,y,z
-x,-y,z
1/2+x,1/2-y,-z
1/2-x,1/2+y,-z
-x,-y,-z
x,y,-z
1/2-x,1/2+y,z
1/2+x,1/2-y,z
loop_
_atom_site_type_symbol
_atom_site_label
_atom_site_fract_x
_atom_site_fract_y
_atom_site_fract_z
Si Si1 0.299891 0.892332 0.216594
Si Si2 0.292613 0.607048 0.216353
Si Si3 0.044473 0.947441 0.780079
Si Si4 0.160932 0.707966 0.287044
Si Si5 0.640584 0.212847 0.287946
Si Si6 0.451546 0.050714 0.219424
O O1 0.289620 0.837884 0.268328
O O2 0.441809 0.910834 0.277101
O O3 0.186102 0.927979 0.278656
O O4 0.298374 0.894073 0.000000
O O5 0.436924 0.591646 0.276474
O O6 0.229738 0.657048 0.266064
O O7 0.191961 0.566402 0.277461
O O8 0.295892 0.606495 0.000000
O O9 0.047049 0.949050 0.000000
O O10 0.000000 0.000000 0.722875
O O11 0.149531 0.716603 0.500000
O O12 0.262466 0.747011 0.212267
O O13 0.010175 0.710049 0.215268
O O14 0.627406 0.222580 0.500000
O O15 0.500000 0.000000 0.280310
O O16 0.449999 0.049749 0.000000
#
# Coordination Sequence:
#
# PCOD9425835 Si02
#       6
#     8   8   8   8   8   8
#     4  10  19  33  54  81 109 137 174 218 261 305
#     4  10  19  33  54  81 109 137 174 218 261 305
#     4   9  18  32  52  81 114 144 175 213 258 309
#     4  10  22  39  57  77 103 138 177 217 267 323
#     4  10  22  39  57  77 103 138 177 217 267 323
#     4   9  16  28  50  77 104 136 171 207 252 309
#
# _framework density 22.454796999999999
#
# number of rings (size 3 to 8) (size 9 to 14) (size 15 to 20)
#    0.000    2.333    1.667    1.000    2.333    4.667 
#    0.000    0.000    0.000    6.000    0.000    0.000 
#    0.000    0.000    0.000    0.000    0.000    0.000 
#
# Total GULP energy -268036.555919 kJ/mol
# GULP energy per Si atom -5584.094915 kJ/mol
# Density = 2.240369 g / cm^3
# Si number density = 22.454797 Si / 1000 Ang^3
#
#
#
# Elastic Constant Matrix: (Units=GPa)
#
#
# Indices 1 2 3 4 5 6 
#
# 1 86.6700 0.5765 6.4571 0.0000 0.0000 0.0000
# 2 0.5765 88.3014 -8.6295 0.0000 0.0000 0.0000
# 3 6.4571 -8.6295 69.0043 0.0000 0.0000 0.0000
# 4 0.0000 0.0000 0.0000 21.4593 0.0000 0.0000
# 5 0.0000 0.0000 0.0000 0.0000 0.6601 0.0000
# 6 0.0000 0.0000 0.0000 0.0000 0.0000 38.4516
#
#
#
# Elastic Compliance Matrix: (Units=1/GPa)
#
#
# Indices 1 2 3 4 5 6 
#
# 1 0.011622 -0.000184 -0.001111 0.000000 0.000000 0.000000
# 2 -0.000184 0.011468 0.001451 0.000000 0.000000 0.000000
# 3 -0.001111 0.001451 0.014777 0.000000 0.000000 0.000000
# 4 0.000000 0.000000 0.000000 0.046600 0.000000 0.000000
# 5 0.000000 0.000000 0.000000 0.000000 1.515019 0.000000
# 6 0.000000 0.000000 0.000000 0.000000 0.000000 0.026007
#
#
# Mechanical properties :
#
#
# Convention : Reuss Voigt Hill
#
# Bulk Modulus (GPa) = 26.19173 26.75374 26.47273
# Shear Modulus (GPa) = 3.05268 28.48563 15.76915
#
# Velocity S-wave (km/s) = 1.16723 3.56557 2.65290
# Velocity P-wave (km/s) = 3.67506 5.37507 4.60421
#
# Compressibility (1/GPa) = 0.03818000
#
# Stress axis : x y z
#
# Youngs Moduli (GPa) = 86.04378 87.19993 67.67143
#
# Poissons Ratio (x) = 0.01608 0.07516
# Poissons Ratio (y) = 0.01587 -0.09822
# Poissons Ratio (z) = 0.09556 -0.12656
#
# Static dielectric constant tensor:
#      x y z
#    x 1.827010 0.000000 0.000000 
#    y 0.000000 1.798190 0.000000 
#    z 0.000000 0.000000 1.877390 
# 
# From -- ./inp_files/2903.got.cif
#   From: 2010.05.17/outbox.cif.g08.bks.cpg/sg55_2_cif.got.tgz:2903.got - 2010.06.03 13:27:54.
