data_PCOD9425370
_publ_section_title
;
Structure prediction by ZEFSAII (Michael W. Deem and Ramdas Pophale) SiO2 
 PCOD9425370
Probable space group: P B A M
;
_chemical_formula_sum "Si O2"
_cell_formula_units_Z 58
_cell_length_a 15.571925
_cell_length_b 19.812526
_cell_length_c 7.742923
_cell_angle_alpha 90.000000
_cell_angle_beta 90.000000
_cell_angle_gamma 90.000000
_cell_volume 2388.840169
_symmetry_space_group_name_H-M "P B A M"
_symmetry_group_IT_number 55
_symmetry_cell_setting 'orthorhombic'
loop_
_space_group_symop_operation_xyz
x,y,z
-x,-y,z
1/2+x,1/2-y,-z
1/2-x,1/2+y,-z
-x,-y,-z
x,y,-z
1/2-x,1/2+y,z
1/2+x,1/2-y,z
loop_
_atom_site_type_symbol
_atom_site_label
_atom_site_fract_x
_atom_site_fract_y
_atom_site_fract_z
Si Si1 0.688495 0.939372 0.207003
Si Si2 0.780363 0.707023 0.295927
Si Si3 0.891752 0.143023 0.796052
Si Si4 0.051451 0.653332 0.197355
Si Si5 0.125388 0.011466 0.792960
Si Si6 0.605648 0.081022 0.296388
Si Si7 0.500000 0.500000 0.500000
Si Si8 0.555309 0.280485 0.209146
O O1 0.788774 0.946468 0.236318
O O2 0.646173 0.008182 0.272396
O O3 0.639023 0.873977 0.277509
O O4 0.676282 0.938347 0.000000
O O5 0.775786 0.701431 0.500000
O O6 0.682141 0.698924 0.235387
O O7 0.829782 0.639448 0.228446
O O8 0.844696 0.769101 0.255660
O O9 0.862506 0.068094 0.739395
O O10 0.985633 0.164493 0.729923
O O11 0.900029 0.137085 0.000000
O O12 0.994744 0.713144 0.273890
O O13 0.985127 0.590847 0.203586
O O14 0.068212 0.674352 0.000000
O O15 0.057077 0.034778 0.655022
O O16 0.104190 0.015610 0.000000
O O17 0.591333 0.091876 0.500000
O O18 0.556610 0.283413 0.000000
#
# Coordination Sequence:
#
# PCOD9425370 Si02
#       8
#     8   8   8   8   8   8   2   8
#     4  10  19  32  53  81 114 152 195 243 295 362
#     4  10  20  33  54  84 118 150 192 250 308 368
#     4  10  20  37  63  88 114 155 209 260 306 369
#     4   9  18  32  50  76 115 157 189 229 297 367
#     4  10  23  42  66  94 121 159 211 263 315 371
#     4  10  19  29  47  79 116 149 186 232 289 356
#     4  12  26  44  68  90 122 156 190 260 322 364
#     4   9  19  36  57  82 114 156 203 251 307 372
#
# _framework density 24.279567
#
# number of rings (size 3 to 8) (size 9 to 14) (size 15 to 20)
#    0.000    2.207    1.379    1.448    1.931    3.862 
#    0.000    1.379    0.000    4.966    0.000    0.000 
#    0.000    0.000    0.000    0.000    0.000    0.000 
#
# Total GULP energy -323172.196197 kJ/mol
# GULP energy per Si atom -5571.934417 kJ/mol
# Density = 2.422431 g / cm^3
# Si number density = 24.279567 Si / 1000 Ang^3
#
#
#
# Elastic Constant Matrix: (Units=GPa)
#
#
# Indices 1 2 3 4 5 6 
#
# 1 117.1031 50.1025 21.0397 0.0000 0.0000 0.0000
# 2 50.1025 54.2292 13.1512 0.0000 0.0000 0.0000
# 3 21.0397 13.1512 48.8286 0.0000 0.0000 0.0000
# 4 0.0000 0.0000 0.0000 -1.2729 0.0000 0.0000
# 5 0.0000 0.0000 0.0000 0.0000 -197.4862 0.0000
# 6 0.0000 0.0000 0.0000 0.0000 0.0000 27.3458
#
#
#
# Elastic Compliance Matrix: (Units=1/GPa)
#
#
# Indices 1 2 3 4 5 6 
#
# 1 0.014476 -0.012690 -0.002819 0.000000 0.000000 0.000000
# 2 -0.012690 0.030854 -0.002842 0.000000 0.000000 0.000000
# 3 -0.002819 -0.002842 0.022460 0.000000 0.000000 0.000000
# 4 0.000000 0.000000 0.000000 -0.785579 0.000000 0.000000
# 5 0.000000 0.000000 0.000000 0.000000 -0.005064 0.000000
# 6 0.000000 0.000000 0.000000 0.000000 0.000000 0.036569
#
#
# Mechanical properties :
#
#
# Convention : Reuss Voigt Hill
#
# Bulk Modulus (GPa) = 32.16839 43.19419 37.68129
# Shear Modulus (GPa) = -7.82205 -25.22485 -16.52345
#
# Velocity S-wave (km/s) = -1.79685 -3.22675 -2.61156
# Velocity P-wave (km/s) = 2.99550 1.98657 2.54160
#
# Compressibility (1/GPa) = 0.03108642
#
# Stress axis : x y z
#
# Youngs Moduli (GPa) = 69.08176 32.41065 44.52336
#
# Poissons Ratio (x) = 0.41130 0.12553
# Poissons Ratio (y) = 0.87667 0.12653
# Poissons Ratio (z) = 0.19477 0.09211
#
# Static dielectric constant tensor:
#      x y z
#    x 2.054680 0.000000 0.000000 
#    y 0.000000 2.130700 0.000000 
#    z 0.000000 0.000000 1.886820 
# 
# From -- ./inp_files/6425.got.cif
#   From: 2010.05.17/outbox.cif.g08.bks.cpg/sg55_4_cif.got.tgz:6425.got - 2010.06.03 13:27:54.
