data_PCOD9425288
_publ_section_title
;
Structure prediction by ZEFSAII (Michael W. Deem and Ramdas Pophale) SiO2 
 PCOD9425288
Probable space group: P B A M
;
_chemical_formula_sum "Si O2"
_cell_formula_units_Z 48
_cell_length_a 22.671817
_cell_length_b 12.339935
_cell_length_c 7.608521
_cell_angle_alpha 90.000000
_cell_angle_beta 90.000000
_cell_angle_gamma 90.000000
_cell_volume 2128.626395
_symmetry_space_group_name_H-M "P B A M"
_symmetry_group_IT_number 55
_symmetry_cell_setting 'orthorhombic'
loop_
_space_group_symop_operation_xyz
x,y,z
-x,-y,z
1/2+x,1/2-y,-z
1/2-x,1/2+y,-z
-x,-y,-z
x,y,-z
1/2-x,1/2+y,z
1/2+x,1/2-y,z
loop_
_atom_site_type_symbol
_atom_site_label
_atom_site_fract_x
_atom_site_fract_y
_atom_site_fract_z
Si Si1 0.694107 0.584512 0.211065
Si Si2 0.565912 0.002914 0.200124
Si Si3 0.635743 0.363667 0.214044
Si Si4 0.822819 0.635953 0.784698
Si Si5 0.394077 0.226911 0.698103
Si Si6 0.003886 0.126884 0.787858
O O1 0.658152 0.480094 0.277625
O O2 0.761292 0.585177 0.275366
O O3 0.659993 0.696082 0.248657
O O4 0.695876 0.574879 0.000000
O O5 0.592085 0.881673 0.195850
O O6 0.500000 0.000000 0.280727
O O7 0.617560 0.077498 0.278050
O O8 0.556968 0.044144 0.000000
O O9 0.675766 0.262386 0.263401
O O10 0.568952 0.337912 0.267574
O O11 0.634378 0.369118 0.000000
O O12 0.823390 0.629315 0.000000
O O13 0.384740 0.190141 0.500000
O O14 0.451634 0.302978 0.710219
O O15 0.998362 0.135936 0.000000
O O16 0.000000 0.000000 0.744257
#
# Coordination Sequence:
#
# PCOD9425288 Si02
#       6
#     8   8   8   8   8   8
#     4  10  20  36  59  87 117 153 197 245 296 348
#     4  10  21  40  66  93 119 151 199 254 304 355
#     4   9  17  32  56  88 117 142 183 244 301 345
#     4   9  19  33  59  92 116 146 194 250 298 347
#     4  12  25  38  56  85 125 163 197 237 293 361
#     4  10  18  34  59  84 111 147 194 246 296 338
#
# _framework density 22.549752999999999
#
# number of rings (size 3 to 8) (size 9 to 14) (size 15 to 20)
#    0.000    2.000    1.667    2.500    2.333    3.333 
#    0.000    0.833    0.000    2.000    0.000    0.000 
#    0.000    0.000    0.000    0.000    0.000    0.000 
#
# Total GULP energy -268169.653833 kJ/mol
# GULP energy per Si atom -5586.867788 kJ/mol
# Density = 2.249843 g / cm^3
# Si number density = 22.549753 Si / 1000 Ang^3
#
#
#
# Elastic Constant Matrix: (Units=GPa)
#
#
# Indices 1 2 3 4 5 6 
#
# 1 148.1301 34.7731 2.6966 0.0000 0.0000 0.0000
# 2 34.7731 89.1120 -3.9826 0.0000 0.0000 0.0000
# 3 2.6966 -3.9826 48.5962 0.0000 0.0000 0.0000
# 4 0.0000 0.0000 0.0000 -31.2850 0.0000 0.0000
# 5 0.0000 0.0000 0.0000 0.0000 53.9421 0.0000
# 6 0.0000 0.0000 0.0000 0.0000 0.0000 27.7568
#
#
#
# Elastic Compliance Matrix: (Units=1/GPa)
#
#
# Indices 1 2 3 4 5 6 
#
# 1 0.007452 -0.002937 -0.000654 0.000000 0.000000 0.000000
# 2 -0.002937 0.012421 0.001181 0.000000 0.000000 0.000000
# 3 -0.000654 0.001181 0.020711 0.000000 0.000000 0.000000
# 4 0.000000 0.000000 0.000000 -0.031964 0.000000 0.000000
# 5 0.000000 0.000000 0.000000 0.000000 0.018538 0.000000
# 6 0.000000 0.000000 0.000000 0.000000 0.000000 0.036027
#
#
# Mechanical properties :
#
#
# Convention : Reuss Voigt Hill
#
# Bulk Modulus (GPa) = 27.96212 39.20139 33.58176
# Shear Modulus (GPa) = 62.55688 26.90619 44.73154
#
# Velocity S-wave (km/s) = 5.27275 3.45801 4.45869
# Velocity P-wave (km/s) = 7.03537 5.77632 6.43670
#
# Compressibility (1/GPa) = 0.03576267
#
# Stress axis : x y z
#
# Youngs Moduli (GPa) = 134.18781 80.51030 48.28397
#
# Poissons Ratio (x) = 0.23648 0.03159
# Poissons Ratio (y) = 0.39414 -0.05702
# Poissons Ratio (z) = 0.08779 -0.09507
#
# Static dielectric constant tensor:
#      x y z
#    x 1.823690 0.000000 0.000000 
#    y 0.000000 1.809150 0.000000 
#    z 0.000000 0.000000 1.886730 
# 
# From -- ./inp_files/9429.got.cif
#   From: 2010.05.17/outbox.cif.g08.bks.cpg/sg55_5_cif.got.tgz:9429.got - 2010.06.03 13:27:54.
