data_PCOD9425746
_publ_section_title
;
Structure prediction by ZEFSAII (Michael W. Deem and Ramdas Pophale) SiO2 
 PCOD9425746
Probable space group: P B A M
;
_chemical_formula_sum "Si O2"
_cell_formula_units_Z 44
_cell_length_a 8.153473
_cell_length_b 28.304495
_cell_length_c 7.989750
_cell_angle_alpha 90.000000
_cell_angle_beta 90.000000
_cell_angle_gamma 90.000000
_cell_volume 1843.873992
_symmetry_space_group_name_H-M "P B A M"
_symmetry_group_IT_number 55
_symmetry_cell_setting 'orthorhombic'
loop_
_space_group_symop_operation_xyz
x,y,z
-x,-y,z
1/2+x,1/2-y,-z
1/2-x,1/2+y,-z
-x,-y,-z
x,y,-z
1/2-x,1/2+y,z
1/2+x,1/2-y,z
loop_
_atom_site_type_symbol
_atom_site_label
_atom_site_fract_x
_atom_site_fract_y
_atom_site_fract_z
Si Si1 0.081516 0.233233 0.305048
Si Si2 0.735930 0.683764 0.191719
Si Si3 0.000000 0.500000 0.755139
Si Si4 0.130237 0.037851 0.694026
Si Si5 0.229635 0.137503 0.300316
Si Si6 0.912607 0.596230 0.305941
O O1 0.117962 0.242366 0.500000
O O2 0.108568 0.281537 0.207364
O O3 0.186424 0.189068 0.234588
O O4 0.900024 0.212990 0.289556
O O5 0.769473 0.632671 0.268915
O O6 0.688399 0.678324 0.000000
O O7 0.179688 0.519717 0.690658
O O8 0.070305 0.449261 0.811830
O O9 0.080754 0.043809 0.500000
O O10 0.136642 0.090910 0.768830
O O11 0.000000 0.000000 0.766649
O O12 0.192482 0.140034 0.500000
O O13 0.420497 0.125565 0.286818
O O14 0.903281 0.578855 0.500000
#
# Coordination Sequence:
#
# PCOD9425746 Si02
#       6
#     8   8   4   8   8   8
#     4  11  22  40  64  89 117 157 208 259 307 370
#     4  12  26  41  59  88 124 161 201 251 318 387
#     4  10  19  32  55  90 125 158 207 270 321 370
#     4   9  16  26  45  78 121 156 187 241 313 371
#     4   8  17  32  53  85 117 146 190 248 303 357
#     4  10  19  36  61  90 121 158 206 260 314 371
#
# _framework density 23.862801000000001
#
# number of rings (size 3 to 8) (size 9 to 14) (size 15 to 20)
#    0.000    2.000    0.000    6.000    2.545    1.455 
#    0.000    1.364    0.000    0.000    0.000    2.545 
#    0.000    0.000    0.000    0.000    0.000    0.000 
#
# Total GULP energy -245148.005494 kJ/mol
# GULP energy per Si atom -5571.545579 kJ/mol
# Density = 2.380849 g / cm^3
# Si number density = 23.862801 Si / 1000 Ang^3
#
#
#
# Elastic Constant Matrix: (Units=GPa)
#
#
# Indices 1 2 3 4 5 6 
#
# 1 54.2235 12.6239 7.4129 0.0000 0.0000 0.0000
# 2 12.6239 128.5206 19.3969 0.0000 0.0000 0.0000
# 3 7.4129 19.3969 60.0454 0.0000 0.0000 0.0000
# 4 0.0000 0.0000 0.0000 212.7927 0.0000 0.0000
# 5 0.0000 0.0000 0.0000 0.0000 1.4634 0.0000
# 6 0.0000 0.0000 0.0000 0.0000 0.0000 50.6257
#
#
#
# Elastic Compliance Matrix: (Units=1/GPa)
#
#
# Indices 1 2 3 4 5 6 
#
# 1 0.019065 -0.001595 -0.001838 0.000000 0.000000 0.000000
# 2 -0.001595 0.008313 -0.002489 0.000000 0.000000 0.000000
# 3 -0.001838 -0.002489 0.017685 0.000000 0.000000 0.000000
# 4 0.000000 0.000000 0.000000 0.004699 0.000000 0.000000
# 5 0.000000 0.000000 0.000000 0.000000 0.683363 0.000000
# 6 0.000000 0.000000 0.000000 0.000000 0.000000 0.019753
#
#
# Mechanical properties :
#
#
# Convention : Reuss Voigt Hill
#
# Bulk Modulus (GPa) = 30.10342 35.73965 32.92154
# Shear Modulus (GPa) = 6.44500 66.53341 36.48920
#
# Velocity S-wave (km/s) = 1.64521 5.28604 3.91465
# Velocity P-wave (km/s) = 4.03132 7.22951 5.85309
#
# Compressibility (1/GPa) = 0.03321882
#
# Stress axis : x y z
#
# Youngs Moduli (GPa) = 52.45240 120.29178 56.54541
#
# Poissons Ratio (x) = 0.19189 0.10395
# Poissons Ratio (y) = 0.08367 0.14071
# Poissons Ratio (z) = 0.09643 0.29935
#
# Static dielectric constant tensor:
#      x y z
#    x 1.994040 0.000000 0.000000 
#    y 0.000000 1.920830 0.000000 
#    z 0.000000 0.000000 1.965970 
# 
# From -- ./inp_files/2716.got.cif
#   From: 2010.05.17/outbox.cif.g08.bks.cpg/sg55_2_cif.got.tgz:2716.got - 2010.06.03 13:27:54.
