data_PCOD9425618
_publ_section_title
;
Structure prediction by ZEFSAII (Michael W. Deem and Ramdas Pophale) SiO2 
 PCOD9425618
Probable space group: P B A M
;
_chemical_formula_sum "Si O2"
_cell_formula_units_Z 64
_cell_length_a 20.049028
_cell_length_b 20.911212
_cell_length_c 9.118375
_cell_angle_alpha 90.000000
_cell_angle_beta 90.000000
_cell_angle_gamma 90.000000
_cell_volume 3822.873931
_symmetry_space_group_name_H-M "P B A M"
_symmetry_group_IT_number 55
_symmetry_cell_setting 'orthorhombic'
loop_
_space_group_symop_operation_xyz
x,y,z
-x,-y,z
1/2+x,1/2-y,-z
1/2-x,1/2+y,-z
-x,-y,-z
x,y,-z
1/2-x,1/2+y,z
1/2+x,1/2-y,z
loop_
_atom_site_type_symbol
_atom_site_label
_atom_site_fract_x
_atom_site_fract_y
_atom_site_fract_z
Si Si1 0.572640 0.116093 0.824929
Si Si2 0.063696 0.614202 0.324814
Si Si3 0.436889 0.265621 0.675225
Si Si4 0.792874 0.181649 0.323649
Si Si5 0.426254 0.732599 0.825239
Si Si6 0.292004 0.066110 0.323197
Si Si7 0.717292 0.065111 0.823966
Si Si8 0.206745 0.192121 0.675691
O O1 0.504905 0.092660 0.749484
O O2 0.580925 0.191561 0.788827
O O3 0.640520 0.081075 0.780975
O O4 0.565132 0.110933 0.000000
O O5 0.057294 0.607988 0.500000
O O6 0.072875 0.689974 0.292380
O O7 0.131078 0.578712 0.278597
O O8 0.447042 0.270677 0.500000
O O9 0.369580 0.302997 0.713643
O O10 0.502896 0.287820 0.758594
O O11 0.788630 0.172595 0.500000
O O12 0.763046 0.120977 0.241323
O O13 0.749528 0.244668 0.286955
O O14 0.363877 0.696450 0.755424
O O15 0.426173 0.726384 0.000000
O O16 0.290701 0.058208 0.500000
O O17 0.248971 0.129012 0.287719
O O18 0.265584 0.003305 0.243890
O O19 0.721156 0.064784 0.000000
O O20 0.196757 0.192653 0.500000
#
# Coordination Sequence:
#
# PCOD9425618 Si02
#       8
#     8   8   8   8   8   8   8   8
#     4   9  19  33  47  70 107 145 178 212 252 308
#     4   9  17  31  52  76 103 136 177 220 257 306
#     4   9  17  32  54  81 107 134 173 220 268 314
#     4  10  19  34  58  82 104 136 178 224 269 311
#     4  10  19  32  51  79 111 141 174 214 261 315
#     4  10  21  37  54  77 107 139 180 224 267 314
#     4  11  23  37  51  74 110 147 181 217 262 317
#     4  10  19  34  57  81 105 136 176 224 269 310
#
# _framework density 16.741332
#
# number of rings (size 3 to 8) (size 9 to 14) (size 15 to 20)
#    0.000    2.250    2.500    0.750    0.000    3.500 
#    0.000    2.500    0.000    0.750    0.000    5.250 
#    0.000    0.000    0.000    0.000    0.000    0.000 
#
# Total GULP energy -357138.824850 kJ/mol
# GULP energy per Si atom -5580.294138 kJ/mol
# Density = 1.670323 g / cm^3
# Si number density = 16.741332 Si / 1000 Ang^3
#
#
#
# Elastic Constant Matrix: (Units=GPa)
#
#
# Indices 1 2 3 4 5 6 
#
# 1 111.0539 42.0662 39.4019 0.0000 0.0000 0.0000
# 2 42.0662 76.4563 33.0594 0.0000 0.0000 0.0000
# 3 39.4019 33.0594 22.9977 0.0000 0.0000 0.0000
# 4 0.0000 0.0000 0.0000 17.7242 0.0000 0.0000
# 5 0.0000 0.0000 0.0000 0.0000 7.2136 0.0000
# 6 0.0000 0.0000 0.0000 0.0000 0.0000 19.6876
#
#
#
# Elastic Compliance Matrix: (Units=1/GPa)
#
#
# Indices 1 2 3 4 5 6 
#
# 1 0.027620 0.013913 -0.067321 0.000000 0.000000 0.000000
# 2 0.013913 0.041570 -0.083594 0.000000 0.000000 0.000000
# 3 -0.067321 -0.083594 0.278990 0.000000 0.000000 0.000000
# 4 0.000000 0.000000 0.000000 0.056420 0.000000 0.000000
# 5 0.000000 0.000000 0.000000 0.000000 0.138627 0.000000
# 6 0.000000 0.000000 0.000000 0.000000 0.000000 0.050793
#
#
# Mechanical properties :
#
#
# Convention : Reuss Voigt Hill
#
# Bulk Modulus (GPa) = 13.48150 48.84032 31.16091
# Shear Modulus (GPa) = 5.60067 15.32379 10.46223
#
# Velocity S-wave (km/s) = 1.83103 3.02872 2.50258
# Velocity P-wave (km/s) = 3.54126 6.43954 5.19655
#
# Compressibility (1/GPa) = 0.07417572
#
# Stress axis : x y z
#
# Youngs Moduli (GPa) = 36.20563 24.05562 3.58436
#
# Poissons Ratio (x) = -0.33468 0.24130
# Poissons Ratio (y) = -0.50372 0.29963
# Poissons Ratio (z) = 2.43739 2.01091
#
# Static dielectric constant tensor:
#      x y z
#    x 1.553480 0.000000 0.000000 
#    y 0.000000 1.554320 0.000000 
#    z 0.000000 0.000000 1.552150 
# 
# From -- ./inp_files/7932.got.cif
#   From: 2010.05.17/outbox.cif.g08.bks.cpg/sg55_4_cif.got.tgz:7932.got - 2010.06.03 13:27:54.
