data_PCOD9425021
_publ_section_title
;
Structure prediction by ZEFSAII (Michael W. Deem and Ramdas Pophale) SiO2 
 PCOD9425021
Probable space group: P B A M
;
_chemical_formula_sum "Si O2"
_cell_formula_units_Z 54
_cell_length_a 5.222208
_cell_length_b 13.989969
_cell_length_c 31.161150
_cell_angle_alpha 90.000000
_cell_angle_beta 90.000000
_cell_angle_gamma 90.000000
_cell_volume 2276.587751
_symmetry_space_group_name_H-M "P B A M"
_symmetry_group_IT_number 55
_symmetry_cell_setting 'orthorhombic'
loop_
_space_group_symop_operation_xyz
x,y,z
-x,-y,z
1/2+x,1/2-y,-z
1/2-x,1/2+y,-z
-x,-y,-z
x,y,-z
1/2-x,1/2+y,z
1/2+x,1/2-y,z
loop_
_atom_site_type_symbol
_atom_site_label
_atom_site_fract_x
_atom_site_fract_y
_atom_site_fract_z
Si Si1 0.910918 0.799133 0.000000
Si Si2 0.291028 0.893583 0.584680
Si Si3 0.963290 0.687610 0.856741
Si Si4 0.347919 0.813633 0.234683
Si Si5 0.209599 0.109186 0.549402
Si Si6 0.441055 0.815320 0.327063
Si Si7 0.500000 0.000000 0.000000
Si Si8 0.839459 0.078236 0.073769
O O1 0.005177 0.843961 0.954920
O O2 0.099178 0.704057 0.000000
O O3 0.508619 0.848743 0.554677
O O4 0.388151 0.883938 0.632968
O O5 0.012229 0.848543 0.578836
O O6 0.250577 0.001171 0.567280
O O7 0.754737 0.775333 0.858091
O O8 0.906379 0.637992 0.810887
O O9 0.873861 0.626222 0.896880
O O10 0.558237 0.726768 0.234597
O O11 0.401054 0.862753 0.280246
O O12 0.130477 0.108251 0.500000
O O13 0.720910 0.767103 0.329289
O O14 0.286816 0.983593 0.036903
O O15 0.000000 0.000000 0.100102
#
# Coordination Sequence:
#
# PCOD9425021 Si02
#       8
#     4   8   8   8   8   8   2   8
#     4  11  24  39  60  84 112 147 200 245 269 315
#     4  10  18  30  51  74  98 129 177 219 260 319
#     4  10  21  39  64  90 113 148 201 244 271 330
#     4   8  16  32  55  81 106 138 179 223 266 316
#     4  10  19  33  53  70  93 136 183 228 266 306
#     4  10  19  32  52  79 109 139 170 213 273 333
#     4  10  24  40  56  74 116 162 188 212 282 364
#     4  11  25  39  61  84 123 158 191 232 300 348
#
# _framework density 23.719709000000002
#
# number of rings (size 3 to 8) (size 9 to 14) (size 15 to 20)
#    0.000    2.074    0.000    4.889    6.222    0.000 
#    0.000    0.000    3.259   16.889    0.000    0.000 
#    0.000    0.000    0.000    0.000    0.000    0.000 
#
# Total GULP energy -300866.919875 kJ/mol
# GULP energy per Si atom -5571.609627 kJ/mol
# Density = 2.366572 g / cm^3
# Si number density = 23.719709 Si / 1000 Ang^3
#
#
#
# Elastic Constant Matrix: (Units=GPa)
#
#
# Indices 1 2 3 4 5 6 
#
# 1 123.2678 -12.7628 -19.5117 0.0000 0.0000 0.0000
# 2 -12.7628 31.3598 -1.5648 0.0000 0.0000 0.0000
# 3 -19.5117 -1.5648 141.3367 0.0000 0.0000 0.0000
# 4 0.0000 0.0000 0.0000 122.2033 0.0000 0.0000
# 5 0.0000 0.0000 0.0000 0.0000 34.1182 0.0000
# 6 0.0000 0.0000 0.0000 0.0000 0.0000 7.8279
#
#
#
# Elastic Compliance Matrix: (Units=1/GPa)
#
#
# Indices 1 2 3 4 5 6 
#
# 1 0.008681 0.003595 0.001238 0.000000 0.000000 0.000000
# 2 0.003595 0.033394 0.000866 0.000000 0.000000 0.000000
# 3 0.001238 0.000866 0.007256 0.000000 0.000000 0.000000
# 4 0.000000 0.000000 0.000000 0.008183 0.000000 0.000000
# 5 0.000000 0.000000 0.000000 0.000000 0.029310 0.000000
# 6 0.000000 0.000000 0.000000 0.000000 0.000000 0.127749
#
#
# Mechanical properties :
#
#
# Convention : Reuss Voigt Hill
#
# Bulk Modulus (GPa) = 16.46689 25.36509 20.91599
# Shear Modulus (GPa) = 22.37964 54.81677 38.59821
#
# Velocity S-wave (km/s) = 3.07498 4.81252 4.03831
# Velocity P-wave (km/s) = 4.42320 6.44961 5.53002
#
# Compressibility (1/GPa) = 0.06072792
#
# Stress axis : x y z
#
# Youngs Moduli (GPa) = 115.19968 29.94541 137.82042
#
# Poissons Ratio (x) = -0.10764 -0.17064
# Poissons Ratio (y) = -0.41410 -0.11935
# Poissons Ratio (z) = -0.14264 -0.02593
#
# Static dielectric constant tensor:
#      x y z
#    x 2.053410 0.000000 0.000000 
#    y 0.000000 1.999350 0.000000 
#    z 0.000000 0.000000 1.883800 
# 
# From -- ./inp_files/24095.got.cif
#   From: 2010.05.17/outbox.cif.g08.bks.cpg/sg55_13_cif.got.tgz:24095.got - 2010.06.03 13:27:54.
