data_PCOD9425695
_publ_section_title
;
Structure prediction by ZEFSAII (Michael W. Deem and Ramdas Pophale) SiO2 
 PCOD9425695
Probable space group: P B A M
;
_chemical_formula_sum "Si O2"
_cell_formula_units_Z 56
_cell_length_a 24.313366
_cell_length_b 13.832505
_cell_length_c 8.947803
_cell_angle_alpha 90.000000
_cell_angle_beta 90.000000
_cell_angle_gamma 90.000000
_cell_volume 3009.278189
_symmetry_space_group_name_H-M "P B A M"
_symmetry_group_IT_number 55
_symmetry_cell_setting 'orthorhombic'
loop_
_space_group_symop_operation_xyz
x,y,z
-x,-y,z
1/2+x,1/2-y,-z
1/2-x,1/2+y,-z
-x,-y,-z
x,y,-z
1/2-x,1/2+y,z
1/2+x,1/2-y,z
loop_
_atom_site_type_symbol
_atom_site_label
_atom_site_fract_x
_atom_site_fract_y
_atom_site_fract_z
Si Si1 0.050333 0.226461 0.679889
Si Si2 0.166100 0.540112 0.179030
Si Si3 0.942087 0.550156 0.680301
Si Si4 0.172671 0.763462 0.822917
Si Si5 0.729462 0.558802 0.321511
Si Si6 0.056850 0.868752 0.823479
Si Si7 0.882950 0.954581 0.679472
O O1 0.044962 0.226310 0.500000
O O2 0.057720 0.337262 0.726956
O O3 0.100472 0.154541 0.719221
O O4 0.995690 0.179616 0.748298
O O5 0.108432 0.504960 0.245324
O O6 0.176709 0.651931 0.220460
O O7 0.215235 0.476059 0.244011
O O8 0.164642 0.534068 0.000000
O O9 0.936136 0.546309 0.500000
O O10 0.000000 0.500000 0.718741
O O11 0.211667 0.834746 0.731159
O O12 0.110231 0.800657 0.800165
O O13 0.184580 0.773284 0.000000
O O14 0.735385 0.555611 0.500000
O O15 0.678095 0.489206 0.277106
O O16 0.073854 0.971350 0.752822
O O17 0.047825 0.879958 0.000000
O O18 0.886919 0.964878 0.500000
#
# Coordination Sequence:
#
# PCOD9425695 Si02
#       7
#     8   8   8   8   8   8   8
#     4  10  20  34  53  78 111 147 181 224 277 328
#     4  11  23  39  60  84 112 146 183 226 280 339
#     4  10  22  39  58  82 111 144 187 234 276 326
#     4   9  20  38  57  79 110 148 187 228 276 331
#     4  10  21  37  58  83 110 143 186 232 276 327
#     4  10  19  32  53  81 111 144 185 227 269 323
#     4   9  19  35  53  76 108 145 182 222 273 329
#
# _framework density 18.609114000000002
#
# number of rings (size 3 to 8) (size 9 to 14) (size 15 to 20)
#    0.000    2.143    0.000    2.571    0.000    6.571 
#    0.000    1.429    0.000    0.000    0.000    0.000 
#    0.000    0.000    0.000    0.000    0.000    0.000 
#
# Total GULP energy -312784.651027 kJ/mol
# GULP energy per Si atom -5585.440197 kJ/mol
# Density = 1.856676 g / cm^3
# Si number density = 18.609114 Si / 1000 Ang^3
#
#
#
# Elastic Constant Matrix: (Units=GPa)
#
#
# Indices 1 2 3 4 5 6 
#
# 1 126.1307 86.8404 49.4421 0.0000 0.0000 0.0000
# 2 86.8404 148.4669 47.0435 0.0000 0.0000 0.0000
# 3 49.4421 47.0435 28.3713 0.0000 0.0000 0.0000
# 4 0.0000 0.0000 0.0000 24.2301 0.0000 0.0000
# 5 0.0000 0.0000 0.0000 0.0000 24.7598 0.0000
# 6 0.0000 0.0000 0.0000 0.0000 0.0000 18.3163
#
#
#
# Elastic Compliance Matrix: (Units=1/GPa)
#
#
# Indices 1 2 3 4 5 6 
#
# 1 0.025231 -0.001740 -0.041085 0.000000 0.000000 0.000000
# 2 -0.001740 0.014312 -0.020699 0.000000 0.000000 0.000000
# 3 -0.041085 -0.020699 0.141168 0.000000 0.000000 0.000000
# 4 0.000000 0.000000 0.000000 0.041271 0.000000 0.000000
# 5 0.000000 0.000000 0.000000 0.000000 0.040388 0.000000
# 6 0.000000 0.000000 0.000000 0.000000 0.000000 0.054596
#
#
# Mechanical properties :
#
#
# Convention : Reuss Voigt Hill
#
# Bulk Modulus (GPa) = 18.63502 74.40232 46.51867
# Shear Modulus (GPa) = 10.82480 21.43743 16.13112
#
# Velocity S-wave (km/s) = 2.41445 3.39777 2.94741
# Velocity P-wave (km/s) = 4.22000 7.44725 6.05269
#
# Compressibility (1/GPa) = 0.05366240
#
# Stress axis : x y z
#
# Youngs Moduli (GPa) = 39.63365 69.87168 7.08376
#
# Poissons Ratio (x) = 0.12156 0.29104
# Poissons Ratio (y) = 0.06895 0.14663
# Poissons Ratio (z) = 1.62835 1.44631
#
# Static dielectric constant tensor:
#      x y z
#    x 1.614210 0.000000 0.000000 
#    y 0.000000 1.638070 0.000000 
#    z 0.000000 0.000000 1.616460 
# 
# From -- ./inp_files/8728.got.cif
#   From: 2010.05.17/outbox.cif.g08.bks.cpg/sg55_5_cif.got.tgz:8728.got - 2010.06.03 13:27:54.
