data_PCOD9425944
_publ_section_title
;
Structure prediction by ZEFSAII (Michael W. Deem and Ramdas Pophale) SiO2 
 PCOD9425944
Probable space group: P B A M
;
_chemical_formula_sum "Si O2"
_cell_formula_units_Z 48
_cell_length_a 8.729798
_cell_length_b 12.873806
_cell_length_c 19.916513
_cell_angle_alpha 90.000000
_cell_angle_beta 90.000000
_cell_angle_gamma 90.000000
_cell_volume 2238.331770
_symmetry_space_group_name_H-M "P B A M"
_symmetry_group_IT_number 55
_symmetry_cell_setting 'orthorhombic'
loop_
_space_group_symop_operation_xyz
x,y,z
-x,-y,z
1/2+x,1/2-y,-z
1/2-x,1/2+y,-z
-x,-y,-z
x,y,-z
1/2-x,1/2+y,z
1/2+x,1/2-y,z
loop_
_atom_site_type_symbol
_atom_site_label
_atom_site_fract_x
_atom_site_fract_y
_atom_site_fract_z
Si Si1 0.756021 0.422984 0.000000
Si Si2 0.083962 0.654314 0.256026
Si Si3 0.543941 0.617998 0.419622
Si Si4 0.245040 0.515590 0.150094
Si Si5 0.461357 0.335378 0.845462
Si Si6 0.675545 0.221509 0.345632
Si Si7 0.958883 0.213320 0.000000
O O1 0.796063 0.481598 0.929995
O O2 0.843406 0.314570 0.000000
O O3 0.577210 0.390151 0.000000
O O4 0.132078 0.562784 0.205310
O O5 0.028020 0.746628 0.208158
O O6 0.229019 0.702389 0.295919
O O7 0.944610 0.645297 0.308268
O O8 0.500000 0.500000 0.400109
O O9 0.554723 0.622386 0.500000
O O10 0.419835 0.700813 0.393117
O O11 0.702029 0.653061 0.385606
O O12 0.392870 0.589962 0.156907
O O13 0.306314 0.401144 0.165462
O O14 0.457091 0.287750 0.918952
#
# Coordination Sequence:
#
# PCOD9425944 Si02
#       7
#     4   8   8   8   8   8   4
#     4  10  19  33  57  78 108 156 214 279 331 383
#     4  11  20  37  58  87 127 170 203 262 320 384
#     4  10  22  45  75 103 136 178 215 261 317 374
#     4  10  20  35  58  82 114 163 218 269 327 392
#     4  10  20  35  57  82 114 162 217 268 331 389
#     4  10  23  39  65  99 137 169 219 258 315 389
#     4  10  19  33  57  78 110 150 215 282 327 383
#
# _framework density 21.444541999999998
#
# number of rings (size 3 to 8) (size 9 to 14) (size 15 to 20)
#    0.000    1.833    3.333    1.000    0.000    4.667 
#    0.000    7.500    0.000   10.000    0.000    0.000 
#    0.000    0.000    0.000    0.250    0.000    0.000 
#
# Total GULP energy -267274.737275 kJ/mol
# GULP energy per Si atom -5568.223693 kJ/mol
# Density = 2.139573 g / cm^3
# Si number density = 21.444542 Si / 1000 Ang^3
#
#
#
# Elastic Constant Matrix: (Units=GPa)
#
#
# Indices 1 2 3 4 5 6 
#
# 1 118.4115 53.9002 62.2171 0.0000 0.0000 0.0000
# 2 53.9002 64.8621 40.7145 0.0000 0.0000 0.0000
# 3 62.2171 40.7145 115.8965 0.0000 0.0000 0.0000
# 4 0.0000 0.0000 0.0000 313.1459 0.0000 0.0000
# 5 0.0000 0.0000 0.0000 0.0000 27.2747 0.0000
# 6 0.0000 0.0000 0.0000 0.0000 0.0000 28.9753
#
#
#
# Elastic Compliance Matrix: (Units=1/GPa)
#
#
# Indices 1 2 3 4 5 6 
#
# 1 0.015455 -0.009795 -0.004856 0.000000 0.000000 0.000000
# 2 -0.009795 0.025987 -0.003871 0.000000 0.000000 0.000000
# 3 -0.004856 -0.003871 0.012595 0.000000 0.000000 0.000000
# 4 0.000000 0.000000 0.000000 0.003193 0.000000 0.000000
# 5 0.000000 0.000000 0.000000 0.000000 0.036664 0.000000
# 6 0.000000 0.000000 0.000000 0.000000 0.000000 0.034512
#
#
# Mechanical properties :
#
#
# Convention : Reuss Voigt Hill
#
# Bulk Modulus (GPa) = 58.84641 68.09262 63.46952
# Shear Modulus (GPa) = 29.22015 83.36839 56.29427
#
# Velocity S-wave (km/s) = 3.69533 6.24185 5.12914
# Velocity P-wave (km/s) = 6.76078 9.15256 8.04604
#
# Compressibility (1/GPa) = 0.01699339
#
# Stress axis : x y z
#
# Youngs Moduli (GPa) = 64.70295 38.48103 79.39684
#
# Poissons Ratio (x) = 0.37693 0.38554
# Poissons Ratio (y) = 0.63378 0.30733
# Poissons Ratio (z) = 0.31419 0.14895
#
# Static dielectric constant tensor:
#      x y z
#    x 1.845620 0.000000 0.000000 
#    y 0.000000 1.761030 0.000000 
#    z 0.000000 0.000000 1.767140 
# 
# From -- ./inp_files/20845.got.cif
#   From: 2010.05.17/outbox.cif.g08.bks.cpg/sg55_11_cif.got.tgz:20845.got - 2010.06.03 13:27:54.
