data_PCOD9425624
_publ_section_title
;
Structure prediction by ZEFSAII (Michael W. Deem and Ramdas Pophale) SiO2 
 PCOD9425624
Probable space group: P B A M
;
_chemical_formula_sum "Si O2"
_cell_formula_units_Z 28
_cell_length_a 4.976185
_cell_length_b 16.825149
_cell_length_c 15.966953
_cell_angle_alpha 90.000000
_cell_angle_beta 90.000000
_cell_angle_gamma 90.000000
_cell_volume 1336.834003
_symmetry_space_group_name_H-M "P B A M"
_symmetry_group_IT_number 55
_symmetry_cell_setting 'orthorhombic'
loop_
_space_group_symop_operation_xyz
x,y,z
-x,-y,z
1/2+x,1/2-y,-z
1/2-x,1/2+y,-z
-x,-y,-z
x,y,-z
1/2-x,1/2+y,z
1/2+x,1/2-y,z
loop_
_atom_site_type_symbol
_atom_site_label
_atom_site_fract_x
_atom_site_fract_y
_atom_site_fract_z
Si Si1 0.221721 0.805389 0.090898
Si Si2 0.119458 0.417338 0.404993
Si Si3 0.882042 0.191352 0.271399
Si Si4 0.269881 0.195929 0.500000
O O1 0.023459 0.728635 0.092664
O O2 0.155167 0.846562 0.178677
O O3 0.177325 0.844899 0.000000
O O4 0.232403 0.432315 0.500000
O O5 0.000000 0.500000 0.373654
O O6 0.315423 0.373416 0.341651
O O7 0.871909 0.357373 0.423327
O O8 0.160892 0.238031 0.277600
O O9 0.470409 0.271984 0.500000
#
# Coordination Sequence:
#
# PCOD9425624 Si02
#       4
#     8   8   8   4
#     4   8  14  25  43  69  96 119 151 196 239 277
#     4   9  20  36  50  72 101 131 160 201 247 287
#     4  10  19  32  52  74  96 128 165 200 238 285
#     4  10  19  34  53  70  90 120 160 198 231 278
#
# _framework density 20.945007
#
# number of rings (size 3 to 8) (size 9 to 14) (size 15 to 20)
#    0.857    2.000    0.000    1.714    0.000    0.000 
#    0.000    7.143    0.000    0.857    0.000    0.000 
#    0.000   22.857    0.000    0.000    0.000    3.429 
#
# Total GULP energy -156080.771547 kJ/mol
# GULP energy per Si atom -5574.313270 kJ/mol
# Density = 2.089734 g / cm^3
# Si number density = 20.945007 Si / 1000 Ang^3
#
#
#
# Elastic Constant Matrix: (Units=GPa)
#
#
# Indices 1 2 3 4 5 6 
#
# 1 76.1247 2.5348 6.5171 0.0000 0.0000 0.0000
# 2 2.5348 47.5549 6.0830 0.0000 0.0000 0.0000
# 3 6.5171 6.0830 138.1415 0.0000 0.0000 0.0000
# 4 0.0000 0.0000 0.0000 6.6847 0.0000 0.0000
# 5 0.0000 0.0000 0.0000 0.0000 19.2078 0.0000
# 6 0.0000 0.0000 0.0000 0.0000 0.0000 4.2895
#
#
#
# Elastic Compliance Matrix: (Units=1/GPa)
#
#
# Indices 1 2 3 4 5 6 
#
# 1 0.013208 -0.000628 -0.000595 0.000000 0.000000 0.000000
# 2 -0.000628 0.021177 -0.000903 0.000000 0.000000 0.000000
# 3 -0.000595 -0.000903 0.007307 0.000000 0.000000 0.000000
# 4 0.000000 0.000000 0.000000 0.149595 0.000000 0.000000
# 5 0.000000 0.000000 0.000000 0.000000 0.052062 0.000000
# 6 0.000000 0.000000 0.000000 0.000000 0.000000 0.233126
#
#
# Mechanical properties :
#
#
# Convention : Reuss Voigt Hill
#
# Bulk Modulus (GPa) = 26.70952 32.45454 29.58203
# Shear Modulus (GPa) = 10.13772 22.48215 16.30993
#
# Velocity S-wave (km/s) = 2.20242 3.27982 2.79355
# Velocity P-wave (km/s) = 4.38719 5.46550 4.95576
#
# Compressibility (1/GPa) = 0.03743984
#
# Stress axis : x y z
#
# Youngs Moduli (GPa) = 75.71035 47.22037 136.85874
#
# Poissons Ratio (x) = 0.02965 0.08150
# Poissons Ratio (y) = 0.04754 0.12357
# Poissons Ratio (z) = 0.04508 0.04264
#
# Static dielectric constant tensor:
#      x y z
#    x 1.772780 0.000000 0.000000 
#    y 0.000000 1.703040 0.000000 
#    z 0.000000 0.000000 1.897480 
# 
# From -- ./inp_files/20310.got.cif
#   From: 2010.05.17/outbox.cif.g08.bks.cpg/sg55_11_cif.got.tgz:20310.got - 2010.06.03 13:27:54.
