data_PCOD9425233
_publ_section_title
;
Structure prediction by ZEFSAII (Michael W. Deem and Ramdas Pophale) SiO2 
 PCOD9425233
Probable space group: P B A M
;
_chemical_formula_sum "Si O2"
_cell_formula_units_Z 64
_cell_length_a 12.331563
_cell_length_b 31.020304
_cell_length_c 7.548138
_cell_angle_alpha 90.000000
_cell_angle_beta 90.000000
_cell_angle_gamma 90.000000
_cell_volume 2887.380421
_symmetry_space_group_name_H-M "P B A M"
_symmetry_group_IT_number 55
_symmetry_cell_setting 'orthorhombic'
loop_
_space_group_symop_operation_xyz
x,y,z
-x,-y,z
1/2+x,1/2-y,-z
1/2-x,1/2+y,-z
-x,-y,-z
x,y,-z
1/2-x,1/2+y,z
1/2+x,1/2-y,z
loop_
_atom_site_type_symbol
_atom_site_label
_atom_site_fract_x
_atom_site_fract_y
_atom_site_fract_z
Si Si1 0.267395 0.321257 0.704331
Si Si2 0.505146 0.450268 0.217020
Si Si3 0.271387 0.417556 0.785549
Si Si4 0.552775 0.044325 0.215994
Si Si5 0.923639 0.369516 0.782641
Si Si6 0.454359 0.783503 0.202028
Si Si7 0.007812 0.187433 0.701993
Si Si8 0.320630 0.617145 0.794736
O O1 0.272112 0.306797 0.500000
O O2 0.236812 0.371244 0.715150
O O3 0.388168 0.318530 0.782364
O O4 0.172527 0.295043 0.795547
O O5 0.500000 0.500000 0.270540
O O6 0.392411 0.428490 0.273081
O O7 0.607914 0.422409 0.279678
O O8 0.507145 0.449385 0.000000
O O9 0.178771 0.451280 0.733790
O O10 0.272140 0.415212 0.000000
O O11 0.488657 0.087477 0.271041
O O12 0.500000 0.000000 0.278581
O O13 0.548778 0.043905 0.000000
O O14 0.980833 0.324969 0.724430
O O15 0.798820 0.373294 0.721865
O O16 0.927250 0.368240 0.000000
O O17 0.469774 0.738133 0.296028
O O18 0.490816 0.776997 0.000000
O O19 0.002346 0.171568 0.500000
O O20 0.102047 0.159061 0.787966
O O21 0.301207 0.605967 0.000000
#
# Coordination Sequence:
#
# PCOD9425233 Si02
#       8
#     8   8   8   8   8   8   8   8
#     4  11  23  40  61  84 115 153 194 243 293 343
#     4   9  18  30  51  86 119 147 188 245 296 340
#     4  10  18  33  57  83 112 151 198 242 291 347
#     4   9  17  29  51  84 117 147 183 234 290 339
#     4   9  19  34  53  84 117 145 183 234 285 337
#     4  11  23  40  62  87 115 147 192 241 290 347
#     4  11  25  42  59  84 117 152 193 237 290 349
#     4  10  20  36  58  84 116 153 193 237 289 345
#
# _framework density 22.165420000000001
#
# number of rings (size 3 to 8) (size 9 to 14) (size 15 to 20)
#    0.000    2.000    2.500    1.125    3.500    1.500 
#    0.000    0.625    0.000    1.875    0.000    0.000 
#    0.000    0.000    0.000    0.000    0.000    0.000 
#
# Total GULP energy -357514.612946 kJ/mol
# GULP energy per Si atom -5586.165827 kJ/mol
# Density = 2.211497 g / cm^3
# Si number density = 22.165420 Si / 1000 Ang^3
#
#
#
# Elastic Constant Matrix: (Units=GPa)
#
#
# Indices 1 2 3 4 5 6 
#
# 1 114.3268 15.9579 -1.2311 0.0000 0.0000 0.0000
# 2 15.9579 97.6939 -7.4361 0.0000 0.0000 0.0000
# 3 -1.2311 -7.4361 53.0039 0.0000 0.0000 0.0000
# 4 0.0000 0.0000 0.0000 3.8268 0.0000 0.0000
# 5 0.0000 0.0000 0.0000 0.0000 -6.4239 0.0000
# 6 0.0000 0.0000 0.0000 0.0000 0.0000 35.3388
#
#
#
# Elastic Compliance Matrix: (Units=1/GPa)
#
#
# Indices 1 2 3 4 5 6 
#
# 1 0.008951 -0.001462 0.000003 0.000000 0.000000 0.000000
# 2 -0.001462 0.010585 0.001451 0.000000 0.000000 0.000000
# 3 0.000003 0.001451 0.019070 0.000000 0.000000 0.000000
# 4 0.000000 0.000000 0.000000 0.261317 0.000000 0.000000
# 5 0.000000 0.000000 0.000000 0.000000 -0.155670 0.000000
# 6 0.000000 0.000000 0.000000 0.000000 0.000000 0.028297
#
#
# Mechanical properties :
#
#
# Convention : Reuss Voigt Hill
#
# Bulk Modulus (GPa) = 25.91319 31.06737 28.49028
# Shear Modulus (GPa) = 26.96434 23.73061 25.34747
#
# Velocity S-wave (km/s) = 3.49163 3.27557 3.38532
# Velocity P-wave (km/s) = 5.28881 5.32470 5.30678
#
# Compressibility (1/GPa) = 0.03859038
#
# Stress axis : x y z
#
# Youngs Moduli (GPa) = 111.72018 94.47069 52.43795
#
# Poissons Ratio (x) = 0.13811 -0.00015
# Poissons Ratio (y) = 0.16332 -0.07609
# Poissons Ratio (z) = -0.00031 -0.13708
#
# Static dielectric constant tensor:
#      x y z
#    x 1.802070 0.000000 0.000000 
#    y 0.000000 1.779190 0.000000 
#    z 0.000000 0.000000 1.842930 
# 
# From -- ./inp_files/4591.got.cif
#   From: 2010.05.17/outbox.cif.g08.bks.cpg/sg55_3_cif.got.tgz:4591.got - 2010.06.03 13:27:54.
