data_PCOD9425041
_publ_section_title
;
Structure prediction by ZEFSAII (Michael W. Deem and Ramdas Pophale) SiO2 
 PCOD9425041
Probable space group: P B A M
;
_chemical_formula_sum "Si O2"
_cell_formula_units_Z 48
_cell_length_a 8.182593
_cell_length_b 20.530821
_cell_length_c 16.180712
_cell_angle_alpha 90.000000
_cell_angle_beta 90.000000
_cell_angle_gamma 90.000000
_cell_volume 2718.284411
_symmetry_space_group_name_H-M "P B A M"
_symmetry_group_IT_number 55
_symmetry_cell_setting 'orthorhombic'
loop_
_space_group_symop_operation_xyz
x,y,z
-x,-y,z
1/2+x,1/2-y,-z
1/2-x,1/2+y,-z
-x,-y,-z
x,y,-z
1/2-x,1/2+y,z
1/2+x,1/2-y,z
loop_
_atom_site_type_symbol
_atom_site_label
_atom_site_fract_x
_atom_site_fract_y
_atom_site_fract_z
Si Si1 0.946022 0.226454 0.152813
Si Si2 0.641516 0.150869 0.091564
Si Si3 0.156038 0.349402 0.405979
Si Si4 0.238594 0.178153 0.746283
Si Si5 0.481113 0.710457 0.593761
Si Si6 0.476389 0.923261 0.749925
O O1 0.818046 0.183970 0.102908
O O2 0.851509 0.258991 0.231255
O O3 0.015626 0.288908 0.104436
O O4 0.096738 0.183885 0.184940
O O5 0.613217 0.101640 0.167030
O O6 0.622099 0.123033 0.000000
O O7 0.141331 0.375471 0.500000
O O8 0.030589 0.288750 0.397551
O O9 0.337620 0.318775 0.397845
O O10 0.118652 0.398466 0.331824
O O11 0.144111 0.182726 0.660331
O O12 0.351417 0.115217 0.750489
O O13 0.425439 0.696463 0.500000
O O14 0.500000 0.000000 0.749230
#
# Coordination Sequence:
#
# PCOD9425041 Si02
#       6
#     8   8   8   8   8   8
#     4   9  18  32  55  84 106 128 161 210 273 318
#     4  10  19  34  57  82 108 133 165 212 263 316
#     4  10  20  34  54  80 107 133 168 216 266 317
#     4  10  18  32  53  77 108 136 167 212 259 314
#     4  10  18  30  54  85 109 129 162 216 278 322
#     4  11  24  38  52  71 102 149 189 214 248 298
#
# _framework density 17.658196
#
# number of rings (size 3 to 8) (size 9 to 14) (size 15 to 20)
#    0.000    2.000    0.000    6.500    0.000    2.667 
#    0.000    4.167    0.000    3.000    0.000    0.000 
#    0.000    0.000    0.000    0.000    0.000    0.000 
#
# Total GULP energy -267875.753701 kJ/mol
# GULP energy per Si atom -5580.744869 kJ/mol
# Density = 1.761801 g / cm^3
# Si number density = 17.658196 Si / 1000 Ang^3
#
#
#
# Elastic Constant Matrix: (Units=GPa)
#
#
# Indices 1 2 3 4 5 6 
#
# 1 77.6465 25.2975 31.8854 0.0000 0.0000 0.0000
# 2 25.2975 85.6375 46.7579 0.0000 0.0000 0.0000
# 3 31.8854 46.7579 140.5998 0.0000 0.0000 0.0000
# 4 0.0000 0.0000 0.0000 6.0373 0.0000 0.0000
# 5 0.0000 0.0000 0.0000 0.0000 11.3365 0.0000
# 6 0.0000 0.0000 0.0000 0.0000 0.0000 12.5422
#
#
#
# Elastic Compliance Matrix: (Units=1/GPa)
#
#
# Indices 1 2 3 4 5 6 
#
# 1 0.014851 -0.003113 -0.002333 0.000000 0.000000 0.000000
# 2 -0.003113 0.014921 -0.004256 0.000000 0.000000 0.000000
# 3 -0.002333 -0.004256 0.009057 0.000000 0.000000 0.000000
# 4 0.000000 0.000000 0.000000 0.165637 0.000000 0.000000
# 5 0.000000 0.000000 0.000000 0.000000 0.088211 0.000000
# 6 0.000000 0.000000 0.000000 0.000000 0.000000 0.079731
#
#
# Mechanical properties :
#
#
# Convention : Reuss Voigt Hill
#
# Bulk Modulus (GPa) = 51.48127 56.86280 54.17204
# Shear Modulus (GPa) = 12.55381 19.31273 15.93327
#
# Velocity S-wave (km/s) = 2.66923 3.31070 3.00712
# Velocity P-wave (km/s) = 6.22232 6.84735 6.54230
#
# Compressibility (1/GPa) = 0.01942454
#
# Stress axis : x y z
#
# Youngs Moduli (GPa) = 67.33497 67.02151 110.41545
#
# Poissons Ratio (x) = 0.20867 0.25755
# Poissons Ratio (y) = 0.20965 0.46992
# Poissons Ratio (z) = 0.15706 0.28524
#
# Static dielectric constant tensor:
#      x y z
#    x 1.627120 0.000000 0.000000 
#    y 0.000000 1.550140 0.000000 
#    z 0.000000 0.000000 1.657930 
# 
# From -- ./inp_files/17335.got.cif
#   From: 2010.05.17/outbox.cif.g08.bks.cpg/sg55_9_cif.got.tgz:17335.got - 2010.06.03 13:27:54.
