data_PCOD9425413
_publ_section_title
;
Structure prediction by ZEFSAII (Michael W. Deem and Ramdas Pophale) SiO2 
 PCOD9425413
Probable space group: P B A M
;
_chemical_formula_sum "Si O2"
_cell_formula_units_Z 64
_cell_length_a 24.538382
_cell_length_b 15.191332
_cell_length_c 7.673352
_cell_angle_alpha 90.000000
_cell_angle_beta 90.000000
_cell_angle_gamma 90.000000
_cell_volume 2860.400856
_symmetry_space_group_name_H-M "P B A M"
_symmetry_group_IT_number 55
_symmetry_cell_setting 'orthorhombic'
loop_
_space_group_symop_operation_xyz
x,y,z
-x,-y,z
1/2+x,1/2-y,-z
1/2-x,1/2+y,-z
-x,-y,-z
x,y,-z
1/2-x,1/2+y,z
1/2+x,1/2-y,z
loop_
_atom_site_type_symbol
_atom_site_label
_atom_site_fract_x
_atom_site_fract_y
_atom_site_fract_z
Si Si1 0.042316 0.572369 0.795019
Si Si2 0.131479 0.442864 0.289958
Si Si3 0.289495 0.688331 0.199759
Si Si4 0.251903 0.875196 0.702124
Si Si5 0.556838 0.543697 0.214380
Si Si6 0.328806 0.513863 0.797116
Si Si7 0.091547 0.253931 0.290107
Si Si8 0.470702 0.267813 0.203682
O O1 0.101814 0.529211 0.777663
O O2 0.039560 0.670769 0.718848
O O3 0.000000 0.500000 0.719175
O O4 0.028614 0.580753 0.000000
O O5 0.133224 0.446912 0.500000
O O6 0.192183 0.419174 0.227085
O O7 0.094992 0.357548 0.243136
O O8 0.258569 0.770293 0.284194
O O9 0.289415 0.590031 0.277494
O O10 0.353755 0.712172 0.214136
O O11 0.270996 0.687754 0.000000
O O12 0.248224 0.897836 0.500000
O O13 0.200255 0.919892 0.788587
O O14 0.500000 0.500000 0.267602
O O15 0.610571 0.493067 0.277243
O O16 0.558136 0.645231 0.274778
O O17 0.557648 0.543612 0.000000
O O18 0.334764 0.537914 0.000000
O O19 0.093544 0.246568 0.500000
O O20 0.035503 0.215746 0.220050
O O21 0.455780 0.263296 0.000000
#
# Coordination Sequence:
#
# PCOD9425413 Si02
#       8
#     8   8   8   8   8   8   8   8
#     4  10  19  30  47  77 112 145 184 232 285 340
#     4   9  19  34  51  73 104 147 189 228 277 336
#     4  10  20  36  61  87 110 144 193 244 291 343
#     4  10  22  40  60  85 117 151 190 240 297 351
#     4   9  18  35  59  85 113 145 187 239 293 347
#     4  10  21  39  63  90 116 151 197 245 298 353
#     4  10  19  31  51  80 112 146 189 234 280 339
#     4  10  19  32  51  77 110 149 186 228 285 344
#
# _framework density 22.374486999999998
#
# number of rings (size 3 to 8) (size 9 to 14) (size 15 to 20)
#    0.000    2.250    1.250    2.625    0.000    6.250 
#    2.250    0.625    0.000    1.500    0.000    0.000 
#    0.000    0.000    0.000    0.000    0.000    0.000 
#
# Total GULP energy -357242.172315 kJ/mol
# GULP energy per Si atom -5581.908942 kJ/mol
# Density = 2.232356 g / cm^3
# Si number density = 22.374487 Si / 1000 Ang^3
#
#
#
# Elastic Constant Matrix: (Units=GPa)
#
#
# Indices 1 2 3 4 5 6 
#
# 1 56.9530 26.3880 -3.3993 0.0000 0.0000 0.0000
# 2 26.3880 130.4807 9.4013 0.0000 0.0000 0.0000
# 3 -3.3993 9.4013 44.3844 0.0000 0.0000 0.0000
# 4 0.0000 0.0000 0.0000 -0.6318 0.0000 0.0000
# 5 0.0000 0.0000 0.0000 0.0000 29.8409 0.0000
# 6 0.0000 0.0000 0.0000 0.0000 0.0000 31.2368
#
#
#
# Elastic Compliance Matrix: (Units=1/GPa)
#
#
# Indices 1 2 3 4 5 6 
#
# 1 0.019618 -0.004139 0.002379 0.000000 0.000000 0.000000
# 2 -0.004139 0.008656 -0.002150 0.000000 0.000000 0.000000
# 3 0.002379 -0.002150 0.023168 0.000000 0.000000 0.000000
# 4 0.000000 0.000000 0.000000 -1.582834 0.000000 0.000000
# 5 0.000000 0.000000 0.000000 0.000000 0.033511 0.000000
# 6 0.000000 0.000000 0.000000 0.000000 0.000000 0.032014
#
#
# Mechanical properties :
#
#
# Convention : Reuss Voigt Hill
#
# Bulk Modulus (GPa) = 22.92431 32.95533 27.93982
# Shear Modulus (GPa) = -3.46379 25.38439 10.96030
#
# Velocity S-wave (km/s) = -1.24558 3.37192 2.21567
# Velocity P-wave (km/s) = 2.86345 5.46999 4.36578
#
# Compressibility (1/GPa) = 0.04362181
#
# Stress axis : x y z
#
# Youngs Moduli (GPa) = 50.97350 115.52747 43.16268
#
# Poissons Ratio (x) = 0.47816 -0.10269
# Poissons Ratio (y) = 0.21097 0.09282
# Poissons Ratio (z) = -0.12128 0.24844
#
# Static dielectric constant tensor:
#      x y z
#    x 1.808350 0.000000 0.000000 
#    y 0.000000 1.903880 0.000000 
#    z 0.000000 0.000000 1.802980 
# 
# From -- ./inp_files/6542.got.cif
#   From: 2010.05.17/outbox.cif.g08.bks.cpg/sg55_4_cif.got.tgz:6542.got - 2010.06.03 13:27:54.
