data_PCOD9425169
_publ_section_title
;
Structure prediction by ZEFSAII (Michael W. Deem and Ramdas Pophale) SiO2 
 PCOD9425169
Probable space group: P B A M
;
_chemical_formula_sum "Si O2"
_cell_formula_units_Z 64
_cell_length_a 25.546508
_cell_length_b 14.676998
_cell_length_c 7.326457
_cell_angle_alpha 90.000000
_cell_angle_beta 90.000000
_cell_angle_gamma 90.000000
_cell_volume 2747.026089
_symmetry_space_group_name_H-M "P B A M"
_symmetry_group_IT_number 55
_symmetry_cell_setting 'orthorhombic'
loop_
_space_group_symop_operation_xyz
x,y,z
-x,-y,z
1/2+x,1/2-y,-z
1/2-x,1/2+y,-z
-x,-y,-z
x,y,-z
1/2-x,1/2+y,z
1/2+x,1/2-y,z
loop_
_atom_site_type_symbol
_atom_site_label
_atom_site_fract_x
_atom_site_fract_y
_atom_site_fract_z
Si Si1 0.867841 0.921171 0.779215
Si Si2 0.497936 0.894419 0.776562
Si Si3 0.706952 0.103903 0.222406
Si Si4 0.916854 0.256565 0.207124
Si Si5 0.698312 0.725516 0.777602
Si Si6 0.247567 0.582825 0.221831
Si Si7 0.605147 0.217426 0.777559
Si Si8 0.455447 0.434815 0.289696
O O1 0.891558 0.823313 0.720661
O O2 0.807605 0.928242 0.719269
O O3 0.902439 0.006577 0.720155
O O4 0.867940 0.922031 0.000000
O O5 0.548356 0.837140 0.713055
O O6 0.445969 0.839040 0.720582
O O7 0.500000 0.000000 0.721248
O O8 0.497892 0.893411 0.000000
O O9 0.762146 0.147105 0.281210
O O10 0.709740 0.999064 0.278934
O O11 0.657532 0.163663 0.281163
O O12 0.705493 0.106303 0.000000
O O13 0.861094 0.228751 0.289325
O O14 0.949915 0.163650 0.202102
O O15 0.905130 0.286332 0.000000
O O16 0.725396 0.819956 0.725765
O O17 0.696766 0.717972 0.000000
O O18 0.248784 0.581860 0.000000
O O19 0.605219 0.218643 0.000000
O O20 0.500000 0.500000 0.209803
O O21 0.468934 0.417171 0.500000
#
# Coordination Sequence:
#
# PCOD9425169 Si02
#       8
#     8   8   8   8   8   8   8   8
#     4  10  18  32  54  80 106 134 171 215 263 319
#     4   9  18  29  43  69 105 140 172 209 256 304
#     4   9  15  23  37  62  99 136 165 199 247 298
#     4  10  20  34  54  79 108 140 176 221 264 314
#     4   9  16  27  43  72 107 135 168 208 255 305
#     4   9  16  25  43  73 107 138 166 204 255 308
#     4   9  16  26  42  66 100 135 167 206 252 304
#     4  11  24  39  55  76 103 137 177 223 275 327
#
# _framework density 23.297922
#
# number of rings (size 3 to 8) (size 9 to 14) (size 15 to 20)
#    0.000    2.500    1.250    1.875    1.750    4.000 
#    0.000    0.000    0.000    1.125    0.000    0.000 
#    0.000    0.000    0.000    0.000    0.000    0.000 
#
# Total GULP energy -357703.864008 kJ/mol
# GULP energy per Si atom -5589.122875 kJ/mol
# Density = 2.324489 g / cm^3
# Si number density = 23.297922 Si / 1000 Ang^3
#
#
#
# Elastic Constant Matrix: (Units=GPa)
#
#
# Indices 1 2 3 4 5 6 
#
# 1 71.4834 -10.3168 -4.1808 0.0000 0.0000 0.0000
# 2 -10.3168 84.5828 -10.0615 0.0000 0.0000 0.0000
# 3 -4.1808 -10.0615 90.1515 0.0000 0.0000 0.0000
# 4 0.0000 0.0000 0.0000 53.2973 0.0000 0.0000
# 5 0.0000 0.0000 0.0000 0.0000 -13.1713 0.0000
# 6 0.0000 0.0000 0.0000 0.0000 0.0000 40.4436
#
#
#
# Elastic Compliance Matrix: (Units=1/GPa)
#
#
# Indices 1 2 3 4 5 6 
#
# 1 0.014307 0.001849 0.000870 0.000000 0.000000 0.000000
# 2 0.001849 0.012221 0.001450 0.000000 0.000000 0.000000
# 3 0.000870 0.001450 0.011295 0.000000 0.000000 0.000000
# 4 0.000000 0.000000 0.000000 0.018763 0.000000 0.000000
# 5 0.000000 0.000000 0.000000 0.000000 -0.075922 0.000000
# 6 0.000000 0.000000 0.000000 0.000000 0.000000 0.024726
#
#
# Mechanical properties :
#
#
# Convention : Reuss Voigt Hill
#
# Bulk Modulus (GPa) = 21.66470 21.89994 21.78232
# Shear Modulus (GPa) = 401.98738 34.16571 218.07654
#
# Velocity S-wave (km/s) = 13.14978 3.83361 9.68538
# Velocity P-wave (km/s) = 15.48789 5.38663 11.59505
#
# Compressibility (1/GPa) = 0.04615803
#
# Stress axis : x y z
#
# Youngs Moduli (GPa) = 69.89620 81.82877 88.53811
#
# Poissons Ratio (x) = -0.15126 -0.07701
# Poissons Ratio (y) = -0.12920 -0.12835
# Poissons Ratio (z) = -0.06080 -0.11862
#
# Static dielectric constant tensor:
#      x y z
#    x 1.868830 0.000000 0.000000 
#    y 0.000000 1.805550 0.000000 
#    z 0.000000 0.000000 1.923890 
# 
# From -- ./inp_files/9729.got.cif
#   From: 2010.05.17/outbox.cif.g08.bks.cpg/sg55_5_cif.got.tgz:9729.got - 2010.06.03 13:27:54.
