data_PCOD9425302
_publ_section_title
;
Structure prediction by ZEFSAII (Michael W. Deem and Ramdas Pophale) SiO2 
 PCOD9425302
Probable space group: P B A M
;
_chemical_formula_sum "Si O2"
_cell_formula_units_Z 58
_cell_length_a 9.579469
_cell_length_b 20.715968
_cell_length_c 17.014427
_cell_angle_alpha 90.000000
_cell_angle_beta 90.000000
_cell_angle_gamma 90.000000
_cell_volume 3376.478554
_symmetry_space_group_name_H-M "P B A M"
_symmetry_group_IT_number 55
_symmetry_cell_setting 'orthorhombic'
loop_
_space_group_symop_operation_xyz
x,y,z
-x,-y,z
1/2+x,1/2-y,-z
1/2-x,1/2+y,-z
-x,-y,-z
x,y,-z
1/2-x,1/2+y,z
1/2+x,1/2-y,z
loop_
_atom_site_type_symbol
_atom_site_label
_atom_site_fract_x
_atom_site_fract_y
_atom_site_fract_z
Si Si1 0.782942 0.856038 0.716148
Si Si2 0.407166 0.344586 0.321720
Si Si3 0.500000 0.000000 0.500000
Si Si4 0.534792 0.927510 0.212538
Si Si5 0.128836 0.398854 0.372631
Si Si6 0.024960 0.315358 0.092711
Si Si7 0.916729 0.291164 0.590650
Si Si8 0.790449 0.234146 0.823121
O O1 0.690631 0.912320 0.755455
O O2 0.697980 0.831551 0.639620
O O3 0.777467 0.793910 0.774291
O O4 0.940887 0.873450 0.695709
O O5 0.294631 0.389924 0.364435
O O6 0.430232 0.279445 0.372426
O O7 0.339030 0.318345 0.240784
O O8 0.574076 0.045955 0.568909
O O9 0.434842 0.910139 0.285990
O O10 0.508320 0.880531 0.139863
O O11 0.500000 0.000000 0.190897
O O12 0.060623 0.330914 0.400088
O O13 0.921192 0.262730 0.130347
O O14 0.179653 0.294373 0.116921
O O15 0.006753 0.320911 0.000000
O O16 0.877800 0.287870 0.500000
#
# Coordination Sequence:
#
# PCOD9425302 Si02
#       8
#     8   8   2   8   8   8   8   8
#     4   9  20  34  56  82 115 150 191 241 287 353
#     4  11  20  34  57  87 114 149 193 241 304 360
#     4  12  24  40  60  82 114 160 218 246 280 352
#     4  10  21  40  61  78 109 162 202 236 287 349
#     4  11  22  38  62  80 112 160 200 240 295 354
#     4  11  21  34  59  91 120 153 194 242 298 357
#     4  10  20  33  53  84 119 150 185 237 301 355
#     4  10  18  35  56  86 124 153 182 239 301 364
#
# _framework density 17.177661000000001
#
# number of rings (size 3 to 8) (size 9 to 14) (size 15 to 20)
#    0.000    1.655    4.138    2.897    0.966    1.931 
#    0.000    0.690    0.000    3.310    0.000    0.966 
#    0.000    0.000    0.000    0.000    0.000    0.000 
#
# Total GULP energy -323195.517677 kJ/mol
# GULP energy per Si atom -5572.336512 kJ/mol
# Density = 1.713856 g / cm^3
# Si number density = 17.177661 Si / 1000 Ang^3
#
#
#
# Elastic Constant Matrix: (Units=GPa)
#
#
# Indices 1 2 3 4 5 6 
#
# 1 112.2703 42.6194 16.4453 0.0000 0.0000 0.0000
# 2 42.6194 70.9881 25.1896 0.0000 0.0000 0.0000
# 3 16.4453 25.1896 111.5494 0.0000 0.0000 0.0000
# 4 0.0000 0.0000 0.0000 3.6718 0.0000 0.0000
# 5 0.0000 0.0000 0.0000 0.0000 16.1621 0.0000
# 6 0.0000 0.0000 0.0000 0.0000 0.0000 7.2028
#
#
#
# Elastic Compliance Matrix: (Units=1/GPa)
#
#
# Indices 1 2 3 4 5 6 
#
# 1 0.011539 -0.006875 -0.000149 0.000000 0.000000 0.000000
# 2 -0.006875 0.019410 -0.003370 0.000000 0.000000 0.000000
# 3 -0.000149 -0.003370 0.009747 0.000000 0.000000 0.000000
# 4 0.000000 0.000000 0.000000 0.272347 0.000000 0.000000
# 5 0.000000 0.000000 0.000000 0.000000 0.061873 0.000000
# 6 0.000000 0.000000 0.000000 0.000000 0.000000 0.138834
#
#
# Mechanical properties :
#
#
# Convention : Reuss Voigt Hill
#
# Bulk Modulus (GPa) = 50.22578 51.47960 50.85269
# Shear Modulus (GPa) = 9.23919 19.44423 14.34171
#
# Velocity S-wave (km/s) = 2.32170 3.36809 2.89261
# Velocity P-wave (km/s) = 6.04066 6.72007 6.38940
#
# Compressibility (1/GPa) = 0.01991009
#
# Stress axis : x y z
#
# Youngs Moduli (GPa) = 86.66561 51.51994 102.59087
#
# Poissons Ratio (x) = 0.35419 0.01525
# Poissons Ratio (y) = 0.59580 0.34569
# Poissons Ratio (z) = 0.01288 0.17360
#
# Static dielectric constant tensor:
#      x y z
#    x 1.600840 0.000000 0.000000 
#    y 0.000000 1.581320 0.000000 
#    z 0.000000 0.000000 1.577890 
# 
# From -- ./inp_files/21004.got.cif
#   From: 2010.05.17/outbox.cif.g08.bks.cpg/sg55_11_cif.got.tgz:21004.got - 2010.06.03 13:27:54.
