data_PCOD9425751
_publ_section_title
;
Structure prediction by ZEFSAII (Michael W. Deem and Ramdas Pophale) SiO2 
 PCOD9425751
Probable space group: P B A M
;
_chemical_formula_sum "Si O2"
_cell_formula_units_Z 64
_cell_length_a 5.757058
_cell_length_b 27.505828
_cell_length_c 17.867494
_cell_angle_alpha 90.000000
_cell_angle_beta 90.000000
_cell_angle_gamma 90.000000
_cell_volume 2829.364973
_symmetry_space_group_name_H-M "P B A M"
_symmetry_group_IT_number 55
_symmetry_cell_setting 'orthorhombic'
loop_
_space_group_symop_operation_xyz
x,y,z
-x,-y,z
1/2+x,1/2-y,-z
1/2-x,1/2+y,-z
-x,-y,-z
x,y,-z
1/2-x,1/2+y,z
1/2+x,1/2-y,z
loop_
_atom_site_type_symbol
_atom_site_label
_atom_site_fract_x
_atom_site_fract_y
_atom_site_fract_z
Si Si1 0.853088 0.383419 0.181377
Si Si2 0.455498 0.235567 0.642324
Si Si3 0.660672 0.043938 0.257842
Si Si4 0.087183 0.896008 0.359834
Si Si5 0.915003 0.368188 0.585713
Si Si6 0.259779 0.847841 0.082603
Si Si7 0.464113 0.448544 0.116245
Si Si8 0.025892 0.813424 0.766309
O O1 0.685968 0.428070 0.160506
O O2 0.716756 0.336109 0.207507
O O3 0.011586 0.406577 0.246229
O O4 0.989347 0.367027 0.107582
O O5 0.712003 0.244977 0.607299
O O6 0.420609 0.178478 0.639246
O O7 0.474608 0.262368 0.723162
O O8 0.872314 0.055470 0.312191
O O9 0.766574 0.037491 0.176028
O O10 0.500000 0.000000 0.281731
O O11 0.328451 0.892432 0.406765
O O12 0.831936 0.894811 0.397076
O O13 0.093359 0.851487 0.299752
O O14 0.896169 0.351056 0.500000
O O15 0.116325 0.898432 0.078670
O O16 0.174374 0.818100 0.156602
O O17 0.252824 0.824603 0.000000
O O18 0.500000 0.500000 0.076518
#
# Coordination Sequence:
#
# PCOD9425751 Si02
#       8
#     8   8   8   8   8   8   8   8
#     4  10  19  35  58  85 136 172 229 290 345 402
#     4  12  25  41  71 107 137 173 224 280 349 424
#     4  11  21  34  64 101 133 175 243 300 340 393
#     4  12  23  43  72 102 140 186 232 278 344 410
#     4  12  27  47  70 105 148 180 215 274 359 440
#     4  10  23  38  58  88 131 189 235 284 360 426
#     4  10  19  32  57  88 131 171 231 305 358 403
#     4  11  22  39  66  96 130 173 235 285 339 414
#
# _framework density 22.619918999999999
#
# number of rings (size 3 to 8) (size 9 to 14) (size 15 to 20)
#    0.000    1.000    7.500    1.125    1.750    2.750 
#    0.000    0.625    0.000    3.000    0.000    0.000 
#    0.000    0.000    0.000    0.000    0.000    0.000 
#
# Total GULP energy -356557.151954 kJ/mol
# GULP energy per Si atom -5571.205499 kJ/mol
# Density = 2.256843 g / cm^3
# Si number density = 22.619919 Si / 1000 Ang^3
#
#
#
# Elastic Constant Matrix: (Units=GPa)
#
#
# Indices 1 2 3 4 5 6 
#
# 1 144.2083 10.9046 19.1045 0.0000 0.0000 0.0000
# 2 10.9046 49.6377 29.2780 0.0000 0.0000 0.0000
# 3 19.1045 29.2780 93.3719 0.0000 0.0000 0.0000
# 4 0.0000 0.0000 0.0000 -5.8988 0.0000 0.0000
# 5 0.0000 0.0000 0.0000 0.0000 -43.6329 0.0000
# 6 0.0000 0.0000 0.0000 0.0000 0.0000 34.3767
#
#
#
# Elastic Compliance Matrix: (Units=1/GPa)
#
#
# Indices 1 2 3 4 5 6 
#
# 1 0.007158 -0.000869 -0.001192 0.000000 0.000000 0.000000
# 2 -0.000869 0.024823 -0.007606 0.000000 0.000000 0.000000
# 3 -0.001192 -0.007606 0.013339 0.000000 0.000000 0.000000
# 4 0.000000 0.000000 0.000000 -0.169525 0.000000 0.000000
# 5 0.000000 0.000000 0.000000 0.000000 -0.022918 0.000000
# 6 0.000000 0.000000 0.000000 0.000000 0.000000 0.029090
#
#
# Mechanical properties :
#
#
# Convention : Reuss Voigt Hill
#
# Bulk Modulus (GPa) = 38.48295 45.08799 41.78547
# Shear Modulus (GPa) = -55.53208 12.16436 -21.68386
#
# Velocity S-wave (km/s) = -4.96018 2.32151 -3.09951
# Velocity P-wave (km/s) = 3.96922 5.21172 2.38823
#
# Compressibility (1/GPa) = 0.02598554
#
# Stress axis : x y z
#
# Youngs Moduli (GPa) = 139.70251 40.28505 74.97031
#
# Poissons Ratio (x) = 0.03503 0.08936
# Poissons Ratio (y) = 0.12147 0.57020
# Poissons Ratio (z) = 0.16652 0.30640
#
# Static dielectric constant tensor:
#      x y z
#    x 1.959790 0.000000 0.000000 
#    y 0.000000 1.850580 0.000000 
#    z 0.000000 0.000000 1.948400 
# 
# From -- ./inp_files/20549.got.cif
#   From: 2010.05.17/outbox.cif.g08.bks.cpg/sg55_11_cif.got.tgz:20549.got - 2010.06.03 13:27:54.
