data_PCOD9425398
_publ_section_title
;
Structure prediction by ZEFSAII (Michael W. Deem and Ramdas Pophale) SiO2 
 PCOD9425398
Probable space group: P B A M
;
_chemical_formula_sum "Si O2"
_cell_formula_units_Z 64
_cell_length_a 33.871058
_cell_length_b 12.029961
_cell_length_c 7.410979
_cell_angle_alpha 90.000000
_cell_angle_beta 90.000000
_cell_angle_gamma 90.000000
_cell_volume 3019.733136
_symmetry_space_group_name_H-M "P B A M"
_symmetry_group_IT_number 55
_symmetry_cell_setting 'orthorhombic'
loop_
_space_group_symop_operation_xyz
x,y,z
-x,-y,z
1/2+x,1/2-y,-z
1/2-x,1/2+y,-z
-x,-y,-z
x,y,-z
1/2-x,1/2+y,z
1/2+x,1/2-y,z
loop_
_atom_site_type_symbol
_atom_site_label
_atom_site_fract_x
_atom_site_fract_y
_atom_site_fract_z
Si Si1 0.211143 0.416428 0.780948
Si Si2 0.867938 0.457045 0.220231
Si Si3 0.799844 0.039622 0.221591
Si Si4 0.363581 0.290371 0.790320
Si Si5 0.833102 0.803301 0.219763
Si Si6 0.475046 0.658500 0.714397
Si Si7 0.589937 0.174559 0.784686
Si Si8 0.941325 0.073837 0.281623
O O1 0.175446 0.497824 0.728250
O O2 0.254522 0.450465 0.720382
O O3 0.198068 0.292240 0.727679
O O4 0.211720 0.417591 0.000000
O O5 0.873242 0.331361 0.285268
O O6 0.899091 0.551164 0.281377
O O7 0.869908 0.456982 0.000000
O O8 0.826185 0.143173 0.284798
O O9 0.820181 0.924748 0.279944
O O10 0.800101 0.039334 0.000000
O O11 0.401230 0.370765 0.781602
O O12 0.353949 0.271114 0.000000
O O13 0.875886 0.759241 0.281391
O O14 0.833921 0.805891 0.000000
O O15 0.477293 0.644662 0.500000
O O16 0.452435 0.772492 0.748507
O O17 0.449372 0.552714 0.780410
O O18 0.519903 0.643032 0.778531
O O19 0.594133 0.171048 0.000000
O O20 0.939684 0.074156 0.500000
#
# Coordination Sequence:
#
# PCOD9425398 Si02
#       8
#     8   8   8   8   8   8   8   8
#     4   8  14  23  36  56  89 127 153 184 234 276
#     4   8  16  29  43  63  98 134 158 189 237 284
#     4   9  16  22  36  62  90 119 153 195 232 268
#     4  10  19  30  46  71  98 125 161 199 232 277
#     4   8  14  23  35  57  87 116 150 188 226 271
#     4   9  18  33  53  73  93 118 154 196 235 286
#     4   9  16  29  48  68  93 126 157 192 238 279
#     4   9  19  35  51  70  97 125 150 188 244 291
#
# _framework density 21.193926000000001
#
# number of rings (size 3 to 8) (size 9 to 14) (size 15 to 20)
#    0.000    3.250    0.000    3.000    1.750    2.000 
#    0.000    2.500    0.000    3.750    0.000    4.375 
#    0.000    0.000    0.000    0.000    0.000    0.000 
#
# Total GULP energy -357019.332915 kJ/mol
# GULP energy per Si atom -5578.427077 kJ/mol
# Density = 2.114569 g / cm^3
# Si number density = 21.193926 Si / 1000 Ang^3
#
#
#
# Elastic Constant Matrix: (Units=GPa)
#
#
# Indices 1 2 3 4 5 6 
#
# 1 42.1670 -0.2022 -10.7224 0.0000 0.0000 0.0000
# 2 -0.2022 50.8156 -2.2124 0.0000 0.0000 0.0000
# 3 -10.7224 -2.2124 65.5179 0.0000 0.0000 0.0000
# 4 0.0000 0.0000 0.0000 328.7569 0.0000 0.0000
# 5 0.0000 0.0000 0.0000 0.0000 53.6752 0.0000
# 6 0.0000 0.0000 0.0000 0.0000 0.0000 15.5150
#
#
#
# Elastic Compliance Matrix: (Units=1/GPa)
#
#
# Indices 1 2 3 4 5 6 
#
# 1 0.024749 0.000275 0.004060 0.000000 0.000000 0.000000
# 2 0.000275 0.019711 0.000711 0.000000 0.000000 0.000000
# 3 0.004060 0.000711 0.015951 0.000000 0.000000 0.000000
# 4 0.000000 0.000000 0.000000 0.003042 0.000000 0.000000
# 5 0.000000 0.000000 0.000000 0.000000 0.018631 0.000000
# 6 0.000000 0.000000 0.000000 0.000000 0.000000 0.064454
#
#
# Mechanical properties :
#
#
# Convention : Reuss Voigt Hill
#
# Bulk Modulus (GPa) = 14.18395 14.69183 14.43789
# Shear Modulus (GPa) = 31.26032 91.03190 61.14611
#
# Velocity S-wave (km/s) = 3.84470 6.56088 5.37712
# Velocity P-wave (km/s) = 5.13964 8.02126 6.73634
#
# Compressibility (1/GPa) = 0.07050220
#
# Stress axis : x y z
#
# Youngs Moduli (GPa) = 40.40588 50.73306 62.69047
#
# Poissons Ratio (x) = -0.01396 -0.25450
# Poissons Ratio (y) = -0.01112 -0.04455
# Poissons Ratio (z) = -0.16403 -0.03605
#
# Static dielectric constant tensor:
#      x y z
#    x 1.739030 0.000000 0.000000 
#    y 0.000000 1.757650 0.000000 
#    z 0.000000 0.000000 1.846040 
# 
# From -- ./inp_files/16061.got.cif
#   From: 2010.05.17/outbox.cif.g08.bks.cpg/sg55_9_cif.got.tgz:16061.got - 2010.06.03 13:27:54.
