data_PCOD9425127
_publ_section_title
;
Structure prediction by ZEFSAII (Michael W. Deem and Ramdas Pophale) SiO2 
 PCOD9425127
Probable space group: P B A M
;
_chemical_formula_sum "Si O2"
_cell_formula_units_Z 48
_cell_length_a 13.872059
_cell_length_b 18.583473
_cell_length_c 8.824525
_cell_angle_alpha 90.000000
_cell_angle_beta 90.000000
_cell_angle_gamma 90.000000
_cell_volume 2274.883423
_symmetry_space_group_name_H-M "P B A M"
_symmetry_group_IT_number 55
_symmetry_cell_setting 'orthorhombic'
loop_
_space_group_symop_operation_xyz
x,y,z
-x,-y,z
1/2+x,1/2-y,-z
1/2-x,1/2+y,-z
-x,-y,-z
x,y,-z
1/2-x,1/2+y,z
1/2+x,1/2-y,z
loop_
_atom_site_type_symbol
_atom_site_label
_atom_site_fract_x
_atom_site_fract_y
_atom_site_fract_z
Si Si1 0.110330 0.987304 0.184448
Si Si2 0.736215 0.119817 0.174928
Si Si3 0.823453 0.854291 0.820679
Si Si4 0.109592 0.523821 0.164721
Si Si5 0.125825 0.664379 0.675372
Si Si6 0.580352 0.225854 0.680943
O O1 0.166789 0.061440 0.223106
O O2 0.162800 0.913450 0.236899
O O3 0.111487 0.982601 0.000000
O O4 0.000000 0.000000 0.232248
O O5 0.669307 0.177167 0.259556
O O6 0.672839 0.046990 0.174330
O O7 0.749161 0.143828 0.000000
O O8 0.721757 0.820059 0.769801
O O9 0.903670 0.806158 0.740147
O O10 0.836027 0.849482 0.000000
O O11 0.118239 0.578727 0.301380
O O12 0.000000 0.500000 0.159184
O O13 0.133499 0.559387 0.000000
O O14 0.139896 0.683993 0.500000
O O15 0.024413 0.696457 0.731587
O O16 0.581394 0.223281 0.500000
#
# Coordination Sequence:
#
# PCOD9425127 Si02
#       6
#     8   8   8   8   8   8
#     4   9  19  37  62  91 120 152 201 258 307 357
#     4  10  19  35  60  90 120 154 200 254 304 361
#     4  11  23  41  64  89 120 163 209 256 310 369
#     4  10  18  31  56  88 118 146 193 250 297 357
#     4  11  23  38  59  86 121 160 198 247 312 377
#     4  11  25  41  58  89 128 163 202 254 315 378
#
# _framework density 21.099982000000001
#
# number of rings (size 3 to 8) (size 9 to 14) (size 15 to 20)
#    0.000    1.667    3.333    1.500    0.000    4.333 
#    0.000    1.667    0.000    3.500    0.000    0.000 
#    0.000    0.000    0.000    0.000    0.000    0.000 
#
# Total GULP energy -267754.342678 kJ/mol
# GULP energy per Si atom -5578.215472 kJ/mol
# Density = 2.105196 g / cm^3
# Si number density = 21.099982 Si / 1000 Ang^3
#
#
#
# Elastic Constant Matrix: (Units=GPa)
#
#
# Indices 1 2 3 4 5 6 
#
# 1 99.2280 9.2090 16.2697 0.0000 0.0000 0.0000
# 2 9.2090 48.7620 12.2610 0.0000 0.0000 0.0000
# 3 16.2697 12.2610 31.8502 0.0000 0.0000 0.0000
# 4 0.0000 0.0000 0.0000 22.5216 0.0000 0.0000
# 5 0.0000 0.0000 0.0000 0.0000 15.3148 0.0000
# 6 0.0000 0.0000 0.0000 0.0000 0.0000 30.4509
#
#
#
# Elastic Compliance Matrix: (Units=1/GPa)
#
#
# Indices 1 2 3 4 5 6 
#
# 1 0.011023 -0.000737 -0.005347 0.000000 0.000000 0.000000
# 2 -0.000737 0.022755 -0.008383 0.000000 0.000000 0.000000
# 3 -0.005347 -0.008383 0.037355 0.000000 0.000000 0.000000
# 4 0.000000 0.000000 0.000000 0.044402 0.000000 0.000000
# 5 0.000000 0.000000 0.000000 0.000000 0.065296 0.000000
# 6 0.000000 0.000000 0.000000 0.000000 0.000000 0.032840
#
#
# Mechanical properties :
#
#
# Convention : Reuss Voigt Hill
#
# Bulk Modulus (GPa) = 23.69741 28.36885 26.03313
# Shear Modulus (GPa) = 19.48014 23.13083 21.30549
#
# Velocity S-wave (km/s) = 3.04177 3.31456 3.18109
# Velocity P-wave (km/s) = 4.85714 5.30307 5.08500
#
# Compressibility (1/GPa) = 0.04219871
#
# Stress axis : x y z
#
# Youngs Moduli (GPa) = 90.72001 43.94666 26.76993
#
# Poissons Ratio (x) = 0.03240 0.14314
# Poissons Ratio (y) = 0.06689 0.22441
# Poissons Ratio (z) = 0.48507 0.36841
#
# Static dielectric constant tensor:
#      x y z
#    x 1.833330 0.000000 0.000000 
#    y 0.000000 1.767790 0.000000 
#    z 0.000000 0.000000 1.742600 
# 
# From -- ./inp_files/5594.got.cif
#   From: 2010.05.17/outbox.cif.g08.bks.cpg/sg55_3_cif.got.tgz:5594.got - 2010.06.03 13:27:54.
