data_PCOD9425920
_publ_section_title
;
Structure prediction by ZEFSAII (Michael W. Deem and Ramdas Pophale) SiO2 
 PCOD9425920
Probable space group: P B A M
;
_chemical_formula_sum "Si O2"
_cell_formula_units_Z 48
_cell_length_a 15.344985
_cell_length_b 20.332646
_cell_length_c 8.449948
_cell_angle_alpha 90.000000
_cell_angle_beta 90.000000
_cell_angle_gamma 90.000000
_cell_volume 2636.418825
_symmetry_space_group_name_H-M "P B A M"
_symmetry_group_IT_number 55
_symmetry_cell_setting 'orthorhombic'
loop_
_space_group_symop_operation_xyz
x,y,z
-x,-y,z
1/2+x,1/2-y,-z
1/2-x,1/2+y,-z
-x,-y,-z
x,y,-z
1/2-x,1/2+y,z
1/2+x,1/2-y,z
loop_
_atom_site_type_symbol
_atom_site_label
_atom_site_fract_x
_atom_site_fract_y
_atom_site_fract_z
Si Si1 0.620237 0.188662 0.191676
Si Si2 0.306176 0.340926 0.686786
Si Si3 0.011132 0.803040 0.187928
Si Si4 0.277577 0.487061 0.811361
Si Si5 0.438473 0.560911 0.687607
Si Si6 0.583799 0.039655 0.807349
O O1 0.717626 0.194827 0.259429
O O2 0.553550 0.245167 0.242002
O O3 0.586158 0.116228 0.239309
O O4 0.626598 0.189850 0.000000
O O5 0.304276 0.352482 0.500000
O O6 0.394012 0.303227 0.732833
O O7 0.306551 0.412409 0.771048
O O8 0.966984 0.872914 0.226408
O O9 0.023007 0.796530 0.000000
O O10 0.341098 0.537915 0.726839
O O11 0.176614 0.491343 0.760883
O O12 0.283381 0.496228 0.000000
O O13 0.500000 0.500000 0.737508
O O14 0.450174 0.570369 0.500000
O O15 0.500000 0.000000 0.749890
O O16 0.582146 0.038827 0.000000
#
# Coordination Sequence:
#
# PCOD9425920 Si02
#       6
#     8   8   8   8   8   8
#     4   9  20  38  58  82 109 144 190 233 275 332
#     4  11  21  35  57  81 110 149 185 223 282 340
#     4  11  22  37  58  82 111 147 191 239 281 332
#     4  10  19  33  56  83 110 144 187 230 275 331
#     4  11  22  35  54  82 114 147 183 229 287 342
#     4   8  15  32  58  84 109 137 177 226 276 325
#
# _framework density 18.206516000000001
#
# number of rings (size 3 to 8) (size 9 to 14) (size 15 to 20)
#    0.000    2.000    1.667    4.000    0.000    2.000 
#    3.000    0.000    0.000   12.500    0.000    0.000 
#    0.000    0.000    0.000    0.000    0.000    0.000 
#
# Total GULP energy -267970.273661 kJ/mol
# GULP energy per Si atom -5582.714035 kJ/mol
# Density = 1.816508 g / cm^3
# Si number density = 18.206516 Si / 1000 Ang^3
#
#
#
# Elastic Constant Matrix: (Units=GPa)
#
#
# Indices 1 2 3 4 5 6 
#
# 1 152.0324 69.4534 2.8597 0.0000 0.0000 0.0000
# 2 69.4534 69.2456 0.6760 0.0000 0.0000 0.0000
# 3 2.8597 0.6760 12.7545 0.0000 0.0000 0.0000
# 4 0.0000 0.0000 0.0000 -7.6488 0.0000 0.0000
# 5 0.0000 0.0000 0.0000 0.0000 -12.0293 0.0000
# 6 0.0000 0.0000 0.0000 0.0000 0.0000 34.9603
#
#
#
# Elastic Compliance Matrix: (Units=1/GPa)
#
#
# Indices 1 2 3 4 5 6 
#
# 1 0.012196 -0.012212 -0.002087 0.000000 0.000000 0.000000
# 2 -0.012212 0.026677 0.001324 0.000000 0.000000 0.000000
# 3 -0.002087 0.001324 0.078802 0.000000 0.000000 0.000000
# 4 0.000000 0.000000 0.000000 -0.130739 0.000000 0.000000
# 5 0.000000 0.000000 0.000000 0.000000 -0.083131 0.000000
# 6 0.000000 0.000000 0.000000 0.000000 0.000000 0.028604
#
#
# Mechanical properties :
#
#
# Convention : Reuss Voigt Hill
#
# Bulk Modulus (GPa) = 10.90223 42.22342 26.56282
# Shear Modulus (GPa) = -451.77199 13.79266 -218.98967
#
# Velocity S-wave (km/s) = -15.76947 2.75538 -10.97916
# Velocity P-wave (km/s) = 18.04348 5.77621 12.08724
#
# Compressibility (1/GPa) = 0.09172436
#
# Stress axis : x y z
#
# Youngs Moduli (GPa) = 81.99708 37.48564 12.69010
#
# Poissons Ratio (x) = 0.45777 0.02649
# Poissons Ratio (y) = 1.00133 -0.01680
# Poissons Ratio (z) = 0.17114 -0.04964
#
# Static dielectric constant tensor:
#      x y z
#    x 1.630650 0.000000 0.000000 
#    y 0.000000 1.600000 0.000000 
#    z 0.000000 0.000000 1.611620 
# 
# From -- ./inp_files/5540.got.cif
#   From: 2010.05.17/outbox.cif.g08.bks.cpg/sg55_3_cif.got.tgz:5540.got - 2010.06.03 13:27:54.
