data_PCOD9425991
_publ_section_title
;
Structure prediction by ZEFSAII (Michael W. Deem and Ramdas Pophale) SiO2 
 PCOD9425991
Probable space group: P B A M
;
_chemical_formula_sum "Si O2"
_cell_formula_units_Z 48
_cell_length_a 8.828695
_cell_length_b 16.393555
_cell_length_c 15.984680
_cell_angle_alpha 90.000000
_cell_angle_beta 90.000000
_cell_angle_gamma 90.000000
_cell_volume 2313.521833
_symmetry_space_group_name_H-M "P B A M"
_symmetry_group_IT_number 55
_symmetry_cell_setting 'orthorhombic'
loop_
_space_group_symop_operation_xyz
x,y,z
-x,-y,z
1/2+x,1/2-y,-z
1/2-x,1/2+y,-z
-x,-y,-z
x,y,-z
1/2-x,1/2+y,z
1/2+x,1/2-y,z
loop_
_atom_site_type_symbol
_atom_site_label
_atom_site_fract_x
_atom_site_fract_y
_atom_site_fract_z
Si Si1 0.044358 0.634529 0.000000
Si Si2 0.251310 0.484413 0.000000
Si Si3 0.982255 0.657806 0.189274
Si Si4 0.479875 0.676199 0.283275
Si Si5 0.149304 0.940958 0.404288
Si Si6 0.777688 0.441245 0.289110
Si Si7 0.343240 0.424275 0.829599
O O1 0.037611 0.676412 0.092944
O O2 0.190457 0.576121 0.000000
O O3 0.898793 0.573801 0.000000
O O4 0.344598 0.460659 0.920058
O O5 0.986066 0.730309 0.257306
O O6 0.082765 0.586303 0.231676
O O7 0.810710 0.627793 0.180432
O O8 0.602615 0.637592 0.347935
O O9 0.317399 0.640409 0.310358
O O10 0.520721 0.633059 0.195553
O O11 0.176101 0.917439 0.500000
O O12 0.285756 0.997841 0.368612
O O13 0.000000 0.000000 0.401638
O O14 0.674030 0.500219 0.232642
#
# Coordination Sequence:
#
# PCOD9425991 Si02
#       7
#     4   4   8   8   8   8   8
#     4   9  18  31  50  73 105 144 187 215 256 325
#     4   9  16  31  51  74  95 141 193 217 246 321
#     4  11  20  34  54  77 108 145 184 223 270 319
#     4  10  21  34  51  81 111 134 172 230 281 319
#     4   8  16  34  58  78 101 138 175 207 260 336
#     4  10  19  34  56  79 103 138 186 224 262 322
#     4  10  19  34  54  74 102 146 185 221 262 318
#
# _framework density 20.747589000000001
#
# number of rings (size 3 to 8) (size 9 to 14) (size 15 to 20)
#    0.000    2.333    1.667    3.000    0.000    0.667 
#    0.000    6.667    0.000   18.000    0.000    0.000 
#    0.000    0.000    0.000    0.000    0.000    0.000 
#
# Total GULP energy -267321.538789 kJ/mol
# GULP energy per Si atom -5569.198725 kJ/mol
# Density = 2.070037 g / cm^3
# Si number density = 20.747589 Si / 1000 Ang^3
#
#
#
# Elastic Constant Matrix: (Units=GPa)
#
#
# Indices 1 2 3 4 5 6 
#
# 1 36.8072 14.0438 7.0655 0.0000 0.0000 0.0000
# 2 14.0438 87.3213 32.0101 0.0000 0.0000 0.0000
# 3 7.0655 32.0101 130.1757 0.0000 0.0000 0.0000
# 4 0.0000 0.0000 0.0000 19.9639 0.0000 0.0000
# 5 0.0000 0.0000 0.0000 0.0000 15.9925 0.0000
# 6 0.0000 0.0000 0.0000 0.0000 0.0000 17.8480
#
#
#
# Elastic Compliance Matrix: (Units=1/GPa)
#
#
# Indices 1 2 3 4 5 6 
#
# 1 0.028971 -0.004487 -0.000469 0.000000 0.000000 0.000000
# 2 -0.004487 0.013282 -0.003022 0.000000 0.000000 0.000000
# 3 -0.000469 -0.003022 0.008451 0.000000 0.000000 0.000000
# 4 0.000000 0.000000 0.000000 0.050091 0.000000 0.000000
# 5 0.000000 0.000000 0.000000 0.000000 0.062529 0.000000
# 6 0.000000 0.000000 0.000000 0.000000 0.000000 0.056029
#
#
# Mechanical properties :
#
#
# Convention : Reuss Voigt Hill
#
# Bulk Modulus (GPa) = 28.78078 40.06034 34.42056
# Shear Modulus (GPa) = 20.25187 24.17320 22.21253
#
# Velocity S-wave (km/s) = 3.12766 3.41707 3.27556
# Velocity P-wave (km/s) = 5.19086 5.90922 5.56165
#
# Compressibility (1/GPa) = 0.03474540
#
# Stress axis : x y z
#
# Youngs Moduli (GPa) = 34.51753 75.29217 118.33511
#
# Poissons Ratio (x) = 0.33787 0.05550
# Poissons Ratio (y) = 0.15489 0.35765
# Poissons Ratio (z) = 0.01619 0.22756
#
# Static dielectric constant tensor:
#      x y z
#    x 1.780830 0.000000 0.000000 
#    y 0.000000 1.759760 0.000000 
#    z 0.000000 0.000000 1.880410 
# 
# From -- ./inp_files/20822.got.cif
#   From: 2010.05.17/outbox.cif.g08.bks.cpg/sg55_11_cif.got.tgz:20822.got - 2010.06.03 13:27:54.
