data_PCOD9425908
_publ_section_title
;
Structure prediction by ZEFSAII (Michael W. Deem and Ramdas Pophale) SiO2 
 PCOD9425908
Probable space group: P B A M
;
_chemical_formula_sum "Si O2"
_cell_formula_units_Z 56
_cell_length_a 15.149132
_cell_length_b 22.678723
_cell_length_c 7.914799
_cell_angle_alpha 90.000000
_cell_angle_beta 90.000000
_cell_angle_gamma 90.000000
_cell_volume 2719.231838
_symmetry_space_group_name_H-M "P B A M"
_symmetry_group_IT_number 55
_symmetry_cell_setting 'orthorhombic'
loop_
_space_group_symop_operation_xyz
x,y,z
-x,-y,z
1/2+x,1/2-y,-z
1/2-x,1/2+y,-z
-x,-y,-z
x,y,-z
1/2-x,1/2+y,z
1/2+x,1/2-y,z
loop_
_atom_site_type_symbol
_atom_site_label
_atom_site_fract_x
_atom_site_fract_y
_atom_site_fract_z
Si Si1 0.483653 0.566525 0.700818
Si Si2 0.825171 0.277862 0.198049
Si Si3 0.640597 0.965272 0.294325
Si Si4 0.646007 0.647223 0.801936
Si Si5 0.799328 0.881541 0.297319
Si Si6 0.483240 0.137880 0.295580
Si Si7 0.666551 0.098718 0.294526
O O1 0.500000 0.500000 0.769317
O O2 0.469490 0.559411 0.500000
O O3 0.568683 0.607657 0.724837
O O4 0.395765 0.599710 0.767880
O O5 0.840708 0.212918 0.272592
O O6 0.743272 0.317645 0.260683
O O7 0.914896 0.314520 0.227411
O O8 0.810023 0.270537 0.000000
O O9 0.641238 0.966160 0.500000
O O10 0.727088 0.929361 0.237229
O O11 0.556966 0.925768 0.246032
O O12 0.643249 0.032370 0.240096
O O13 0.739927 0.616306 0.778196
O O14 0.624692 0.652502 0.000000
O O15 0.801808 0.885392 0.500000
O O16 0.479864 0.141364 0.500000
O O17 0.584987 0.140519 0.243684
O O18 0.672224 0.099686 0.500000
#
# Coordination Sequence:
#
# PCOD9425908 Si02
#       7
#     8   8   8   8   8   8   8
#     4  10  21  39  63  88 112 142 184 234 286 336
#     4  10  22  39  55  74 107 149 186 221 269 326
#     4   8  14  29  54  83 111 134 162 206 261 319
#     4  11  25  40  53  75 110 149 185 225 272 324
#     4   9  18  34  59  85 107 137 179 225 269 319
#     4   9  18  33  56  83 108 137 176 221 265 315
#     4  10  19  33  56  82 107 138 174 216 268 319
#
# _framework density 20.594052000000001
#
# number of rings (size 3 to 8) (size 9 to 14) (size 15 to 20)
#    0.000    2.429    0.000    3.000    0.000    8.857 
#    0.000   11.429    0.000    4.286    0.000    0.000 
#    0.000    0.000    0.000    0.000    0.000    0.000 
#
# Total GULP energy -312413.340934 kJ/mol
# GULP energy per Si atom -5578.809660 kJ/mol
# Density = 2.054718 g / cm^3
# Si number density = 20.594052 Si / 1000 Ang^3
#
#
#
# Elastic Constant Matrix: (Units=GPa)
#
#
# Indices 1 2 3 4 5 6 
#
# 1 148.0488 52.1514 -3.6399 0.0000 0.0000 0.0000
# 2 52.1514 121.5345 0.4243 0.0000 0.0000 0.0000
# 3 -3.6399 0.4243 17.2541 0.0000 0.0000 0.0000
# 4 0.0000 0.0000 0.0000 22.2393 0.0000 0.0000
# 5 0.0000 0.0000 0.0000 0.0000 -0.5489 0.0000
# 6 0.0000 0.0000 0.0000 0.0000 0.0000 11.6528
#
#
#
# Elastic Compliance Matrix: (Units=1/GPa)
#
#
# Indices 1 2 3 4 5 6 
#
# 1 0.008011 -0.003444 0.001775 0.000000 0.000000 0.000000
# 2 -0.003444 0.009709 -0.000965 0.000000 0.000000 0.000000
# 3 0.001775 -0.000965 0.058355 0.000000 0.000000 0.000000
# 4 0.000000 0.000000 0.000000 0.044965 0.000000 0.000000
# 5 0.000000 0.000000 0.000000 0.000000 -1.821923 0.000000
# 6 0.000000 0.000000 0.000000 0.000000 0.000000 0.085816
#
#
# Mechanical properties :
#
#
# Convention : Reuss Voigt Hill
#
# Bulk Modulus (GPa) = 14.12291 42.74545 28.43418
# Shear Modulus (GPa) = -3.15220 22.52876 9.68828
#
# Velocity S-wave (km/s) = -1.23853 3.31107 2.17132
# Velocity P-wave (km/s) = 2.19713 5.95138 4.48588
#
# Compressibility (1/GPa) = 0.07080693
#
# Stress axis : x y z
#
# Youngs Moduli (GPa) = 124.82350 102.99405 17.13642
#
# Poissons Ratio (x) = 0.35470 -0.03041
# Poissons Ratio (y) = 0.42988 0.01654
# Poissons Ratio (z) = -0.22153 0.09942
#
# Static dielectric constant tensor:
#      x y z
#    x 1.716880 0.000000 0.000000 
#    y 0.000000 1.744520 0.000000 
#    z 0.000000 0.000000 1.758720 
# 
# From -- ./inp_files/6192.got.cif
#   From: 2010.05.17/outbox.cif.g08.bks.cpg/sg55_4_cif.got.tgz:6192.got - 2010.06.03 13:27:54.
