data_PCOD9425911
_publ_section_title
;
Structure prediction by ZEFSAII (Michael W. Deem and Ramdas Pophale) SiO2 
 PCOD9425911
Probable space group: P B A M
;
_chemical_formula_sum "Si O2"
_cell_formula_units_Z 56
_cell_length_a 16.586250
_cell_length_b 5.422897
_cell_length_c 25.847895
_cell_angle_alpha 90.000000
_cell_angle_beta 90.000000
_cell_angle_gamma 90.000000
_cell_volume 2324.902495
_symmetry_space_group_name_H-M "P B A M"
_symmetry_group_IT_number 55
_symmetry_cell_setting 'orthorhombic'
loop_
_space_group_symop_operation_xyz
x,y,z
-x,-y,z
1/2+x,1/2-y,-z
1/2-x,1/2+y,-z
-x,-y,-z
x,y,-z
1/2-x,1/2+y,z
1/2+x,1/2-y,z
loop_
_atom_site_type_symbol
_atom_site_label
_atom_site_fract_x
_atom_site_fract_y
_atom_site_fract_z
Si Si1 0.463881 0.252772 0.206215
Si Si2 0.774422 0.198134 0.810386
Si Si3 0.403806 0.992591 0.384043
Si Si4 0.705365 0.369683 0.061257
Si Si5 0.401517 0.493149 0.559620
Si Si6 0.289933 0.827835 0.696539
Si Si7 0.030644 0.248596 0.088212
O O1 0.500000 0.500000 0.231376
O O2 0.367473 0.275620 0.204964
O O3 0.493210 0.252157 0.146309
O O4 0.500000 0.000000 0.228447
O O5 0.744789 0.443030 0.837891
O O6 0.719469 0.183447 0.758366
O O7 0.375792 0.254172 0.407294
O O8 0.500000 0.000000 0.384686
O O9 0.375467 0.758497 0.418276
O O10 0.371786 0.930089 0.327089
O O11 0.725534 0.660177 0.068428
O O12 0.626109 0.273366 0.090678
O O13 0.684763 0.346823 0.000000
O O14 0.500000 0.500000 0.560728
O O15 0.377038 0.463196 0.500000
O O16 0.271003 0.548310 0.679609
O O17 0.000000 0.500000 0.063584
O O18 0.000000 0.000000 0.062180
#
# Coordination Sequence:
#
# PCOD9425911 Si02
#       7
#     8   8   8   8   8   8   8
#     4  10  21  40  61  88 122 154 199 250 299 361
#     4  10  21  40  63  87 115 153 195 239 304 368
#     4  10  19  33  56  82 109 143 188 235 275 328
#     4  10  21  38  60  87 121 162 207 253 304 363
#     4   9  17  30  52  83 114 145 184 231 279 327
#     4  10  21  38  57  80 110 149 185 228 289 345
#     4  10  21  38  58  88 122 158 202 252 302 353
#
# _framework density 24.087032000000001
#
# number of rings (size 3 to 8) (size 9 to 14) (size 15 to 20)
#    0.000    2.143    0.000    3.000    0.000    2.286 
#    0.000   25.714    0.000    8.571    0.000    0.000 
#    0.000    0.000    0.000    0.000    0.000    0.000 
#
# Total GULP energy -312969.023384 kJ/mol
# GULP energy per Si atom -5588.732560 kJ/mol
# Density = 2.403221 g / cm^3
# Si number density = 24.087032 Si / 1000 Ang^3
#
#
#
# Elastic Constant Matrix: (Units=GPa)
#
#
# Indices 1 2 3 4 5 6 
#
# 1 57.8334 40.1345 6.0076 0.0000 0.0000 0.0000
# 2 40.1345 234.6141 20.4996 0.0000 0.0000 0.0000
# 3 6.0076 20.4996 80.9131 0.0000 0.0000 0.0000
# 4 0.0000 0.0000 0.0000 21.8948 0.0000 0.0000
# 5 0.0000 0.0000 0.0000 0.0000 46.9237 0.0000
# 6 0.0000 0.0000 0.0000 0.0000 0.0000 48.1842
#
#
#
# Elastic Compliance Matrix: (Units=1/GPa)
#
#
# Indices 1 2 3 4 5 6 
#
# 1 0.019651 -0.003307 -0.000621 0.000000 0.000000 0.000000
# 2 -0.003307 0.004915 -0.001000 0.000000 0.000000 0.000000
# 3 -0.000621 -0.001000 0.012658 0.000000 0.000000 0.000000
# 4 0.000000 0.000000 0.000000 0.045673 0.000000 0.000000
# 5 0.000000 0.000000 0.000000 0.000000 0.021311 0.000000
# 6 0.000000 0.000000 0.000000 0.000000 0.000000 0.020754
#
#
# Mechanical properties :
#
#
# Convention : Reuss Voigt Hill
#
# Bulk Modulus (GPa) = 36.53880 56.29377 46.41628
# Shear Modulus (GPa) = 34.73633 43.84846 39.29239
#
# Velocity S-wave (km/s) = 3.80164 4.27126 4.04328
# Velocity P-wave (km/s) = 5.87132 6.90990 6.41167
#
# Compressibility (1/GPa) = 0.02736817
#
# Stress axis : x y z
#
# Youngs Moduli (GPa) = 50.88866 203.44048 78.99923
#
# Poissons Ratio (x) = 0.67284 0.04907
# Poissons Ratio (y) = 0.16830 0.07898
# Poissons Ratio (z) = 0.03161 0.20340
#
# Static dielectric constant tensor:
#      x y z
#    x 1.914720 0.000000 0.000000 
#    y 0.000000 1.993380 0.000000 
#    z 0.000000 0.000000 1.474070 
# 
# From -- ./inp_files/24186.got.cif
#   From: 2010.05.17/outbox.cif.g08.bks.cpg/sg55_13_cif.got.tgz:24186.got - 2010.06.03 13:27:54.
