data_PCOD9425117
_publ_section_title
;
Structure prediction by ZEFSAII (Michael W. Deem and Ramdas Pophale) SiO2 
 PCOD9425117
Probable space group: P B A M
;
_chemical_formula_sum "Si O2"
_cell_formula_units_Z 64
_cell_length_a 12.048008
_cell_length_b 34.475554
_cell_length_c 9.045501
_cell_angle_alpha 90.000000
_cell_angle_beta 90.000000
_cell_angle_gamma 90.000000
_cell_volume 3757.155129
_symmetry_space_group_name_H-M "P B A M"
_symmetry_group_IT_number 55
_symmetry_cell_setting 'orthorhombic'
loop_
_space_group_symop_operation_xyz
x,y,z
-x,-y,z
1/2+x,1/2-y,-z
1/2-x,1/2+y,-z
-x,-y,-z
x,y,-z
1/2-x,1/2+y,z
1/2+x,1/2-y,z
loop_
_atom_site_type_symbol
_atom_site_label
_atom_site_fract_x
_atom_site_fract_y
_atom_site_fract_z
Si Si1 0.247727 0.110829 0.326410
Si Si2 0.042949 0.170070 0.674280
Si Si3 0.892746 0.325199 0.823641
Si Si4 0.385377 0.451030 0.822667
Si Si5 0.629885 0.187963 0.322870
Si Si6 0.682665 0.627673 0.677541
Si Si7 0.190145 0.232814 0.175748
Si Si8 0.145398 0.038422 0.177802
O O1 0.273515 0.108553 0.500000
O O2 0.134295 0.135968 0.310276
O O3 0.340763 0.135335 0.241380
O O4 0.223969 0.068915 0.257959
O O5 0.037580 0.180525 0.500000
O O6 0.088681 0.206174 0.766705
O O7 0.924539 0.153337 0.722428
O O8 0.801957 0.291559 0.792407
O O9 0.008899 0.315928 0.747802
O O10 0.905002 0.327958 0.000000
O O11 0.327718 0.414497 0.748549
O O12 0.516862 0.451546 0.785539
O O13 0.338357 0.493364 0.780957
O O14 0.377997 0.447886 0.000000
O O15 0.622208 0.190485 0.500000
O O16 0.706697 0.151169 0.284325
O O17 0.686525 0.226640 0.259569
O O18 0.676698 0.623808 0.500000
O O19 0.181536 0.238495 0.000000
O O20 0.156581 0.041812 0.000000
#
# Coordination Sequence:
#
# PCOD9425117 Si02
#       8
#     8   8   8   8   8   8   8   8
#     4  10  18  31  55  82 108 142 180 220 270 322
#     4   9  18  33  52  78 109 140 175 216 266 323
#     4  10  22  40  58  79 108 141 182 228 269 319
#     4   9  18  31  50  77 113 150 182 220 267 322
#     4  11  24  39  57  79 107 144 181 222 272 323
#     4  10  21  36  53  79 111 145 181 221 270 323
#     4  10  22  38  57  81 105 135 178 227 271 315
#     4   9  17  30  49  79 114 147 181 219 268 321
#
# _framework density 17.034164000000001
#
# number of rings (size 3 to 8) (size 9 to 14) (size 15 to 20)
#    0.000    2.250    1.250    2.250    1.750    4.000 
#    0.000    1.250    0.000    0.750    0.000    5.250 
#    0.000    0.000    0.000    0.000    0.000    0.000 
#
# Total GULP energy -357203.068843 kJ/mol
# GULP energy per Si atom -5581.297951 kJ/mol
# Density = 1.699539 g / cm^3
# Si number density = 17.034164 Si / 1000 Ang^3
#
#
#
# Elastic Constant Matrix: (Units=GPa)
#
#
# Indices 1 2 3 4 5 6 
#
# 1 81.3504 59.4590 49.5108 0.0000 0.0000 0.0000
# 2 59.4590 153.1243 66.4381 0.0000 0.0000 0.0000
# 3 49.5108 66.4381 58.2120 0.0000 0.0000 0.0000
# 4 0.0000 0.0000 0.0000 31.8868 0.0000 0.0000
# 5 0.0000 0.0000 0.0000 0.0000 24.5215 0.0000
# 6 0.0000 0.0000 0.0000 0.0000 0.0000 17.8472
#
#
#
# Elastic Compliance Matrix: (Units=1/GPa)
#
#
# Indices 1 2 3 4 5 6 
#
# 1 0.025557 -0.000976 -0.020624 0.000000 0.000000 0.000000
# 2 -0.000976 0.012974 -0.013978 0.000000 0.000000 0.000000
# 3 -0.020624 -0.013978 0.050672 0.000000 0.000000 0.000000
# 4 0.000000 0.000000 0.000000 0.031361 0.000000 0.000000
# 5 0.000000 0.000000 0.000000 0.000000 0.040781 0.000000
# 6 0.000000 0.000000 0.000000 0.000000 0.000000 0.056031
#
#
# Mechanical properties :
#
#
# Convention : Reuss Voigt Hill
#
# Bulk Modulus (GPa) = 55.40187 71.50029 63.45108
# Shear Modulus (GPa) = 16.97517 22.66968 19.82242
#
# Velocity S-wave (km/s) = 3.16022 3.65202 3.41499
# Velocity P-wave (km/s) = 6.77573 7.73620 7.27184
#
# Compressibility (1/GPa) = 0.01804993
#
# Stress axis : x y z
#
# Youngs Moduli (GPa) = 39.12746 77.07559 19.73461
#
# Poissons Ratio (x) = 0.07522 0.40700
# Poissons Ratio (y) = 0.03818 0.27584
# Poissons Ratio (z) = 0.80695 1.07734
#
# Static dielectric constant tensor:
#      x y z
#    x 1.558310 0.000000 0.000000 
#    y 0.000000 1.563440 0.000000 
#    z 0.000000 0.000000 1.564780 
# 
# From -- ./inp_files/4670.got.cif
#   From: 2010.05.17/outbox.cif.g08.bks.cpg/sg55_3_cif.got.tgz:4670.got - 2010.06.03 13:27:54.
