data_PCOD9425342
_publ_section_title
;
Structure prediction by ZEFSAII (Michael W. Deem and Ramdas Pophale) SiO2 
 PCOD9425342
Probable space group: P B A M
;
_chemical_formula_sum "Si O2"
_cell_formula_units_Z 56
_cell_length_a 14.195009
_cell_length_b 30.319584
_cell_length_c 8.540369
_cell_angle_alpha 90.000000
_cell_angle_beta 90.000000
_cell_angle_gamma 90.000000
_cell_volume 3675.661809
_symmetry_space_group_name_H-M "P B A M"
_symmetry_group_IT_number 55
_symmetry_cell_setting 'orthorhombic'
loop_
_space_group_symop_operation_xyz
x,y,z
-x,-y,z
1/2+x,1/2-y,-z
1/2-x,1/2+y,-z
-x,-y,-z
x,y,-z
1/2-x,1/2+y,z
1/2+x,1/2-y,z
loop_
_atom_site_type_symbol
_atom_site_label
_atom_site_fract_x
_atom_site_fract_y
_atom_site_fract_z
Si Si1 0.599661 0.096003 0.186304
Si Si2 0.283923 0.180927 0.309626
Si Si3 0.705451 0.183604 0.812359
Si Si4 0.614260 0.003058 0.681314
Si Si5 0.387532 0.093476 0.689820
Si Si6 0.386727 0.270820 0.689214
Si Si7 0.899555 0.769458 0.689582
O O1 0.665454 0.136299 0.239231
O O2 0.495630 0.100540 0.259910
O O3 0.639182 0.047838 0.230675
O O4 0.589350 0.098469 0.000000
O O5 0.284477 0.179587 0.500000
O O6 0.324214 0.134270 0.254892
O O7 0.351127 0.221830 0.263730
O O8 0.178577 0.194635 0.260613
O O9 0.809806 0.195134 0.752762
O O10 0.637925 0.222360 0.748673
O O11 0.705005 0.185123 0.000000
O O12 0.642635 0.007474 0.500000
O O13 0.645444 0.955203 0.743789
O O14 0.500000 0.000000 0.684688
O O15 0.386243 0.092194 0.500000
O O16 0.383906 0.272411 0.500000
O O17 0.493839 0.278178 0.741209
O O18 0.899057 0.768070 0.500000
#
# Coordination Sequence:
#
# PCOD9425342 Si02
#       7
#     8   8   8   8   8   8   8
#     4  10  19  28  39  58  84 112 140 171 205 240
#     4   8  14  25  42  63  84 106 133 165 202 242
#     4  10  20  30  41  61  87 114 142 171 208 249
#     4   8  15  26  40  59  81 107 137 166 203 249
#     4   9  16  27  43  62  85 111 136 165 204 250
#     4   9  17  29  45  63  83 110 142 173 204 241
#     4   9  17  30  47  65  84 109 142 175 207 245
#
# _framework density 15.235351
#
# number of rings (size 3 to 8) (size 9 to 14) (size 15 to 20)
#    0.000    3.000    0.000    3.429    0.000    6.571 
#    0.000    4.286    0.000    0.000    0.000    1.000 
#    0.000    8.000    0.000    0.000    0.000    0.000 
#
# Total GULP energy -311822.767613 kJ/mol
# GULP energy per Si atom -5568.263707 kJ/mol
# Density = 1.520067 g / cm^3
# Si number density = 15.235351 Si / 1000 Ang^3
#
#
#
# Elastic Constant Matrix: (Units=GPa)
#
#
# Indices 1 2 3 4 5 6 
#
# 1 109.9894 72.9567 15.3813 0.0000 0.0000 0.0000
# 2 72.9567 149.9616 18.8790 0.0000 0.0000 0.0000
# 3 15.3813 18.8790 8.9628 0.0000 0.0000 0.0000
# 4 0.0000 0.0000 0.0000 14.3817 0.0000 0.0000
# 5 0.0000 0.0000 0.0000 0.0000 6.9163 0.0000
# 6 0.0000 0.0000 0.0000 0.0000 0.0000 24.7186
#
#
#
# Elastic Compliance Matrix: (Units=1/GPa)
#
#
# Indices 1 2 3 4 5 6 
#
# 1 0.014563 -0.005360 -0.013702 0.000000 0.000000 0.000000
# 2 -0.005360 0.011048 -0.014072 0.000000 0.000000 0.000000
# 3 -0.013702 -0.014072 0.164728 0.000000 0.000000 0.000000
# 4 0.000000 0.000000 0.000000 0.069533 0.000000 0.000000
# 5 0.000000 0.000000 0.000000 0.000000 0.144586 0.000000
# 6 0.000000 0.000000 0.000000 0.000000 0.000000 0.040455
#
#
# Mechanical properties :
#
#
# Convention : Reuss Voigt Hill
#
# Bulk Modulus (GPa) = 8.05994 53.70532 30.88263
# Shear Modulus (GPa) = 9.04915 19.98312 14.51613
#
# Velocity S-wave (km/s) = 2.43977 3.62557 3.09008
# Velocity P-wave (km/s) = 3.63846 7.27003 5.74855
#
# Compressibility (1/GPa) = 0.12407042
#
# Stress axis : x y z
#
# Youngs Moduli (GPa) = 68.66562 90.51735 6.07062
#
# Poissons Ratio (x) = 0.48518 0.08318
# Poissons Ratio (y) = 0.36805 0.08542
# Poissons Ratio (z) = 0.94087 1.27375
#
# Static dielectric constant tensor:
#      x y z
#    x 1.491990 0.000000 0.000000 
#    y 0.000000 1.525220 0.000000 
#    z 0.000000 0.000000 1.517030 
# 
# From -- ./inp_files/6844.got.cif
#   From: 2010.05.17/outbox.cif.g08.bks.cpg/sg55_4_cif.got.tgz:6844.got - 2010.06.03 13:27:54.
