data_PCOD9425853
_publ_section_title
;
Structure prediction by ZEFSAII (Michael W. Deem and Ramdas Pophale) SiO2 
 PCOD9425853
Probable space group: P B A M
;
_chemical_formula_sum "Si O2"
_cell_formula_units_Z 24
_cell_length_a 9.216768
_cell_length_b 16.403055
_cell_length_c 5.702574
_cell_angle_alpha 90.000000
_cell_angle_beta 90.000000
_cell_angle_gamma 90.000000
_cell_volume 862.133114
_symmetry_space_group_name_H-M "P B A M"
_symmetry_group_IT_number 55
_symmetry_cell_setting 'orthorhombic'
loop_
_space_group_symop_operation_xyz
x,y,z
-x,-y,z
1/2+x,1/2-y,-z
1/2-x,1/2+y,-z
-x,-y,-z
x,y,-z
1/2-x,1/2+y,z
1/2+x,1/2-y,z
loop_
_atom_site_type_symbol
_atom_site_label
_atom_site_fract_x
_atom_site_fract_y
_atom_site_fract_z
Si Si1 0.058581 0.408396 0.500000
Si Si2 0.632742 0.437216 0.500000
Si Si3 0.225699 0.079468 0.000000
Si Si4 0.942666 0.222874 0.500000
Si Si5 0.441555 0.861840 0.000000
Si Si6 0.047293 0.808789 0.000000
O O1 0.970205 0.320014 0.500000
O O2 0.000000 0.500000 0.500000
O O3 0.120634 0.399167 0.236859
O O4 0.500000 0.500000 0.500000
O O5 0.720883 0.453631 0.735919
O O6 0.579969 0.341310 0.500000
O O7 0.382901 0.123677 0.000000
O O8 0.058219 0.114296 0.000000
O O9 0.873130 0.201429 0.751285
O O10 0.430680 0.764914 0.000000
#
# Coordination Sequence:
#
# PCOD9425853 Si02
#       6
#     4   4   4   4   4   4
#     4  10  19  33  55  76 104 144 181 222 274 326
#     4  10  19  33  55  76 104 144 181 222 274 326
#     4  10  19  33  55  81 110 146 186 229 276 327
#     4   8  16  30  50  74  98 132 172 210 260 318
#     4  10  19  33  55  81 110 146 186 229 276 327
#     4   8  16  30  50  76 104 140 174 216 272 320
#
# _framework density 27.83793
#
# number of rings (size 3 to 8) (size 9 to 14) (size 15 to 20)
#    0.000    2.667    0.000    2.000    0.000    0.000 
#    0.000    0.000    0.000  108.000    0.000    0.000 
#    0.000    0.000    0.000    0.000    0.000    0.000 
#
# Total GULP energy -133693.964943 kJ/mol
# GULP energy per Si atom -5570.581873 kJ/mol
# Density = 2.777457 g / cm^3
# Si number density = 27.837930 Si / 1000 Ang^3
#
#
#
# Elastic Constant Matrix: (Units=GPa)
#
#
# Indices 1 2 3 4 5 6 
#
# 1 93.4665 72.1324 38.8153 0.0000 0.0000 0.0000
# 2 72.1324 135.8624 45.6116 0.0000 0.0000 0.0000
# 3 38.8153 45.6116 379.9003 0.0000 0.0000 0.0000
# 4 0.0000 0.0000 0.0000 -15.0650 0.0000 0.0000
# 5 0.0000 0.0000 0.0000 0.0000 411.4385 0.0000
# 6 0.0000 0.0000 0.0000 0.0000 0.0000 38.9453
#
#
#
# Elastic Compliance Matrix: (Units=1/GPa)
#
#
# Indices 1 2 3 4 5 6 
#
# 1 0.018320 -0.009480 -0.000734 0.000000 0.000000 0.000000
# 2 -0.009480 0.012575 -0.000541 0.000000 0.000000 0.000000
# 3 -0.000734 -0.000541 0.002772 0.000000 0.000000 0.000000
# 4 0.000000 0.000000 0.000000 -0.066379 0.000000 0.000000
# 5 0.000000 0.000000 0.000000 0.000000 0.002430 0.000000
# 6 0.000000 0.000000 0.000000 0.000000 0.000000 0.025677
#
#
# Mechanical properties :
#
#
# Convention : Reuss Voigt Hill
#
# Bulk Modulus (GPa) = 82.25359 102.48310 92.36835
# Shear Modulus (GPa) = 238.56379 117.24173 177.90276
#
# Velocity S-wave (km/s) = 9.26733 6.49671 8.00283
# Velocity P-wave (km/s) = 12.00511 9.65248 10.89250
#
# Compressibility (1/GPa) = 0.01215752
#
# Stress axis : x y z
#
# Youngs Moduli (GPa) = 54.58516 79.52070 360.72440
#
# Poissons Ratio (x) = 0.75387 0.26462
# Poissons Ratio (y) = 0.51748 0.19523
# Poissons Ratio (z) = 0.04004 0.04304
#
# Static dielectric constant tensor:
#      x y z
#    x 2.285920 0.000000 0.000000 
#    y 0.000000 2.167530 0.000000 
#    z 0.000000 0.000000 2.243420 
# 
# From -- ./inp_files/421.got.cif
#   From: 2010.05.17/outbox.cif.g08.bks.cpg/sg55_1_cif.got.tgz:421.got - 2010.06.03 13:27:54.
