data_PCOD9425399
_publ_section_title
;
Structure prediction by ZEFSAII (Michael W. Deem and Ramdas Pophale) SiO2 
 PCOD9425399
Probable space group: P B A M
;
_chemical_formula_sum "Si O2"
_cell_formula_units_Z 64
_cell_length_a 21.061129
_cell_length_b 19.239598
_cell_length_c 8.679605
_cell_angle_alpha 90.000000
_cell_angle_beta 90.000000
_cell_angle_gamma 90.000000
_cell_volume 3517.042392
_symmetry_space_group_name_H-M "P B A M"
_symmetry_group_IT_number 55
_symmetry_cell_setting 'orthorhombic'
loop_
_space_group_symop_operation_xyz
x,y,z
-x,-y,z
1/2+x,1/2-y,-z
1/2-x,1/2+y,-z
-x,-y,-z
x,y,-z
1/2-x,1/2+y,z
1/2+x,1/2-y,z
loop_
_atom_site_type_symbol
_atom_site_label
_atom_site_fract_x
_atom_site_fract_y
_atom_site_fract_z
Si Si1 0.152254 0.087298 0.178760
Si Si2 0.370180 0.737301 0.812771
Si Si3 0.669751 0.116655 0.315789
Si Si4 0.972649 0.574275 0.314658
Si Si5 0.899306 0.170639 0.679042
Si Si6 0.299392 0.437966 0.815204
Si Si7 0.475625 0.577995 0.669757
Si Si8 0.487225 0.219555 0.816227
O O1 0.162878 0.165499 0.240967
O O2 0.076361 0.083219 0.198667
O O3 0.179175 0.014793 0.244471
O O4 0.170878 0.088532 0.000000
O O5 0.335787 0.804782 0.746439
O O6 0.445104 0.744568 0.765995
O O7 0.368876 0.738801 0.000000
O O8 0.677382 0.117191 0.500000
O O9 0.602073 0.081354 0.278266
O O10 0.728478 0.078093 0.238713
O O11 0.979307 0.579996 0.500000
O O12 0.007108 0.640326 0.239683
O O13 0.000000 0.500000 0.265749
O O14 0.883463 0.181065 0.500000
O O15 0.844428 0.124429 0.755574
O O16 0.962839 0.124317 0.690929
O O17 0.924754 0.242050 0.752543
O O18 0.303976 0.438808 0.000000
O O19 0.500000 0.500000 0.666304
O O20 0.446928 0.594049 0.500000
O O21 0.485953 0.222952 0.000000
#
# Coordination Sequence:
#
# PCOD9425399 Si02
#       8
#     8   8   8   8   8   8   8   8
#     4  10  20  33  52  78 107 143 185 226 268 321
#     4   9  18  34  55  78 106 138 177 225 273 325
#     4  10  21  38  59  81 106 141 184 226 278 336
#     4   9  19  38  63  87 110 139 180 235 292 341
#     4  11  21  33  51  77 113 151 186 223 266 321
#     4  11  23  37  54  77 111 153 189 223 272 330
#     4  10  19  30  46  74 110 145 180 223 267 307
#     4  10  19  32  54  84 114 143 178 225 280 331
#
# _framework density 18.197108
#
# number of rings (size 3 to 8) (size 9 to 14) (size 15 to 20)
#    0.000    2.000    2.500    1.500    0.000    3.000 
#    0.000    1.250    0.000    3.000    0.000    0.000 
#    0.000    0.000    0.000    0.000    0.000    0.000 
#
# Total GULP energy -356693.302103 kJ/mol
# GULP energy per Si atom -5573.332845 kJ/mol
# Density = 1.815569 g / cm^3
# Si number density = 18.197108 Si / 1000 Ang^3
#
#
#
# Elastic Constant Matrix: (Units=GPa)
#
#
# Indices 1 2 3 4 5 6 
#
# 1 58.1560 64.4382 28.9209 0.0000 0.0000 0.0000
# 2 64.4382 147.7743 39.0788 0.0000 0.0000 0.0000
# 3 28.9209 39.0788 35.7215 0.0000 0.0000 0.0000
# 4 0.0000 0.0000 0.0000 20.2392 0.0000 0.0000
# 5 0.0000 0.0000 0.0000 0.0000 26.2326 0.0000
# 6 0.0000 0.0000 0.0000 0.0000 0.0000 18.4314
#
#
#
# Elastic Compliance Matrix: (Units=1/GPa)
#
#
# Indices 1 2 3 4 5 6 
#
# 1 0.040820 -0.012748 -0.019102 0.000000 0.000000 0.000000
# 2 -0.012748 0.013503 -0.004451 0.000000 0.000000 0.000000
# 3 -0.019102 -0.004451 0.048329 0.000000 0.000000 0.000000
# 4 0.000000 0.000000 0.000000 0.049409 0.000000 0.000000
# 5 0.000000 0.000000 0.000000 0.000000 0.038120 0.000000
# 6 0.000000 0.000000 0.000000 0.000000 0.000000 0.054255
#
#
# Mechanical properties :
#
#
# Convention : Reuss Voigt Hill
#
# Bulk Modulus (GPa) = 33.27867 56.28085 44.77976
# Shear Modulus (GPa) = 15.28783 20.26156 17.77470
#
# Velocity S-wave (km/s) = 2.90163 3.34046 3.12875
# Velocity P-wave (km/s) = 5.43632 6.77302 6.14115
#
# Compressibility (1/GPa) = 0.03004927
#
# Stress axis : x y z
#
# Youngs Moduli (GPa) = 24.49761 74.05691 20.69141
#
# Poissons Ratio (x) = 0.94411 0.39526
# Poissons Ratio (y) = 0.31231 0.09209
# Poissons Ratio (z) = 0.46797 0.32961
#
# Static dielectric constant tensor:
#      x y z
#    x 1.599100 0.000000 0.000000 
#    y 0.000000 1.659190 0.000000 
#    z 0.000000 0.000000 1.655300 
# 
# From -- ./inp_files/9017.got.cif
#   From: 2010.05.17/outbox.cif.g08.bks.cpg/sg55_5_cif.got.tgz:9017.got - 2010.06.03 13:27:54.
