data_PCOD9425491
_publ_section_title
;
Structure prediction by ZEFSAII (Michael W. Deem and Ramdas Pophale) SiO2 
 PCOD9425491
Probable space group: P B A M
;
_chemical_formula_sum "Si O2"
_cell_formula_units_Z 48
_cell_length_a 15.713411
_cell_length_b 20.076261
_cell_length_c 7.496571
_cell_angle_alpha 90.000000
_cell_angle_beta 90.000000
_cell_angle_gamma 90.000000
_cell_volume 2364.917319
_symmetry_space_group_name_H-M "P B A M"
_symmetry_group_IT_number 55
_symmetry_cell_setting 'orthorhombic'
loop_
_space_group_symop_operation_xyz
x,y,z
-x,-y,z
1/2+x,1/2-y,-z
1/2-x,1/2+y,-z
-x,-y,-z
x,y,-z
1/2-x,1/2+y,z
1/2+x,1/2-y,z
loop_
_atom_site_type_symbol
_atom_site_label
_atom_site_fract_x
_atom_site_fract_y
_atom_site_fract_z
Si Si1 0.984829 0.297195 0.791370
Si Si2 0.196810 0.661347 0.216399
Si Si3 0.437293 0.940190 0.283459
Si Si4 0.616970 0.309493 0.788598
Si Si5 0.769707 0.492691 0.289192
Si Si6 0.084347 0.037171 0.715858
O O1 0.028015 0.369532 0.778416
O O2 0.049098 0.242634 0.713102
O O3 0.889361 0.304305 0.716901
O O4 0.973852 0.280213 0.000000
O O5 0.285993 0.692349 0.281154
O O6 0.198037 0.583303 0.266644
O O7 0.196656 0.663094 0.000000
O O8 0.437249 0.939300 0.500000
O O9 0.500000 0.000000 0.228030
O O10 0.342440 0.958402 0.218996
O O11 0.585686 0.385073 0.764067
O O12 0.623704 0.296200 0.000000
O O13 0.763678 0.505757 0.500000
O O14 0.673557 0.493960 0.217250
O O15 0.085489 0.033576 0.500000
O O16 0.000000 0.000000 0.779427
#
# Coordination Sequence:
#
# PCOD9425491 Si02
#       6
#     8   8   8   8   8   8
#     4  10  20  33  50  72  99 130 163 203 244 287
#     4   9  17  31  51  69  92 128 164 196 237 286
#     4  10  19  31  49  74 101 128 159 198 244 291
#     4   9  19  35  51  71  99 130 165 201 241 290
#     4   9  17  31  50  71  97 126 158 197 240 287
#     4   9  18  34  55  75  97 127 164 203 243 287
#
# _framework density 20.296693000000001
#
# number of rings (size 3 to 8) (size 9 to 14) (size 15 to 20)
#    0.000    2.667    1.667    0.000    0.000    2.000 
#    3.000    0.000    0.000    0.000    0.000    0.000 
#    0.000    0.000    0.000    0.000    0.000    0.000 
#
# Total GULP energy -267759.685023 kJ/mol
# GULP energy per Si atom -5578.326771 kJ/mol
# Density = 2.025050 g / cm^3
# Si number density = 20.296693 Si / 1000 Ang^3
#
#
#
# Elastic Constant Matrix: (Units=GPa)
#
#
# Indices 1 2 3 4 5 6 
#
# 1 213.1058 88.5066 -5.3597 0.0000 0.0000 0.0000
# 2 88.5066 70.3683 -13.0620 0.0000 0.0000 0.0000
# 3 -5.3597 -13.0620 48.9841 0.0000 0.0000 0.0000
# 4 0.0000 0.0000 0.0000 20.1401 0.0000 0.0000
# 5 0.0000 0.0000 0.0000 0.0000 -51.5713 0.0000
# 6 0.0000 0.0000 0.0000 0.0000 0.0000 33.6966
#
#
#
# Elastic Compliance Matrix: (Units=1/GPa)
#
#
# Indices 1 2 3 4 5 6 
#
# 1 0.010085 -0.013130 -0.002398 0.000000 0.000000 0.000000
# 2 -0.013130 0.032045 0.007108 0.000000 0.000000 0.000000
# 3 -0.002398 0.007108 0.022048 0.000000 0.000000 0.000000
# 4 0.000000 0.000000 0.000000 0.049652 0.000000 0.000000
# 5 0.000000 0.000000 0.000000 0.000000 -0.019391 0.000000
# 6 0.000000 0.000000 0.000000 0.000000 0.000000 0.029677
#
#
# Mechanical properties :
#
#
# Convention : Reuss Voigt Hill
#
# Bulk Modulus (GPa) = 21.12406 52.51422 36.81914
# Shear Modulus (GPa) = 31.90106 17.94465 24.92285
#
# Velocity S-wave (km/s) = 3.96881 2.97664 3.50798
# Velocity P-wave (km/s) = 5.60644 6.14356 5.88113
#
# Compressibility (1/GPa) = 0.04733939
#
# Stress axis : x y z
#
# Youngs Moduli (GPa) = 99.15396 31.20626 45.35573
#
# Poissons Ratio (x) = 0.40974 0.10875
# Poissons Ratio (y) = 1.30189 -0.32241
# Poissons Ratio (z) = 0.23774 -0.22183
#
# Static dielectric constant tensor:
#      x y z
#    x 1.767100 0.000000 0.000000 
#    y 0.000000 1.656970 0.000000 
#    z 0.000000 0.000000 1.746640 
# 
# From -- ./inp_files/5665.got.cif
#   From: 2010.05.17/outbox.cif.g08.bks.cpg/sg55_3_cif.got.tgz:5665.got - 2010.06.03 13:27:54.
