data_PCOD9425199
_publ_section_title
;
Structure prediction by ZEFSAII (Michael W. Deem and Ramdas Pophale) SiO2 
 PCOD9425199
Probable space group: P B A M
;
_chemical_formula_sum "Si O2"
_cell_formula_units_Z 56
_cell_length_a 17.983688
_cell_length_b 19.474823
_cell_length_c 7.420004
_cell_angle_alpha 90.000000
_cell_angle_beta 90.000000
_cell_angle_gamma 90.000000
_cell_volume 2598.701625
_symmetry_space_group_name_H-M "P B A M"
_symmetry_group_IT_number 55
_symmetry_cell_setting 'orthorhombic'
loop_
_space_group_symop_operation_xyz
x,y,z
-x,-y,z
1/2+x,1/2-y,-z
1/2-x,1/2+y,-z
-x,-y,-z
x,y,-z
1/2-x,1/2+y,z
1/2+x,1/2-y,z
loop_
_atom_site_type_symbol
_atom_site_label
_atom_site_fract_x
_atom_site_fract_y
_atom_site_fract_z
Si Si1 0.057622 0.903260 0.280977
Si Si2 0.759937 0.459537 0.720719
Si Si3 0.116086 0.645442 0.717987
Si Si4 0.821645 0.208703 0.720141
Si Si5 0.699336 0.108761 0.710752
Si Si6 0.967672 0.572138 0.791906
Si Si7 0.599078 0.440897 0.718945
O O1 0.058288 0.901838 0.500000
O O2 0.115052 0.845623 0.223496
O O3 0.971842 0.896833 0.221359
O O4 0.083498 0.979822 0.230648
O O5 0.760417 0.460443 0.500000
O O6 0.831277 0.416844 0.777955
O O7 0.766553 0.537819 0.784601
O O8 0.682514 0.425037 0.777223
O O9 0.115408 0.646155 0.500000
O O10 0.152932 0.716261 0.781177
O O11 0.032581 0.628244 0.775338
O O12 0.821292 0.212900 0.500000
O O13 0.742675 0.176039 0.779689
O O14 0.718300 0.107624 0.500000
O O15 0.610563 0.100862 0.721224
O O16 0.000000 0.500000 0.712118
O O17 0.952263 0.557463 0.000000
O O18 0.598652 0.438485 0.500000
#
# Coordination Sequence:
#
# PCOD9425199 Si02
#       7
#     8   8   8   8   8   8   8
#     4   8  12  20  36  60  95 133 161 194 245 301
#     4   9  15  25  44  69 100 135 168 204 251 310
#     4  10  20  34  52  77 108 137 170 217 273 323
#     4   9  17  30  47  74 109 140 170 211 265 324
#     4  10  18  32  56  80 107 140 174 215 268 321
#     4  11  23  38  56  78 103 136 186 235 271 315
#     4   8  12  19  35  61  93 129 165 198 240 298
#
# _framework density 21.549223999999999
#
# number of rings (size 3 to 8) (size 9 to 14) (size 15 to 20)
#    0.000    2.714    2.857    1.286    0.000    0.571 
#    2.571    0.714    0.000    0.000    0.000    0.000 
#    0.000    1.143    0.000    0.000    0.000    0.000 
#
# Total GULP energy -312312.216246 kJ/mol
# GULP energy per Si atom -5577.003862 kJ/mol
# Density = 2.150018 g / cm^3
# Si number density = 21.549224 Si / 1000 Ang^3
#
#
#
# Elastic Constant Matrix: (Units=GPa)
#
#
# Indices 1 2 3 4 5 6 
#
# 1 155.8223 42.2724 -10.9672 0.0000 0.0000 0.0000
# 2 42.2724 90.4062 0.1397 0.0000 0.0000 0.0000
# 3 -10.9672 0.1397 63.8500 0.0000 0.0000 0.0000
# 4 0.0000 0.0000 0.0000 -9.8673 0.0000 0.0000
# 5 0.0000 0.0000 0.0000 0.0000 -64.0005 0.0000
# 6 0.0000 0.0000 0.0000 0.0000 0.0000 31.8740
#
#
#
# Elastic Compliance Matrix: (Units=1/GPa)
#
#
# Indices 1 2 3 4 5 6 
#
# 1 0.007454 -0.003488 0.001288 0.000000 0.000000 0.000000
# 2 -0.003488 0.012693 -0.000627 0.000000 0.000000 0.000000
# 3 0.001288 -0.000627 0.015884 0.000000 0.000000 0.000000
# 4 0.000000 0.000000 0.000000 -0.101345 0.000000 0.000000
# 5 0.000000 0.000000 0.000000 0.000000 -0.015625 0.000000
# 6 0.000000 0.000000 0.000000 0.000000 0.000000 0.031374
#
#
# Mechanical properties :
#
#
# Convention : Reuss Voigt Hill
#
# Bulk Modulus (GPa) = 32.91753 41.44090 37.17922
# Shear Modulus (GPa) = -147.99230 10.17681 -68.90774
#
# Velocity S-wave (km/s) = -8.29611 2.17551 -5.66095
# Velocity P-wave (km/s) = 8.74406 5.05797 5.04359
#
# Compressibility (1/GPa) = 0.03037895
#
# Stress axis : x y z
#
# Youngs Moduli (GPa) = 134.15013 78.78450 62.95514
#
# Poissons Ratio (x) = 0.27476 -0.08109
# Poissons Ratio (y) = 0.46785 0.03946
# Poissons Ratio (z) = -0.17279 0.04938
#
# Static dielectric constant tensor:
#      x y z
#    x 1.793210 0.000000 0.000000 
#    y 0.000000 1.754180 0.000000 
#    z 0.000000 0.000000 1.850720 
# 
# From -- ./inp_files/7892.got.cif
#   From: 2010.05.17/outbox.cif.g08.bks.cpg/sg55_4_cif.got.tgz:7892.got - 2010.06.03 13:27:54.
