data_PCOD9425138
_publ_section_title
;
Structure prediction by ZEFSAII (Michael W. Deem and Ramdas Pophale) SiO2 
 PCOD9425138
Probable space group: P B A M
;
_chemical_formula_sum "Si O2"
_cell_formula_units_Z 32
_cell_length_a 5.015887
_cell_length_b 23.999190
_cell_length_c 13.057810
_cell_angle_alpha 90.000000
_cell_angle_beta 90.000000
_cell_angle_gamma 90.000000
_cell_volume 1571.862934
_symmetry_space_group_name_H-M "P B A M"
_symmetry_group_IT_number 55
_symmetry_cell_setting 'orthorhombic'
loop_
_space_group_symop_operation_xyz
x,y,z
-x,-y,z
1/2+x,1/2-y,-z
1/2-x,1/2+y,-z
-x,-y,-z
x,y,-z
1/2-x,1/2+y,z
1/2+x,1/2-y,z
loop_
_atom_site_type_symbol
_atom_site_label
_atom_site_fract_x
_atom_site_fract_y
_atom_site_fract_z
Si Si1 0.249329 0.539542 0.000000
Si Si2 0.525564 0.434233 0.207402
Si Si3 0.076702 0.288345 0.612749
Si Si4 0.509612 0.867099 0.795443
Si Si5 0.916862 0.290633 0.000000
O O1 0.500000 0.500000 0.000000
O O2 0.293687 0.571620 0.896272
O O3 0.000000 0.500000 0.000000
O O4 0.500000 0.500000 0.234838
O O5 0.230613 0.411793 0.186816
O O6 0.730735 0.393698 0.265237
O O7 0.113542 0.314933 0.500000
O O8 0.282943 0.237459 0.618555
O O9 0.118740 0.327353 0.709020
O O10 0.551037 0.828467 0.897238
O O11 0.136144 0.241475 0.000000
#
# Coordination Sequence:
#
# PCOD9425138 Si02
#       5
#     4   8   8   8   4
#     4  10  18  32  50  72 106 148 189 226 263 306
#     4  11  22  36  55  82 115 151 194 236 271 327
#     4  10  21  39  62  86 111 144 191 241 283 335
#     4  12  22  37  59  84 115 153 188 226 289 342
#     4  12  24  38  55  84 121 148 179 228 291 352
#
# _framework density 20.35801
#
# number of rings (size 3 to 8) (size 9 to 14) (size 15 to 20)
#    0.000    1.000    0.000    9.750    0.000    0.000 
#    0.000    0.000    0.000    4.500    0.000    0.000 
#    0.000    0.000    0.000    0.000    0.000    0.000 
#
# Total GULP energy -178151.691796 kJ/mol
# GULP energy per Si atom -5567.240369 kJ/mol
# Density = 2.031167 g / cm^3
# Si number density = 20.358010 Si / 1000 Ang^3
#
#
#
# Elastic Constant Matrix: (Units=GPa)
#
#
# Indices 1 2 3 4 5 6 
#
# 1 105.9628 16.9502 -5.7635 0.0000 0.0000 0.0000
# 2 16.9502 83.3107 25.5306 0.0000 0.0000 0.0000
# 3 -5.7635 25.5306 65.7869 0.0000 0.0000 0.0000
# 4 0.0000 0.0000 0.0000 -4.7503 0.0000 0.0000
# 5 0.0000 0.0000 0.0000 0.0000 13.4403 0.0000
# 6 0.0000 0.0000 0.0000 0.0000 0.0000 52.7095
#
#
#
# Elastic Compliance Matrix: (Units=1/GPa)
#
#
# Indices 1 2 3 4 5 6 
#
# 1 0.009956 -0.002602 0.001882 0.000000 0.000000 0.000000
# 2 -0.002602 0.014304 -0.005779 0.000000 0.000000 0.000000
# 3 0.001882 -0.005779 0.017608 0.000000 0.000000 0.000000
# 4 0.000000 0.000000 0.000000 -0.210512 0.000000 0.000000
# 5 0.000000 0.000000 0.000000 0.000000 0.074403 0.000000
# 6 0.000000 0.000000 0.000000 0.000000 0.000000 0.018972
#
#
# Mechanical properties :
#
#
# Convention : Reuss Voigt Hill
#
# Bulk Modulus (GPa) = 34.63872 36.49944 35.56908
# Shear Modulus (GPa) = -94.97180 26.83610 -34.06785
#
# Velocity S-wave (km/s) = -6.83755 3.63465 -4.09520
# Velocity P-wave (km/s) = 6.72937 5.96506 2.20255
#
# Compressibility (1/GPa) = 0.02886942
#
# Stress axis : x y z
#
# Youngs Moduli (GPa) = 100.44260 69.91194 56.79171
#
# Poissons Ratio (x) = 0.18194 -0.10689
# Poissons Ratio (y) = 0.26139 0.32820
# Poissons Ratio (z) = -0.18905 0.40402
#
# Static dielectric constant tensor:
#      x y z
#    x 1.831880 0.000000 0.000000 
#    y 0.000000 1.870560 0.000000 
#    z 0.000000 0.000000 1.711860 
# 
# From -- ./inp_files/11219.got.cif
#   From: 2010.05.17/outbox.cif.g08.bks.cpg/sg55_6_cif.got.tgz:11219.got - 2010.06.03 13:27:54.
