data_PCOD9425126
_publ_section_title
;
Structure prediction by ZEFSAII (Michael W. Deem and Ramdas Pophale) SiO2 
 PCOD9425126
Probable space group: P B A M
;
_chemical_formula_sum "Si O2"
_cell_formula_units_Z 64
_cell_length_a 13.113481
_cell_length_b 18.381993
_cell_length_c 14.585728
_cell_angle_alpha 90.000000
_cell_angle_beta 90.000000
_cell_angle_gamma 90.000000
_cell_volume 3515.917680
_symmetry_space_group_name_H-M "P B A M"
_symmetry_group_IT_number 55
_symmetry_cell_setting 'orthorhombic'
loop_
_space_group_symop_operation_xyz
x,y,z
-x,-y,z
1/2+x,1/2-y,-z
1/2-x,1/2+y,-z
-x,-y,-z
x,y,-z
1/2-x,1/2+y,z
1/2+x,1/2-y,z
loop_
_atom_site_type_symbol
_atom_site_label
_atom_site_fract_x
_atom_site_fract_y
_atom_site_fract_z
Si Si1 0.266996 0.037647 0.897621
Si Si2 0.381282 0.515763 0.731646
Si Si3 0.313376 0.646063 0.608355
Si Si4 0.170806 0.369451 0.897108
Si Si5 0.413979 0.804282 0.393540
Si Si6 0.930845 0.335619 0.103715
Si Si7 0.878780 0.285375 0.704613
Si Si8 0.223858 0.860613 0.707967
O O1 0.180224 0.044369 0.820922
O O2 0.361380 0.092387 0.886027
O O3 0.311540 0.956187 0.894324
O O4 0.224405 0.049853 0.000000
O O5 0.500000 0.500000 0.750115
O O6 0.367232 0.576253 0.652890
O O7 0.327699 0.439208 0.706228
O O8 0.291799 0.635795 0.500000
O O9 0.379203 0.720031 0.617120
O O10 0.211859 0.664207 0.666596
O O11 0.235866 0.341838 0.810879
O O12 0.051079 0.352185 0.885664
O O13 0.200983 0.344124 0.000000
O O14 0.430466 0.818630 0.500000
O O15 0.517101 0.813611 0.338249
O O16 0.323841 0.854164 0.354624
O O17 0.893412 0.286008 0.186314
O O18 0.915550 0.307683 0.000000
O O19 0.852066 0.203052 0.676204
#
# Coordination Sequence:
#
# PCOD9425126 Si02
#       8
#     8   8   8   8   8   8   8   8
#     4   9  18  33  54  82 114 148 185 227 273 333
#     4  11  22  38  58  83 112 149 190 232 280 335
#     4  10  22  39  59  83 111 146 189 236 281 330
#     4   9  17  32  54  81 114 148 183 225 277 332
#     4  10  21  39  61  83 110 147 188 229 282 336
#     4  10  18  31  56  86 113 145 185 228 277 330
#     4  11  20  37  59  84 114 147 184 233 282 337
#     4  10  22  36  57  82 114 149 186 228 278 335
#
# _framework density 18.202929000000001
#
# number of rings (size 3 to 8) (size 9 to 14) (size 15 to 20)
#    0.000    2.000    2.500    1.500    0.000    3.500 
#    0.000    0.625    0.000    3.750    0.000    0.000 
#    0.000    0.000    0.000    0.000    0.000    0.000 
#
# Total GULP energy -356918.374891 kJ/mol
# GULP energy per Si atom -5576.849608 kJ/mol
# Density = 1.816150 g / cm^3
# Si number density = 18.202929 Si / 1000 Ang^3
#
#
#
# Elastic Constant Matrix: (Units=GPa)
#
#
# Indices 1 2 3 4 5 6 
#
# 1 64.6239 15.2204 10.8496 0.0000 0.0000 0.0000
# 2 15.2204 32.2631 4.4555 0.0000 0.0000 0.0000
# 3 10.8496 4.4555 57.4306 0.0000 0.0000 0.0000
# 4 0.0000 0.0000 0.0000 26.8497 0.0000 0.0000
# 5 0.0000 0.0000 0.0000 0.0000 11.5321 0.0000
# 6 0.0000 0.0000 0.0000 0.0000 0.0000 11.8395
#
#
#
# Elastic Compliance Matrix: (Units=1/GPa)
#
#
# Indices 1 2 3 4 5 6 
#
# 1 0.017826 -0.008031 -0.002745 0.000000 0.000000 0.000000
# 2 -0.008031 0.034949 -0.001194 0.000000 0.000000 0.000000
# 3 -0.002745 -0.001194 0.018023 0.000000 0.000000 0.000000
# 4 0.000000 0.000000 0.000000 0.037244 0.000000 0.000000
# 5 0.000000 0.000000 0.000000 0.000000 0.086714 0.000000
# 6 0.000000 0.000000 0.000000 0.000000 0.000000 0.084463
#
#
# Mechanical properties :
#
#
# Convention : Reuss Voigt Hill
#
# Bulk Modulus (GPa) = 21.34047 23.92984 22.63515
# Shear Modulus (GPa) = 15.68485 18.29707 16.99096
#
# Velocity S-wave (km/s) = 2.93860 3.17388 3.05851
# Velocity P-wave (km/s) = 4.82316 5.15811 4.99345
#
# Compressibility (1/GPa) = 0.04685933
#
# Stress axis : x y z
#
# Youngs Moduli (GPa) = 56.09668 28.61343 55.48320
#
# Poissons Ratio (x) = 0.22979 0.15228
# Poissons Ratio (y) = 0.45050 0.06626
# Poissons Ratio (z) = 0.15397 0.03417
#
# Static dielectric constant tensor:
#      x y z
#    x 1.594060 0.000000 0.000000 
#    y 0.000000 1.592320 0.000000 
#    z 0.000000 0.000000 1.645260 
# 
# From -- ./inp_files/18584.got.cif
#   From: 2010.05.17/outbox.cif.g08.bks.cpg/sg55_10_cif.got.tgz:18584.got - 2010.06.03 13:27:54.
