data_PCOD9425825
_publ_section_title
;
Structure prediction by ZEFSAII (Michael W. Deem and Ramdas Pophale) SiO2 
 PCOD9425825
Probable space group: P B A M
;
_chemical_formula_sum "Si O2"
_cell_formula_units_Z 48
_cell_length_a 5.104502
_cell_length_b 15.953403
_cell_length_c 31.197698
_cell_angle_alpha 90.000000
_cell_angle_beta 90.000000
_cell_angle_gamma 90.000000
_cell_volume 2540.558877
_symmetry_space_group_name_H-M "P B A M"
_symmetry_group_IT_number 55
_symmetry_cell_setting 'orthorhombic'
loop_
_space_group_symop_operation_xyz
x,y,z
-x,-y,z
1/2+x,1/2-y,-z
1/2-x,1/2+y,-z
-x,-y,-z
x,y,-z
1/2-x,1/2+y,z
1/2+x,1/2-y,z
loop_
_atom_site_type_symbol
_atom_site_label
_atom_site_fract_x
_atom_site_fract_y
_atom_site_fract_z
Si Si1 0.251727 0.056829 0.616808
Si Si2 0.782517 0.809333 0.690944
Si Si3 0.414822 0.196389 0.551115
Si Si4 0.748849 0.940536 0.048570
Si Si5 0.269411 0.191958 0.876172
Si Si6 0.141544 0.193784 0.214634
O O1 0.187597 0.120318 0.655318
O O2 0.338791 0.113852 0.576751
O O3 0.500000 0.000000 0.628891
O O4 0.000000 0.000000 0.607100
O O5 0.507060 0.761239 0.686537
O O6 0.806786 0.846341 0.739157
O O7 0.401572 0.182484 0.500000
O O8 0.701317 0.231851 0.562019
O O9 0.764443 0.869744 0.084321
O O10 0.500000 0.000000 0.055821
O O11 0.730348 0.905558 0.000000
O O12 0.000000 0.000000 0.050641
O O13 0.555199 0.233644 0.877806
O O14 0.213906 0.148934 0.829838
O O15 0.343514 0.273167 0.213972
#
# Coordination Sequence:
#
# PCOD9425825 Si02
#       6
#     8   8   8   8   8   8
#     4  12  24  36  53  82 115 139 168 217 269 304
#     4  10  19  36  58  75 100 142 182 208 246 309
#     4  10  21  39  61  81 103 139 184 217 249 309
#     4  10  21  36  51  71 103 139 170 203 253 313
#     4  10  19  33  54  79 102 127 170 219 258 299
#     4   8  16  30  51  76  99 128 168 214 255 296
#
# _framework density 18.893483
#
# number of rings (size 3 to 8) (size 9 to 14) (size 15 to 20)
#    0.000    2.000    0.000    4.000    0.000    1.333 
#    0.000    1.667    0.000    0.000    0.000    0.000 
#    0.000    0.000    0.000    0.000    0.000    0.000 
#
# Total GULP energy -267919.381447 kJ/mol
# GULP energy per Si atom -5581.653780 kJ/mol
# Density = 1.885048 g / cm^3
# Si number density = 18.893483 Si / 1000 Ang^3
#
#
#
# Elastic Constant Matrix: (Units=GPa)
#
#
# Indices 1 2 3 4 5 6 
#
# 1 75.8070 -9.2228 -14.5844 0.0000 0.0000 0.0000
# 2 -9.2228 31.1928 24.0866 0.0000 0.0000 0.0000
# 3 -14.5844 24.0866 57.7126 0.0000 0.0000 0.0000
# 4 0.0000 0.0000 0.0000 -19.8951 0.0000 0.0000
# 5 0.0000 0.0000 0.0000 0.0000 23.3901 0.0000
# 6 0.0000 0.0000 0.0000 0.0000 0.0000 -3.4203
#
#
#
# Elastic Compliance Matrix: (Units=1/GPa)
#
#
# Indices 1 2 3 4 5 6 
#
# 1 0.013956 0.002070 0.002663 0.000000 0.000000 0.000000
# 2 0.002070 0.047611 -0.019347 0.000000 0.000000 0.000000
# 3 0.002663 -0.019347 0.026075 0.000000 0.000000 0.000000
# 4 0.000000 0.000000 0.000000 -0.050264 0.000000 0.000000
# 5 0.000000 0.000000 0.000000 0.000000 0.042753 0.000000
# 6 0.000000 0.000000 0.000000 0.000000 0.000000 -0.292370
#
#
# Mechanical properties :
#
#
# Convention : Reuss Voigt Hill
#
# Bulk Modulus (GPa) = 17.11980 18.36347 17.74164
# Shear Modulus (GPa) = -30.57357 10.97714 -9.79822
#
# Velocity S-wave (km/s) = -4.02706 2.41301 -2.27976
# Velocity P-wave (km/s) = 3.54147 4.18379 1.57512
#
# Compressibility (1/GPa) = 0.05841188
#
# Stress axis : x y z
#
# Youngs Moduli (GPa) = 71.65627 21.00376 38.35123
#
# Poissons Ratio (x) = -0.04348 -0.10212
# Poissons Ratio (y) = -0.14834 0.74199
# Poissons Ratio (z) = -0.19080 0.40637
#
# Static dielectric constant tensor:
#      x y z
#    x 1.642150 0.000000 0.000000 
#    y 0.000000 1.600170 0.000000 
#    z 0.000000 0.000000 1.699730 
# 
# From -- ./inp_files/24041.got.cif
#   From: 2010.05.17/outbox.cif.g08.bks.cpg/sg55_13_cif.got.tgz:24041.got - 2010.06.03 13:27:54.
