data_PCOD9425103
_publ_section_title
;
Structure prediction by ZEFSAII (Michael W. Deem and Ramdas Pophale) SiO2 
 PCOD9425103
Probable space group: P B A M
;
_chemical_formula_sum "Si O2"
_cell_formula_units_Z 56
_cell_length_a 14.210914
_cell_length_b 21.239620
_cell_length_c 9.667569
_cell_angle_alpha 90.000000
_cell_angle_beta 90.000000
_cell_angle_gamma 90.000000
_cell_volume 2918.005016
_symmetry_space_group_name_H-M "P B A M"
_symmetry_group_IT_number 55
_symmetry_cell_setting 'orthorhombic'
loop_
_space_group_symop_operation_xyz
x,y,z
-x,-y,z
1/2+x,1/2-y,-z
1/2-x,1/2+y,-z
-x,-y,-z
x,y,-z
1/2-x,1/2+y,z
1/2+x,1/2-y,z
loop_
_atom_site_type_symbol
_atom_site_label
_atom_site_fract_x
_atom_site_fract_y
_atom_site_fract_z
Si Si1 0.989029 0.232761 0.659449
Si Si2 0.766407 0.607954 0.161985
Si Si3 0.307014 0.248994 0.839848
Si Si4 0.707503 0.478827 0.162628
Si Si5 0.053827 0.370831 0.343146
Si Si6 0.367912 0.653851 0.166833
Si Si7 0.425522 0.057187 0.845094
O O1 0.973827 0.213231 0.500000
O O2 0.052780 0.295517 0.657462
O O3 0.043964 0.182101 0.751523
O O4 0.892693 0.253010 0.733634
O O5 0.728706 0.678795 0.169025
O O6 0.697095 0.551386 0.209284
O O7 0.859429 0.605474 0.253295
O O8 0.789977 0.595675 0.000000
O O9 0.223411 0.199103 0.810822
O O10 0.337095 0.238160 0.000000
O O11 0.654484 0.417202 0.217119
O O12 0.819062 0.464828 0.175934
O O13 0.683901 0.478993 0.000000
O O14 0.059381 0.393705 0.500000
O O15 0.959458 0.394919 0.270307
O O16 0.384305 0.654508 0.000000
O O17 0.500000 0.000000 0.840367
O O18 0.431129 0.085092 0.000000
#
# Coordination Sequence:
#
# PCOD9425103 Si02
#       7
#     8   8   8   8   8   8   8
#     4  11  24  39  57  82 116 154 191 236 290 344
#     4  10  19  36  59  83 111 144 185 232 282 334
#     4  10  21  37  62  88 110 147 197 244 283 330
#     4   9  18  33  55  84 114 144 181 233 293 336
#     4  11  22  34  51  79 114 150 184 226 281 340
#     4  10  20  37  61  87 114 146 191 241 283 337
#     4  10  18  31  54  80 110 147 183 226 279 339
#
# _framework density 19.191193999999999
#
# number of rings (size 3 to 8) (size 9 to 14) (size 15 to 20)
#    0.000    1.857    2.857    1.714    0.000    4.286 
#    0.000    2.143    0.000    4.286    0.000    0.000 
#    0.000    0.000    0.000    0.000    0.000    0.000 
#
# Total GULP energy -312301.624410 kJ/mol
# GULP energy per Si atom -5576.814722 kJ/mol
# Density = 1.914751 g / cm^3
# Si number density = 19.191194 Si / 1000 Ang^3
#
#
#
# Elastic Constant Matrix: (Units=GPa)
#
#
# Indices 1 2 3 4 5 6 
#
# 1 17.1244 -13.3830 26.1263 0.0000 0.0000 0.0000
# 2 -13.3830 78.9851 15.3675 0.0000 0.0000 0.0000
# 3 26.1263 15.3675 80.9599 0.0000 0.0000 0.0000
# 4 0.0000 0.0000 0.0000 14.9285 0.0000 0.0000
# 5 0.0000 0.0000 0.0000 0.0000 1.4102 0.0000
# 6 0.0000 0.0000 0.0000 0.0000 0.0000 24.9639
#
#
#
# Elastic Compliance Matrix: (Units=1/GPa)
#
#
# Indices 1 2 3 4 5 6 
#
# 1 0.234164 0.056464 -0.086284 0.000000 0.000000 0.000000
# 2 0.056464 0.026761 -0.023301 0.000000 0.000000 0.000000
# 3 -0.086284 -0.023301 0.044619 0.000000 0.000000 0.000000
# 4 0.000000 0.000000 0.000000 0.066986 0.000000 0.000000
# 5 0.000000 0.000000 0.000000 0.000000 0.709138 0.000000
# 6 0.000000 0.000000 0.000000 0.000000 0.000000 0.040058
#
#
# Mechanical properties :
#
#
# Convention : Reuss Voigt Hill
#
# Bulk Modulus (GPa) = 5.01751 25.92121 15.46936
# Shear Modulus (GPa) = 3.86279 18.19108 11.02693
#
# Velocity S-wave (km/s) = 1.42027 3.08212 2.39965
# Velocity P-wave (km/s) = 2.30428 5.11880 3.96937
#
# Compressibility (1/GPa) = 0.19930205
#
# Stress axis : x y z
#
# Youngs Moduli (GPa) = 4.27051 37.36773 22.41199
#
# Poissons Ratio (x) = -2.10992 1.93379
# Poissons Ratio (y) = -0.24113 0.52222
# Poissons Ratio (z) = 0.36848 0.87070
#
# Static dielectric constant tensor:
#      x y z
#    x 1.656290 0.000000 0.000000 
#    y 0.000000 1.746510 0.000000 
#    z 0.000000 0.000000 1.646540 
# 
# From -- ./inp_files/6034.got.cif
#   From: 2010.05.17/outbox.cif.g08.bks.cpg/sg55_4_cif.got.tgz:6034.got - 2010.06.03 13:27:54.
