data_PCOD9425684
_publ_section_title
;
Structure prediction by ZEFSAII (Michael W. Deem and Ramdas Pophale) SiO2 
 PCOD9425684
Probable space group: P B A M
;
_chemical_formula_sum "Si O2"
_cell_formula_units_Z 64
_cell_length_a 28.734677
_cell_length_b 13.344859
_cell_length_c 7.939947
_cell_angle_alpha 90.000000
_cell_angle_beta 90.000000
_cell_angle_gamma 90.000000
_cell_volume 3044.653768
_symmetry_space_group_name_H-M "P B A M"
_symmetry_group_IT_number 55
_symmetry_cell_setting 'orthorhombic'
loop_
_space_group_symop_operation_xyz
x,y,z
-x,-y,z
1/2+x,1/2-y,-z
1/2-x,1/2+y,-z
-x,-y,-z
x,y,-z
1/2-x,1/2+y,z
1/2+x,1/2-y,z
loop_
_atom_site_type_symbol
_atom_site_label
_atom_site_fract_x
_atom_site_fract_y
_atom_site_fract_z
Si Si1 0.118519 0.359466 0.697277
Si Si2 0.948894 0.462835 0.294789
Si Si3 0.520906 0.599658 0.693161
Si Si4 0.071088 0.161199 0.193852
Si Si5 0.161960 0.055194 0.796367
Si Si6 0.406261 0.247619 0.292778
Si Si7 0.707487 0.235798 0.198434
Si Si8 0.190777 0.830824 0.299752
O O1 0.108221 0.345423 0.500000
O O2 0.091693 0.458904 0.751975
O O3 0.097722 0.265675 0.795874
O O4 0.173723 0.347973 0.721108
O O5 0.950888 0.459626 0.500000
O O6 0.932212 0.353286 0.238030
O O7 0.000000 0.500000 0.237477
O O8 0.500000 0.500000 0.774888
O O9 0.533179 0.575462 0.500000
O O10 0.475662 0.670042 0.699600
O O11 0.563994 0.657370 0.769117
O O12 0.108603 0.079158 0.257462
O O13 0.059388 0.140641 0.000000
O O14 0.192427 0.152343 0.740227
O O15 0.180331 0.947743 0.738513
O O16 0.161815 0.054996 0.000000
O O17 0.407378 0.248143 0.500000
O O18 0.353235 0.264641 0.240175
O O19 0.760786 0.208286 0.227789
O O20 0.698233 0.234650 0.000000
O O21 0.193456 0.820442 0.500000
#
# Coordination Sequence:
#
# PCOD9425684 Si02
#       8
#     8   8   8   8   8   8   8   8
#     4  10  19  33  57  84 106 138 188 235 276 327
#     4   9  17  31  54  83 115 150 184 223 277 338
#     4  10  19  32  53  79 106 139 180 225 272 323
#     4  10  20  34  53  78 109 143 178 221 275 330
#     4   9  20  38  57  77 107 147 183 221 275 336
#     4   9  19  34  51  79 115 144 178 228 283 335
#     4  10  22  40  59  81 112 148 188 236 291 349
#     4  11  22  36  58  85 113 145 184 236 288 336
#
# _framework density 21.020451000000001
#
# number of rings (size 3 to 8) (size 9 to 14) (size 15 to 20)
#    0.000    2.250    0.000    3.750    0.000    7.250 
#    0.000    2.500    0.000    9.000    0.000    0.000 
#    0.000    0.000    0.000    0.000    0.000    0.000 
#
# Total GULP energy -357166.946637 kJ/mol
# GULP energy per Si atom -5580.733541 kJ/mol
# Density = 2.097261 g / cm^3
# Si number density = 21.020451 Si / 1000 Ang^3
#
#
#
# Elastic Constant Matrix: (Units=GPa)
#
#
# Indices 1 2 3 4 5 6 
#
# 1 130.2280 50.6670 4.8333 0.0000 0.0000 0.0000
# 2 50.6670 104.7693 6.3184 0.0000 0.0000 0.0000
# 3 4.8333 6.3184 37.9406 0.0000 0.0000 0.0000
# 4 0.0000 0.0000 0.0000 12.9810 0.0000 0.0000
# 5 0.0000 0.0000 0.0000 0.0000 17.0775 0.0000
# 6 0.0000 0.0000 0.0000 0.0000 0.0000 33.2276
#
#
#
# Elastic Compliance Matrix: (Units=1/GPa)
#
#
# Indices 1 2 3 4 5 6 
#
# 1 0.009466 -0.004551 -0.000448 0.000000 0.000000 0.000000
# 2 -0.004551 0.011829 -0.001390 0.000000 0.000000 0.000000
# 3 -0.000448 -0.001390 0.026646 0.000000 0.000000 0.000000
# 4 0.000000 0.000000 0.000000 0.077036 0.000000 0.000000
# 5 0.000000 0.000000 0.000000 0.000000 0.058556 0.000000
# 6 0.000000 0.000000 0.000000 0.000000 0.000000 0.030095
#
#
# Mechanical properties :
#
#
# Convention : Reuss Voigt Hill
#
# Bulk Modulus (GPa) = 28.43911 44.06391 36.25151
# Shear Modulus (GPa) = 20.99715 26.73186 23.86450
#
# Velocity S-wave (km/s) = 3.16395 3.56997 3.37308
# Velocity P-wave (km/s) = 5.18711 6.16448 5.69679
#
# Compressibility (1/GPa) = 0.03516284
#
# Stress axis : x y z
#
# Youngs Moduli (GPa) = 105.64108 84.53510 37.52967
#
# Poissons Ratio (x) = 0.38470 0.01681
# Poissons Ratio (y) = 0.48075 0.05218
# Poissons Ratio (z) = 0.04733 0.11753
#
# Static dielectric constant tensor:
#      x y z
#    x 1.785240 0.000000 0.000000 
#    y 0.000000 1.787670 0.000000 
#    z 0.000000 0.000000 1.748400 
# 
# From -- ./inp_files/10767.got.cif
#   From: 2010.05.17/outbox.cif.g08.bks.cpg/sg55_6_cif.got.tgz:10767.got - 2010.06.03 13:27:54.
