data_PCOD9425405
_publ_section_title
;
Structure prediction by ZEFSAII (Michael W. Deem and Ramdas Pophale) SiO2 
 PCOD9425405
Probable space group: P B A M
;
_chemical_formula_sum "Si O2"
_cell_formula_units_Z 52
_cell_length_a 5.068050
_cell_length_b 29.366603
_cell_length_c 21.850012
_cell_angle_alpha 90.000000
_cell_angle_beta 90.000000
_cell_angle_gamma 90.000000
_cell_volume 3251.968145
_symmetry_space_group_name_H-M "P B A M"
_symmetry_group_IT_number 55
_symmetry_cell_setting 'orthorhombic'
loop_
_space_group_symop_operation_xyz
x,y,z
-x,-y,z
1/2+x,1/2-y,-z
1/2-x,1/2+y,-z
-x,-y,-z
x,y,-z
1/2-x,1/2+y,z
1/2+x,1/2-y,z
loop_
_atom_site_type_symbol
_atom_site_label
_atom_site_fract_x
_atom_site_fract_y
_atom_site_fract_z
Si Si1 0.293757 0.726248 0.000000
Si Si2 0.893808 0.716855 0.299943
Si Si3 0.013780 0.164649 0.890977
Si Si4 0.426109 0.952010 0.150517
Si Si5 0.484374 0.781129 0.566335
Si Si6 0.570301 0.436909 0.069772
Si Si7 0.018352 0.349714 0.188136
O O1 0.394428 0.702084 0.938654
O O2 0.477537 0.771370 0.000000
O O3 0.780882 0.761599 0.432836
O O4 0.928123 0.677530 0.250118
O O5 0.120578 0.755550 0.293444
O O6 0.924231 0.696280 0.368595
O O7 0.024415 0.117135 0.926860
O O8 0.225146 0.160216 0.836193
O O9 0.726010 0.169446 0.861828
O O10 0.640705 0.946019 0.096412
O O11 0.439153 0.904756 0.188659
O O12 0.145792 0.955729 0.116996
O O13 0.500000 0.000000 0.182148
O O14 0.442463 0.804260 0.500000
O O15 0.540624 0.451666 0.000000
#
# Coordination Sequence:
#
# PCOD9425405 Si02
#       7
#     4   8   8   8   8   8   8
#     4  12  24  34  48  64  79 108 149 186 222 264
#     4  10  19  30  47  69  92 120 154 180 208 258
#     4  10  21  36  46  61  84 112 142 181 227 263
#     4  10  21  33  47  68  87 109 140 176 223 274
#     4   8  14  25  41  63  91 119 144 175 211 245
#     4  10  19  33  51  63  84 107 130 173 227 280
#     4  10  21  34  50  64  89 118 142 184 222 255
#
# _framework density 15.990315000000001
#
# number of rings (size 3 to 8) (size 9 to 14) (size 15 to 20)
#    0.000    2.154    0.769    2.769    0.000    5.538 
#    0.000    0.000    0.000    0.000    0.000    0.000 
#    0.000    0.615    0.000    0.000    0.000   82.462 
#
# Total GULP energy -289774.044143 kJ/mol
# GULP energy per Si atom -5572.577772 kJ/mol
# Density = 1.595392 g / cm^3
# Si number density = 15.990315 Si / 1000 Ang^3
#
#
#
# Elastic Constant Matrix: (Units=GPa)
#
#
# Indices 1 2 3 4 5 6 
#
# 1 64.1108 -0.7828 -10.7973 0.0000 0.0000 0.0000
# 2 -0.7828 49.0353 40.1983 0.0000 0.0000 0.0000
# 3 -10.7973 40.1983 84.5967 0.0000 0.0000 0.0000
# 4 0.0000 0.0000 0.0000 41.7536 0.0000 0.0000
# 5 0.0000 0.0000 0.0000 0.0000 8.7601 0.0000
# 6 0.0000 0.0000 0.0000 0.0000 0.0000 18.1665
#
#
#
# Elastic Compliance Matrix: (Units=1/GPa)
#
#
# Indices 1 2 3 4 5 6 
#
# 1 0.016103 -0.002339 0.003167 0.000000 0.000000 0.000000
# 2 -0.002339 0.033747 -0.016334 0.000000 0.000000 0.000000
# 3 0.003167 -0.016334 0.019987 0.000000 0.000000 0.000000
# 4 0.000000 0.000000 0.000000 0.023950 0.000000 0.000000
# 5 0.000000 0.000000 0.000000 0.000000 0.114154 0.000000
# 6 0.000000 0.000000 0.000000 0.000000 0.000000 0.055046
#
#
# Mechanical properties :
#
#
# Convention : Reuss Voigt Hill
#
# Bulk Modulus (GPa) = 25.75784 28.33104 27.04444
# Shear Modulus (GPa) = 16.28984 25.01101 20.65043
#
# Velocity S-wave (km/s) = 3.19522 3.95921 3.59755
# Velocity P-wave (km/s) = 5.45490 6.21743 5.84861
#
# Compressibility (1/GPa) = 0.03882313
#
# Stress axis : x y z
#
# Youngs Moduli (GPa) = 62.10120 29.63264 50.03370
#
# Poissons Ratio (x) = 0.06931 -0.15844
# Poissons Ratio (y) = 0.14525 0.81725
# Poissons Ratio (z) = -0.19665 0.48402
#
# Static dielectric constant tensor:
#      x y z
#    x 1.549390 0.000000 0.000000 
#    y 0.000000 1.579140 0.000000 
#    z 0.000000 0.000000 1.536320 
# 
# From -- ./inp_files/20529.got.cif
#   From: 2010.05.17/outbox.cif.g08.bks.cpg/sg55_11_cif.got.tgz:20529.got - 2010.06.03 13:27:54.
