data_PCOD9425810
_publ_section_title
;
Structure prediction by ZEFSAII (Michael W. Deem and Ramdas Pophale) SiO2 
 PCOD9425810
Probable space group: P B A M
;
_chemical_formula_sum "Si O2"
_cell_formula_units_Z 56
_cell_length_a 23.211002
_cell_length_b 14.930365
_cell_length_c 7.717877
_cell_angle_alpha 90.000000
_cell_angle_beta 90.000000
_cell_angle_gamma 90.000000
_cell_volume 2674.620487
_symmetry_space_group_name_H-M "P B A M"
_symmetry_group_IT_number 55
_symmetry_cell_setting 'orthorhombic'
loop_
_space_group_symop_operation_xyz
x,y,z
-x,-y,z
1/2+x,1/2-y,-z
1/2-x,1/2+y,-z
-x,-y,-z
x,y,-z
1/2-x,1/2+y,z
1/2+x,1/2-y,z
loop_
_atom_site_type_symbol
_atom_site_label
_atom_site_fract_x
_atom_site_fract_y
_atom_site_fract_z
Si Si1 0.888895 0.790381 0.207811
Si Si2 0.345507 0.896824 0.294804
Si Si3 0.001963 0.896933 0.787158
Si Si4 0.784439 0.911106 0.789801
Si Si5 0.894289 0.224760 0.200975
Si Si6 0.653662 0.903010 0.206466
Si Si7 0.215190 0.885085 0.295331
O O1 0.886040 0.685978 0.251368
O O2 0.830927 0.839334 0.272483
O O3 0.945226 0.842893 0.268409
O O4 0.888393 0.797840 0.000000
O O5 0.339523 0.903155 0.500000
O O6 0.280641 0.876888 0.225324
O O7 0.364788 0.994701 0.233874
O O8 0.058195 0.842757 0.725330
O O9 0.002680 0.899453 0.000000
O O10 0.000000 0.000000 0.730094
O O11 0.719362 0.894485 0.725988
O O12 0.801419 0.011305 0.734812
O O13 0.783512 0.909674 0.000000
O O14 0.886406 0.324019 0.277905
O O15 0.831741 0.178534 0.209956
O O16 0.911062 0.235830 0.000000
O O17 0.657138 0.888987 0.000000
O O18 0.214967 0.865982 0.500000
#
# Coordination Sequence:
#
# PCOD9425810 Si02
#       7
#     8   8   8   8   8   8   8
#     4  10  19  33  55  79 103 135 173 212 255 302
#     4  10  21  35  51  74 105 137 168 208 258 309
#     4   9  18  33  54  80 106 131 164 208 255 302
#     4   9  17  30  50  75 101 131 168 210 255 302
#     4  10  19  33  54  77 102 135 174 214 255 300
#     4   9  18  32  51  75 100 129 170 215 254 298
#     4  10  20  32  49  76 107 137 168 206 256 310
#
# _framework density 20.937550999999999
#
# number of rings (size 3 to 8) (size 9 to 14) (size 15 to 20)
#    0.000    2.429    0.000    2.571    0.000    6.286 
#    0.000    4.286    0.000    6.000    0.000    0.000 
#    0.000    0.000    0.000    0.000    0.000    0.000 
#
# Total GULP energy -312637.637117 kJ/mol
# GULP energy per Si atom -5582.814949 kJ/mol
# Density = 2.088990 g / cm^3
# Si number density = 20.937551 Si / 1000 Ang^3
#
#
#
# Elastic Constant Matrix: (Units=GPa)
#
#
# Indices 1 2 3 4 5 6 
#
# 1 63.6064 92.4199 3.5198 0.0000 0.0000 0.0000
# 2 92.4199 189.7296 -9.4976 0.0000 0.0000 0.0000
# 3 3.5198 -9.4976 30.3102 0.0000 0.0000 0.0000
# 4 0.0000 0.0000 0.0000 -304.0057 0.0000 0.0000
# 5 0.0000 0.0000 0.0000 0.0000 3.7169 0.0000
# 6 0.0000 0.0000 0.0000 0.0000 0.0000 34.2972
#
#
#
# Elastic Compliance Matrix: (Units=1/GPa)
#
#
# Indices 1 2 3 4 5 6 
#
# 1 0.061113 -0.030604 -0.016687 0.000000 0.000000 0.000000
# 2 -0.030604 0.020681 0.010034 0.000000 0.000000 0.000000
# 3 -0.016687 0.010034 0.038074 0.000000 0.000000 0.000000
# 4 0.000000 0.000000 0.000000 -0.003289 0.000000 0.000000
# 5 0.000000 0.000000 0.000000 0.000000 0.269042 0.000000
# 6 0.000000 0.000000 0.000000 0.000000 0.000000 0.029157
#
#
# Mechanical properties :
#
#
# Convention : Reuss Voigt Hill
#
# Bulk Modulus (GPa) = 22.04849 50.72559 36.38704
# Shear Modulus (GPa) = 9.91258 -40.05137 -15.06940
#
# Velocity S-wave (km/s) = 2.17822 -4.37841 -2.68569
# Velocity P-wave (km/s) = 4.10848 1.13180 2.79273
#
# Compressibility (1/GPa) = 0.04535459
#
# Stress axis : x y z
#
# Youngs Moduli (GPa) = 16.36310 48.35408 26.26454
#
# Poissons Ratio (x) = 1.47985 0.43826
# Poissons Ratio (y) = 0.50078 -0.26354
# Poissons Ratio (z) = 0.27304 -0.48519
#
# Static dielectric constant tensor:
#      x y z
#    x 1.744540 0.000000 0.000000 
#    y 0.000000 1.764060 0.000000 
#    z 0.000000 0.000000 1.764790 
# 
# From -- ./inp_files/6092.got.cif
#   From: 2010.05.17/outbox.cif.g08.bks.cpg/sg55_4_cif.got.tgz:6092.got - 2010.06.03 13:27:54.
