data_PCOD9425294
_publ_section_title
;
Structure prediction by ZEFSAII (Michael W. Deem and Ramdas Pophale) SiO2 
 PCOD9425294
Probable space group: P B A M
;
_chemical_formula_sum "Si O2"
_cell_formula_units_Z 48
_cell_length_a 16.985000
_cell_length_b 18.256071
_cell_length_c 8.690847
_cell_angle_alpha 90.000000
_cell_angle_beta 90.000000
_cell_angle_gamma 90.000000
_cell_volume 2694.852327
_symmetry_space_group_name_H-M "P B A M"
_symmetry_group_IT_number 55
_symmetry_cell_setting 'orthorhombic'
loop_
_space_group_symop_operation_xyz
x,y,z
-x,-y,z
1/2+x,1/2-y,-z
1/2-x,1/2+y,-z
-x,-y,-z
x,y,-z
1/2-x,1/2+y,z
1/2+x,1/2-y,z
loop_
_atom_site_type_symbol
_atom_site_label
_atom_site_fract_x
_atom_site_fract_y
_atom_site_fract_z
Si Si1 0.146698 0.828019 0.182419
Si Si2 0.911078 0.478124 0.815341
Si Si3 0.336003 0.168235 0.314958
Si Si4 0.323951 0.594619 0.686405
Si Si5 0.739022 0.055502 0.315057
Si Si6 0.001591 0.087750 0.683405
O O1 0.141078 0.746827 0.251072
O O2 0.221523 0.871359 0.251432
O O3 0.069398 0.873314 0.231055
O O4 0.153455 0.824795 0.000000
O O5 0.888044 0.398568 0.749112
O O6 0.846720 0.534794 0.748734
O O7 0.000000 0.500000 0.773781
O O8 0.904458 0.476693 0.000000
O O9 0.340154 0.167514 0.500000
O O10 0.245813 0.149141 0.268394
O O11 0.327310 0.593824 0.500000
O O12 0.295262 0.513154 0.731380
O O13 0.411814 0.612339 0.738686
O O14 0.736542 0.057834 0.500000
O O15 0.992973 0.102313 0.500000
O O16 0.000000 0.000000 0.702008
#
# Coordination Sequence:
#
# PCOD9425294 Si02
#       6
#     8   8   8   8   8   8
#     4  12  24  37  54  84 122 155 190 239 299 345
#     4  10  21  39  62  89 120 151 188 239 295 347
#     4  10  21  39  61  83 112 154 200 240 283 339
#     4   8  16  33  58  84 106 138 186 233 275 329
#     4  10  19  36  61  85 110 149 197 236 276 339
#     4  10  18  34  60  86 115 148 185 232 285 345
#
# _framework density 17.811734999999999
#
# number of rings (size 3 to 8) (size 9 to 14) (size 15 to 20)
#    0.000    2.000    1.667    4.000    0.000    1.667 
#    3.000    1.667    0.000    0.000    0.000    0.000 
#    0.000    0.000    0.000    0.000    0.000    0.000 
#
# Total GULP energy -267925.993182 kJ/mol
# GULP energy per Si atom -5581.791525 kJ/mol
# Density = 1.777120 g / cm^3
# Si number density = 17.811735 Si / 1000 Ang^3
#
#
#
# Elastic Constant Matrix: (Units=GPa)
#
#
# Indices 1 2 3 4 5 6 
#
# 1 150.7825 69.1918 56.9268 0.0000 0.0000 0.0000
# 2 69.1918 99.1844 48.7688 0.0000 0.0000 0.0000
# 3 56.9268 48.7688 80.5413 0.0000 0.0000 0.0000
# 4 0.0000 0.0000 0.0000 22.9224 0.0000 0.0000
# 5 0.0000 0.0000 0.0000 0.0000 27.3110 0.0000
# 6 0.0000 0.0000 0.0000 0.0000 0.0000 18.1255
#
#
#
# Elastic Compliance Matrix: (Units=1/GPa)
#
#
# Indices 1 2 3 4 5 6 
#
# 1 0.010725 -0.005346 -0.004343 0.000000 0.000000 0.000000
# 2 -0.005346 0.017022 -0.006528 0.000000 0.000000 0.000000
# 3 -0.004343 -0.006528 0.019439 0.000000 0.000000 0.000000
# 4 0.000000 0.000000 0.000000 0.043625 0.000000 0.000000
# 5 0.000000 0.000000 0.000000 0.000000 0.036615 0.000000
# 6 0.000000 0.000000 0.000000 0.000000 0.000000 0.055171
#
#
# Mechanical properties :
#
#
# Convention : Reuss Voigt Hill
#
# Bulk Modulus (GPa) = 67.79591 75.58701 71.69146
# Shear Modulus (GPa) = 22.73250 24.04651 23.38951
#
# Velocity S-wave (km/s) = 3.57636 3.67827 3.62767
# Velocity P-wave (km/s) = 7.42960 7.78257 7.60813
#
# Compressibility (1/GPa) = 0.01475015
#
# Stress axis : x y z
#
# Youngs Moduli (GPa) = 93.23795 58.74835 51.44386
#
# Poissons Ratio (x) = 0.31409 0.22344
# Poissons Ratio (y) = 0.49849 0.33583
# Poissons Ratio (z) = 0.40496 0.38351
#
# Static dielectric constant tensor:
#      x y z
#    x 1.617330 0.000000 0.000000 
#    y 0.000000 1.582920 0.000000 
#    z 0.000000 0.000000 1.599050 
# 
# From -- ./inp_files/7555.got.cif
#   From: 2010.05.17/outbox.cif.g08.bks.cpg/sg55_4_cif.got.tgz:7555.got - 2010.06.03 13:27:54.
