data_PCOD9425411
_publ_section_title
;
Structure prediction by ZEFSAII (Michael W. Deem and Ramdas Pophale) SiO2 
 PCOD9425411
Probable space group: P B A M
;
_chemical_formula_sum "Si O2"
_cell_formula_units_Z 48
_cell_length_a 11.914064
_cell_length_b 17.185356
_cell_length_c 13.065795
_cell_angle_alpha 90.000000
_cell_angle_beta 90.000000
_cell_angle_gamma 90.000000
_cell_volume 2675.187963
_symmetry_space_group_name_H-M "P B A M"
_symmetry_group_IT_number 55
_symmetry_cell_setting 'orthorhombic'
loop_
_space_group_symop_operation_xyz
x,y,z
-x,-y,z
1/2+x,1/2-y,-z
1/2-x,1/2+y,-z
-x,-y,-z
x,y,-z
1/2-x,1/2+y,z
1/2+x,1/2-y,z
loop_
_atom_site_type_symbol
_atom_site_label
_atom_site_fract_x
_atom_site_fract_y
_atom_site_fract_z
Si Si1 0.553433 0.416762 0.379445
Si Si2 0.244139 0.389755 0.113591
Si Si3 0.391746 0.301197 0.726656
Si Si4 0.752262 0.341525 0.251276
Si Si5 0.615232 0.954389 0.116360
Si Si6 0.419625 0.750822 0.117031
O O1 0.500000 0.500000 0.347015
O O2 0.576930 0.421376 0.500000
O O3 0.462414 0.349105 0.355896
O O4 0.665715 0.391787 0.318589
O O5 0.322898 0.362383 0.204502
O O6 0.211060 0.479326 0.117895
O O7 0.131560 0.337407 0.121089
O O8 0.292014 0.372758 0.000000
O O9 0.307879 0.232651 0.691648
O O10 0.479455 0.262232 0.805410
O O11 0.849502 0.392859 0.200849
O O12 0.680046 0.304779 0.157896
O O13 0.500000 0.000000 0.136390
O O14 0.608690 0.921873 0.000000
O O15 0.449310 0.733280 0.000000
#
# Coordination Sequence:
#
# PCOD9425411 Si02
#       6
#     8   8   8   8   8   8
#     4  10  22  40  59  76  97 130 171 217 271 323
#     4   9  17  28  44  69 101 136 169 199 236 287
#     4  10  19  32  52  75  99 129 167 212 256 299
#     4  10  20  33  52  78 105 135 172 214 258 305
#     4  10  19  30  47  73 107 143 172 199 238 294
#     4   9  17  29  46  72 106 140 172 204 242 294
#
# _framework density 17.942665999999999
#
# number of rings (size 3 to 8) (size 9 to 14) (size 15 to 20)
#    0.000    2.333    0.000    3.000    0.000    4.000 
#    0.000    0.000    0.000    8.500    0.000    0.000 
#    0.000    0.000    0.000    0.000    0.000    0.000 
#
# Total GULP energy -267680.399238 kJ/mol
# GULP energy per Si atom -5576.674984 kJ/mol
# Density = 1.790183 g / cm^3
# Si number density = 17.942666 Si / 1000 Ang^3
#
#
#
# Elastic Constant Matrix: (Units=GPa)
#
#
# Indices 1 2 3 4 5 6 
#
# 1 62.6174 22.8390 14.5090 0.0000 0.0000 0.0000
# 2 22.8390 74.9317 31.5375 0.0000 0.0000 0.0000
# 3 14.5090 31.5375 41.9244 0.0000 0.0000 0.0000
# 4 0.0000 0.0000 0.0000 16.5338 0.0000 0.0000
# 5 0.0000 0.0000 0.0000 0.0000 12.7470 0.0000
# 6 0.0000 0.0000 0.0000 0.0000 0.0000 24.3146
#
#
#
# Elastic Compliance Matrix: (Units=1/GPa)
#
#
# Indices 1 2 3 4 5 6 
#
# 1 0.018242 -0.004248 -0.003118 0.000000 0.000000 0.000000
# 2 -0.004248 0.020518 -0.013964 0.000000 0.000000 0.000000
# 3 -0.003118 -0.013964 0.035436 0.000000 0.000000 0.000000
# 4 0.000000 0.000000 0.000000 0.060482 0.000000 0.000000
# 5 0.000000 0.000000 0.000000 0.000000 0.078450 0.000000
# 6 0.000000 0.000000 0.000000 0.000000 0.000000 0.041128
#
#
# Mechanical properties :
#
#
# Convention : Reuss Voigt Hill
#
# Bulk Modulus (GPa) = 31.70989 35.24940 33.47964
# Shear Modulus (GPa) = 16.26409 18.09160 17.17784
#
# Velocity S-wave (km/s) = 3.01399 3.17882 3.09750
# Velocity P-wave (km/s) = 5.46109 5.75860 5.61181
#
# Compressibility (1/GPa) = 0.03153590
#
# Stress axis : x y z
#
# Youngs Moduli (GPa) = 54.81926 48.73881 28.22006
#
# Poissons Ratio (x) = 0.20704 0.08798
# Poissons Ratio (y) = 0.23287 0.39407
# Poissons Ratio (z) = 0.17090 0.68059
#
# Static dielectric constant tensor:
#      x y z
#    x 1.641920 0.000000 0.000000 
#    y 0.000000 1.645280 0.000000 
#    z 0.000000 0.000000 1.577710 
# 
# From -- ./inp_files/13186.got.cif
#   From: 2010.05.17/outbox.cif.g08.bks.cpg/sg55_7_cif.got.tgz:13186.got - 2010.06.03 13:27:54.
