data_PCOD9425844
_publ_section_title
;
Structure prediction by ZEFSAII (Michael W. Deem and Ramdas Pophale) SiO2 
 PCOD9425844
Probable space group: P B A M
;
_chemical_formula_sum "Si O2"
_cell_formula_units_Z 56
_cell_length_a 16.060176
_cell_length_b 19.932339
_cell_length_c 8.831839
_cell_angle_alpha 90.000000
_cell_angle_beta 90.000000
_cell_angle_gamma 90.000000
_cell_volume 2827.220678
_symmetry_space_group_name_H-M "P B A M"
_symmetry_group_IT_number 55
_symmetry_cell_setting 'orthorhombic'
loop_
_space_group_symop_operation_xyz
x,y,z
-x,-y,z
1/2+x,1/2-y,-z
1/2-x,1/2+y,-z
-x,-y,-z
x,y,-z
1/2-x,1/2+y,z
1/2+x,1/2-y,z
loop_
_atom_site_type_symbol
_atom_site_label
_atom_site_fract_x
_atom_site_fract_y
_atom_site_fract_z
Si Si1 0.529469 0.280053 0.319876
Si Si2 0.635802 0.378283 0.166830
Si Si3 0.136207 0.717561 0.179759
Si Si4 0.753983 0.059527 0.680879
Si Si5 0.202829 0.590166 0.677502
Si Si6 0.582649 0.528011 0.169023
Si Si7 0.795624 0.705926 0.681294
O O1 0.524195 0.290552 0.500000
O O2 0.550625 0.347897 0.229450
O O3 0.445442 0.247651 0.259245
O O4 0.613599 0.237167 0.286555
O O5 0.707422 0.374493 0.292661
O O6 0.627962 0.457080 0.147352
O O7 0.657468 0.349573 0.000000
O O8 0.143855 0.639226 0.227906
O O9 0.218677 0.757348 0.236542
O O10 0.129893 0.723607 0.000000
O O11 0.761581 0.054996 0.500000
O O12 0.704735 0.126870 0.720881
O O13 0.711473 0.988173 0.725212
O O14 0.847574 0.069415 0.745278
O O15 0.182411 0.592793 0.500000
O O16 0.500000 0.500000 0.249749
O O17 0.561986 0.555005 0.000000
O O18 0.781606 0.711836 0.500000
#
# Coordination Sequence:
#
# PCOD9425844 Si02
#       7
#     8   8   8   8   8   8   8
#     4  11  23  39  61  86 119 158 200 248 302 358
#     4  10  19  33  54  81 116 152 192 237 286 347
#     4  12  25  39  61  89 121 158 202 250 300 358
#     4   9  20  37  59  85 112 148 195 246 298 356
#     4  10  19  37  61  85 115 154 196 238 293 354
#     4   9  19  33  49  76 115 154 190 231 285 352
#     4  10  22  42  64  90 121 154 198 251 305 361
#
# _framework density 19.80744
#
# number of rings (size 3 to 8) (size 9 to 14) (size 15 to 20)
#    0.000    1.857    1.429    2.571    2.000    2.571 
#    0.000    0.714    0.000    4.286    0.000    0.000 
#    0.000    0.000    0.000    0.000    0.000    0.000 
#
# Total GULP energy -312010.042430 kJ/mol
# GULP energy per Si atom -5571.607901 kJ/mol
# Density = 1.976236 g / cm^3
# Si number density = 19.807440 Si / 1000 Ang^3
#
#
#
# Elastic Constant Matrix: (Units=GPa)
#
#
# Indices 1 2 3 4 5 6 
#
# 1 62.9628 12.9484 24.6730 0.0000 0.0000 0.0000
# 2 12.9484 73.6566 27.7164 0.0000 0.0000 0.0000
# 3 24.6730 27.7164 69.7268 0.0000 0.0000 0.0000
# 4 0.0000 0.0000 0.0000 7.4609 0.0000 0.0000
# 5 0.0000 0.0000 0.0000 0.0000 -53.3994 0.0000
# 6 0.0000 0.0000 0.0000 0.0000 0.0000 17.7873
#
#
#
# Elastic Compliance Matrix: (Units=1/GPa)
#
#
# Indices 1 2 3 4 5 6 
#
# 1 0.018493 -0.000927 -0.006175 0.000000 0.000000 0.000000
# 2 -0.000927 0.016011 -0.006036 0.000000 0.000000 0.000000
# 3 -0.006175 -0.006036 0.018926 0.000000 0.000000 0.000000
# 4 0.000000 0.000000 0.000000 0.134032 0.000000 0.000000
# 5 0.000000 0.000000 0.000000 0.000000 -0.018727 0.000000
# 6 0.000000 0.000000 0.000000 0.000000 0.000000 0.056220
#
#
# Mechanical properties :
#
#
# Convention : Reuss Voigt Hill
#
# Bulk Modulus (GPa) = 36.82879 37.44689 37.13784
# Shear Modulus (GPa) = 19.20983 3.77032 11.49007
#
# Velocity S-wave (km/s) = 3.11759 1.38117 2.41112
# Velocity P-wave (km/s) = 5.62076 4.63573 5.15184
#
# Compressibility (1/GPa) = 0.02715267
#
# Stress axis : x y z
#
# Youngs Moduli (GPa) = 54.07469 62.45745 52.83688
#
# Poissons Ratio (x) = 0.05792 0.32628
# Poissons Ratio (y) = 0.05014 0.31893
# Poissons Ratio (z) = 0.33392 0.37701
#
# Static dielectric constant tensor:
#      x y z
#    x 1.708560 0.000000 0.000000 
#    y 0.000000 1.771910 0.000000 
#    z 0.000000 0.000000 1.718960 
# 
# From -- ./inp_files/6004.got.cif
#   From: 2010.05.17/outbox.cif.g08.bks.cpg/sg55_4_cif.got.tgz:6004.got - 2010.06.03 13:27:54.
