data_PCOD9425078
_publ_section_title
;
Structure prediction by ZEFSAII (Michael W. Deem and Ramdas Pophale) SiO2 
 PCOD9425078
Probable space group: P B A M
;
_chemical_formula_sum "Si O2"
_cell_formula_units_Z 48
_cell_length_a 15.364367
_cell_length_b 11.590850
_cell_length_c 14.048701
_cell_angle_alpha 90.000000
_cell_angle_beta 90.000000
_cell_angle_gamma 90.000000
_cell_volume 2501.877995
_symmetry_space_group_name_H-M "P B A M"
_symmetry_group_IT_number 55
_symmetry_cell_setting 'orthorhombic'
loop_
_space_group_symop_operation_xyz
x,y,z
-x,-y,z
1/2+x,1/2-y,-z
1/2-x,1/2+y,-z
-x,-y,-z
x,y,-z
1/2-x,1/2+y,z
1/2+x,1/2-y,z
loop_
_atom_site_type_symbol
_atom_site_label
_atom_site_fract_x
_atom_site_fract_y
_atom_site_fract_z
Si Si1 0.394323 0.878104 0.386831
Si Si2 0.350418 0.672721 0.892245
Si Si3 0.739755 0.718547 0.262778
Si Si4 0.579373 0.868101 0.305726
Si Si5 0.975160 0.308038 0.893976
Si Si6 0.149672 0.914320 0.106392
O O1 0.388047 0.871759 0.500000
O O2 0.314791 0.814904 0.335640
O O3 0.488054 0.830193 0.352564
O O4 0.394420 0.011597 0.353248
O O5 0.277569 0.690407 0.813499
O O6 0.425393 0.767949 0.879652
O O7 0.387361 0.543106 0.884227
O O8 0.315801 0.683949 0.000000
O O9 0.655456 0.773942 0.312107
O O10 0.712919 0.612359 0.194252
O O11 0.559039 0.882971 0.193228
O O12 0.920632 0.188113 0.890814
O O13 0.964407 0.357349 0.000000
O O14 0.190559 0.909511 0.000000
#
# Coordination Sequence:
#
# PCOD9425078 Si02
#       6
#     8   8   8   8   8   8
#     4  11  24  42  62  83 109 147 195 244 297 347
#     4  10  18  31  52  81 118 153 185 223 271 328
#     4  11  21  36  59  86 112 148 192 239 279 337
#     4  10  21  40  61  84 116 149 188 232 287 343
#     4   9  17  32  55  84 116 150 187 222 267 337
#     4   9  18  31  51  82 118 154 184 217 270 337
#
# _framework density 19.185587999999999
#
# number of rings (size 3 to 8) (size 9 to 14) (size 15 to 20)
#    0.000    2.000    1.667    3.000    0.000    4.000 
#    0.000    3.333    0.000    0.000    0.000    4.667 
#    0.000    0.000    0.000    0.000    0.000    0.000 
#
# Total GULP energy -267854.594356 kJ/mol
# GULP energy per Si atom -5580.304049 kJ/mol
# Density = 1.914192 g / cm^3
# Si number density = 19.185588 Si / 1000 Ang^3
#
#
#
# Elastic Constant Matrix: (Units=GPa)
#
#
# Indices 1 2 3 4 5 6 
#
# 1 117.1651 34.0424 70.6168 0.0000 0.0000 0.0000
# 2 34.0424 36.1866 34.1662 0.0000 0.0000 0.0000
# 3 70.6168 34.1662 144.2846 0.0000 0.0000 0.0000
# 4 0.0000 0.0000 0.0000 19.5734 0.0000 0.0000
# 5 0.0000 0.0000 0.0000 0.0000 10.7307 0.0000
# 6 0.0000 0.0000 0.0000 0.0000 0.0000 26.8911
#
#
#
# Elastic Compliance Matrix: (Units=1/GPa)
#
#
# Indices 1 2 3 4 5 6 
#
# 1 0.013903 -0.008571 -0.004775 0.000000 0.000000 0.000000
# 2 -0.008571 0.040876 -0.005484 0.000000 0.000000 0.000000
# 3 -0.004775 -0.005484 0.010566 0.000000 0.000000 0.000000
# 4 0.000000 0.000000 0.000000 0.051090 0.000000 0.000000
# 5 0.000000 0.000000 0.000000 0.000000 0.093190 0.000000
# 6 0.000000 0.000000 0.000000 0.000000 0.000000 0.037187
#
#
# Mechanical properties :
#
#
# Convention : Reuss Voigt Hill
#
# Bulk Modulus (GPa) = 36.12103 63.92078 50.02090
# Shear Modulus (GPa) = 17.02407 22.02644 19.52525
#
# Velocity S-wave (km/s) = 2.98205 3.39200 3.19361
# Velocity P-wave (km/s) = 5.54300 6.98071 6.30298
#
# Compressibility (1/GPa) = 0.02768470
#
# Stress axis : x y z
#
# Youngs Moduli (GPa) = 71.92567 24.46432 94.63898
#
# Poissons Ratio (x) = 0.20968 0.45190
# Poissons Ratio (y) = 0.61647 0.51904
# Poissons Ratio (z) = 0.34345 0.13417
#
# Static dielectric constant tensor:
#      x y z
#    x 1.699990 0.000000 0.000000 
#    y 0.000000 1.674000 0.000000 
#    z 0.000000 0.000000 1.656350 
# 
# From -- ./inp_files/18251.got.cif
#   From: 2010.05.17/outbox.cif.g08.bks.cpg/sg55_10_cif.got.tgz:18251.got - 2010.06.03 13:27:54.
