data_PCOD9425250
_publ_section_title
;
Structure prediction by ZEFSAII (Michael W. Deem and Ramdas Pophale) SiO2 
 PCOD9425250
Probable space group: P B A M
;
_chemical_formula_sum "Si O2"
_cell_formula_units_Z 48
_cell_length_a 21.064980
_cell_length_b 15.005446
_cell_length_c 8.239102
_cell_angle_alpha 90.000000
_cell_angle_beta 90.000000
_cell_angle_gamma 90.000000
_cell_volume 2604.292972
_symmetry_space_group_name_H-M "P B A M"
_symmetry_group_IT_number 55
_symmetry_cell_setting 'orthorhombic'
loop_
_space_group_symop_operation_xyz
x,y,z
-x,-y,z
1/2+x,1/2-y,-z
1/2-x,1/2+y,-z
-x,-y,-z
x,y,-z
1/2-x,1/2+y,z
1/2+x,1/2-y,z
loop_
_atom_site_type_symbol
_atom_site_label
_atom_site_fract_x
_atom_site_fract_y
_atom_site_fract_z
Si Si1 0.928888 0.187100 0.191987
Si Si2 0.377312 0.502097 0.696160
Si Si3 0.185983 0.313277 0.698445
Si Si4 0.569670 0.307687 0.695771
Si Si5 0.690765 0.800200 0.304081
Si Si6 0.729696 0.994932 0.301722
O O1 0.873531 0.252410 0.252291
O O2 0.998293 0.213182 0.254535
O O3 0.912195 0.087216 0.249875
O O4 0.929312 0.187943 0.000000
O O5 0.377609 0.502840 0.500000
O O6 0.410447 0.593170 0.752720
O O7 0.303596 0.500916 0.747933
O O8 0.185782 0.312991 0.500000
O O9 0.122450 0.262994 0.752392
O O10 0.248074 0.257314 0.749308
O O11 0.194309 0.415321 0.751198
O O12 0.572546 0.309202 0.500000
O O13 0.692301 0.800789 0.500000
O O14 0.699107 0.901965 0.247799
O O15 0.729599 0.994572 0.500000
#
# Coordination Sequence:
#
# PCOD9425250 Si02
#       6
#     8   8   8   8   8   8
#     4  12  25  37  50  76 115 155 186 220 268 324
#     4  10  18  33  59  86 111 138 176 227 281 330
#     4   9  16  30  57  87 111 133 174 228 275 322
#     4  10  20  35  57  84 110 144 183 225 276 328
#     4  10  18  34  60  84 108 139 178 227 273 321
#     4   9  16  29  57  92 112 129 169 228 281 319
#
# _framework density 18.431106
#
# number of rings (size 3 to 8) (size 9 to 14) (size 15 to 20)
#    0.000    2.000    3.333    2.000    0.000    2.667 
#    0.000    2.500    0.000    5.000    0.000    0.000 
#    0.000    0.000    0.000    0.000    0.000    0.000 
#
# Total GULP energy -267977.791923 kJ/mol
# GULP energy per Si atom -5582.870665 kJ/mol
# Density = 1.838916 g / cm^3
# Si number density = 18.431106 Si / 1000 Ang^3
#
#
#
# Elastic Constant Matrix: (Units=GPa)
#
#
# Indices 1 2 3 4 5 6 
#
# 1 149.4329 73.0930 5.5761 0.0000 0.0000 0.0000
# 2 73.0930 142.7936 9.7582 0.0000 0.0000 0.0000
# 3 5.5761 9.7582 9.3609 0.0000 0.0000 0.0000
# 4 0.0000 0.0000 0.0000 -11.8922 0.0000 0.0000
# 5 0.0000 0.0000 0.0000 0.0000 -25.3932 0.0000
# 6 0.0000 0.0000 0.0000 0.0000 0.0000 24.1010
#
#
#
# Elastic Compliance Matrix: (Units=1/GPa)
#
#
# Indices 1 2 3 4 5 6 
#
# 1 0.008930 -0.004530 -0.000597 0.000000 0.000000 0.000000
# 2 -0.004530 0.009839 -0.007558 0.000000 0.000000 0.000000
# 3 -0.000597 -0.007558 0.115062 0.000000 0.000000 0.000000
# 4 0.000000 0.000000 0.000000 -0.084089 0.000000 0.000000
# 5 0.000000 0.000000 0.000000 0.000000 -0.039381 0.000000
# 6 0.000000 0.000000 0.000000 0.000000 0.000000 0.041492
#
#
# Mechanical properties :
#
#
# Convention : Reuss Voigt Hill
#
# Bulk Modulus (GPa) = 9.21992 53.16025 31.19008
# Shear Modulus (GPa) = 44.10077 11.57378 27.83728
#
# Velocity S-wave (km/s) = 4.89687 2.50861 3.89053
# Velocity P-wave (km/s) = 6.08158 6.10705 6.09433
#
# Compressibility (1/GPa) = 0.10846084
#
# Stress axis : x y z
#
# Youngs Moduli (GPa) = 111.97929 101.64045 8.69099
#
# Poissons Ratio (x) = 0.46047 0.00519
# Poissons Ratio (y) = 0.50731 0.06568
# Poissons Ratio (z) = 0.06684 0.76815
#
# Static dielectric constant tensor:
#      x y z
#    x 1.618120 0.000000 0.000000 
#    y 0.000000 1.634700 0.000000 
#    z 0.000000 0.000000 1.632780 
# 
# From -- ./inp_files/5587.got.cif
#   From: 2010.05.17/outbox.cif.g08.bks.cpg/sg55_3_cif.got.tgz:5587.got - 2010.06.03 13:27:54.
