data_PCOD9425758
_publ_section_title
;
Structure prediction by ZEFSAII (Michael W. Deem and Ramdas Pophale) SiO2 
 PCOD9425758
Probable space group: P B A M
;
_chemical_formula_sum "Si O2"
_cell_formula_units_Z 64
_cell_length_a 9.569318
_cell_length_b 26.549540
_cell_length_c 14.937499
_cell_angle_alpha 90.000000
_cell_angle_beta 90.000000
_cell_angle_gamma 90.000000
_cell_volume 3795.035799
_symmetry_space_group_name_H-M "P B A M"
_symmetry_group_IT_number 55
_symmetry_cell_setting 'orthorhombic'
loop_
_space_group_symop_operation_xyz
x,y,z
-x,-y,z
1/2+x,1/2-y,-z
1/2-x,1/2+y,-z
-x,-y,-z
x,y,-z
1/2-x,1/2+y,z
1/2+x,1/2-y,z
loop_
_atom_site_type_symbol
_atom_site_label
_atom_site_fract_x
_atom_site_fract_y
_atom_site_fract_z
Si Si1 0.579684 0.700630 0.395605
Si Si2 0.070355 0.554485 0.102427
Si Si3 0.619256 0.465330 0.162278
Si Si4 0.044355 0.399707 0.275680
Si Si5 0.551613 0.396580 0.317146
Si Si6 0.197601 0.962479 0.671750
Si Si7 0.087633 0.304495 0.395300
Si Si8 0.321804 0.057250 0.400634
O O1 0.560629 0.685102 0.500000
O O2 0.508218 0.658538 0.333747
O O3 0.746394 0.704539 0.380523
O O4 0.501410 0.753683 0.384504
O O5 0.237962 0.547933 0.112055
O O6 0.009111 0.593875 0.174403
O O7 0.000000 0.500000 0.122529
O O8 0.036122 0.567505 0.000000
O O9 0.500000 0.500000 0.115695
O O10 0.562693 0.415489 0.213822
O O11 0.663327 0.501115 0.245193
O O12 0.946446 0.437430 0.331438
O O13 0.200041 0.419864 0.291017
O O14 0.035485 0.346227 0.325090
O O15 0.441516 0.435470 0.361172
O O16 0.699445 0.406230 0.364386
O O17 0.266959 0.000133 0.602100
O O18 0.072354 0.320945 0.500000
O O19 0.364337 0.071467 0.500000
#
# Coordination Sequence:
#
# PCOD9425758 Si02
#       8
#     8   8   8   8   8   8   8   8
#     4  10  21  37  53  78 107 140 186 232 267 313
#     4  11  21  35  57  82 109 145 180 220 274 324
#     4   9  18  33  53  78 109 145 181 218 260 317
#     4  12  20  37  53  75 109 143 177 225 265 320
#     4  10  19  34  53  73 106 149 182 222 264 309
#     4  10  19  33  50  72 108 144 184 214 258 309
#     4  10  23  37  55  77 106 143 184 227 270 314
#     4  11  22  30  47  76 108 148 185 214 254 312
#
# _framework density 16.864135999999998
#
# number of rings (size 3 to 8) (size 9 to 14) (size 15 to 20)
#    0.000    1.625    5.000    2.250    1.750    3.250 
#    0.000    0.000    0.000    0.000    0.000    3.500 
#    0.000    0.000    0.000    0.000    0.000    0.000 
#
# Total GULP energy -356842.234273 kJ/mol
# GULP energy per Si atom -5575.659911 kJ/mol
# Density = 1.682575 g / cm^3
# Si number density = 16.864136 Si / 1000 Ang^3
#
#
#
# Elastic Constant Matrix: (Units=GPa)
#
#
# Indices 1 2 3 4 5 6 
#
# 1 64.8126 26.4109 24.4748 0.0000 0.0000 0.0000
# 2 26.4109 76.3925 34.2320 0.0000 0.0000 0.0000
# 3 24.4748 34.2320 78.9285 0.0000 0.0000 0.0000
# 4 0.0000 0.0000 0.0000 13.9895 0.0000 0.0000
# 5 0.0000 0.0000 0.0000 0.0000 9.2332 0.0000
# 6 0.0000 0.0000 0.0000 0.0000 0.0000 25.3228
#
#
#
# Elastic Compliance Matrix: (Units=1/GPa)
#
#
# Indices 1 2 3 4 5 6 
#
# 1 0.018808 -0.004827 -0.003739 0.000000 0.000000 0.000000
# 2 -0.004827 0.017487 -0.006087 0.000000 0.000000 0.000000
# 3 -0.003739 -0.006087 0.016469 0.000000 0.000000 0.000000
# 4 0.000000 0.000000 0.000000 0.071482 0.000000 0.000000
# 5 0.000000 0.000000 0.000000 0.000000 0.108304 0.000000
# 6 0.000000 0.000000 0.000000 0.000000 0.000000 0.039490
#
#
# Mechanical properties :
#
#
# Convention : Reuss Voigt Hill
#
# Bulk Modulus (GPa) = 42.62966 43.37432 43.00199
# Shear Modulus (GPa) = 16.17253 18.71016 17.44135
#
# Velocity S-wave (km/s) = 3.10012 3.33448 3.21943
# Velocity P-wave (km/s) = 6.17636 6.37187 6.27488
#
# Compressibility (1/GPa) = 0.02345784
#
# Stress axis : x y z
#
# Youngs Moduli (GPa) = 53.16914 57.18542 60.71963
#
# Poissons Ratio (x) = 0.27604 0.22700
# Poissons Ratio (y) = 0.25665 0.36963
# Poissons Ratio (z) = 0.19878 0.34811
#
# Static dielectric constant tensor:
#      x y z
#    x 1.621200 0.000000 0.000000 
#    y 0.000000 1.571020 0.000000 
#    z 0.000000 0.000000 1.560470 
# 
# From -- ./inp_files/17807.got.cif
#   From: 2010.05.17/outbox.cif.g08.bks.cpg/sg55_9_cif.got.tgz:17807.got - 2010.06.03 13:27:54.
