data_PCOD9425348
_publ_section_title
;
Structure prediction by ZEFSAII (Michael W. Deem and Ramdas Pophale) SiO2 
 PCOD9425348
Probable space group: P B A M
;
_chemical_formula_sum "Si O2"
_cell_formula_units_Z 48
_cell_length_a 20.623815
_cell_length_b 8.911217
_cell_length_c 11.215347
_cell_angle_alpha 90.000000
_cell_angle_beta 90.000000
_cell_angle_gamma 90.000000
_cell_volume 2061.193379
_symmetry_space_group_name_H-M "P B A M"
_symmetry_group_IT_number 55
_symmetry_cell_setting 'orthorhombic'
loop_
_space_group_symop_operation_xyz
x,y,z
-x,-y,z
1/2+x,1/2-y,-z
1/2-x,1/2+y,-z
-x,-y,-z
x,y,-z
1/2-x,1/2+y,z
1/2+x,1/2-y,z
loop_
_atom_site_type_symbol
_atom_site_label
_atom_site_fract_x
_atom_site_fract_y
_atom_site_fract_z
Si Si1 0.227838 0.802095 0.208469
Si Si2 0.900037 0.031633 0.871351
Si Si3 0.261814 0.559181 0.367893
Si Si4 0.369954 0.826266 0.127701
Si Si5 0.937469 0.605406 0.367582
Si Si6 0.416718 0.555753 0.629524
O O1 0.167003 0.876714 0.144202
O O2 0.238892 0.884620 0.335592
O O3 0.292475 0.821176 0.133696
O O4 0.224918 0.633614 0.256555
O O5 0.890143 0.850678 0.872667
O O6 0.932349 0.049259 0.741854
O O7 0.929292 0.074108 0.000000
O O8 0.237652 0.589647 0.500000
O O9 0.339111 0.596530 0.362725
O O10 0.396636 0.907715 0.245559
O O11 0.391348 0.891652 0.000000
O O12 0.907172 0.575210 0.500000
O O13 0.951700 0.783971 0.368896
O O14 0.000000 0.500000 0.359205
O O15 0.425809 0.483581 0.500000
#
# Coordination Sequence:
#
# PCOD9425348 Si02
#       6
#     8   8   8   8   8   8
#     4  11  17  31  43  65  90 128 162 190 227 273
#     4   9  17  28  42  61  85 119 155 184 220 267
#     4  10  19  28  45  66  93 125 158 192 229 273
#     4  10  19  31  45  65  94 127 158 195 236 275
#     4   9  16  27  44  64  88 120 156 195 241 285
#     4   8  14  27  41  59  84 114 146 184 224 267
#
# _framework density 23.287482000000001
#
# number of rings (size 3 to 8) (size 9 to 14) (size 15 to 20)
#    0.000    2.500    5.000    1.000    0.000    1.667 
#    0.000    0.000    0.000    0.000    0.000    0.000 
#    0.000   12.000    0.000   83.667    0.000   18.167 
#
# Total GULP energy -267386.601897 kJ/mol
# GULP energy per Si atom -5570.554206 kJ/mol
# Density = 2.323448 g / cm^3
# Si number density = 23.287482 Si / 1000 Ang^3
#
#
#
# Elastic Constant Matrix: (Units=GPa)
#
#
# Indices 1 2 3 4 5 6 
#
# 1 66.8634 10.0065 28.2580 0.0000 0.0000 0.0000
# 2 10.0065 24.7995 6.9541 0.0000 0.0000 0.0000
# 3 28.2580 6.9541 237.7387 0.0000 0.0000 0.0000
# 4 0.0000 0.0000 0.0000 -9.4520 0.0000 0.0000
# 5 0.0000 0.0000 0.0000 0.0000 -2.0177 0.0000
# 6 0.0000 0.0000 0.0000 0.0000 0.0000 31.7279
#
#
#
# Elastic Compliance Matrix: (Units=1/GPa)
#
#
# Indices 1 2 3 4 5 6 
#
# 1 0.016645 -0.006212 -0.001797 0.000000 0.000000 0.000000
# 2 -0.006212 0.042975 -0.000519 0.000000 0.000000 0.000000
# 3 -0.001797 -0.000519 0.004435 0.000000 0.000000 0.000000
# 4 0.000000 0.000000 0.000000 -0.105797 0.000000 0.000000
# 5 0.000000 0.000000 0.000000 0.000000 -0.495607 0.000000
# 6 0.000000 0.000000 0.000000 0.000000 0.000000 0.031518
#
#
# Mechanical properties :
#
#
# Convention : Reuss Voigt Hill
#
# Bulk Modulus (GPa) = 21.27662 46.64877 33.96269
# Shear Modulus (GPa) = -10.56840 22.99716 6.21438
#
# Velocity S-wave (km/s) = -2.13262 3.14591 1.63534
# Velocity P-wave (km/s) = 1.75847 5.76809 4.26398
#
# Compressibility (1/GPa) = 0.04699995
#
# Stress axis : x y z
#
# Youngs Moduli (GPa) = 60.07845 23.26909 225.47759
#
# Poissons Ratio (x) = 0.14456 0.40512
# Poissons Ratio (y) = 0.37323 0.11695
# Poissons Ratio (z) = 0.10794 0.01207
#
# Static dielectric constant tensor:
#      x y z
#    x 1.896060 0.000000 0.000000 
#    y 0.000000 1.840380 0.000000 
#    z 0.000000 0.000000 1.976750 
# 
# From -- ./inp_files/15895.got.cif
#   From: 2010.05.17/outbox.cif.g08.bks.cpg/sg55_8_cif.got.tgz:15895.got - 2010.06.03 13:27:54.
