data_PCOD9425435
_publ_section_title
;
Structure prediction by ZEFSAII (Michael W. Deem and Ramdas Pophale) SiO2 
 PCOD9425435
Probable space group: P B A M
;
_chemical_formula_sum "Si O2"
_cell_formula_units_Z 40
_cell_length_a 8.154165
_cell_length_b 21.389037
_cell_length_c 13.182596
_cell_angle_alpha 90.000000
_cell_angle_beta 90.000000
_cell_angle_gamma 90.000000
_cell_volume 2299.173100
_symmetry_space_group_name_H-M "P B A M"
_symmetry_group_IT_number 55
_symmetry_cell_setting 'orthorhombic'
loop_
_space_group_symop_operation_xyz
x,y,z
-x,-y,z
1/2+x,1/2-y,-z
1/2-x,1/2+y,-z
-x,-y,-z
x,y,-z
1/2-x,1/2+y,z
1/2+x,1/2-y,z
loop_
_atom_site_type_symbol
_atom_site_label
_atom_site_fract_x
_atom_site_fract_y
_atom_site_fract_z
Si Si1 0.979959 0.149729 0.000000
Si Si2 0.015784 0.368888 0.114606
Si Si3 0.846317 0.092298 0.197590
Si Si4 0.442606 0.572526 0.613869
Si Si5 0.677596 0.776095 0.000000
Si Si6 0.832878 0.466300 0.247293
O O1 0.958754 0.108790 0.898809
O O2 0.834560 0.202091 0.000000
O O3 0.146943 0.190245 0.000000
O O4 0.889604 0.417580 0.162773
O O5 0.178388 0.369070 0.181790
O O6 0.058549 0.391445 0.000000
O O7 0.924856 0.303478 0.095508
O O8 0.940192 0.104238 0.302633
O O9 0.785006 0.020213 0.201840
O O10 0.500000 0.500000 0.607991
O O11 0.447609 0.598276 0.500000
O O12 0.262848 0.568333 0.663187
O O13 0.000000 0.500000 0.283320
#
# Coordination Sequence:
#
# PCOD9425435 Si02
#       6
#     4   8   8   8   4   8
#     4  12  20  33  50  73 103 127 171 202 255 311
#     4   9  18  33  47  71 108 129 166 200 248 311
#     4  10  19  30  51  74  99 136 164 204 254 295
#     4   9  18  33  47  69 101 132 171 206 239 292
#     4  10  22  33  48  71 100 139 158 204 252 307
#     4   9  18  30  49  74 103 137 170 206 256 296
#
# _framework density 17.397559000000001
#
# number of rings (size 3 to 8) (size 9 to 14) (size 15 to 20)
#    0.600    1.800    1.000    2.400    1.400    1.600 
#    0.000    5.500    0.000    0.000    0.000   12.600 
#    0.000    0.000    0.000    0.000    0.000    0.000 
#
# Total GULP energy -222745.277671 kJ/mol
# GULP energy per Si atom -5568.631942 kJ/mol
# Density = 1.735796 g / cm^3
# Si number density = 17.397559 Si / 1000 Ang^3
#
#
#
# Elastic Constant Matrix: (Units=GPa)
#
#
# Indices 1 2 3 4 5 6 
#
# 1 89.8158 25.0812 67.2584 0.0000 0.0000 0.0000
# 2 25.0812 36.4693 40.7327 0.0000 0.0000 0.0000
# 3 67.2584 40.7327 147.9451 0.0000 0.0000 0.0000
# 4 0.0000 0.0000 0.0000 -0.5787 0.0000 0.0000
# 5 0.0000 0.0000 0.0000 0.0000 5.5902 0.0000
# 6 0.0000 0.0000 0.0000 0.0000 0.0000 26.4883
#
#
#
# Elastic Compliance Matrix: (Units=1/GPa)
#
#
# Indices 1 2 3 4 5 6 
#
# 1 0.017381 -0.004517 -0.006658 0.000000 0.000000 0.000000
# 2 -0.004517 0.040771 -0.009172 0.000000 0.000000 0.000000
# 3 -0.006658 -0.009172 0.012311 0.000000 0.000000 0.000000
# 4 0.000000 0.000000 0.000000 -1.728044 0.000000 0.000000
# 5 0.000000 0.000000 0.000000 0.000000 0.178886 0.000000
# 6 0.000000 0.000000 0.000000 0.000000 0.000000 0.037753
#
#
# Mechanical properties :
#
#
# Convention : Reuss Voigt Hill
#
# Bulk Modulus (GPa) = 33.59139 60.04164 46.81652
# Shear Modulus (GPa) = -3.59628 15.71048 6.05710
#
# Velocity S-wave (km/s) = -1.43931 3.00830 1.86792
# Velocity P-wave (km/s) = 4.07282 6.83030 5.62320
#
# Compressibility (1/GPa) = 0.02976953
#
# Stress axis : x y z
#
# Youngs Moduli (GPa) = 57.53324 24.52745 81.22620
#
# Poissons Ratio (x) = 0.11080 0.54081
# Poissons Ratio (y) = 0.25989 0.74497
# Poissons Ratio (z) = 0.38306 0.22495
#
# Static dielectric constant tensor:
#      x y z
#    x 1.664430 0.000000 0.000000 
#    y 0.000000 1.588510 0.000000 
#    z 0.000000 0.000000 1.578640 
# 
# From -- ./inp_files/12084.got.cif
#   From: 2010.05.17/outbox.cif.g08.bks.cpg/sg55_7_cif.got.tgz:12084.got - 2010.06.03 13:27:54.
