data_PCOD9425606
_publ_section_title
;
Structure prediction by ZEFSAII (Michael W. Deem and Ramdas Pophale) SiO2 
 PCOD9425606
Probable space group: P B A M
;
_chemical_formula_sum "Si O2"
_cell_formula_units_Z 64
_cell_length_a 19.083522
_cell_length_b 20.492846
_cell_length_c 7.337319
_cell_angle_alpha 90.000000
_cell_angle_beta 90.000000
_cell_angle_gamma 90.000000
_cell_volume 2869.446999
_symmetry_space_group_name_H-M "P B A M"
_symmetry_group_IT_number 55
_symmetry_cell_setting 'orthorhombic'
loop_
_space_group_symop_operation_xyz
x,y,z
-x,-y,z
1/2+x,1/2-y,-z
1/2-x,1/2+y,-z
-x,-y,-z
x,y,-z
1/2-x,1/2+y,z
1/2+x,1/2-y,z
loop_
_atom_site_type_symbol
_atom_site_label
_atom_site_fract_x
_atom_site_fract_y
_atom_site_fract_z
Si Si1 0.238464 0.623582 0.222246
Si Si2 0.412814 0.173721 0.220255
Si Si3 0.940431 0.050551 0.777734
Si Si4 0.821969 0.629893 0.792374
Si Si5 0.031683 0.432728 0.711382
Si Si6 0.484600 0.305395 0.222255
Si Si7 0.356863 0.726305 0.222885
Si Si8 0.282503 0.479643 0.776922
O O1 0.163241 0.650317 0.282589
O O2 0.301077 0.671673 0.277664
O O3 0.252376 0.549526 0.280583
O O4 0.238060 0.623556 0.000000
O O5 0.472793 0.122707 0.274411
O O6 0.435196 0.245841 0.280449
O O7 0.411649 0.174300 0.000000
O O8 0.862921 0.029135 0.722065
O O9 0.958637 0.123792 0.719134
O O10 0.940841 0.050378 0.000000
O O11 0.000000 0.000000 0.718976
O O12 0.896599 0.593180 0.796074
O O13 0.834444 0.701661 0.712873
O O14 0.765144 0.580509 0.712515
O O15 0.798467 0.641869 0.000000
O O16 0.048613 0.444658 0.500000
O O17 0.000000 0.500000 0.787428
O O18 0.564269 0.290873 0.279601
O O19 0.484537 0.305668 0.000000
O O20 0.358228 0.727714 0.000000
O O21 0.280391 0.479615 0.000000
#
# Coordination Sequence:
#
# PCOD9425606 Si02
#       8
#     8   8   8   8   8   8   8   8
#     4   9  17  27  43  68 100 132 164 204 251 297
#     4  10  19  32  51  77 103 133 170 209 250 302
#     4   9  16  25  40  65 105 143 167 203 256 308
#     4  10  19  32  51  76 103 134 169 209 252 301
#     4  11  23  37  53  73 100 134 169 208 257 310
#     4   9  16  26  42  67  97 132 171 203 244 300
#     4   9  16  27  44  68  99 132 164 204 251 294
#     4   9  17  27  41  67 101 136 170 204 249 301
#
# _framework density 22.303948999999999
#
# number of rings (size 3 to 8) (size 9 to 14) (size 15 to 20)
#    0.000    2.500    1.250    1.875    1.750    5.000 
#    0.000    0.000    0.000    0.750    0.000    0.000 
#    0.000    1.000    0.000    0.000    0.000    0.000 
#
# Total GULP energy -357799.885720 kJ/mol
# GULP energy per Si atom -5590.623214 kJ/mol
# Density = 2.225318 g / cm^3
# Si number density = 22.303949 Si / 1000 Ang^3
#
#
#
# Elastic Constant Matrix: (Units=GPa)
#
#
# Indices 1 2 3 4 5 6 
#
# 1 178.7581 85.5322 -4.7149 0.0000 0.0000 0.0000
# 2 85.5322 165.5901 -4.8183 0.0000 0.0000 0.0000
# 3 -4.7149 -4.8183 84.9835 0.0000 0.0000 0.0000
# 4 0.0000 0.0000 0.0000 108.1568 0.0000 0.0000
# 5 0.0000 0.0000 0.0000 0.0000 -43.0423 0.0000
# 6 0.0000 0.0000 0.0000 0.0000 0.0000 48.3422
#
#
#
# Elastic Compliance Matrix: (Units=1/GPa)
#
#
# Indices 1 2 3 4 5 6 
#
# 1 0.007434 -0.003834 0.000195 0.000000 0.000000 0.000000
# 2 -0.003834 0.008026 0.000242 0.000000 0.000000 0.000000
# 3 0.000195 0.000242 0.011792 0.000000 0.000000 0.000000
# 4 0.000000 0.000000 0.000000 0.009246 0.000000 0.000000
# 5 0.000000 0.000000 0.000000 0.000000 -0.023233 0.000000
# 6 0.000000 0.000000 0.000000 0.000000 0.000000 0.020686
#
#
# Mechanical properties :
#
#
# Convention : Reuss Voigt Hill
#
# Bulk Modulus (GPa) = 48.87953 64.59219 56.73586
# Shear Modulus (GPa) = 105.12245 46.24685 75.68465
#
# Velocity S-wave (km/s) = 6.87271 4.55849 5.83155
# Velocity P-wave (km/s) = 9.21637 7.53189 8.41638
#
# Compressibility (1/GPa) = 0.02045846
#
# Stress axis : x y z
#
# Youngs Moduli (GPa) = 134.51982 124.58733 84.80651
#
# Poissons Ratio (x) = 0.47768 -0.01654
# Poissons Ratio (y) = 0.51577 -0.02055
# Poissons Ratio (z) = -0.02624 -0.03020
#
# Static dielectric constant tensor:
#      x y z
#    x 1.746030 0.000000 0.000000 
#    y 0.000000 1.774320 0.000000 
#    z 0.000000 0.000000 1.844800 
# 
# From -- ./inp_files/8044.got.cif
#   From: 2010.05.17/outbox.cif.g08.bks.cpg/sg55_5_cif.got.tgz:8044.got - 2010.06.03 13:27:54.
