data_PCOD9425292
_publ_section_title
;
Structure prediction by ZEFSAII (Michael W. Deem and Ramdas Pophale) SiO2 
 PCOD9425292
Probable space group: P B A M
;
_chemical_formula_sum "Si O2"
_cell_formula_units_Z 64
_cell_length_a 11.416353
_cell_length_b 32.749044
_cell_length_c 8.658277
_cell_angle_alpha 90.000000
_cell_angle_beta 90.000000
_cell_angle_gamma 90.000000
_cell_volume 3237.110255
_symmetry_space_group_name_H-M "P B A M"
_symmetry_group_IT_number 55
_symmetry_cell_setting 'orthorhombic'
loop_
_space_group_symop_operation_xyz
x,y,z
-x,-y,z
1/2+x,1/2-y,-z
1/2-x,1/2+y,-z
-x,-y,-z
x,y,-z
1/2-x,1/2+y,z
1/2+x,1/2-y,z
loop_
_atom_site_type_symbol
_atom_site_label
_atom_site_fract_x
_atom_site_fract_y
_atom_site_fract_z
Si Si1 0.410070 0.758773 0.816645
Si Si2 0.910744 0.615758 0.821521
Si Si3 0.640125 0.326784 0.318090
Si Si4 0.739482 0.679378 0.320088
Si Si5 0.550138 0.616518 0.312382
Si Si6 0.884314 0.025606 0.311829
Si Si7 0.608795 0.821943 0.820423
Si Si8 0.616794 0.026139 0.686863
O O1 0.416517 0.713024 0.758468
O O2 0.290382 0.780693 0.761316
O O3 0.518835 0.786954 0.764318
O O4 0.410628 0.760055 0.000000
O O5 0.836042 0.644293 0.708451
O O6 0.900828 0.569845 0.766268
O O7 0.039359 0.635343 0.816127
O O8 0.870019 0.620668 0.000000
O O9 0.622442 0.322852 0.500000
O O10 0.580667 0.369661 0.270573
O O11 0.775274 0.324955 0.276843
O O12 0.724323 0.688559 0.500000
O O13 0.626277 0.655440 0.259846
O O14 0.560447 0.614791 0.500000
O O15 0.595506 0.572614 0.258578
O O16 0.886748 0.024997 0.500000
O O17 0.750665 0.011996 0.269821
O O18 0.000000 0.000000 0.261776
O O19 0.638399 0.813078 0.000000
O O20 0.617299 0.030487 0.500000
O O21 0.500000 0.000000 0.726167
#
# Coordination Sequence:
#
# PCOD9425292 Si02
#       8
#     8   8   8   8   8   8   8   8
#     4  10  22  39  57  81 113 151 194 236 291 353
#     4  10  20  36  58  82 110 149 189 232 289 348
#     4  11  23  36  55  84 116 150 194 244 295 349
#     4  10  18  34  60  85 111 143 188 240 287 340
#     4   9  19  34  54  84 116 148 189 238 294 351
#     4   9  17  33  57  84 119 157 192 241 305 362
#     4   9  21  40  56  76 110 150 190 235 290 351
#     4  10  20  34  57  90 117 147 197 250 297 353
#
# _framework density 19.770720000000001
#
# number of rings (size 3 to 8) (size 9 to 14) (size 15 to 20)
#    0.000    2.250    1.250    2.250    1.750    4.250 
#    0.000    4.375    0.000    0.375    0.000    0.000 
#    0.000    0.000    0.000    0.000    0.000    0.000 
#
# Total GULP energy -356686.063498 kJ/mol
# GULP energy per Si atom -5573.219742 kJ/mol
# Density = 1.972572 g / cm^3
# Si number density = 19.770720 Si / 1000 Ang^3
#
#
#
# Elastic Constant Matrix: (Units=GPa)
#
#
# Indices 1 2 3 4 5 6 
#
# 1 119.7935 47.3597 14.7955 0.0000 0.0000 0.0000
# 2 47.3597 66.2394 4.4099 0.0000 0.0000 0.0000
# 3 14.7955 4.4099 10.5512 0.0000 0.0000 0.0000
# 4 0.0000 0.0000 0.0000 14.1777 0.0000 0.0000
# 5 0.0000 0.0000 0.0000 0.0000 38.8326 0.0000
# 6 0.0000 0.0000 0.0000 0.0000 0.0000 21.1730
#
#
#
# Elastic Compliance Matrix: (Units=1/GPa)
#
#
# Indices 1 2 3 4 5 6 
#
# 1 0.013752 -0.008793 -0.015608 0.000000 0.000000 0.000000
# 2 -0.008793 0.021151 0.003490 0.000000 0.000000 0.000000
# 3 -0.015608 0.003490 0.115205 0.000000 0.000000 0.000000
# 4 0.000000 0.000000 0.000000 0.070533 0.000000 0.000000
# 5 0.000000 0.000000 0.000000 0.000000 0.025752 0.000000
# 6 0.000000 0.000000 0.000000 0.000000 0.000000 0.047230
#
#
# Mechanical properties :
#
#
# Convention : Reuss Voigt Hill
#
# Bulk Modulus (GPa) = 9.23494 36.63493 22.93493
# Shear Modulus (GPa) = 13.45748 23.50460 18.48104
#
# Velocity S-wave (km/s) = 2.61181 3.45172 3.06071
# Velocity P-wave (km/s) = 3.71168 5.86992 4.91083
#
# Compressibility (1/GPa) = 0.10828442
#
# Stress axis : x y z
#
# Youngs Moduli (GPa) = 72.71800 47.27853 8.68020
#
# Poissons Ratio (x) = 0.41572 0.13548
# Poissons Ratio (y) = 0.63941 -0.03029
# Poissons Ratio (z) = 1.13502 -0.16499
#
# Static dielectric constant tensor:
#      x y z
#    x 1.762570 0.000000 0.000000 
#    y 0.000000 1.685080 0.000000 
#    z 0.000000 0.000000 1.664400 
# 
# From -- ./inp_files/4501.got.cif
#   From: 2010.05.17/outbox.cif.g08.bks.cpg/sg55_3_cif.got.tgz:4501.got - 2010.06.03 13:27:54.
