data_PCOD9425056
_publ_section_title
;
Structure prediction by ZEFSAII (Michael W. Deem and Ramdas Pophale) SiO2 
 PCOD9425056
Probable space group: P B A M
;
_chemical_formula_sum "Si O2"
_cell_formula_units_Z 64
_cell_length_a 8.845742
_cell_length_b 17.721377
_cell_length_c 20.121201
_cell_angle_alpha 90.000000
_cell_angle_beta 90.000000
_cell_angle_gamma 90.000000
_cell_volume 3154.173891
_symmetry_space_group_name_H-M "P B A M"
_symmetry_group_IT_number 55
_symmetry_cell_setting 'orthorhombic'
loop_
_space_group_symop_operation_xyz
x,y,z
-x,-y,z
1/2+x,1/2-y,-z
1/2-x,1/2+y,-z
-x,-y,-z
x,y,-z
1/2-x,1/2+y,z
1/2+x,1/2-y,z
loop_
_atom_site_type_symbol
_atom_site_label
_atom_site_fract_x
_atom_site_fract_y
_atom_site_fract_z
Si Si1 0.037999 0.733736 0.427371
Si Si2 0.905163 0.923074 0.074803
Si Si3 0.051395 0.847507 0.800770
Si Si4 0.859923 0.442429 0.423067
Si Si5 0.125590 0.562070 0.170724
Si Si6 0.099816 0.313642 0.780019
Si Si7 0.822880 0.911043 0.704486
Si Si8 0.780937 0.742434 0.656700
O O1 0.076884 0.761908 0.500000
O O2 0.079076 0.644719 0.422770
O O3 0.113337 0.777773 0.365389
O O4 0.862964 0.748113 0.413670
O O5 0.742385 0.932541 0.110105
O O6 0.000225 0.876255 0.127793
O O7 0.890630 0.892368 0.000000
O O8 0.000000 0.000000 0.070581
O O9 0.229975 0.832649 0.802344
O O10 0.961174 0.769722 0.792559
O O11 0.987487 0.902029 0.741074
O O12 0.811189 0.457315 0.500000
O O13 0.727566 0.446790 0.366606
O O14 0.000000 0.500000 0.408544
O O15 0.222804 0.549927 0.237975
O O16 0.000000 0.500000 0.158498
O O17 0.026085 0.634986 0.187393
O O18 0.126846 0.316664 0.700476
O O19 0.774509 0.822914 0.693301
#
# Coordination Sequence:
#
# PCOD9425056 Si02
#       8
#     8   8   8   8   8   8   8   8
#     4  10  19  30  47  73 104 141 190 240 292 359
#     4  10  22  42  64  89 124 159 191 233 288 348
#     4  10  20  36  59  84 116 156 197 244 297 352
#     4   9  17  30  49  75 108 147 193 248 308 363
#     4  11  22  37  62  90 116 149 193 240 288 353
#     4  11  20  36  58  86 119 153 200 250 299 351
#     4   9  18  32  50  76 108 144 189 238 290 350
#     4  10  18  31  49  73 105 144 181 233 295 335
#
# _framework density 20.290575
#
# number of rings (size 3 to 8) (size 9 to 14) (size 15 to 20)
#    0.000    2.000    0.000    6.750    0.000    0.750 
#    0.000    3.125    0.000    1.500    0.000    2.625 
#    0.000   40.000    0.000    0.000    0.000    0.500 
#
# Total GULP energy -356304.398748 kJ/mol
# GULP energy per Si atom -5567.256230 kJ/mol
# Density = 2.024439 g / cm^3
# Si number density = 20.290575 Si / 1000 Ang^3
#
#
#
# Elastic Constant Matrix: (Units=GPa)
#
#
# Indices 1 2 3 4 5 6 
#
# 1 104.8863 12.9019 47.6108 0.0000 0.0000 0.0000
# 2 12.9019 27.6974 24.9089 0.0000 0.0000 0.0000
# 3 47.6108 24.9089 144.7138 0.0000 0.0000 0.0000
# 4 0.0000 0.0000 0.0000 19.6459 0.0000 0.0000
# 5 0.0000 0.0000 0.0000 0.0000 38.0223 0.0000
# 6 0.0000 0.0000 0.0000 0.0000 0.0000 8263.0666
#
#
#
# Elastic Compliance Matrix: (Units=1/GPa)
#
#
# Indices 1 2 3 4 5 6 
#
# 1 0.011328 -0.002278 -0.003335 0.000000 0.000000 0.000000
# 2 -0.002278 0.043175 -0.006682 0.000000 0.000000 0.000000
# 3 -0.003335 -0.006682 0.009158 0.000000 0.000000 0.000000
# 4 0.000000 0.000000 0.000000 0.050901 0.000000 0.000000
# 5 0.000000 0.000000 0.000000 0.000000 0.026300 0.000000
# 6 0.000000 0.000000 0.000000 0.000000 0.000000 0.000121
#
#
# Mechanical properties :
#
#
# Convention : Reuss Voigt Hill
#
# Bulk Modulus (GPa) = 25.59437 49.79341 37.69389
# Shear Modulus (GPa) = 27.99613 1676.93870 852.46742
#
# Velocity S-wave (km/s) = 3.71854 28.77944 20.51930
# Velocity P-wave (km/s) = 5.57477 33.59963 24.08332
#
# Compressibility (1/GPa) = 0.03907110
#
# Stress axis : x y z
#
# Youngs Moduli (GPa) = 88.27593 23.16164 109.19968
#
# Poissons Ratio (x) = 0.05275 0.36417
# Poissons Ratio (y) = 0.20106 0.72969
# Poissons Ratio (z) = 0.29439 0.15477
#
# Static dielectric constant tensor:
#      x y z
#    x 1.739760 0.000000 0.000000 
#    y 0.000000 1.702950 0.000000 
#    z 0.000000 0.000000 1.744620 
# 
# From -- ./inp_files/22720.got.cif
#   From: 2010.05.17/outbox.cif.g08.bks.cpg/sg55_12_cif.got.tgz:22720.got - 2010.06.03 13:27:54.
