data_PCOD9425672
_publ_section_title
;
Structure prediction by ZEFSAII (Michael W. Deem and Ramdas Pophale) SiO2 
 PCOD9425672
Probable space group: P B A M
;
_chemical_formula_sum "Si O2"
_cell_formula_units_Z 48
_cell_length_a 12.798142
_cell_length_b 22.256486
_cell_length_c 7.360656
_cell_angle_alpha 90.000000
_cell_angle_beta 90.000000
_cell_angle_gamma 90.000000
_cell_volume 2096.621534
_symmetry_space_group_name_H-M "P B A M"
_symmetry_group_IT_number 55
_symmetry_cell_setting 'orthorhombic'
loop_
_space_group_symop_operation_xyz
x,y,z
-x,-y,z
1/2+x,1/2-y,-z
1/2-x,1/2+y,-z
-x,-y,-z
x,y,-z
1/2-x,1/2+y,z
1/2+x,1/2-y,z
loop_
_atom_site_type_symbol
_atom_site_label
_atom_site_fract_x
_atom_site_fract_y
_atom_site_fract_z
Si Si1 0.742627 0.889204 0.705319
Si Si2 0.133100 0.325510 0.721070
Si Si3 0.981169 0.431406 0.722440
Si Si4 0.881703 0.000041 0.788317
Si Si5 0.926844 0.805670 0.277435
Si Si6 0.355877 0.363025 0.718786
O O1 0.720881 0.867722 0.500000
O O2 0.630202 0.905038 0.785672
O O3 0.823399 0.841091 0.785412
O O4 0.807412 0.951283 0.699162
O O5 0.132842 0.325893 0.500000
O O6 0.078572 0.263700 0.776437
O O7 0.253549 0.327412 0.779863
O O8 0.071434 0.385140 0.777656
O O9 0.978754 0.432842 0.500000
O O10 0.000000 0.500000 0.780962
O O11 0.841910 0.067583 0.769866
O O12 0.887076 0.983222 0.000000
O O13 0.000000 0.000000 0.714727
O O14 0.926553 0.808537 0.500000
O O15 0.033048 0.837941 0.216121
O O16 0.358728 0.360198 0.500000
#
# Coordination Sequence:
#
# PCOD9425672 Si02
#       6
#     8   8   8   8   8   8
#     4  10  19  32  53  77 105 135 173 218 261 310
#     4   9  18  30  49  79 112 140 171 212 261 309
#     4   9  17  29  47  74 106 138 171 211 259 307
#     4  11  22  35  52  76 106 137 172 217 269 313
#     4   9  18  29  46  78 107 134 170 214 259 302
#     4  10  19  33  55  78 106 139 175 215 256 307
#
# _framework density 22.893974
#
# number of rings (size 3 to 8) (size 9 to 14) (size 15 to 20)
#    0.000    2.333    1.667    1.500    2.333    3.333 
#    0.000    0.000    0.000    6.500    0.000    0.000 
#    0.000    0.000    0.000    0.000    0.000    0.000 
#
# Total GULP energy -268273.374172 kJ/mol
# GULP energy per Si atom -5589.028629 kJ/mol
# Density = 2.284187 g / cm^3
# Si number density = 22.893974 Si / 1000 Ang^3
#
#
#
# Elastic Constant Matrix: (Units=GPa)
#
#
# Indices 1 2 3 4 5 6 
#
# 1 137.8834 48.1428 5.3146 0.0000 0.0000 0.0000
# 2 48.1428 146.1279 -6.1337 0.0000 0.0000 0.0000
# 3 5.3146 -6.1337 87.1374 0.0000 0.0000 0.0000
# 4 0.0000 0.0000 0.0000 -40.5286 0.0000 0.0000
# 5 0.0000 0.0000 0.0000 0.0000 -7.2376 0.0000
# 6 0.0000 0.0000 0.0000 0.0000 0.0000 21.5587
#
#
#
# Elastic Compliance Matrix: (Units=1/GPa)
#
#
# Indices 1 2 3 4 5 6 
#
# 1 0.008237 -0.002743 -0.000695 0.000000 0.000000 0.000000
# 2 -0.002743 0.007777 0.000715 0.000000 0.000000 0.000000
# 3 -0.000695 0.000715 0.011569 0.000000 0.000000 0.000000
# 4 0.000000 0.000000 0.000000 -0.024674 0.000000 0.000000
# 5 0.000000 0.000000 0.000000 0.000000 -0.138168 0.000000
# 6 0.000000 0.000000 0.000000 0.000000 0.000000 0.046385
#
#
# Mechanical properties :
#
#
# Convention : Reuss Voigt Hill
#
# Bulk Modulus (GPa) = 45.17624 51.75514 48.46569
# Shear Modulus (GPa) = -65.74809 16.34685 -24.70062
#
# Velocity S-wave (km/s) = -5.36478 2.67502 -3.28825
# Velocity P-wave (km/s) = 4.31264 5.67420 2.60746
#
# Compressibility (1/GPa) = 0.02213553
#
# Stress axis : x y z
#
# Youngs Moduli (GPa) = 121.40309 128.58433 86.43898
#
# Poissons Ratio (x) = 0.35270 0.06011
# Poissons Ratio (y) = 0.33300 -0.06178
# Poissons Ratio (z) = 0.08443 -0.09190
#
# Static dielectric constant tensor:
#      x y z
#    x 1.829180 0.000000 0.000000 
#    y 0.000000 1.787660 0.000000 
#    z 0.000000 0.000000 1.887800 
# 
# From -- ./inp_files/4078.got.cif
#   From: 2010.05.17/outbox.cif.g08.bks.cpg/sg55_3_cif.got.tgz:4078.got - 2010.06.03 13:27:54.
