data_PCOD9425390
_publ_section_title
;
Structure prediction by ZEFSAII (Michael W. Deem and Ramdas Pophale) SiO2 
 PCOD9425390
Probable space group: P B A M
;
_chemical_formula_sum "Si O2"
_cell_formula_units_Z 48
_cell_length_a 5.213578
_cell_length_b 13.810203
_cell_length_c 30.572747
_cell_angle_alpha 90.000000
_cell_angle_beta 90.000000
_cell_angle_gamma 90.000000
_cell_volume 2201.255227
_symmetry_space_group_name_H-M "P B A M"
_symmetry_group_IT_number 55
_symmetry_cell_setting 'orthorhombic'
loop_
_space_group_symop_operation_xyz
x,y,z
-x,-y,z
1/2+x,1/2-y,-z
1/2-x,1/2+y,-z
-x,-y,-z
x,y,-z
1/2-x,1/2+y,z
1/2+x,1/2-y,z
loop_
_atom_site_type_symbol
_atom_site_label
_atom_site_fract_x
_atom_site_fract_y
_atom_site_fract_z
Si Si1 0.440270 0.684295 0.048599
Si Si2 0.161860 0.317178 0.547433
Si Si3 0.427091 0.817035 0.265580
Si Si4 0.290785 0.891989 0.825055
Si Si5 0.790835 0.891890 0.138595
Si Si6 0.450882 0.816127 0.638625
O O1 0.718858 0.733618 0.051605
O O2 0.387498 0.614668 0.089249
O O3 0.415804 0.639960 0.000000
O O4 0.136034 0.367246 0.500000
O O5 0.441451 0.266610 0.548188
O O6 0.109462 0.371229 0.593274
O O7 0.697464 0.761514 0.262831
O O8 0.385636 0.886214 0.224413
O O9 0.413604 0.864148 0.313972
O O10 0.509789 0.847347 0.855825
O O11 0.009393 0.847577 0.830437
O O12 0.250044 0.999933 0.843388
O O13 0.736351 0.770309 0.637827
#
# Coordination Sequence:
#
# PCOD9425390 Si02
#       6
#     8   8   8   8   8   8
#     4  10  21  37  58  82 104 125 151 187 230 277
#     4   8  12  18  29  45  68 102 141 178 221 273
#     4  10  19  30  46  68  93 124 162 201 238 274
#     4  10  21  35  50  72  99 130 161 194 234 275
#     4  10  21  37  53  73 101 128 156 190 229 278
#     4   8  14  23  34  52  79 109 145 188 230 271
#
# _framework density 21.805741000000001
#
# number of rings (size 3 to 8) (size 9 to 14) (size 15 to 20)
#    0.000    2.667    0.000    2.000    0.000    4.000 
#    0.000    3.333    0.000    0.000    0.000    0.000 
#    0.000    0.000    0.000    6.000    0.000    8.667 
#
# Total GULP energy -267345.917494 kJ/mol
# GULP energy per Si atom -5569.706614 kJ/mol
# Density = 2.175611 g / cm^3
# Si number density = 21.805741 Si / 1000 Ang^3
#
#
#
# Elastic Constant Matrix: (Units=GPa)
#
#
# Indices 1 2 3 4 5 6 
#
# 1 141.2421 -11.3284 -12.4545 0.0000 0.0000 0.0000
# 2 -11.3284 46.9241 18.0291 0.0000 0.0000 0.0000
# 3 -12.4545 18.0291 209.8596 0.0000 0.0000 0.0000
# 4 0.0000 0.0000 0.0000 -1.9455 0.0000 0.0000
# 5 0.0000 0.0000 0.0000 0.0000 32.0026 0.0000
# 6 0.0000 0.0000 0.0000 0.0000 0.0000 7.1656
#
#
#
# Elastic Compliance Matrix: (Units=1/GPa)
#
#
# Indices 1 2 3 4 5 6 
#
# 1 0.007237 0.001636 0.000289 0.000000 0.000000 0.000000
# 2 0.001636 0.022408 -0.001828 0.000000 0.000000 0.000000
# 3 0.000289 -0.001828 0.004939 0.000000 0.000000 0.000000
# 4 0.000000 0.000000 0.000000 -0.514005 0.000000 0.000000
# 5 0.000000 0.000000 0.000000 0.000000 0.031247 0.000000
# 6 0.000000 0.000000 0.000000 0.000000 0.000000 0.139556
#
#
# Mechanical properties :
#
#
# Convention : Reuss Voigt Hill
#
# Bulk Modulus (GPa) = 28.75349 42.94646 35.84998
# Shear Modulus (GPa) = -16.82264 34.36319 8.77027
#
# Velocity S-wave (km/s) = -2.78056 3.97404 2.00767
# Velocity P-wave (km/s) = 1.70474 6.38710 4.67446
#
# Compressibility (1/GPa) = 0.03477838
#
# Stress axis : x y z
#
# Youngs Moduli (GPa) = 138.18374 44.62617 202.45858
#
# Poissons Ratio (x) = -0.07301 -0.05849
# Poissons Ratio (y) = -0.22608 0.37010
# Poissons Ratio (z) = -0.03992 0.08158
#
# Static dielectric constant tensor:
#      x y z
#    x 1.896970 0.000000 0.000000 
#    y 0.000000 1.652890 0.000000 
#    z 0.000000 0.000000 1.880130 
# 
# From -- ./inp_files/23836.got.cif
#   From: 2010.05.17/outbox.cif.g08.bks.cpg/sg55_12_cif.got.tgz:23836.got - 2010.06.03 13:27:54.
