data_PCOD9425444
_publ_section_title
;
Structure prediction by ZEFSAII (Michael W. Deem and Ramdas Pophale) SiO2 
 PCOD9425444
Probable space group: P B A M
;
_chemical_formula_sum "Si O2"
_cell_formula_units_Z 56
_cell_length_a 5.145005
_cell_length_b 13.845068
_cell_length_c 35.393283
_cell_angle_alpha 90.000000
_cell_angle_beta 90.000000
_cell_angle_gamma 90.000000
_cell_volume 2521.167749
_symmetry_space_group_name_H-M "P B A M"
_symmetry_group_IT_number 55
_symmetry_cell_setting 'orthorhombic'
loop_
_space_group_symop_operation_xyz
x,y,z
-x,-y,z
1/2+x,1/2-y,-z
1/2-x,1/2+y,-z
-x,-y,-z
x,y,-z
1/2-x,1/2+y,z
1/2+x,1/2-y,z
loop_
_atom_site_type_symbol
_atom_site_label
_atom_site_fract_x
_atom_site_fract_y
_atom_site_fract_z
Si Si1 0.361481 0.688642 0.800885
Si Si2 0.486102 0.682989 0.119973
Si Si3 0.003597 0.617894 0.325860
Si Si4 0.129683 0.182360 0.040950
Si Si5 0.502417 0.882515 0.411035
Si Si6 0.496677 0.384894 0.281330
Si Si7 0.997105 0.117573 0.457387
O O1 0.061457 0.720363 0.802126
O O2 0.431226 0.633236 0.839777
O O3 0.428435 0.641742 0.761100
O O4 0.274625 0.771569 0.119707
O O5 0.425601 0.629298 0.080573
O O6 0.284521 0.647518 0.310856
O O7 0.000000 0.500000 0.327066
O O8 0.954060 0.651994 0.368445
O O9 0.785566 0.646743 0.295540
O O10 0.913600 0.268314 0.041629
O O11 0.100057 0.132680 0.000000
O O12 0.779384 0.855020 0.428043
O O13 0.279625 0.854940 0.440383
O O14 0.500000 0.000000 0.409269
O O15 0.500000 0.500000 0.283052
O O16 0.040417 0.152810 0.500000
O O17 0.000000 0.000000 0.459142
#
# Coordination Sequence:
#
# PCOD9425444 Si02
#       7
#     8   8   8   8   8   8   8
#     4  10  19  31  46  64  87 115 145 176 218 266
#     4   8  14  23  35  52  75 103 133 165 202 249
#     4   9  17  28  42  59  79 106 142 182 216 248
#     4   8  12  18  29  46  69  97 127 159 197 239
#     4   9  15  23  34  48  69  98 133 169 202 238
#     4  10  19  31  46  64  85 110 146 186 217 250
#     4   9  15  21  30  46  69  98 133 168 197 234
#
# _framework density 22.211929999999999
#
# number of rings (size 3 to 8) (size 9 to 14) (size 15 to 20)
#    0.000    3.000    0.000    2.143    0.000    5.143 
#    0.000    0.000    0.000    0.000    0.000    0.000 
#    0.000    0.571    0.000    0.000    0.000  325.143 
#
# Total GULP energy -312432.898530 kJ/mol
# GULP energy per Si atom -5579.158902 kJ/mol
# Density = 2.216137 g / cm^3
# Si number density = 22.211930 Si / 1000 Ang^3
#
#
#
# Elastic Constant Matrix: (Units=GPa)
#
#
# Indices 1 2 3 4 5 6 
#
# 1 89.9176 -17.9510 -8.5787 0.0000 0.0000 0.0000
# 2 -17.9510 52.3261 -6.3269 0.0000 0.0000 0.0000
# 3 -8.5787 -6.3269 150.2815 0.0000 0.0000 0.0000
# 4 0.0000 0.0000 0.0000 72.9023 0.0000 0.0000
# 5 0.0000 0.0000 0.0000 0.0000 33.7184 0.0000
# 6 0.0000 0.0000 0.0000 0.0000 0.0000 -30.9701
#
#
#
# Elastic Compliance Matrix: (Units=1/GPa)
#
#
# Indices 1 2 3 4 5 6 
#
# 1 0.012050 0.004239 0.000866 0.000000 0.000000 0.000000
# 2 0.004239 0.020700 0.001113 0.000000 0.000000 0.000000
# 3 0.000866 0.001113 0.006751 0.000000 0.000000 0.000000
# 4 0.000000 0.000000 0.000000 0.013717 0.000000 0.000000
# 5 0.000000 0.000000 0.000000 0.000000 0.029657 0.000000
# 6 0.000000 0.000000 0.000000 0.000000 0.000000 -0.032289
#
#
# Mechanical properties :
#
#
# Convention : Reuss Voigt Hill
#
# Bulk Modulus (GPa) = 19.25404 25.20134 22.22769
# Shear Modulus (GPa) = 90.15329 36.82223 63.48776
#
# Velocity S-wave (km/s) = 6.37777 4.07599 5.35208
# Velocity P-wave (km/s) = 7.93232 5.78982 6.94420
#
# Compressibility (1/GPa) = 0.05193715
#
# Stress axis : x y z
#
# Youngs Moduli (GPa) = 82.98653 48.30996 148.13700
#
# Poissons Ratio (x) = -0.20477 -0.12833
# Poissons Ratio (y) = -0.35175 -0.16494
# Poissons Ratio (z) = -0.07189 -0.05379
#
# Static dielectric constant tensor:
#      x y z
#    x 1.766450 0.000000 0.000000 
#    y 0.000000 1.853260 0.000000 
#    z 0.000000 0.000000 1.859620 
# 
# From -- ./inp_files/23870.got.cif
#   From: 2010.05.17/outbox.cif.g08.bks.cpg/sg55_12_cif.got.tgz:23870.got - 2010.06.03 13:27:54.
