data_PCOD9425363
_publ_section_title
;
Structure prediction by ZEFSAII (Michael W. Deem and Ramdas Pophale) SiO2 
 PCOD9425363
Probable space group: P B A M
;
_chemical_formula_sum "Si O2"
_cell_formula_units_Z 64
_cell_length_a 11.068855
_cell_length_b 16.154279
_cell_length_c 15.231999
_cell_angle_alpha 90.000000
_cell_angle_beta 90.000000
_cell_angle_gamma 90.000000
_cell_volume 2723.624174
_symmetry_space_group_name_H-M "P B A M"
_symmetry_group_IT_number 55
_symmetry_cell_setting 'orthorhombic'
loop_
_space_group_symop_operation_xyz
x,y,z
-x,-y,z
1/2+x,1/2-y,-z
1/2-x,1/2+y,-z
-x,-y,-z
x,y,-z
1/2-x,1/2+y,z
1/2+x,1/2-y,z
loop_
_atom_site_type_symbol
_atom_site_label
_atom_site_fract_x
_atom_site_fract_y
_atom_site_fract_z
Si Si1 0.263582 0.926627 0.596810
Si Si2 0.950324 0.401169 0.400508
Si Si3 0.375306 0.268877 0.101526
Si Si4 0.020169 0.631890 0.212301
Si Si5 0.914636 0.205812 0.594824
Si Si6 0.062796 0.191200 0.237034
Si Si7 0.801518 0.581171 0.897213
Si Si8 0.144556 0.019606 0.239702
O O1 0.221739 0.953756 0.500000
O O2 0.407910 0.925483 0.599500
O O3 0.201699 0.979915 0.672240
O O4 0.218445 0.831893 0.603646
O O5 0.906769 0.426131 0.500000
O O6 0.925388 0.415871 0.295883
O O7 0.919707 0.303858 0.402329
O O8 0.382000 0.183846 0.156205
O O9 0.483725 0.318872 0.148593
O O10 0.257222 0.325976 0.108062
O O11 0.400416 0.252904 0.000000
O O12 0.930191 0.708571 0.244385
O O13 0.931921 0.582007 0.148701
O O14 0.965363 0.180276 0.500000
O O15 0.986212 0.170693 0.676244
O O16 0.159400 0.118971 0.237575
O O17 0.713557 0.522402 0.841662
O O18 0.807497 0.559732 0.000000
O O19 0.000000 0.000000 0.235983
#
# Coordination Sequence:
#
# PCOD9425363 Si02
#       8
#     8   8   8   8   8   8   8   8
#     4  10  19  29  45  70 102 135 163 197 242 299
#     4   9  17  28  45  67  93 126 164 203 239 283
#     4   9  18  31  46  67  94 122 158 198 234 277
#     4   9  18  33  49  65  95 128 162 201 234 288
#     4   9  16  28  44  64  94 129 164 198 240 286
#     4   9  19  30  44  65  97 126 153 197 235 281
#     4  11  21  32  50  72  96 132 167 198 243 293
#     4  12  19  31  45  70 105 129 160 191 246 301
#
# _framework density 23.498103
#
# number of rings (size 3 to 8) (size 9 to 14) (size 15 to 20)
#    0.750    1.500    3.750    0.375    0.000    1.500 
#    0.000    0.000    0.000    0.000    0.000    0.875 
#    0.000    3.000    0.000   27.125    0.000    0.000 
#
# Total GULP energy -356541.565030 kJ/mol
# GULP energy per Si atom -5570.961954 kJ/mol
# Density = 2.344462 g / cm^3
# Si number density = 23.498103 Si / 1000 Ang^3
#
#
#
# Elastic Constant Matrix: (Units=GPa)
#
#
# Indices 1 2 3 4 5 6 
#
# 1 47.4743 38.1246 34.3630 0.0000 0.0000 0.0000
# 2 38.1246 89.0936 32.4037 0.0000 0.0000 0.0000
# 3 34.3630 32.4037 193.4763 0.0000 0.0000 0.0000
# 4 0.0000 0.0000 0.0000 10.9566 0.0000 0.0000
# 5 0.0000 0.0000 0.0000 0.0000 20.9176 0.0000
# 6 0.0000 0.0000 0.0000 0.0000 0.0000 23.0033
#
#
#
# Elastic Compliance Matrix: (Units=1/GPa)
#
#
# Indices 1 2 3 4 5 6 
#
# 1 0.034665 -0.013411 -0.003911 0.000000 0.000000 0.000000
# 2 -0.013411 0.017141 -0.000489 0.000000 0.000000 0.000000
# 3 -0.003911 -0.000489 0.005945 0.000000 0.000000 0.000000
# 4 0.000000 0.000000 0.000000 0.091269 0.000000 0.000000
# 5 0.000000 0.000000 0.000000 0.000000 0.047807 0.000000
# 6 0.000000 0.000000 0.000000 0.000000 0.000000 0.043472
#
#
# Mechanical properties :
#
#
# Convention : Reuss Voigt Hill
#
# Bulk Modulus (GPa) = 45.18929 59.98076 52.58502
# Shear Modulus (GPa) = 17.64940 25.98570 21.81755
#
# Velocity S-wave (km/s) = 2.74359 3.32906 3.05040
# Velocity P-wave (km/s) = 5.41380 6.35280 5.90200
#
# Compressibility (1/GPa) = 0.02212914
#
# Stress axis : x y z
#
# Youngs Moduli (GPa) = 28.84784 58.34020 168.20824
#
# Poissons Ratio (x) = 0.78242 0.65779
# Poissons Ratio (y) = 0.38689 0.08222
# Poissons Ratio (z) = 0.11281 0.02852
#
# Static dielectric constant tensor:
#      x y z
#    x 1.900450 0.000000 0.000000 
#    y 0.000000 1.985540 0.000000 
#    z 0.000000 0.000000 1.867250 
# 
# From -- ./inp_files/19139.got.cif
#   From: 2010.05.17/outbox.cif.g08.bks.cpg/sg55_10_cif.got.tgz:19139.got - 2010.06.03 13:27:54.
