data_PCOD9425028
_publ_section_title
;
Structure prediction by ZEFSAII (Michael W. Deem and Ramdas Pophale) SiO2 
 PCOD9425028
Probable space group: P B A M
;
_chemical_formula_sum "Si O2"
_cell_formula_units_Z 64
_cell_length_a 18.845734
_cell_length_b 21.467035
_cell_length_c 8.956020
_cell_angle_alpha 90.000000
_cell_angle_beta 90.000000
_cell_angle_gamma 90.000000
_cell_volume 3623.265644
_symmetry_space_group_name_H-M "P B A M"
_symmetry_group_IT_number 55
_symmetry_cell_setting 'orthorhombic'
loop_
_space_group_symop_operation_xyz
x,y,z
-x,-y,z
1/2+x,1/2-y,-z
1/2-x,1/2+y,-z
-x,-y,-z
x,y,-z
1/2-x,1/2+y,z
1/2+x,1/2-y,z
loop_
_atom_site_type_symbol
_atom_site_label
_atom_site_fract_x
_atom_site_fract_y
_atom_site_fract_z
Si Si1 0.918754 0.500025 0.317931
Si Si2 0.335978 0.750227 0.172507
Si Si3 0.164595 0.120763 0.321074
Si Si4 0.326706 0.383522 0.819415
Si Si5 0.830473 0.380389 0.320774
Si Si6 0.082505 0.005558 0.820541
Si Si7 0.336690 0.247183 0.828419
Si Si8 0.171182 0.379194 0.320608
O O1 0.918850 0.498471 0.500000
O O2 0.876402 0.438800 0.266894
O O3 0.877890 0.562897 0.275575
O O4 0.000000 0.500000 0.267723
O O5 0.359202 0.686936 0.253070
O O6 0.249563 0.749525 0.175712
O O7 0.356431 0.813775 0.255289
O O8 0.358088 0.750886 0.000000
O O9 0.160975 0.123022 0.500000
O O10 0.247691 0.111775 0.277576
O O11 0.119493 0.063838 0.257991
O O12 0.376215 0.441793 0.783131
O O13 0.358604 0.316026 0.774740
O O14 0.250168 0.390294 0.743069
O O15 0.316951 0.380978 0.000000
O O16 0.832578 0.379423 0.500000
O O17 0.857474 0.313830 0.262425
O O18 0.087065 0.013988 0.000000
O O19 0.000000 0.000000 0.780069
O O20 0.358817 0.239479 0.000000
O O21 0.174296 0.375550 0.500000
#
# Coordination Sequence:
#
# PCOD9425028 Si02
#       8
#     8   8   8   8   8   8   8   8
#     4   9  18  32  48  68  99 135 165 197 242 293
#     4   9  17  31  51  75 102 130 162 202 251 304
#     4  10  19  32  52  78 103 126 162 211 256 299
#     4   9  18  33  52  73  99 131 166 204 250 303
#     4   9  17  30  50  74  96 123 161 202 243 291
#     4  10  21  36  52  71  99 137 175 208 249 304
#     4   8  15  28  47  71  96 122 154 197 245 290
#     4  10  18  30  52  78 100 127 167 211 252 295
#
# _framework density 17.663623000000001
#
# number of rings (size 3 to 8) (size 9 to 14) (size 15 to 20)
#    0.000    2.750    0.000    2.625    0.000    5.250 
#    0.000    2.500    0.000    6.375    0.000    0.000 
#    0.000    0.000    0.000    0.000    0.000    0.000 
#
# Total GULP energy -356792.478848 kJ/mol
# GULP energy per Si atom -5574.882482 kJ/mol
# Density = 1.762342 g / cm^3
# Si number density = 17.663623 Si / 1000 Ang^3
#
#
#
# Elastic Constant Matrix: (Units=GPa)
#
#
# Indices 1 2 3 4 5 6 
#
# 1 78.7833 89.0247 35.1515 0.0000 0.0000 0.0000
# 2 89.0247 218.7270 60.2430 0.0000 0.0000 0.0000
# 3 35.1515 60.2430 37.8235 0.0000 0.0000 0.0000
# 4 0.0000 0.0000 0.0000 29.3179 0.0000 0.0000
# 5 0.0000 0.0000 0.0000 0.0000 12.3662 0.0000
# 6 0.0000 0.0000 0.0000 0.0000 0.0000 -3.9885
#
#
#
# Elastic Compliance Matrix: (Units=1/GPa)
#
#
# Indices 1 2 3 4 5 6 
#
# 1 0.026864 -0.007229 -0.013452 0.000000 0.000000 0.000000
# 2 -0.007229 0.010090 -0.009353 0.000000 0.000000 0.000000
# 3 -0.013452 -0.009353 0.053838 0.000000 0.000000 0.000000
# 4 0.000000 0.000000 0.000000 0.034109 0.000000 0.000000
# 5 0.000000 0.000000 0.000000 0.000000 0.080866 0.000000
# 6 0.000000 0.000000 0.000000 0.000000 0.000000 -0.250722
#
#
# Mechanical properties :
#
#
# Convention : Reuss Voigt Hill
#
# Bulk Modulus (GPa) = 32.54874 78.24137 55.39506
# Shear Modulus (GPa) = 197.21620 17.60008 107.40814
#
# Velocity S-wave (km/s) = 10.57797 3.16001 7.80638
# Velocity P-wave (km/s) = 12.94829 7.59642 10.61517
#
# Compressibility (1/GPa) = 0.03072316
#
# Stress axis : x y z
#
# Youngs Moduli (GPa) = 37.22501 99.10682 18.57439
#
# Poissons Ratio (x) = 0.71641 0.24987
# Poissons Ratio (y) = 0.26909 0.17372
# Poissons Ratio (z) = 0.50077 0.92694
#
# Static dielectric constant tensor:
#      x y z
#    x 1.578490 0.000000 0.000000 
#    y 0.000000 1.605910 0.000000 
#    z 0.000000 0.000000 1.595970 
# 
# From -- ./inp_files/8080.got.cif
#   From: 2010.05.17/outbox.cif.g08.bks.cpg/sg55_5_cif.got.tgz:8080.got - 2010.06.03 13:27:54.
