data_PCOD9425311
_publ_section_title
;
Structure prediction by ZEFSAII (Michael W. Deem and Ramdas Pophale) SiO2 
 PCOD9425311
Probable space group: P B A M
;
_chemical_formula_sum "Si O2"
_cell_formula_units_Z 64
_cell_length_a 20.090828
_cell_length_b 21.250274
_cell_length_c 8.753849
_cell_angle_alpha 90.000000
_cell_angle_beta 90.000000
_cell_angle_gamma 90.000000
_cell_volume 3737.329774
_symmetry_space_group_name_H-M "P B A M"
_symmetry_group_IT_number 55
_symmetry_cell_setting 'orthorhombic'
loop_
_space_group_symop_operation_xyz
x,y,z
-x,-y,z
1/2+x,1/2-y,-z
1/2-x,1/2+y,-z
-x,-y,-z
x,y,-z
1/2-x,1/2+y,z
1/2+x,1/2-y,z
loop_
_atom_site_type_symbol
_atom_site_label
_atom_site_fract_x
_atom_site_fract_y
_atom_site_fract_z
Si Si1 0.931900 0.240647 0.683636
Si Si2 0.293117 0.075803 0.683017
Si Si3 0.429163 0.119630 0.181083
Si Si4 0.212238 0.436087 0.313972
Si Si5 0.429466 0.883934 0.317644
Si Si6 0.215851 0.194255 0.819336
Si Si7 0.580919 0.266199 0.319079
Si Si8 0.292528 0.314458 0.315848
O O1 0.931206 0.253191 0.500000
O O2 0.923094 0.307298 0.767248
O O3 0.870118 0.195931 0.720740
O O4 0.005280 0.214823 0.719857
O O5 0.290740 0.080240 0.500000
O O6 0.369236 0.083825 0.736665
O O7 0.250330 0.132274 0.752126
O O8 0.269007 0.006525 0.731946
O O9 0.502299 0.098221 0.234858
O O10 0.422490 0.114634 0.000000
O O11 0.212045 0.434681 0.500000
O O12 0.136584 0.420181 0.266880
O O13 0.260699 0.380072 0.262772
O O14 0.438539 0.892393 0.500000
O O15 0.416485 0.809307 0.292623
O O16 0.138781 0.199897 0.772445
O O17 0.252166 0.255627 0.750608
O O18 0.223615 0.194556 0.000000
O O19 0.592001 0.276176 0.500000
O O20 0.285934 0.311840 0.500000
#
# Coordination Sequence:
#
# PCOD9425311 Si02
#       8
#     8   8   8   8   8   8   8   8
#     4   9  18  32  56  82 106 137 174 216 269 318
#     4  11  22  37  55  75 104 144 184 225 268 314
#     4  11  21  32  48  75 111 145 180 218 259 317
#     4   9  19  35  57  81 103 136 184 228 268 316
#     4   9  17  33  54  77 105 140 181 219 261 317
#     4  12  23  34  52  81 109 141 179 219 267 320
#     4   9  17  32  54  80 107 137 174 217 263 316
#     4  10  18  35  60  83 105 134 174 224 271 318
#
# _framework density 17.124524999999998
#
# number of rings (size 3 to 8) (size 9 to 14) (size 15 to 20)
#    0.000    2.000    2.500    3.375    0.000    2.500 
#    0.000    5.000    0.000    0.750    0.000    5.250 
#    0.000    0.000    0.000    0.000    0.000    0.000 
#
# Total GULP energy -357213.193416 kJ/mol
# GULP energy per Si atom -5581.456147 kJ/mol
# Density = 1.708555 g / cm^3
# Si number density = 17.124525 Si / 1000 Ang^3
#
#
#
# Elastic Constant Matrix: (Units=GPa)
#
#
# Indices 1 2 3 4 5 6 
#
# 1 100.2225 51.7803 27.8785 0.0000 0.0000 0.0000
# 2 51.7803 95.4661 23.1886 0.0000 0.0000 0.0000
# 3 27.8785 23.1886 31.9227 0.0000 0.0000 0.0000
# 4 0.0000 0.0000 0.0000 -4.5801 0.0000 0.0000
# 5 0.0000 0.0000 0.0000 0.0000 -2.5785 0.0000
# 6 0.0000 0.0000 0.0000 0.0000 0.0000 20.0678
#
#
#
# Elastic Compliance Matrix: (Units=1/GPa)
#
#
# Indices 1 2 3 4 5 6 
#
# 1 0.015815 -0.006342 -0.009204 0.000000 0.000000 0.000000
# 2 -0.006342 0.015262 -0.005548 0.000000 0.000000 0.000000
# 3 -0.009204 -0.005548 0.043394 0.000000 0.000000 0.000000
# 4 0.000000 0.000000 0.000000 -0.218334 0.000000 0.000000
# 5 0.000000 0.000000 0.000000 0.000000 -0.387828 0.000000
# 6 0.000000 0.000000 0.000000 0.000000 0.000000 0.049831
#
#
# Mechanical properties :
#
#
# Convention : Reuss Voigt Hill
#
# Bulk Modulus (GPa) = 30.97672 48.14511 39.56092
# Shear Modulus (GPa) = -11.65744 10.89944 -0.37900
#
# Velocity S-wave (km/s) = -2.61194 2.52559 -0.47096
# Velocity P-wave (km/s) = 3.00534 6.05645 4.78083
#
# Compressibility (1/GPa) = 0.03228231
#
# Stress axis : x y z
#
# Youngs Moduli (GPa) = 63.23178 65.52020 23.04472
#
# Poissons Ratio (x) = 0.41554 0.21211
# Poissons Ratio (y) = 0.40103 0.12785
# Poissons Ratio (z) = 0.58201 0.36350
#
# Static dielectric constant tensor:
#      x y z
#    x 1.590980 0.000000 0.000000 
#    y 0.000000 1.570440 0.000000 
#    z 0.000000 0.000000 1.568410 
# 
# From -- ./inp_files/7990.got.cif
#   From: 2010.05.17/outbox.cif.g08.bks.cpg/sg55_4_cif.got.tgz:7990.got - 2010.06.03 13:27:54.
