data_PCOD9425768
_publ_section_title
;
Structure prediction by ZEFSAII (Michael W. Deem and Ramdas Pophale) SiO2 
 PCOD9425768
Probable space group: P B A M
;
_chemical_formula_sum "Si O2"
_cell_formula_units_Z 48
_cell_length_a 9.636391
_cell_length_b 13.376905
_cell_length_c 15.506869
_cell_angle_alpha 90.000000
_cell_angle_beta 90.000000
_cell_angle_gamma 90.000000
_cell_volume 1998.914297
_symmetry_space_group_name_H-M "P B A M"
_symmetry_group_IT_number 55
_symmetry_cell_setting 'orthorhombic'
loop_
_space_group_symop_operation_xyz
x,y,z
-x,-y,z
1/2+x,1/2-y,-z
1/2-x,1/2+y,-z
-x,-y,-z
x,y,-z
1/2-x,1/2+y,z
1/2+x,1/2-y,z
loop_
_atom_site_type_symbol
_atom_site_label
_atom_site_fract_x
_atom_site_fract_y
_atom_site_fract_z
Si Si1 0.829207 0.241565 0.403336
Si Si2 0.156677 0.033485 0.252874
Si Si3 0.764539 0.886868 0.906193
Si Si4 0.589138 0.241900 0.286601
Si Si5 0.344556 0.018462 0.403449
Si Si6 0.531278 0.208508 0.098165
O O1 0.864105 0.203463 0.500000
O O2 0.681398 0.204380 0.366905
O O3 0.826416 0.361949 0.411617
O O4 0.942769 0.227004 0.328537
O O5 0.236380 0.024997 0.163267
O O6 0.161507 0.153473 0.263131
O O7 0.228536 0.987677 0.335618
O O8 0.000000 0.000000 0.244841
O O9 0.906439 0.821214 0.904864
O O10 0.634149 0.811015 0.896521
O O11 0.751920 0.932860 0.000000
O O12 0.578748 0.179926 0.197250
O O13 0.333838 0.976879 0.500000
O O14 0.500000 0.000000 0.369953
O O15 0.569951 0.168969 0.000000
#
# Coordination Sequence:
#
# PCOD9425768 Si02
#       6
#     8   8   8   8   8   8
#     4  10  20  34  53  77 105 135 169 212 260 310
#     4  10  21  35  51  74 104 139 176 216 260 306
#     4   9  18  33  54  79 106 135 168 210 260 313
#     4  10  19  33  51  75 105 133 169 214 260 306
#     4   9  19  36  55  75 102 138 176 212 256 310
#     4   9  16  29  51  78 103 128 163 207 257 308
#
# _framework density 24.013034999999999
#
# number of rings (size 3 to 8) (size 9 to 14) (size 15 to 20)
#    0.000    2.500    0.000    3.500    0.000    2.667 
#    0.000    5.000    0.000    0.500    0.000    2.333 
#    0.000    0.000    0.000    0.000    0.000    0.000 
#
# Total GULP energy -267320.447734 kJ/mol
# GULP energy per Si atom -5569.175994 kJ/mol
# Density = 2.395838 g / cm^3
# Si number density = 24.013035 Si / 1000 Ang^3
#
#
#
# Elastic Constant Matrix: (Units=GPa)
#
#
# Indices 1 2 3 4 5 6 
#
# 1 93.2339 10.9919 55.4895 0.0000 0.0000 0.0000
# 2 10.9919 37.2593 -0.6873 0.0000 0.0000 0.0000
# 3 55.4895 -0.6873 201.0034 0.0000 0.0000 0.0000
# 4 0.0000 0.0000 0.0000 -9.0736 0.0000 0.0000
# 5 0.0000 0.0000 0.0000 0.0000 33.5999 0.0000
# 6 0.0000 0.0000 0.0000 0.0000 0.0000 23.4327
#
#
#
# Elastic Compliance Matrix: (Units=1/GPa)
#
#
# Indices 1 2 3 4 5 6 
#
# 1 0.013412 -0.004025 -0.003716 0.000000 0.000000 0.000000
# 2 -0.004025 0.028049 0.001207 0.000000 0.000000 0.000000
# 3 -0.003716 0.001207 0.006005 0.000000 0.000000 0.000000
# 4 0.000000 0.000000 0.000000 -0.110209 0.000000 0.000000
# 5 0.000000 0.000000 0.000000 0.000000 0.029762 0.000000
# 6 0.000000 0.000000 0.000000 0.000000 0.000000 0.042675
#
#
# Mechanical properties :
#
#
# Convention : Reuss Voigt Hill
#
# Bulk Modulus (GPa) = 29.07233 51.45386 40.26309
# Shear Modulus (GPa) = 146.07594 27.30528 86.69061
#
# Velocity S-wave (km/s) = 7.80794 3.37575 6.01497
# Velocity P-wave (km/s) = 9.66532 6.05543 8.06495
#
# Compressibility (1/GPa) = 0.03439697
#
# Stress axis : x y z
#
# Youngs Moduli (GPa) = 74.55946 35.65225 166.52481
#
# Poissons Ratio (x) = 0.14351 0.61886
# Poissons Ratio (y) = 0.30012 -0.20102
# Poissons Ratio (z) = 0.27709 -0.04304
#
# Static dielectric constant tensor:
#      x y z
#    x 1.870610 0.000000 0.000000 
#    y 0.000000 1.927210 0.000000 
#    z 0.000000 0.000000 2.108870 
# 
# From -- ./inp_files/17485.got.cif
#   From: 2010.05.17/outbox.cif.g08.bks.cpg/sg55_9_cif.got.tgz:17485.got - 2010.06.03 13:27:54.
