data_PCOD9425144
_publ_section_title
;
Structure prediction by ZEFSAII (Michael W. Deem and Ramdas Pophale) SiO2 
 PCOD9425144
Probable space group: P B A M
;
_chemical_formula_sum "Si O2"
_cell_formula_units_Z 56
_cell_length_a 8.093088
_cell_length_b 29.830809
_cell_length_c 13.053193
_cell_angle_alpha 90.000000
_cell_angle_beta 90.000000
_cell_angle_gamma 90.000000
_cell_volume 3151.345743
_symmetry_space_group_name_H-M "P B A M"
_symmetry_group_IT_number 55
_symmetry_cell_setting 'orthorhombic'
loop_
_space_group_symop_operation_xyz
x,y,z
-x,-y,z
1/2+x,1/2-y,-z
1/2-x,1/2+y,-z
-x,-y,-z
x,y,-z
1/2-x,1/2+y,z
1/2+x,1/2-y,z
loop_
_atom_site_type_symbol
_atom_site_label
_atom_site_fract_x
_atom_site_fract_y
_atom_site_fract_z
Si Si1 0.079081 0.101683 0.123271
Si Si2 0.436705 0.702675 0.115709
Si Si3 0.958895 0.297300 0.881927
Si Si4 0.832639 0.527647 0.891414
Si Si5 0.389070 0.462597 0.283191
Si Si6 0.052900 0.447674 0.382512
Si Si7 0.460336 0.105693 0.187574
O O1 0.022235 0.152597 0.150736
O O2 0.278748 0.099142 0.137747
O O3 0.989128 0.070818 0.208045
O O4 0.047135 0.094121 0.000000
O O5 0.489083 0.749600 0.165110
O O6 0.238871 0.703289 0.111658
O O7 0.505256 0.705707 0.000000
O O8 0.003349 0.341927 0.819802
O O9 0.022719 0.301687 0.000000
O O10 0.719899 0.511001 0.801067
O O11 0.000000 0.500000 0.891894
O O12 0.897156 0.577850 0.871302
O O13 0.747573 0.523015 0.000000
O O14 0.500000 0.500000 0.336829
O O15 0.248701 0.442819 0.356862
O O16 0.018399 0.436266 0.500000
O O17 0.000000 0.500000 0.367648
O O18 0.961708 0.416258 0.300260
#
# Coordination Sequence:
#
# PCOD9425144 Si02
#       7
#     8   8   8   8   8   8   8
#     4  10  19  31  48  75 112 141 161 192 237 294
#     4   8  16  28  42  66 101 139 170 193 224 276
#     4   9  16  27  45  70 101 133 164 197 234 284
#     4  10  19  29  42  63  95 132 163 189 227 289
#     4  11  21  32  48  73 100 127 163 203 248 298
#     4  10  22  40  57  71  91 123 168 219 259 292
#     4  10  18  32  51  71  94 129 169 205 245 293
#
# _framework density 17.770185999999999
#
# number of rings (size 3 to 8) (size 9 to 14) (size 15 to 20)
#    0.000    2.286    0.000    6.000    0.000    4.857 
#    0.000    5.000    0.000    0.000    0.000    9.000 
#    0.000    0.000    0.000    0.000    0.000    0.000 
#
# Total GULP energy -311785.654614 kJ/mol
# GULP energy per Si atom -5567.600975 kJ/mol
# Density = 1.772974 g / cm^3
# Si number density = 17.770186 Si / 1000 Ang^3
#
#
#
# Elastic Constant Matrix: (Units=GPa)
#
#
# Indices 1 2 3 4 5 6 
#
# 1 33.9146 21.1974 -3.1611 0.0000 0.0000 0.0000
# 2 21.1974 120.9613 19.9928 0.0000 0.0000 0.0000
# 3 -3.1611 19.9928 68.7594 0.0000 0.0000 0.0000
# 4 0.0000 0.0000 0.0000 16.4829 0.0000 0.0000
# 5 0.0000 0.0000 0.0000 0.0000 12.8809 0.0000
# 6 0.0000 0.0000 0.0000 0.0000 0.0000 29.8646
#
#
#
# Elastic Compliance Matrix: (Units=1/GPa)
#
#
# Indices 1 2 3 4 5 6 
#
# 1 0.033874 -0.006506 0.003449 0.000000 0.000000 0.000000
# 2 -0.006506 0.009934 -0.003188 0.000000 0.000000 0.000000
# 3 0.003449 -0.003188 0.015629 0.000000 0.000000 0.000000
# 4 0.000000 0.000000 0.000000 0.060669 0.000000 0.000000
# 5 0.000000 0.000000 0.000000 0.000000 0.077634 0.000000
# 6 0.000000 0.000000 0.000000 0.000000 0.000000 0.033484
#
#
# Mechanical properties :
#
#
# Convention : Reuss Voigt Hill
#
# Bulk Modulus (GPa) = 21.30044 33.29927 27.29986
# Shear Modulus (GPa) = 19.27799 24.21942 21.74870
#
# Velocity S-wave (km/s) = 3.29728 3.69579 3.50221
# Velocity P-wave (km/s) = 5.14866 6.08205 5.63471
#
# Compressibility (1/GPa) = 0.04694738
#
# Stress axis : x y z
#
# Youngs Moduli (GPa) = 29.52136 100.66334 63.98413
#
# Poissons Ratio (x) = 0.65493 -0.22068
# Poissons Ratio (y) = 0.19207 0.20396
# Poissons Ratio (z) = -0.10182 0.32087
#
# Static dielectric constant tensor:
#      x y z
#    x 1.683860 0.000000 0.000000 
#    y 0.000000 1.674380 0.000000 
#    z 0.000000 0.000000 1.596800 
# 
# From -- ./inp_files/17902.got.cif
#   From: 2010.05.17/outbox.cif.g08.bks.cpg/sg55_9_cif.got.tgz:17902.got - 2010.06.03 13:27:54.
