data_PCOD9425377
_publ_section_title
;
Structure prediction by ZEFSAII (Michael W. Deem and Ramdas Pophale) SiO2 
 PCOD9425377
Probable space group: P B A M
;
_chemical_formula_sum "Si O2"
_cell_formula_units_Z 56
_cell_length_a 14.048966
_cell_length_b 30.584549
_cell_length_c 8.438793
_cell_angle_alpha 90.000000
_cell_angle_beta 90.000000
_cell_angle_gamma 90.000000
_cell_volume 3625.991454
_symmetry_space_group_name_H-M "P B A M"
_symmetry_group_IT_number 55
_symmetry_cell_setting 'orthorhombic'
loop_
_space_group_symop_operation_xyz
x,y,z
-x,-y,z
1/2+x,1/2-y,-z
1/2-x,1/2+y,-z
-x,-y,-z
x,y,-z
1/2-x,1/2+y,z
1/2+x,1/2-y,z
loop_
_atom_site_type_symbol
_atom_site_label
_atom_site_fract_x
_atom_site_fract_y
_atom_site_fract_z
Si Si1 0.607117 0.768678 0.810535
Si Si2 0.111733 0.905085 0.305868
Si Si3 0.797490 0.816667 0.189739
Si Si4 0.399016 0.768914 0.310370
Si Si5 0.390453 0.595805 0.308032
Si Si6 0.209104 0.816667 0.691462
Si Si7 0.884291 0.999587 0.683957
O O1 0.691983 0.801210 0.758449
O O2 0.502957 0.780861 0.750843
O O3 0.636731 0.720844 0.747686
O O4 0.606864 0.767415 0.000000
O O5 0.113124 0.906509 0.500000
O O6 0.175235 0.864291 0.254027
O O7 0.001230 0.897876 0.260752
O O8 0.143686 0.953207 0.247792
O O9 0.869118 0.779325 0.251932
O O10 0.828382 0.863843 0.250745
O O11 0.800407 0.816333 0.000000
O O12 0.400071 0.768579 0.500000
O O13 0.314119 0.801239 0.256314
O O14 0.389301 0.594585 0.500000
O O15 0.357597 0.547793 0.248201
O O16 0.208164 0.816802 0.500000
O O17 0.853384 0.999493 0.500000
O O18 0.000000 0.000000 0.683221
#
# Coordination Sequence:
#
# PCOD9425377 Si02
#       7
#     8   8   8   8   8   8   8
#     4  10  20  32  44  59  83 114 143 172 208 249
#     4   8  13  23  40  62  87 111 135 165 203 248
#     4  10  20  31  43  61  85 113 142 171 207 250
#     4  10  19  30  44  62  84 109 140 178 211 242
#     4   9  15  24  42  65  86 111 141 170 201 242
#     4   9  17  28  44  65  85 109 141 173 207 247
#     4   7  11  20  36  60  86 109 134 164 200 245
#
# _framework density 15.444051
#
# number of rings (size 3 to 8) (size 9 to 14) (size 15 to 20)
#    0.000    3.000    0.000    3.857    0.000    3.429 
#    0.000    0.000    0.000    4.714    0.000    1.000 
#    0.000    8.000    0.000    0.000    0.000    0.000 
#
# Total GULP energy -311814.407629 kJ/mol
# GULP energy per Si atom -5568.114422 kJ/mol
# Density = 1.540890 g / cm^3
# Si number density = 15.444051 Si / 1000 Ang^3
#
#
#
# Elastic Constant Matrix: (Units=GPa)
#
#
# Indices 1 2 3 4 5 6 
#
# 1 78.6660 58.2035 12.8939 0.0000 0.0000 0.0000
# 2 58.2035 161.6109 16.3698 0.0000 0.0000 0.0000
# 3 12.8939 16.3698 9.9105 0.0000 0.0000 0.0000
# 4 0.0000 0.0000 0.0000 -4.0199 0.0000 0.0000
# 5 0.0000 0.0000 0.0000 0.0000 18.0164 0.0000
# 6 0.0000 0.0000 0.0000 0.0000 0.0000 20.2230
#
#
#
# Elastic Compliance Matrix: (Units=1/GPa)
#
#
# Indices 1 2 3 4 5 6 
#
# 1 0.019316 -0.005297 -0.016381 0.000000 0.000000 0.000000
# 2 -0.005297 0.008884 -0.007782 0.000000 0.000000 0.000000
# 3 -0.016381 -0.007782 0.135069 0.000000 0.000000 0.000000
# 4 0.000000 0.000000 0.000000 -0.248763 0.000000 0.000000
# 5 0.000000 0.000000 0.000000 0.000000 0.055505 0.000000
# 6 0.000000 0.000000 0.000000 0.000000 0.000000 0.049449
#
#
# Mechanical properties :
#
#
# Convention : Reuss Voigt Hill
#
# Bulk Modulus (GPa) = 9.58324 47.23574 28.40949
# Shear Modulus (GPa) = 44.18356 17.69192 30.93774
#
# Velocity S-wave (km/s) = 5.35452 3.38827 4.48058
# Velocity P-wave (km/s) = 6.66682 6.77928 6.72328
#
# Compressibility (1/GPa) = 0.10434881
#
# Stress axis : x y z
#
# Youngs Moduli (GPa) = 51.76931 112.56453 7.40360
#
# Poissons Ratio (x) = 0.59631 0.12128
# Poissons Ratio (y) = 0.27425 0.05761
# Poissons Ratio (z) = 0.84804 0.87595
#
# Static dielectric constant tensor:
#      x y z
#    x 1.502490 0.000000 0.000000 
#    y 0.000000 1.536520 0.000000 
#    z 0.000000 0.000000 1.524380 
# 
# From -- ./inp_files/6863.got.cif
#   From: 2010.05.17/outbox.cif.g08.bks.cpg/sg55_4_cif.got.tgz:6863.got - 2010.06.03 13:27:54.
