data_PCOD9425112
_publ_section_title
;
Structure prediction by ZEFSAII (Michael W. Deem and Ramdas Pophale) SiO2 
 PCOD9425112
Probable space group: P B A M
;
_chemical_formula_sum "Si O2"
_cell_formula_units_Z 40
_cell_length_a 13.738444
_cell_length_b 9.263623
_cell_length_c 15.892658
_cell_angle_alpha 90.000000
_cell_angle_beta 90.000000
_cell_angle_gamma 90.000000
_cell_volume 2022.623077
_symmetry_space_group_name_H-M "P B A M"
_symmetry_group_IT_number 55
_symmetry_cell_setting 'orthorhombic'
loop_
_space_group_symop_operation_xyz
x,y,z
-x,-y,z
1/2+x,1/2-y,-z
1/2-x,1/2+y,-z
-x,-y,-z
x,y,-z
1/2-x,1/2+y,z
1/2+x,1/2-y,z
loop_
_atom_site_type_symbol
_atom_site_label
_atom_site_fract_x
_atom_site_fract_y
_atom_site_fract_z
Si Si1 0.553687 0.349843 0.228456
Si Si2 0.552432 0.846870 0.905649
Si Si3 0.384894 0.666001 0.407124
Si Si4 0.213103 0.644302 0.225317
Si Si5 0.258995 0.401261 0.658060
O O1 0.500000 0.500000 0.216169
O O2 0.509548 0.243059 0.161031
O O3 0.544931 0.310363 0.327533
O O4 0.670147 0.359206 0.215017
O O5 0.657284 0.862475 0.861850
O O6 0.500000 0.000000 0.911220
O O7 0.558025 0.784866 0.000000
O O8 0.428436 0.666241 0.500000
O O9 0.330116 0.512590 0.389596
O O10 0.304819 0.794143 0.398987
O O11 0.191485 0.506748 0.284888
O O12 0.189715 0.791360 0.276296
#
# Coordination Sequence:
#
# PCOD9425112 Si02
#       5
#     8   8   8   8   8
#     4  10  22  39  58  84 117 151 187 231 284 337
#     4  11  23  38  59  85 111 145 190 236 286 345
#     4  10  18  31  54  84 116 151 192 234 277 330
#     4  10  19  38  59  79 112 154 187 231 289 338
#     4   8  17  32  55  80 110 150 188 230 283 333
#
# _framework density 19.776299999999999
#
# number of rings (size 3 to 8) (size 9 to 14) (size 15 to 20)
#    0.000    2.600    0.000    5.400    0.000    1.600 
#    0.000    5.000    0.000   10.200    0.000    0.000 
#    0.000    0.000    0.000    0.000    0.000    0.000 
#
# Total GULP energy -223077.906023 kJ/mol
# GULP energy per Si atom -5576.947651 kJ/mol
# Density = 1.973129 g / cm^3
# Si number density = 19.776300 Si / 1000 Ang^3
#
#
#
# Elastic Constant Matrix: (Units=GPa)
#
#
# Indices 1 2 3 4 5 6 
#
# 1 78.9297 12.7509 50.5502 0.0000 0.0000 0.0000
# 2 12.7509 106.3517 58.8613 0.0000 0.0000 0.0000
# 3 50.5502 58.8613 178.4317 0.0000 0.0000 0.0000
# 4 0.0000 0.0000 0.0000 17.9073 0.0000 0.0000
# 5 0.0000 0.0000 0.0000 0.0000 22.8285 0.0000
# 6 0.0000 0.0000 0.0000 0.0000 0.0000 19.5256
#
#
#
# Elastic Compliance Matrix: (Units=1/GPa)
#
#
# Indices 1 2 3 4 5 6 
#
# 1 0.015520 0.000701 -0.004628 0.000000 0.000000 0.000000
# 2 0.000701 0.011535 -0.004004 0.000000 0.000000 0.000000
# 3 -0.004628 -0.004004 0.008236 0.000000 0.000000 0.000000
# 4 0.000000 0.000000 0.000000 0.055843 0.000000 0.000000
# 5 0.000000 0.000000 0.000000 0.000000 0.043805 0.000000
# 6 0.000000 0.000000 0.000000 0.000000 0.000000 0.051215
#
#
# Mechanical properties :
#
#
# Convention : Reuss Voigt Hill
#
# Bulk Modulus (GPa) = 51.46892 67.55976 59.51434
# Shear Modulus (GPa) = 23.98171 28.15568 26.06869
#
# Velocity S-wave (km/s) = 3.48609 3.77730 3.63461
# Velocity P-wave (km/s) = 6.50275 7.29795 6.91180
#
# Compressibility (1/GPa) = 0.01942920
#
# Stress axis : x y z
#
# Youngs Moduli (GPa) = 64.43157 86.69610 121.41487
#
# Poissons Ratio (x) = -0.06074 0.56192
# Poissons Ratio (y) = -0.04514 0.48609
# Poissons Ratio (z) = 0.29820 0.34709
#
# Static dielectric constant tensor:
#      x y z
#    x 1.728760 0.000000 0.000000 
#    y 0.000000 1.711140 0.000000 
#    z 0.000000 0.000000 1.711200 
# 
# From -- ./inp_files/18741.got.cif
#   From: 2010.05.17/outbox.cif.g08.bks.cpg/sg55_10_cif.got.tgz:18741.got - 2010.06.03 13:27:54.
