data_PCOD9425305
_publ_section_title
;
Structure prediction by ZEFSAII (Michael W. Deem and Ramdas Pophale) SiO2 
 PCOD9425305
Probable space group: P B A M
;
_chemical_formula_sum "Si O2"
_cell_formula_units_Z 64
_cell_length_a 24.650172
_cell_length_b 16.093875
_cell_length_c 7.415123
_cell_angle_alpha 90.000000
_cell_angle_beta 90.000000
_cell_angle_gamma 90.000000
_cell_volume 2941.703771
_symmetry_space_group_name_H-M "P B A M"
_symmetry_group_IT_number 55
_symmetry_cell_setting 'orthorhombic'
loop_
_space_group_symop_operation_xyz
x,y,z
-x,-y,z
1/2+x,1/2-y,-z
1/2-x,1/2+y,-z
-x,-y,-z
x,y,-z
1/2-x,1/2+y,z
1/2+x,1/2-y,z
loop_
_atom_site_type_symbol
_atom_site_label
_atom_site_fract_x
_atom_site_fract_y
_atom_site_fract_z
Si Si1 0.812130 0.757794 0.720518
Si Si2 0.562070 0.249357 0.720485
Si Si3 0.625194 0.832811 0.281609
Si Si4 0.745417 0.597348 0.292883
Si Si5 0.124883 0.858782 0.795860
Si Si6 0.994464 0.091327 0.706760
Si Si7 0.760837 0.411993 0.720325
Si Si8 0.010317 0.593653 0.280081
O O1 0.810536 0.758025 0.500000
O O2 0.875015 0.752857 0.774036
O O3 0.777646 0.677120 0.782486
O O4 0.783085 0.843231 0.778647
O O5 0.560459 0.249205 0.500000
O O6 0.528298 0.330610 0.782331
O O7 0.532117 0.164576 0.778126
O O8 0.625107 0.825776 0.500000
O O9 0.624984 0.740469 0.207298
O O10 0.679819 0.879438 0.229673
O O11 0.570504 0.878757 0.227402
O O12 0.764347 0.591894 0.500000
O O13 0.681272 0.614051 0.290722
O O14 0.753773 0.505918 0.213282
O O15 0.069026 0.886949 0.707018
O O16 0.124520 0.890167 0.000000
O O17 0.014149 0.083701 0.500000
O O18 0.000000 0.000000 0.790840
O O19 0.757704 0.413680 0.500000
O O20 0.008409 0.592921 0.500000
O O21 0.000000 0.500000 0.219001
#
# Coordination Sequence:
#
# PCOD9425305 Si02
#       8
#     8   8   8   8   8   8   8   8
#     4   9  17  29  48  79 113 138 172 223 273 328
#     4   9  17  29  47  79 115 141 170 217 277 333
#     4  10  18  35  58  82 111 143 186 232 277 327
#     4  10  20  35  57  83 113 146 183 231 284 332
#     4  12  24  38  57  80 112 152 194 235 277 328
#     4  10  21  37  60  85 109 144 187 233 285 339
#     4   9  18  30  52  82 107 138 180 230 279 325
#     4   9  17  27  47  80 115 142 169 218 280 331
#
# _framework density 21.7561
#
# number of rings (size 3 to 8) (size 9 to 14) (size 15 to 20)
#    0.000    2.250    2.500    1.125    3.500    0.250 
#    0.000    0.625    0.000    1.125    0.000    0.000 
#    0.000    0.000    0.000    0.000    0.000    0.000 
#
# Total GULP energy -357455.303394 kJ/mol
# GULP energy per Si atom -5585.239116 kJ/mol
# Density = 2.170658 g / cm^3
# Si number density = 21.756100 Si / 1000 Ang^3
#
#
#
# Elastic Constant Matrix: (Units=GPa)
#
#
# Indices 1 2 3 4 5 6 
#
# 1 141.2501 68.6592 -4.8535 0.0000 0.0000 0.0000
# 2 68.6592 182.4168 3.7023 0.0000 0.0000 0.0000
# 3 -4.8535 3.7023 69.7088 0.0000 0.0000 0.0000
# 4 0.0000 0.0000 0.0000 -4.0099 0.0000 0.0000
# 5 0.0000 0.0000 0.0000 0.0000 183.2431 0.0000
# 6 0.0000 0.0000 0.0000 0.0000 0.0000 33.6122
#
#
#
# Elastic Compliance Matrix: (Units=1/GPa)
#
#
# Indices 1 2 3 4 5 6 
#
# 1 0.008707 -0.003293 0.000781 0.000000 0.000000 0.000000
# 2 -0.003293 0.006733 -0.000587 0.000000 0.000000 0.000000
# 3 0.000781 -0.000587 0.014431 0.000000 0.000000 0.000000
# 4 0.000000 0.000000 0.000000 -0.249383 0.000000 0.000000
# 5 0.000000 0.000000 0.000000 0.000000 0.005457 0.000000
# 6 0.000000 0.000000 0.000000 0.000000 0.000000 0.029751
#
#
# Mechanical properties :
#
#
# Convention : Reuss Voigt Hill
#
# Bulk Modulus (GPa) = 42.24088 58.71018 50.47553
# Shear Modulus (GPa) = -29.37473 64.29359 17.45943
#
# Velocity S-wave (km/s) = -3.67847 5.44207 2.83593
# Velocity P-wave (km/s) = 1.19007 8.15674 5.82875
#
# Compressibility (1/GPa) = 0.02367375
#
# Stress axis : x y z
#
# Youngs Moduli (GPa) = 114.84731 148.51443 69.29548
#
# Poissons Ratio (x) = 0.48908 -0.05413
# Poissons Ratio (y) = 0.37821 0.04067
# Poissons Ratio (z) = -0.08971 0.08716
#
# Static dielectric constant tensor:
#      x y z
#    x 1.700450 0.000000 0.000000 
#    y 0.000000 1.765030 0.000000 
#    z 0.000000 0.000000 1.817840 
# 
# From -- ./inp_files/9708.got.cif
#   From: 2010.05.17/outbox.cif.g08.bks.cpg/sg55_5_cif.got.tgz:9708.got - 2010.06.03 13:27:54.
