data_PCOD9425434
_publ_section_title
;
Structure prediction by ZEFSAII (Michael W. Deem and Ramdas Pophale) SiO2 
 PCOD9425434
Probable space group: P B A M
;
_chemical_formula_sum "Si O2"
_cell_formula_units_Z 64
_cell_length_a 10.246941
_cell_length_b 21.935713
_cell_length_c 16.817434
_cell_angle_alpha 90.000000
_cell_angle_beta 90.000000
_cell_angle_gamma 90.000000
_cell_volume 3780.121185
_symmetry_space_group_name_H-M "P B A M"
_symmetry_group_IT_number 55
_symmetry_cell_setting 'orthorhombic'
loop_
_space_group_symop_operation_xyz
x,y,z
-x,-y,z
1/2+x,1/2-y,-z
1/2-x,1/2+y,-z
-x,-y,-z
x,y,-z
1/2-x,1/2+y,z
1/2+x,1/2-y,z
loop_
_atom_site_type_symbol
_atom_site_label
_atom_site_fract_x
_atom_site_fract_y
_atom_site_fract_z
Si Si1 0.442444 0.353461 0.226996
Si Si2 0.371390 0.236237 0.685515
Si Si3 0.776464 0.581670 0.330778
Si Si4 0.607368 0.551422 0.093841
Si Si5 0.852042 0.501710 0.182032
Si Si6 0.857435 0.974095 0.408549
Si Si7 0.629516 0.204109 0.404865
Si Si8 0.234343 0.113900 0.728935
O O1 0.398493 0.284125 0.243150
O O2 0.356896 0.390750 0.292493
O O3 0.411875 0.386860 0.144099
O O4 0.596602 0.360747 0.239364
O O5 0.252549 0.260396 0.631844
O O6 0.499482 0.233248 0.631240
O O7 0.331911 0.169608 0.715583
O O8 0.846862 0.547767 0.257704
O O9 0.738206 0.531023 0.394887
O O10 0.856629 0.635678 0.370651
O O11 0.500000 0.500000 0.118792
O O12 0.748390 0.525512 0.118050
O O13 0.594644 0.560912 0.000000
O O14 0.798261 0.437227 0.214686
O O15 0.000000 0.500000 0.153020
O O16 0.864619 0.955117 0.500000
O O17 0.805937 0.920713 0.352316
O O18 0.000000 0.000000 0.384462
O O19 0.630283 0.204793 0.500000
#
# Coordination Sequence:
#
# PCOD9425434 Si02
#       8
#     8   8   8   8   8   8   8   8
#     4  10  19  37  57  81 112 149 191 237 273 342
#     4  11  23  38  55  79 105 158 206 234 284 335
#     4   9  19  33  53  76 108 146 189 228 293 346
#     4  10  20  36  65  96 118 144 179 226 290 350
#     4  10  20  34  58  89 118 146 178 229 282 347
#     4  10  19  30  50  80 114 146 188 244 304 349
#     4  11  22  36  52  75 111 147 195 250 289 329
#     4  11  20  36  57  80 114 149 197 241 279 335
#
# _framework density 16.930674
#
# number of rings (size 3 to 8) (size 9 to 14) (size 15 to 20)
#    0.000    1.750    3.750    1.500    0.000    1.250 
#    0.000    0.000    0.000    5.625    0.000    0.000 
#    0.000    0.000    0.000    0.000    0.000    0.000 
#
# Total GULP energy -357060.503404 kJ/mol
# GULP energy per Si atom -5579.070366 kJ/mol
# Density = 1.689214 g / cm^3
# Si number density = 16.930674 Si / 1000 Ang^3
#
#
#
# Elastic Constant Matrix: (Units=GPa)
#
#
# Indices 1 2 3 4 5 6 
#
# 1 113.1856 27.2335 23.2364 0.0000 0.0000 0.0000
# 2 27.2335 95.3916 38.4081 0.0000 0.0000 0.0000
# 3 23.2364 38.4081 65.4307 0.0000 0.0000 0.0000
# 4 0.0000 0.0000 0.0000 13.5428 0.0000 0.0000
# 5 0.0000 0.0000 0.0000 0.0000 11.3634 0.0000
# 6 0.0000 0.0000 0.0000 0.0000 0.0000 27.1839
#
#
#
# Elastic Compliance Matrix: (Units=1/GPa)
#
#
# Indices 1 2 3 4 5 6 
#
# 1 0.009766 -0.001822 -0.002398 0.000000 0.000000 0.000000
# 2 -0.001822 0.014068 -0.007611 0.000000 0.000000 0.000000
# 3 -0.002398 -0.007611 0.020603 0.000000 0.000000 0.000000
# 4 0.000000 0.000000 0.000000 0.073840 0.000000 0.000000
# 5 0.000000 0.000000 0.000000 0.000000 0.088002 0.000000
# 6 0.000000 0.000000 0.000000 0.000000 0.000000 0.036787
#
#
# Mechanical properties :
#
#
# Convention : Reuss Voigt Hill
#
# Bulk Modulus (GPa) = 48.13868 50.19601 49.16734
# Shear Modulus (GPa) = 18.27142 22.76002 20.51572
#
# Velocity S-wave (km/s) = 3.28867 3.67046 3.48479
# Velocity P-wave (km/s) = 6.55095 6.90473 6.73017
#
# Compressibility (1/GPa) = 0.02077331
#
# Stress axis : x y z
#
# Youngs Moduli (GPa) = 102.39696 71.08490 48.53767
#
# Poissons Ratio (x) = 0.12955 0.11641
# Poissons Ratio (y) = 0.18661 0.36940
# Poissons Ratio (z) = 0.24559 0.54100
#
# Static dielectric constant tensor:
#      x y z
#    x 1.577850 0.000000 0.000000 
#    y 0.000000 1.580370 0.000000 
#    z 0.000000 0.000000 1.535380 
# 
# From -- ./inp_files/21137.got.cif
#   From: 2010.05.17/outbox.cif.g08.bks.cpg/sg55_11_cif.got.tgz:21137.got - 2010.06.03 13:27:54.
