data_PCOD9425811
_publ_section_title
;
Structure prediction by ZEFSAII (Michael W. Deem and Ramdas Pophale) SiO2 
 PCOD9425811
Probable space group: P B A M
;
_chemical_formula_sum "Si O2"
_cell_formula_units_Z 56
_cell_length_a 24.895253
_cell_length_b 13.678659
_cell_length_c 7.671044
_cell_angle_alpha 90.000000
_cell_angle_beta 90.000000
_cell_angle_gamma 90.000000
_cell_volume 2612.248816
_symmetry_space_group_name_H-M "P B A M"
_symmetry_group_IT_number 55
_symmetry_cell_setting 'orthorhombic'
loop_
_space_group_symop_operation_xyz
x,y,z
-x,-y,z
1/2+x,1/2-y,-z
1/2-x,1/2+y,-z
-x,-y,-z
x,y,-z
1/2-x,1/2+y,z
1/2+x,1/2-y,z
loop_
_atom_site_type_symbol
_atom_site_label
_atom_site_fract_x
_atom_site_fract_y
_atom_site_fract_z
Si Si1 0.045653 0.215469 0.796301
Si Si2 0.163890 0.530588 0.290739
Si Si3 0.950237 0.564494 0.790086
Si Si4 0.158001 0.752841 0.711966
Si Si5 0.727311 0.563845 0.286490
Si Si6 0.059865 0.885376 0.796221
Si Si7 0.869550 0.933615 0.698821
O O1 0.047802 0.324384 0.722056
O O2 0.101573 0.158433 0.783408
O O3 0.997302 0.149125 0.723297
O O4 0.031807 0.225221 0.000000
O O5 0.168825 0.534634 0.500000
O O6 0.106359 0.485401 0.249497
O O7 0.167603 0.642549 0.228054
O O8 0.213369 0.464355 0.227380
O O9 0.000000 0.500000 0.724259
O O10 0.954658 0.568706 0.000000
O O11 0.155685 0.753636 0.500000
O O12 0.203512 0.831077 0.765987
O O13 0.101528 0.795730 0.778620
O O14 0.726026 0.563411 0.500000
O O15 0.684812 0.480883 0.227151
O O16 0.088026 0.976918 0.705291
O O17 0.054608 0.913455 0.000000
O O18 0.858539 0.906067 0.500000
#
# Coordination Sequence:
#
# PCOD9425811 Si02
#       7
#     8   8   8   8   8   8   8
#     4  10  21  35  52  76 107 142 176 215 264 313
#     4  10  20  35  57  81 104 135 177 222 263 308
#     4  10  22  40  57  75 105 141 176 216 263 316
#     4   9  18  33  53  77 106 139 177 221 263 307
#     4   8  17  34  53  76 107 140 172 210 261 315
#     4  10  19  33  54  77 105 143 181 213 255 313
#     4  10  20  34  54  80 109 140 174 215 262 310
#
# _framework density 21.437467000000002
#
# number of rings (size 3 to 8) (size 9 to 14) (size 15 to 20)
#    0.000    2.429    0.000    3.000    0.000    6.571 
#    0.000    6.429    0.000    0.000    0.000    0.000 
#    0.000    0.000    0.000    0.000    0.000    0.000 
#
# Total GULP energy -312702.359253 kJ/mol
# GULP energy per Si atom -5583.970701 kJ/mol
# Density = 2.138867 g / cm^3
# Si number density = 21.437467 Si / 1000 Ang^3
#
#
#
# Elastic Constant Matrix: (Units=GPa)
#
#
# Indices 1 2 3 4 5 6 
#
# 1 151.5436 48.6203 -7.6132 0.0000 0.0000 0.0000
# 2 48.6203 53.2310 -9.1212 0.0000 0.0000 0.0000
# 3 -7.6132 -9.1212 36.5927 0.0000 0.0000 0.0000
# 4 0.0000 0.0000 0.0000 23.2446 0.0000 0.0000
# 5 0.0000 0.0000 0.0000 0.0000 20.5979 0.0000
# 6 0.0000 0.0000 0.0000 0.0000 0.0000 20.2985
#
#
#
# Elastic Compliance Matrix: (Units=1/GPa)
#
#
# Indices 1 2 3 4 5 6 
#
# 1 0.009335 -0.008560 -0.000191 0.000000 0.000000 0.000000
# 2 -0.008560 0.027472 0.005067 0.000000 0.000000 0.000000
# 3 -0.000191 0.005067 0.028551 0.000000 0.000000 0.000000
# 4 0.000000 0.000000 0.000000 0.043021 0.000000 0.000000
# 5 0.000000 0.000000 0.000000 0.000000 0.048549 0.000000
# 6 0.000000 0.000000 0.000000 0.000000 0.000000 0.049265
#
#
# Mechanical properties :
#
#
# Convention : Reuss Voigt Hill
#
# Bulk Modulus (GPa) = 17.24399 33.90434 25.57416
# Shear Modulus (GPa) = 21.46929 26.79364 24.13146
#
# Velocity S-wave (km/s) = 3.16806 3.53916 3.35874
# Velocity P-wave (km/s) = 4.63071 5.70532 5.19587
#
# Compressibility (1/GPa) = 0.05799122
#
# Stress axis : x y z
#
# Youngs Moduli (GPa) = 107.11988 36.40014 35.02491
#
# Poissons Ratio (x) = 0.31157 0.00670
# Poissons Ratio (y) = 0.91690 -0.17747
# Poissons Ratio (z) = 0.02050 -0.18444
#
# Static dielectric constant tensor:
#      x y z
#    x 1.751540 0.000000 0.000000 
#    y 0.000000 1.766860 0.000000 
#    z 0.000000 0.000000 1.803130 
# 
# From -- ./inp_files/8731.got.cif
#   From: 2010.05.17/outbox.cif.g08.bks.cpg/sg55_5_cif.got.tgz:8731.got - 2010.06.03 13:27:54.
