data_PCOD9425139
_publ_section_title
;
Structure prediction by ZEFSAII (Michael W. Deem and Ramdas Pophale) SiO2 
 PCOD9425139
Probable space group: P B A M
;
_chemical_formula_sum "Si O2"
_cell_formula_units_Z 48
_cell_length_a 17.192670
_cell_length_b 18.641777
_cell_length_c 7.670553
_cell_angle_alpha 90.000000
_cell_angle_beta 90.000000
_cell_angle_gamma 90.000000
_cell_volume 2458.426965
_symmetry_space_group_name_H-M "P B A M"
_symmetry_group_IT_number 55
_symmetry_cell_setting 'orthorhombic'
loop_
_space_group_symop_operation_xyz
x,y,z
-x,-y,z
1/2+x,1/2-y,-z
1/2-x,1/2+y,-z
-x,-y,-z
x,y,-z
1/2-x,1/2+y,z
1/2+x,1/2-y,z
loop_
_atom_site_type_symbol
_atom_site_label
_atom_site_fract_x
_atom_site_fract_y
_atom_site_fract_z
Si Si1 0.674826 0.896166 0.298813
Si Si2 0.505832 0.917187 0.286142
Si Si3 0.666738 0.329634 0.714338
Si Si4 0.646442 0.167337 0.290035
Si Si5 0.916687 0.972898 0.290267
Si Si6 0.246076 0.959935 0.203245
O O1 0.669108 0.873483 0.500000
O O2 0.589092 0.888315 0.223142
O O3 0.747552 0.853224 0.223297
O O4 0.701109 0.979636 0.296315
O O5 0.506481 0.916119 0.500000
O O6 0.431099 0.873020 0.227263
O O7 0.500000 0.000000 0.233984
O O8 0.666860 0.330776 0.500000
O O9 0.649105 0.249213 0.771441
O O10 0.608301 0.393089 0.769828
O O11 0.642989 0.169432 0.500000
O O12 0.720570 0.118391 0.243847
O O13 0.921852 0.969655 0.500000
O O14 0.843652 0.024668 0.249461
O O15 0.000000 0.000000 0.223517
O O16 0.255630 0.973741 0.000000
#
# Coordination Sequence:
#
# PCOD9425139 Si02
#       6
#     8   8   8   8   8   8
#     4   9  16  32  52  72  97 130 170 211 256 305
#     4   9  15  25  48  75  96 126 163 203 253 302
#     4   8  16  30  51  77 101 128 165 211 261 306
#     4  10  18  32  50  73 105 136 168 212 261 305
#     4   9  18  36  59  81 102 129 171 220 264 309
#     4  11  21  32  50  75 101 137 174 206 250 308
#
# _framework density 19.52468
#
# number of rings (size 3 to 8) (size 9 to 14) (size 15 to 20)
#    0.000    2.667    1.667    2.500    0.000    0.333 
#    3.000    5.000    0.000    0.000    0.000    0.000 
#    0.000    0.000    0.000    0.000    0.000    0.000 
#
# Total GULP energy -267673.205654 kJ/mol
# GULP energy per Si atom -5576.525118 kJ/mol
# Density = 1.948024 g / cm^3
# Si number density = 19.524680 Si / 1000 Ang^3
#
#
#
# Elastic Constant Matrix: (Units=GPa)
#
#
# Indices 1 2 3 4 5 6 
#
# 1 171.6294 107.5300 2.3101 0.0000 0.0000 0.0000
# 2 107.5300 167.3449 3.6332 0.0000 0.0000 0.0000
# 3 2.3101 3.6332 38.1282 0.0000 0.0000 0.0000
# 4 0.0000 0.0000 0.0000 -10.3978 0.0000 0.0000
# 5 0.0000 0.0000 0.0000 0.0000 -27.3177 0.0000
# 6 0.0000 0.0000 0.0000 0.0000 0.0000 22.9600
#
#
#
# Elastic Compliance Matrix: (Units=1/GPa)
#
#
# Indices 1 2 3 4 5 6 
#
# 1 0.009753 -0.006267 0.000006 0.000000 0.000000 0.000000
# 2 -0.006267 0.010015 -0.000575 0.000000 0.000000 0.000000
# 3 0.000006 -0.000575 0.026282 0.000000 0.000000 0.000000
# 4 0.000000 0.000000 0.000000 -0.096174 0.000000 0.000000
# 5 0.000000 0.000000 0.000000 0.000000 -0.036606 0.000000
# 6 0.000000 0.000000 0.000000 0.000000 0.000000 0.043554
#
#
# Mechanical properties :
#
#
# Convention : Reuss Voigt Hill
#
# Bulk Modulus (GPa) = 30.88424 67.11655 49.00040
# Shear Modulus (GPa) = -267.18982 14.62418 -126.28282
#
# Velocity S-wave (km/s) = -11.71086 2.73977 -8.05102
# Velocity P-wave (km/s) = 12.92311 6.66771 7.82778
#
# Compressibility (1/GPa) = 0.03237897
#
# Stress axis : x y z
#
# Youngs Moduli (GPa) = 102.53438 99.84935 38.04929
#
# Poissons Ratio (x) = 0.62575 -0.00024
# Poissons Ratio (y) = 0.64258 0.02186
# Poissons Ratio (z) = -0.00064 0.05738
#
# Static dielectric constant tensor:
#      x y z
#    x 1.688470 0.000000 0.000000 
#    y 0.000000 1.662080 0.000000 
#    z 0.000000 0.000000 1.700820 
# 
# From -- ./inp_files/7539.got.cif
#   From: 2010.05.17/outbox.cif.g08.bks.cpg/sg55_4_cif.got.tgz:7539.got - 2010.06.03 13:27:54.
