data_PCOD9425970
_publ_section_title
;
Structure prediction by ZEFSAII (Michael W. Deem and Ramdas Pophale) SiO2 
 PCOD9425970
Probable space group: P B A M
;
_chemical_formula_sum "Si O2"
_cell_formula_units_Z 64
_cell_length_a 12.777596
_cell_length_b 29.144137
_cell_length_c 7.645230
_cell_angle_alpha 90.000000
_cell_angle_beta 90.000000
_cell_angle_gamma 90.000000
_cell_volume 2847.022554
_symmetry_space_group_name_H-M "P B A M"
_symmetry_group_IT_number 55
_symmetry_cell_setting 'orthorhombic'
loop_
_space_group_symop_operation_xyz
x,y,z
-x,-y,z
1/2+x,1/2-y,-z
1/2-x,1/2+y,-z
-x,-y,-z
x,y,-z
1/2-x,1/2+y,z
1/2+x,1/2-y,z
loop_
_atom_site_type_symbol
_atom_site_label
_atom_site_fract_x
_atom_site_fract_y
_atom_site_fract_z
Si Si1 0.988607 0.795555 0.702235
Si Si2 0.371803 0.135921 0.797736
Si Si3 0.708611 0.669309 0.795046
Si Si4 0.746372 0.068703 0.288238
Si Si5 0.116327 0.016705 0.713360
Si Si6 0.436509 0.805569 0.797731
Si Si7 0.989606 0.552915 0.711897
Si Si8 0.140465 0.119781 0.298279
O O1 0.955924 0.790951 0.500000
O O2 0.112225 0.804387 0.710636
O O3 0.956208 0.748424 0.791466
O O4 0.931963 0.840502 0.779930
O O5 0.462711 0.168465 0.720427
O O6 0.420600 0.085152 0.786008
O O7 0.260037 0.136296 0.707026
O O8 0.353551 0.148695 0.000000
O O9 0.696459 0.614618 0.773330
O O10 0.823252 0.681993 0.721177
O O11 0.706890 0.681238 0.000000
O O12 0.748496 0.068791 0.500000
O O13 0.625109 0.070261 0.233655
O O14 0.801255 0.021836 0.227887
O O15 0.124511 0.017575 0.500000
O O16 0.134637 0.068479 0.777826
O O17 0.000000 0.000000 0.757590
O O18 0.432401 0.821318 0.000000
O O19 0.996458 0.555194 0.500000
O O20 0.000000 0.500000 0.762374
O O21 0.104989 0.114983 0.500000
#
# Coordination Sequence:
#
# PCOD9425970 Si02
#       8
#     8   8   8   8   8   8   8   8
#     4  11  25  42  66  96 122 154 205 263 311 365
#     4  11  23  40  61  87 122 162 206 250 303 372
#     4  11  23  42  65  89 125 165 202 249 307 373
#     4  10  19  33  58  89 118 156 206 255 298 355
#     4   9  17  33  59  87 121 161 201 248 305 363
#     4  10  24  44  63  87 120 164 205 248 314 376
#     4  10  20  35  57  86 120 160 205 252 306 362
#     4  10  22  41  63  92 127 162 203 253 312 369
#
# _framework density 22.479624999999999
#
# number of rings (size 3 to 8) (size 9 to 14) (size 15 to 20)
#    0.000    1.750    1.250    2.625    1.750    7.250 
#    0.000    1.875    0.000    1.500    0.000    0.000 
#    0.000    0.000    0.000    0.000    0.000    0.000 
#
# Total GULP energy -357828.681817 kJ/mol
# GULP energy per Si atom -5591.073153 kJ/mol
# Density = 2.242846 g / cm^3
# Si number density = 22.479625 Si / 1000 Ang^3
#
#
#
# Elastic Constant Matrix: (Units=GPa)
#
#
# Indices 1 2 3 4 5 6 
#
# 1 103.3607 44.3101 -6.9181 0.0000 0.0000 0.0000
# 2 44.3101 128.7398 -6.8266 0.0000 0.0000 0.0000
# 3 -6.9181 -6.8266 45.3319 0.0000 0.0000 0.0000
# 4 0.0000 0.0000 0.0000 27.0467 0.0000 0.0000
# 5 0.0000 0.0000 0.0000 0.0000 -73.9967 0.0000
# 6 0.0000 0.0000 0.0000 0.0000 0.0000 37.3190
#
#
#
# Elastic Compliance Matrix: (Units=1/GPa)
#
#
# Indices 1 2 3 4 5 6 
#
# 1 0.011410 -0.003866 0.001159 0.000000 0.000000 0.000000
# 2 -0.003866 0.009140 0.000786 0.000000 0.000000 0.000000
# 3 0.001159 0.000786 0.022355 0.000000 0.000000 0.000000
# 4 0.000000 0.000000 0.000000 0.036973 0.000000 0.000000
# 5 0.000000 0.000000 0.000000 0.000000 -0.013514 0.000000
# 6 0.000000 0.000000 0.000000 0.000000 0.000000 0.026796
#
#
# Mechanical properties :
#
#
# Convention : Reuss Voigt Hill
#
# Bulk Modulus (GPa) = 25.59886 37.61813 31.60849
# Shear Modulus (GPa) = 45.44608 14.53158 29.98883
#
# Velocity S-wave (km/s) = 4.50116 2.54526 3.65642
# Velocity P-wave (km/s) = 6.19889 5.04068 5.64954
#
# Compressibility (1/GPa) = 0.03906424
#
# Stress axis : x y z
#
# Youngs Moduli (GPa) = 87.64573 109.41205 44.73303
#
# Poissons Ratio (x) = 0.42293 -0.05185
# Poissons Ratio (y) = 0.33880 -0.03518
# Poissons Ratio (z) = -0.10159 -0.08605
#
# Static dielectric constant tensor:
#      x y z
#    x 1.807560 0.000000 0.000000 
#    y 0.000000 1.807730 0.000000 
#    z 0.000000 0.000000 1.858610 
# 
# From -- ./inp_files/4646.got.cif
#   From: 2010.05.17/outbox.cif.g08.bks.cpg/sg55_3_cif.got.tgz:4646.got - 2010.06.03 13:27:54.
