data_PCOD9425575
_publ_section_title
;
Structure prediction by ZEFSAII (Michael W. Deem and Ramdas Pophale) SiO2 
 PCOD9425575
Probable space group: P B A M
;
_chemical_formula_sum "Si O2"
_cell_formula_units_Z 48
_cell_length_a 5.307601
_cell_length_b 24.177771
_cell_length_c 18.776500
_cell_angle_alpha 90.000000
_cell_angle_beta 90.000000
_cell_angle_gamma 90.000000
_cell_volume 2409.512417
_symmetry_space_group_name_H-M "P B A M"
_symmetry_group_IT_number 55
_symmetry_cell_setting 'orthorhombic'
loop_
_space_group_symop_operation_xyz
x,y,z
-x,-y,z
1/2+x,1/2-y,-z
1/2-x,1/2+y,-z
-x,-y,-z
x,y,-z
1/2-x,1/2+y,z
1/2+x,1/2-y,z
loop_
_atom_site_type_symbol
_atom_site_label
_atom_site_fract_x
_atom_site_fract_y
_atom_site_fract_z
Si Si1 0.355570 0.629441 0.154341
Si Si2 0.737995 0.987620 0.779003
Si Si3 0.309376 0.448724 0.076490
Si Si4 0.016434 0.715034 0.083727
Si Si5 0.423219 0.287463 0.732779
Si Si6 0.992728 0.212938 0.577002
O O1 0.266266 0.574065 0.192807
O O2 0.534783 0.607214 0.090694
O O3 0.112296 0.661859 0.125854
O O4 0.511562 0.667569 0.207957
O O5 0.704648 0.031332 0.846463
O O6 0.500000 0.000000 0.731710
O O7 0.000000 0.000000 0.743175
O O8 0.500000 0.500000 0.067401
O O9 0.166569 0.444405 0.000000
O O10 0.242578 0.759272 0.098176
O O11 0.025643 0.702694 0.000000
O O12 0.147081 0.259125 0.738642
O O13 0.454116 0.314260 0.654099
O O14 0.967031 0.183747 0.500000
O O15 0.269142 0.241013 0.577723
#
# Coordination Sequence:
#
# PCOD9425575 Si02
#       6
#     8   8   8   8   8   8
#     4  10  19  32  50  66  90 119 147 185 233 268
#     4   9  20  34  49  68  87 109 145 192 238 280
#     4   8  16  31  48  65  83 107 145 190 233 274
#     4  10  21  34  46  63  87 117 152 182 213 264
#     4  10  20  31  46  70  97 125 155 182 213 263
#     4   8  14  26  43  63  90 122 151 180 213 248
#
# _framework density 19.921043000000001
#
# number of rings (size 3 to 8) (size 9 to 14) (size 15 to 20)
#    0.000    3.167    0.000    1.500    0.000    6.333 
#    0.000    1.667    0.000    0.000    0.000    0.000 
#    0.000   11.333    0.000    0.000    0.000   26.833 
#
# Total GULP energy -267252.986399 kJ/mol
# GULP energy per Si atom -5567.770550 kJ/mol
# Density = 1.987570 g / cm^3
# Si number density = 19.921043 Si / 1000 Ang^3
#
#
#
# Elastic Constant Matrix: (Units=GPa)
#
#
# Indices 1 2 3 4 5 6 
#
# 1 107.7054 23.1708 -7.7390 0.0000 0.0000 0.0000
# 2 23.1708 69.5994 15.9781 0.0000 0.0000 0.0000
# 3 -7.7390 15.9781 82.8049 0.0000 0.0000 0.0000
# 4 0.0000 0.0000 0.0000 33.9035 0.0000 0.0000
# 5 0.0000 0.0000 0.0000 0.0000 12.2938 0.0000
# 6 0.0000 0.0000 0.0000 0.0000 0.0000 19.4855
#
#
#
# Elastic Compliance Matrix: (Units=1/GPa)
#
#
# Indices 1 2 3 4 5 6 
#
# 1 0.010221 -0.003790 0.001687 0.000000 0.000000 0.000000
# 2 -0.003790 0.016439 -0.003526 0.000000 0.000000 0.000000
# 3 0.001687 -0.003526 0.012915 0.000000 0.000000 0.000000
# 4 0.000000 0.000000 0.000000 0.029495 0.000000 0.000000
# 5 0.000000 0.000000 0.000000 0.000000 0.081342 0.000000
# 6 0.000000 0.000000 0.000000 0.000000 0.000000 0.051320
#
#
# Mechanical properties :
#
#
# Convention : Reuss Voigt Hill
#
# Bulk Modulus (GPa) = 35.31627 35.88104 35.59866
# Shear Modulus (GPa) = 22.47892 28.38321 25.43107
#
# Velocity S-wave (km/s) = 3.36281 3.77873 3.57682
# Velocity P-wave (km/s) = 5.73102 6.09008 5.91328
#
# Compressibility (1/GPa) = 0.02831556
#
# Stress axis : x y z
#
# Youngs Moduli (GPa) = 97.83667 60.83004 77.43146
#
# Poissons Ratio (x) = 0.23054 -0.13060
# Poissons Ratio (y) = 0.37080 0.27305
# Poissons Ratio (z) = -0.16501 0.21451
#
# Static dielectric constant tensor:
#      x y z
#    x 1.830870 0.000000 0.000000 
#    y 0.000000 1.711040 0.000000 
#    z 0.000000 0.000000 1.773430 
# 
# From -- ./inp_files/22382.got.cif
#   From: 2010.05.17/outbox.cif.g08.bks.cpg/sg55_12_cif.got.tgz:22382.got - 2010.06.03 13:27:54.
