data_PCOD9425384
_publ_section_title
;
Structure prediction by ZEFSAII (Michael W. Deem and Ramdas Pophale) SiO2 
 PCOD9425384
Probable space group: P B A M
;
_chemical_formula_sum "Si O2"
_cell_formula_units_Z 32
_cell_length_a 17.557970
_cell_length_b 12.657503
_cell_length_c 5.537352
_cell_angle_alpha 90.000000
_cell_angle_beta 90.000000
_cell_angle_gamma 90.000000
_cell_volume 1230.621429
_symmetry_space_group_name_H-M "P B A M"
_symmetry_group_IT_number 55
_symmetry_cell_setting 'orthorhombic'
loop_
_space_group_symop_operation_xyz
x,y,z
-x,-y,z
1/2+x,1/2-y,-z
1/2-x,1/2+y,-z
-x,-y,-z
x,y,-z
1/2-x,1/2+y,z
1/2+x,1/2-y,z
loop_
_atom_site_type_symbol
_atom_site_label
_atom_site_fract_x
_atom_site_fract_y
_atom_site_fract_z
Si Si1 0.252175 0.752446 0.500000
Si Si2 0.238422 0.032989 0.000000
Si Si3 0.335061 0.475894 0.500000
Si Si4 0.404337 0.128135 0.500000
Si Si5 0.396450 0.116317 0.000000
Si Si6 0.672863 0.189514 0.000000
Si Si7 0.980860 0.788167 0.000000
Si Si8 0.988563 0.143861 0.500000
O O1 0.207767 0.863662 0.500000
O O2 0.184137 0.666048 0.500000
O O3 0.301004 0.757219 0.746779
O O4 0.190445 0.029290 0.248001
O O5 0.289065 0.925355 0.000000
O O6 0.305163 0.120139 0.000000
O O7 0.423001 0.443459 0.500000
O O8 0.418950 0.066820 0.745989
O O9 0.452658 0.236095 0.500000
O O10 0.435160 0.233047 0.000000
O O11 0.581648 0.195966 0.000000
O O12 0.970890 0.855496 0.242055
#
# Coordination Sequence:
#
# PCOD9425384 Si02
#       8
#     4   4   4   4   4   4   4   4
#     4   9  17  30  47  65  87 117 153 195 235 260
#     4  10  19  30  45  67  96 126 153 181 216 267
#     4   9  17  30  47  65  87 117 153 195 235 260
#     4   9  17  30  47  65  87 117 153 195 235 260
#     4  10  19  30  45  67  96 126 153 181 216 267
#     4  10  19  30  45  67  96 126 153 181 216 267
#     4  10  19  30  45  67  96 126 153 181 216 267
#     4   9  17  30  47  65  87 117 153 195 235 260
#
# _framework density 26.003124
#
# number of rings (size 3 to 8) (size 9 to 14) (size 15 to 20)
#    0.000    2.500    0.000    3.000    0.000    6.500 
#    0.000    0.000    0.000    9.000    0.000    0.000 
#    0.000   70.000    0.000    0.000    0.000    0.000 
#
# Total GULP energy -178855.775122 kJ/mol
# GULP energy per Si atom -5589.242973 kJ/mol
# Density = 2.594394 g / cm^3
# Si number density = 26.003124 Si / 1000 Ang^3
#
#
#
# Elastic Constant Matrix: (Units=GPa)
#
#
# Indices 1 2 3 4 5 6 
#
# 1 124.3792 54.5592 54.0860 0.0000 0.0000 0.0000
# 2 54.5592 71.7064 27.6612 0.0000 0.0000 0.0000
# 3 54.0860 27.6612 312.1695 0.0000 0.0000 0.0000
# 4 0.0000 0.0000 0.0000 33.5590 0.0000 0.0000
# 5 0.0000 0.0000 0.0000 0.0000 -1.0180 0.0000
# 6 0.0000 0.0000 0.0000 0.0000 0.0000 49.1931
#
#
#
# Elastic Compliance Matrix: (Units=1/GPa)
#
#
# Indices 1 2 3 4 5 6 
#
# 1 0.012619 -0.009068 -0.001383 0.000000 0.000000 0.000000
# 2 -0.009068 0.020955 -0.000286 0.000000 0.000000 0.000000
# 3 -0.001383 -0.000286 0.003468 0.000000 0.000000 0.000000
# 4 0.000000 0.000000 0.000000 0.029798 0.000000 0.000000
# 5 0.000000 0.000000 0.000000 0.000000 -0.982306 0.000000
# 6 0.000000 0.000000 0.000000 0.000000 0.000000 0.020328
#
#
# Mechanical properties :
#
#
# Convention : Reuss Voigt Hill
#
# Bulk Modulus (GPa) = 64.22737 86.76312 75.49524
# Shear Modulus (GPa) = -5.75723 41.14341 17.69309
#
# Velocity S-wave (km/s) = -1.48958 3.98206 2.61132
# Velocity P-wave (km/s) = 4.66851 7.38792 6.17966
#
# Compressibility (1/GPa) = 0.01556969
#
# Stress axis : x y z
#
# Youngs Moduli (GPa) = 79.24618 47.72019 288.32605
#
# Poissons Ratio (x) = 0.43272 0.39871
# Poissons Ratio (y) = 0.71860 0.08239
# Poissons Ratio (z) = 0.10958 0.01364
#
# Static dielectric constant tensor:
#      x y z
#    x 2.012350 0.000000 0.000000 
#    y 0.000000 2.008770 0.000000 
#    z 0.000000 0.000000 2.089450 
# 
# From -- ./inp_files/767.got.cif
#   From: 2010.05.17/outbox.cif.g08.bks.cpg/sg55_1_cif.got.tgz:767.got - 2010.06.03 13:27:54.
