data_PCOD9425123
_publ_section_title
;
Structure prediction by ZEFSAII (Michael W. Deem and Ramdas Pophale) SiO2 
 PCOD9425123
Probable space group: P B A M
;
_chemical_formula_sum "Si O2"
_cell_formula_units_Z 64
_cell_length_a 23.318654
_cell_length_b 6.833138
_cell_length_c 16.014533
_cell_angle_alpha 90.000000
_cell_angle_beta 90.000000
_cell_angle_gamma 90.000000
_cell_volume 2551.748974
_symmetry_space_group_name_H-M "P B A M"
_symmetry_group_IT_number 55
_symmetry_cell_setting 'orthorhombic'
loop_
_space_group_symop_operation_xyz
x,y,z
-x,-y,z
1/2+x,1/2-y,-z
1/2-x,1/2+y,-z
-x,-y,-z
x,y,-z
1/2-x,1/2+y,z
1/2+x,1/2-y,z
loop_
_atom_site_type_symbol
_atom_site_label
_atom_site_fract_x
_atom_site_fract_y
_atom_site_fract_z
Si Si1 0.984072 0.772983 0.653623
Si Si2 0.368747 0.895488 0.908820
Si Si3 0.818025 0.019720 0.760804
Si Si4 0.868741 0.895480 0.591180
Si Si5 0.104984 0.635763 0.404603
Si Si6 0.984074 0.727028 0.153644
Si Si7 0.318026 0.019737 0.260798
Si Si8 0.895018 0.135754 0.095397
O O1 0.927598 0.771514 0.597110
O O2 0.967709 0.750042 0.749991
O O3 0.040922 0.645511 0.635038
O O4 0.000000 0.000000 0.643909
O O5 0.339833 0.889993 0.817045
O O6 0.379830 0.131641 0.909539
O O7 0.427606 0.771537 0.902885
O O8 0.340531 0.854211 0.000000
O O9 0.832132 0.249991 0.750004
O O10 0.849163 0.009169 0.851207
O O11 0.839828 0.889983 0.682955
O O12 0.750000 0.999992 0.750006
O O13 0.840523 0.854214 0.500000
O O14 0.879828 0.131631 0.590464
O O15 0.103224 0.574139 0.500000
O O16 0.150839 0.509188 0.351202
O O17 0.000000 0.500000 0.143968
O O18 0.040923 0.854489 0.135044
O O19 0.896783 0.074125 0.000000
#
# Coordination Sequence:
#
# PCOD9425123 Si02
#       8
#     8   8   8   8   8   8   8   8
#     4  10  18  31  55  84 117 154 192 241 301 360
#     4   9  18  33  55  82 110 147 196 243 292 355
#     4  10  21  37  57  81 112 151 194 244 298 353
#     4   9  18  33  55  82 110 147 196 243 292 355
#     4   9  17  32  55  83 113 147 191 242 295 351
#     4  10  18  31  55  84 117 154 192 241 301 360
#     4  10  21  37  57  81 112 151 194 244 298 353
#     4   9  17  32  55  83 113 147 191 242 295 351
#
# _framework density 25.080838
#
# number of rings (size 3 to 8) (size 9 to 14) (size 15 to 20)
#    0.000    2.500    0.000    4.500    0.000    5.000 
#    0.000    0.000    0.000   19.500    0.000    0.000 
#    0.000    0.000    0.000    0.000    0.000    0.000 
#
# Total GULP energy -356950.059257 kJ/mol
# GULP energy per Si atom -5577.344676 kJ/mol
# Density = 2.502375 g / cm^3
# Si number density = 25.080838 Si / 1000 Ang^3
#
#
#
# Elastic Constant Matrix: (Units=GPa)
#
#
# Indices 1 2 3 4 5 6 
#
# 1 112.6004 17.8048 100.8829 0.0000 0.0000 0.0000
# 2 17.8048 73.5724 29.4637 0.0000 0.0000 0.0000
# 3 100.8829 29.4637 255.3299 0.0000 0.0000 0.0000
# 4 0.0000 0.0000 0.0000 39.9648 0.0000 0.0000
# 5 0.0000 0.0000 0.0000 0.0000 7.6045 0.0000
# 6 0.0000 0.0000 0.0000 0.0000 0.0000 43.7220
#
#
#
# Elastic Compliance Matrix: (Units=1/GPa)
#
#
# Indices 1 2 3 4 5 6 
#
# 1 0.013851 -0.001217 -0.005332 0.000000 0.000000 0.000000
# 2 -0.001217 0.014357 -0.001176 0.000000 0.000000 0.000000
# 3 -0.005332 -0.001176 0.006159 0.000000 0.000000 0.000000
# 4 0.000000 0.000000 0.000000 0.025022 0.000000 0.000000
# 5 0.000000 0.000000 0.000000 0.000000 0.131501 0.000000
# 6 0.000000 0.000000 0.000000 0.000000 0.000000 0.022872
#
#
# Mechanical properties :
#
#
# Convention : Reuss Voigt Hill
#
# Bulk Modulus (GPa) = 52.86106 81.97837 67.41971
# Shear Modulus (GPa) = 21.22993 37.81502 29.52247
#
# Velocity S-wave (km/s) = 2.91256 3.88716 3.43460
# Velocity P-wave (km/s) = 5.69497 7.27346 6.53207
#
# Compressibility (1/GPa) = 0.01891752
#
# Stress axis : x y z
#
# Youngs Moduli (GPa) = 72.19940 69.65022 162.36495
#
# Poissons Ratio (x) = 0.08473 0.86574
# Poissons Ratio (y) = 0.08783 0.19096
# Poissons Ratio (z) = 0.38497 0.08192
#
# Static dielectric constant tensor:
#      x y z
#    x 1.885870 0.000000 0.000000 
#    y 0.000000 2.174780 0.000000 
#    z 0.000000 0.000000 1.957610 
# 
# From -- ./inp_files/19951.got.cif
#   From: 2010.05.17/outbox.cif.g08.bks.cpg/sg55_10_cif.got.tgz:19951.got - 2010.06.03 13:27:54.
