data_PCOD9425241
_publ_section_title
;
Structure prediction by ZEFSAII (Michael W. Deem and Ramdas Pophale) SiO2 
 PCOD9425241
Probable space group: P B A M
;
_chemical_formula_sum "Si O2"
_cell_formula_units_Z 64
_cell_length_a 15.944881
_cell_length_b 24.289107
_cell_length_c 7.558421
_cell_angle_alpha 90.000000
_cell_angle_beta 90.000000
_cell_angle_gamma 90.000000
_cell_volume 2927.277595
_symmetry_space_group_name_H-M "P B A M"
_symmetry_group_IT_number 55
_symmetry_cell_setting 'orthorhombic'
loop_
_space_group_symop_operation_xyz
x,y,z
-x,-y,z
1/2+x,1/2-y,-z
1/2-x,1/2+y,-z
-x,-y,-z
x,y,-z
1/2-x,1/2+y,z
1/2+x,1/2-y,z
loop_
_atom_site_type_symbol
_atom_site_label
_atom_site_fract_x
_atom_site_fract_y
_atom_site_fract_z
Si Si1 0.402314 0.504536 0.785599
Si Si2 0.340129 0.108479 0.717400
Si Si3 0.846573 0.631041 0.796786
Si Si4 0.157818 0.125846 0.293918
Si Si5 0.005944 0.812504 0.713968
Si Si6 0.015405 0.689286 0.704957
Si Si7 0.334295 0.388335 0.788305
Si Si8 0.597465 0.009307 0.286069
O O1 0.500000 0.500000 0.733986
O O2 0.364826 0.561399 0.718123
O O3 0.353972 0.450020 0.722871
O O4 0.399550 0.505999 0.000000
O O5 0.340523 0.107234 0.500000
O O6 0.251282 0.132125 0.779682
O O7 0.418063 0.145515 0.778983
O O8 0.352628 0.045048 0.771231
O O9 0.753169 0.636016 0.718890
O O10 0.868582 0.566253 0.788678
O O11 0.922539 0.663986 0.710389
O O12 0.845412 0.649510 0.000000
O O13 0.163460 0.141388 0.500000
O O14 0.079828 0.159739 0.217341
O O15 0.999678 0.810742 0.500000
O O16 0.016838 0.750471 0.782099
O O17 0.085594 0.850329 0.755477
O O18 0.039760 0.695517 0.500000
O O19 0.323724 0.393083 0.000000
O O20 0.601556 0.013805 0.500000
O O21 0.500000 0.000000 0.239685
#
# Coordination Sequence:
#
# PCOD9425241 Si02
#       8
#     8   8   8   8   8   8   8   8
#     4  10  19  34  57  81 108 149 184 213 271 339
#     4   9  18  34  56  79 108 144 179 222 279 334
#     4  11  23  37  56  85 116 147 183 232 282 328
#     4  10  20  34  54  84 113 136 175 232 281 324
#     4  10  22  37  58  85 109 142 189 235 277 321
#     4  10  21  40  60  79 109 149 190 232 275 332
#     4  10  22  39  57  80 115 151 185 226 277 337
#     4  10  18  33  58  83 108 148 189 223 279 345
#
# _framework density 21.863316999999999
#
# number of rings (size 3 to 8) (size 9 to 14) (size 15 to 20)
#    0.000    2.000    2.500    1.125    0.000    3.500 
#    0.000    3.125    0.000    0.000    0.000    0.000 
#    0.000    0.000    0.000    0.000    0.000    0.000 
#
# Total GULP energy -357615.420343 kJ/mol
# GULP energy per Si atom -5587.740943 kJ/mol
# Density = 2.181356 g / cm^3
# Si number density = 21.863317 Si / 1000 Ang^3
#
#
#
# Elastic Constant Matrix: (Units=GPa)
#
#
# Indices 1 2 3 4 5 6 
#
# 1 98.7778 -0.9241 -9.0018 0.0000 0.0000 0.0000
# 2 -0.9241 82.2514 -14.2563 0.0000 0.0000 0.0000
# 3 -9.0018 -14.2563 47.5958 0.0000 0.0000 0.0000
# 4 0.0000 0.0000 0.0000 15.7495 0.0000 0.0000
# 5 0.0000 0.0000 0.0000 0.0000 12.4659 0.0000
# 6 0.0000 0.0000 0.0000 0.0000 0.0000 1.3075
#
#
#
# Elastic Compliance Matrix: (Units=1/GPa)
#
#
# Indices 1 2 3 4 5 6 
#
# 1 0.010319 0.000479 0.002095 0.000000 0.000000 0.000000
# 2 0.000479 0.012846 0.003938 0.000000 0.000000 0.000000
# 3 0.002095 0.003938 0.022586 0.000000 0.000000 0.000000
# 4 0.000000 0.000000 0.000000 0.063494 0.000000 0.000000
# 5 0.000000 0.000000 0.000000 0.000000 0.080219 0.000000
# 6 0.000000 0.000000 0.000000 0.000000 0.000000 0.764829
#
#
# Mechanical properties :
#
#
# Convention : Reuss Voigt Hill
#
# Bulk Modulus (GPa) = 17.01366 20.02894 18.52130
# Shear Modulus (GPa) = 5.20367 22.75839 13.98103
#
# Velocity S-wave (km/s) = 1.54443 3.22986 2.53153
# Velocity P-wave (km/s) = 3.31347 4.80523 4.12730
#
# Compressibility (1/GPa) = 0.05877629
#
# Stress axis : x y z
#
# Youngs Moduli (GPa) = 96.90717 77.84619 44.27489
#
# Poissons Ratio (x) = -0.03730 -0.09276
# Poissons Ratio (y) = -0.04643 -0.17437
# Poissons Ratio (z) = -0.20304 -0.30658
#
# Static dielectric constant tensor:
#      x y z
#    x 1.797980 0.000000 0.000000 
#    y 0.000000 1.753130 0.000000 
#    z 0.000000 0.000000 1.897240 
# 
# From -- ./inp_files/6614.got.cif
#   From: 2010.05.17/outbox.cif.g08.bks.cpg/sg55_4_cif.got.tgz:6614.got - 2010.06.03 13:27:54.
