data_PCOD9425320
_publ_section_title
;
Structure prediction by ZEFSAII (Michael W. Deem and Ramdas Pophale) SiO2 
 PCOD9425320
Probable space group: P B A M
;
_chemical_formula_sum "Si O2"
_cell_formula_units_Z 52
_cell_length_a 13.588561
_cell_length_b 16.431677
_cell_length_c 11.454197
_cell_angle_alpha 90.000000
_cell_angle_beta 90.000000
_cell_angle_gamma 90.000000
_cell_volume 2557.525696
_symmetry_space_group_name_H-M "P B A M"
_symmetry_group_IT_number 55
_symmetry_cell_setting 'orthorhombic'
loop_
_space_group_symop_operation_xyz
x,y,z
-x,-y,z
1/2+x,1/2-y,-z
1/2-x,1/2+y,-z
-x,-y,-z
x,y,-z
1/2-x,1/2+y,z
1/2+x,1/2-y,z
loop_
_atom_site_type_symbol
_atom_site_label
_atom_site_fract_x
_atom_site_fract_y
_atom_site_fract_z
Si Si1 0.134671 0.215733 0.233008
Si Si2 0.002689 0.355885 0.866000
Si Si3 0.507940 0.595066 0.359431
Si Si4 0.275307 0.099066 0.872084
Si Si5 0.791810 0.484899 0.626254
Si Si6 0.500000 0.000000 0.299938
Si Si7 0.715959 0.666906 0.632986
O O1 0.051347 0.274897 0.182841
O O2 0.081501 0.150421 0.316291
O O3 0.191564 0.166857 0.133264
O O4 0.218599 0.268722 0.297666
O O5 0.038597 0.429742 0.785482
O O6 0.883900 0.360972 0.860725
O O7 0.031648 0.368544 0.000000
O O8 0.500000 0.500000 0.321157
O O9 0.511921 0.593285 0.500000
O O10 0.608813 0.639942 0.319762
O O11 0.258759 0.048719 0.752342
O O12 0.273338 0.057163 0.000000
O O13 0.749809 0.455067 0.500000
O O14 0.772949 0.581102 0.627147
O O15 0.908437 0.468548 0.627295
O O16 0.702842 0.697368 0.500000
#
# Coordination Sequence:
#
# PCOD9425320 Si02
#       7
#     8   8   8   8   8   4   8
#     4  12  21  38  61  89 122 163 213 273 315 369
#     4  10  21  37  59  87 123 166 209 255 316 384
#     4  10  22  40  63  89 124 171 216 260 324 398
#     4  10  23  40  59  87 123 162 209 256 314 387
#     4  10  20  37  61  88 122 157 201 259 314 375
#     4  10  18  36  58  92 121 160 199 256 315 382
#     4  10  21  37  58  92 127 159 207 262 320 386
#
# _framework density 20.332152000000001
#
# number of rings (size 3 to 8) (size 9 to 14) (size 15 to 20)
#    0.000    1.692    1.538    3.231    0.000    3.077 
#    0.000    2.308    0.000   10.154    0.000    0.000 
#    0.000    0.000    0.000    0.000    0.000    0.000 
#
# Total GULP energy -289961.588208 kJ/mol
# GULP energy per Si atom -5576.184389 kJ/mol
# Density = 2.028588 g / cm^3
# Si number density = 20.332152 Si / 1000 Ang^3
#
#
#
# Elastic Constant Matrix: (Units=GPa)
#
#
# Indices 1 2 3 4 5 6 
#
# 1 70.7447 29.6778 26.5979 0.0000 0.0000 0.0000
# 2 29.6778 79.5905 57.5564 0.0000 0.0000 0.0000
# 3 26.5979 57.5564 121.6816 0.0000 0.0000 0.0000
# 4 0.0000 0.0000 0.0000 17.9918 0.0000 0.0000
# 5 0.0000 0.0000 0.0000 0.0000 11.8651 0.0000
# 6 0.0000 0.0000 0.0000 0.0000 0.0000 32.1361
#
#
#
# Elastic Compliance Matrix: (Units=1/GPa)
#
#
# Indices 1 2 3 4 5 6 
#
# 1 0.016850 -0.005501 -0.001081 0.000000 0.000000 0.000000
# 2 -0.005501 0.020892 -0.008680 0.000000 0.000000 0.000000
# 3 -0.001081 -0.008680 0.012560 0.000000 0.000000 0.000000
# 4 0.000000 0.000000 0.000000 0.055581 0.000000 0.000000
# 5 0.000000 0.000000 0.000000 0.000000 0.084281 0.000000
# 6 0.000000 0.000000 0.000000 0.000000 0.000000 0.031118
#
#
# Mechanical properties :
#
#
# Convention : Reuss Voigt Hill
#
# Bulk Modulus (GPa) = 50.56088 55.52013 53.04051
# Shear Modulus (GPa) = 19.35002 22.94426 21.14714
#
# Velocity S-wave (km/s) = 3.08830 3.36292 3.22853
# Velocity P-wave (km/s) = 6.13500 6.51497 6.32784
#
# Compressibility (1/GPa) = 0.01977813
#
# Stress axis : x y z
#
# Youngs Moduli (GPa) = 59.34891 47.86419 79.61733
#
# Poissons Ratio (x) = 0.26331 0.08607
# Poissons Ratio (y) = 0.32649 0.69106
# Poissons Ratio (z) = 0.06416 0.41545
#
# Static dielectric constant tensor:
#      x y z
#    x 1.777980 0.000000 0.000000 
#    y 0.000000 1.719010 0.000000 
#    z 0.000000 0.000000 1.729320 
# 
# From -- ./inp_files/14216.got.cif
#   From: 2010.05.17/outbox.cif.g08.bks.cpg/sg55_8_cif.got.tgz:14216.got - 2010.06.03 13:27:54.
