data_PCOD9425143
_publ_section_title
;
Structure prediction by ZEFSAII (Michael W. Deem and Ramdas Pophale) SiO2 
 PCOD9425143
Probable space group: P B A M
;
_chemical_formula_sum "Si O2"
_cell_formula_units_Z 40
_cell_length_a 13.921436
_cell_length_b 5.472779
_cell_length_c 22.134951
_cell_angle_alpha 90.000000
_cell_angle_beta 90.000000
_cell_angle_gamma 90.000000
_cell_volume 1686.438511
_symmetry_space_group_name_H-M "P B A M"
_symmetry_group_IT_number 55
_symmetry_cell_setting 'orthorhombic'
loop_
_space_group_symop_operation_xyz
x,y,z
-x,-y,z
1/2+x,1/2-y,-z
1/2-x,1/2+y,-z
-x,-y,-z
x,y,-z
1/2-x,1/2+y,z
1/2+x,1/2-y,z
loop_
_atom_site_type_symbol
_atom_site_label
_atom_site_fract_x
_atom_site_fract_y
_atom_site_fract_z
Si Si1 0.865126 0.124812 0.119081
Si Si2 0.145935 0.374364 0.071103
Si Si3 0.105803 0.272078 0.692193
Si Si4 0.811655 0.623458 0.568340
Si Si5 0.111793 0.770552 0.740311
O O1 0.900348 0.363064 0.083299
O O2 0.751647 0.107711 0.101713
O O3 0.879795 0.168559 0.189580
O O4 0.903963 0.860583 0.100252
O O5 0.158102 0.332513 0.000000
O O6 0.112845 0.341201 0.622078
O O7 0.151533 0.499714 0.728073
O O8 0.998382 0.251045 0.718020
O O9 0.149471 0.004158 0.703262
O O10 0.851067 0.635963 0.500000
O O11 0.760132 0.358278 0.574366
#
# Coordination Sequence:
#
# PCOD9425143 Si02
#       5
#     8   8   8   8   8
#     4  10  18  32  50  80 112 153 188 237 293 341
#     4  10  19  33  53  82 116 148 197 243 291 346
#     4  10  21  40  57  84 115 161 195 237 282 351
#     4  10  21  40  63  90 120 153 192 243 298 344
#     4  10  21  37  57  80 123 159 196 230 290 346
#
# _framework density 23.718620999999999
#
# number of rings (size 3 to 8) (size 9 to 14) (size 15 to 20)
#    0.000    2.000    0.000    5.400    0.000    0.000 
#   21.600    4.000    0.000    0.000    0.000   95.200 
#    0.000    0.000    0.000    0.000    0.000    0.000 
#
# Total GULP energy -223556.732936 kJ/mol
# GULP energy per Si atom -5588.918323 kJ/mol
# Density = 2.366464 g / cm^3
# Si number density = 23.718621 Si / 1000 Ang^3
#
#
#
# Elastic Constant Matrix: (Units=GPa)
#
#
# Indices 1 2 3 4 5 6 
#
# 1 84.9787 13.0247 22.2265 0.0000 0.0000 0.0000
# 2 13.0247 225.1204 16.3864 0.0000 0.0000 0.0000
# 3 22.2265 16.3864 182.7622 0.0000 0.0000 0.0000
# 4 0.0000 0.0000 0.0000 47.9662 0.0000 0.0000
# 5 0.0000 0.0000 0.0000 0.0000 -429.4089 0.0000
# 6 0.0000 0.0000 0.0000 0.0000 0.0000 169.1948
#
#
#
# Elastic Compliance Matrix: (Units=1/GPa)
#
#
# Indices 1 2 3 4 5 6 
#
# 1 0.012235 -0.000604 -0.001434 0.000000 0.000000 0.000000
# 2 -0.000604 0.004501 -0.000330 0.000000 0.000000 0.000000
# 3 -0.001434 -0.000330 0.005676 0.000000 0.000000 0.000000
# 4 0.000000 0.000000 0.000000 0.020848 0.000000 0.000000
# 5 0.000000 0.000000 0.000000 0.000000 -0.002329 0.000000
# 6 0.000000 0.000000 0.000000 0.000000 0.000000 0.005910
#
#
# Mechanical properties :
#
#
# Convention : Reuss Voigt Hill
#
# Bulk Modulus (GPa) = 56.57167 66.23738 61.40453
# Shear Modulus (GPa) = 87.00389 -13.03467 36.98461
#
# Velocity S-wave (km/s) = 6.06311 -2.34680 3.95309
# Velocity P-wave (km/s) = 8.53921 4.54353 6.83965
#
# Compressibility (1/GPa) = 0.01767669
#
# Stress axis : x y z
#
# Youngs Moduli (GPa) = 81.73148 222.17196 176.19372
#
# Poissons Ratio (x) = 0.13408 0.25264
# Poissons Ratio (y) = 0.04933 0.05817
# Poissons Ratio (z) = 0.11719 0.07335
#
# Static dielectric constant tensor:
#      x y z
#    x 1.839490 0.000000 0.000000 
#    y 0.000000 2.006230 0.000000 
#    z 0.000000 0.000000 1.817220 
# 
# From -- ./inp_files/20334.got.cif
#   From: 2010.05.17/outbox.cif.g08.bks.cpg/sg55_11_cif.got.tgz:20334.got - 2010.06.03 13:27:54.
