data_PCOD9425207
_publ_section_title
;
Structure prediction by ZEFSAII (Michael W. Deem and Ramdas Pophale) SiO2 
 PCOD9425207
Probable space group: P B A M
;
_chemical_formula_sum "Si O2"
_cell_formula_units_Z 48
_cell_length_a 10.667665
_cell_length_b 17.813656
_cell_length_c 12.753276
_cell_angle_alpha 90.000000
_cell_angle_beta 90.000000
_cell_angle_gamma 90.000000
_cell_volume 2423.506500
_symmetry_space_group_name_H-M "P B A M"
_symmetry_group_IT_number 55
_symmetry_cell_setting 'orthorhombic'
loop_
_space_group_symop_operation_xyz
x,y,z
-x,-y,z
1/2+x,1/2-y,-z
1/2-x,1/2+y,-z
-x,-y,-z
x,y,-z
1/2-x,1/2+y,z
1/2+x,1/2-y,z
loop_
_atom_site_type_symbol
_atom_site_label
_atom_site_fract_x
_atom_site_fract_y
_atom_site_fract_z
Si Si1 0.533160 0.911444 0.876245
Si Si2 0.505037 0.408969 0.617476
Si Si3 0.668255 0.767990 0.622401
Si Si4 0.088032 0.307853 0.704778
Si Si5 0.747771 0.910429 0.724787
Si Si6 0.270375 0.934708 0.617017
O O1 0.448174 0.851237 0.812061
O O2 0.673804 0.897147 0.832168
O O3 0.500000 0.000000 0.855788
O O4 0.523174 0.899737 0.000000
O O5 0.500000 0.500000 0.611586
O O6 0.543362 0.382334 0.500000
O O7 0.605219 0.394265 0.708184
O O8 0.359849 0.389423 0.635188
O O9 0.685126 0.748311 0.500000
O O10 0.781484 0.737179 0.695283
O O11 0.526268 0.757023 0.663470
O O12 0.682814 0.857826 0.638384
O O13 0.115601 0.378190 0.628284
O O14 0.725880 0.996917 0.695937
O O15 0.262764 0.965380 0.500000
#
# Coordination Sequence:
#
# PCOD9425207 Si02
#       6
#     8   8   8   8   8   8
#     4  10  21  42  67  88 112 153 214 286 335 357
#     4   8  15  27  48  81 120 159 193 237 299 371
#     4  11  23  37  55  86 131 167 199 247 309 385
#     4  11  24  40  59  90 124 173 216 256 317 379
#     4  10  19  34  58  89 117 158 210 257 315 371
#     4  10  18  32  56  87 125 168 214 251 303 381
#
# _framework density 19.806013
#
# number of rings (size 3 to 8) (size 9 to 14) (size 15 to 20)
#    0.000    2.000    1.667    4.000    2.333    0.000 
#    0.000    5.833    0.000    5.500    0.000    0.000 
#    0.000    0.000    0.000    0.000    0.000    0.000 
#
# Total GULP energy -267451.765985 kJ/mol
# GULP energy per Si atom -5571.911791 kJ/mol
# Density = 1.976093 g / cm^3
# Si number density = 19.806013 Si / 1000 Ang^3
#
#
#
# Elastic Constant Matrix: (Units=GPa)
#
#
# Indices 1 2 3 4 5 6 
#
# 1 140.2940 33.7446 65.1496 0.0000 0.0000 0.0000
# 2 33.7446 59.3117 28.6036 0.0000 0.0000 0.0000
# 3 65.1496 28.6036 116.0315 0.0000 0.0000 0.0000
# 4 0.0000 0.0000 0.0000 25.4735 0.0000 0.0000
# 5 0.0000 0.0000 0.0000 0.0000 22.9482 0.0000
# 6 0.0000 0.0000 0.0000 0.0000 0.0000 42.6633
#
#
#
# Elastic Compliance Matrix: (Units=1/GPa)
#
#
# Indices 1 2 3 4 5 6 
#
# 1 0.010232 -0.003462 -0.004892 0.000000 0.000000 0.000000
# 2 -0.003462 0.020307 -0.003062 0.000000 0.000000 0.000000
# 3 -0.004892 -0.003062 0.012120 0.000000 0.000000 0.000000
# 4 0.000000 0.000000 0.000000 0.039256 0.000000 0.000000
# 5 0.000000 0.000000 0.000000 0.000000 0.043576 0.000000
# 6 0.000000 0.000000 0.000000 0.000000 0.000000 0.023439
#
#
# Mechanical properties :
#
#
# Convention : Reuss Voigt Hill
#
# Bulk Modulus (GPa) = 50.43697 63.40362 56.92030
# Shear Modulus (GPa) = 28.03135 30.75962 29.39549
#
# Velocity S-wave (km/s) = 3.76612 3.94514 3.85667
# Velocity P-wave (km/s) = 6.66576 7.26870 6.97375
#
# Compressibility (1/GPa) = 0.01982672
#
# Stress axis : x y z
#
# Youngs Moduli (GPa) = 97.72956 49.24511 82.51012
#
# Poissons Ratio (x) = 0.17051 0.40362
# Poissons Ratio (y) = 0.33839 0.25263
# Poissons Ratio (z) = 0.47806 0.15078
#
# Static dielectric constant tensor:
#      x y z
#    x 1.787280 0.000000 0.000000 
#    y 0.000000 1.825340 0.000000 
#    z 0.000000 0.000000 1.618650 
# 
# From -- ./inp_files/13279.got.cif
#   From: 2010.05.17/outbox.cif.g08.bks.cpg/sg55_7_cif.got.tgz:13279.got - 2010.06.03 13:27:54.
