data_PCOD9425501
_publ_section_title
;
Structure prediction by ZEFSAII (Michael W. Deem and Ramdas Pophale) SiO2 
 PCOD9425501
Probable space group: P B A M
;
_chemical_formula_sum "Si O2"
_cell_formula_units_Z 32
_cell_length_a 13.980432
_cell_length_b 5.093224
_cell_length_c 19.567137
_cell_angle_alpha 90.000000
_cell_angle_beta 90.000000
_cell_angle_gamma 90.000000
_cell_volume 1393.287222
_symmetry_space_group_name_H-M "P B A M"
_symmetry_group_IT_number 55
_symmetry_cell_setting 'orthorhombic'
loop_
_space_group_symop_operation_xyz
x,y,z
-x,-y,z
1/2+x,1/2-y,-z
1/2-x,1/2+y,-z
-x,-y,-z
x,y,-z
1/2-x,1/2+y,z
1/2+x,1/2-y,z
loop_
_atom_site_type_symbol
_atom_site_label
_atom_site_fract_x
_atom_site_fract_y
_atom_site_fract_z
Si Si1 0.887604 0.469080 0.716976
Si Si2 0.685856 0.784997 0.425097
Si Si3 0.883400 0.966126 0.210992
Si Si4 0.931377 0.747859 0.075447
O O1 0.873673 0.356899 0.641498
O O2 0.851095 0.762272 0.730648
O O3 0.000000 0.500000 0.728880
O O4 0.849008 0.257164 0.771519
O O5 0.639257 0.823554 0.500000
O O6 0.725801 0.490277 0.422532
O O7 0.863731 0.828787 0.138212
O O8 0.000000 0.000000 0.213110
O O9 0.000000 0.500000 0.092320
O O10 0.888029 0.698454 0.000000
O O11 0.000000 0.000000 0.068991
#
# Coordination Sequence:
#
# PCOD9425501 Si02
#       4
#     8   8   8   8
#     4  10  19  31  50  73  98 127 159 199 244 289
#     4  10  21  37  54  72  97 127 159 199 245 293
#     4   9  16  27  42  66  98 127 157 196 240 281
#     4   9  15  23  37  59  92 132 163 188 230 286
#
# _framework density 22.967267
#
# number of rings (size 3 to 8) (size 9 to 14) (size 15 to 20)
#    0.000    2.500    0.000    5.250    0.000    0.500 
#    0.000    0.000    0.000    9.000    0.000    0.000 
#    0.000   20.000    0.000    0.000    0.000    0.000 
#
# Total GULP energy -178461.496310 kJ/mol
# GULP energy per Si atom -5576.921760 kJ/mol
# Density = 2.291499 g / cm^3
# Si number density = 22.967267 Si / 1000 Ang^3
#
#
#
# Elastic Constant Matrix: (Units=GPa)
#
#
# Indices 1 2 3 4 5 6 
#
# 1 43.5886 0.2043 -0.7772 0.0000 0.0000 0.0000
# 2 0.2043 110.0430 51.4528 0.0000 0.0000 0.0000
# 3 -0.7772 51.4528 163.7068 0.0000 0.0000 0.0000
# 4 0.0000 0.0000 0.0000 34.1686 0.0000 0.0000
# 5 0.0000 0.0000 0.0000 0.0000 18.5776 0.0000
# 6 0.0000 0.0000 0.0000 0.0000 0.0000 -7.5537
#
#
#
# Elastic Compliance Matrix: (Units=1/GPa)
#
#
# Indices 1 2 3 4 5 6 
#
# 1 0.022945 -0.000110 0.000143 0.000000 0.000000 0.000000
# 2 -0.000110 0.010653 -0.003349 0.000000 0.000000 0.000000
# 3 0.000143 -0.003349 0.007162 0.000000 0.000000 0.000000
# 4 0.000000 0.000000 0.000000 0.029267 0.000000 0.000000
# 5 0.000000 0.000000 0.000000 0.000000 0.053828 0.000000
# 6 0.000000 0.000000 0.000000 0.000000 0.000000 -0.132386
#
#
# Mechanical properties :
#
#
# Convention : Reuss Voigt Hill
#
# Bulk Modulus (GPa) = 29.29998 46.56646 37.93322
# Shear Modulus (GPa) = 527.67717 26.80241 277.23979
#
# Velocity S-wave (km/s) = 15.17401 3.41982 10.99877
# Velocity P-wave (km/s) = 17.88256 5.99272 13.33601
#
# Compressibility (1/GPa) = 0.03412972
#
# Stress axis : x y z
#
# Youngs Moduli (GPa) = 43.58275 93.86681 139.63151
#
# Poissons Ratio (x) = 0.01029 -0.02002
# Poissons Ratio (y) = 0.00478 0.46761
# Poissons Ratio (z) = -0.00625 0.31435
#
# Static dielectric constant tensor:
#      x y z
#    x 1.872120 0.000000 0.000000 
#    y 0.000000 1.838330 0.000000 
#    z 0.000000 0.000000 1.949470 
# 
# From -- ./inp_files/20376.got.cif
#   From: 2010.05.17/outbox.cif.g08.bks.cpg/sg55_11_cif.got.tgz:20376.got - 2010.06.03 13:27:54.
