data_PCOD9425007
_publ_section_title
;
Structure prediction by ZEFSAII (Michael W. Deem and Ramdas Pophale) SiO2 
 PCOD9425007
Probable space group: P B A M
;
_chemical_formula_sum "Si O2"
_cell_formula_units_Z 64
_cell_length_a 12.792742
_cell_length_b 23.441382
_cell_length_c 11.837923
_cell_angle_alpha 90.000000
_cell_angle_beta 90.000000
_cell_angle_gamma 90.000000
_cell_volume 3549.951046
_symmetry_space_group_name_H-M "P B A M"
_symmetry_group_IT_number 55
_symmetry_cell_setting 'orthorhombic'
loop_
_space_group_symop_operation_xyz
x,y,z
-x,-y,z
1/2+x,1/2-y,-z
1/2-x,1/2+y,-z
-x,-y,-z
x,y,-z
1/2-x,1/2+y,z
1/2+x,1/2-y,z
loop_
_atom_site_type_symbol
_atom_site_label
_atom_site_fract_x
_atom_site_fract_y
_atom_site_fract_z
Si Si1 0.089339 0.205993 0.624350
Si Si2 0.671016 0.542922 0.868064
Si Si3 0.642446 0.133042 0.869144
Si Si4 0.458397 0.839349 0.629858
Si Si5 0.678565 0.725591 0.121815
Si Si6 0.185519 0.672997 0.294572
Si Si7 0.210917 0.086208 0.872391
Si Si8 0.011529 0.866428 0.182393
O O1 0.050644 0.194120 0.500000
O O2 0.210063 0.188469 0.637565
O O3 0.077084 0.273454 0.642975
O O4 0.022576 0.167575 0.707476
O O5 0.776248 0.580404 0.864119
O O6 0.691977 0.478473 0.832026
O O7 0.580909 0.576917 0.802515
O O8 0.636446 0.541325 0.000000
O O9 0.578526 0.132285 0.750231
O O10 0.714081 0.190250 0.864216
O O11 0.596281 0.132428 0.000000
O O12 0.424910 0.857479 0.500000
O O13 0.583845 0.841041 0.634007
O O14 0.661766 0.771488 0.218180
O O15 0.587728 0.678219 0.120923
O O16 0.681706 0.755164 0.000000
O O17 0.215922 0.621691 0.210550
O O18 0.097577 0.116686 0.874348
O O19 0.252828 0.083918 0.000000
#
# Coordination Sequence:
#
# PCOD9425007 Si02
#       8
#     8   8   8   8   8   8   8   8
#     4  10  21  36  53  77 111 145 185 227 276 340
#     4   9  18  35  57  82 113 147 188 232 278 334
#     4   9  19  36  57  82 111 143 184 237 282 326
#     4  11  22  38  58  82 111 149 190 231 282 346
#     4  10  18  30  49  80 117 145 174 223 284 337
#     4  11  21  35  51  79 113 147 182 231 278 333
#     4  10  20  33  54  83 114 152 189 225 279 340
#     4  10  18  32  54  82 114 142 183 226 284 335
#
# _framework density 18.028417999999999
#
# number of rings (size 3 to 8) (size 9 to 14) (size 15 to 20)
#    0.000    2.000    2.500    3.000    0.000    2.000 
#    0.000    3.125    0.000   13.500    0.000    0.000 
#    0.000    0.000    0.000    0.000    0.000    0.000 
#
# Total GULP energy -356439.082376 kJ/mol
# GULP energy per Si atom -5569.360662 kJ/mol
# Density = 1.798738 g / cm^3
# Si number density = 18.028418 Si / 1000 Ang^3
#
#
#
# Elastic Constant Matrix: (Units=GPa)
#
#
# Indices 1 2 3 4 5 6 
#
# 1 56.1790 -0.5596 29.5254 0.0000 0.0000 0.0000
# 2 -0.5596 47.3642 27.1275 0.0000 0.0000 0.0000
# 3 29.5254 27.1275 94.2232 0.0000 0.0000 0.0000
# 4 0.0000 0.0000 0.0000 12.4380 0.0000 0.0000
# 5 0.0000 0.0000 0.0000 0.0000 -7.7518 0.0000
# 6 0.0000 0.0000 0.0000 0.0000 0.0000 12.4698
#
#
#
# Elastic Compliance Matrix: (Units=1/GPa)
#
#
# Indices 1 2 3 4 5 6 
#
# 1 0.022296 0.005107 -0.008457 0.000000 0.000000 0.000000
# 2 0.005107 0.026452 -0.009216 0.000000 0.000000 0.000000
# 3 -0.008457 -0.009216 0.015916 0.000000 0.000000 0.000000
# 4 0.000000 0.000000 0.000000 0.080399 0.000000 0.000000
# 5 0.000000 0.000000 0.000000 0.000000 -0.129002 0.000000
# 6 0.000000 0.000000 0.000000 0.000000 0.000000 0.080194
#
#
# Mechanical properties :
#
#
# Convention : Reuss Voigt Hill
#
# Bulk Modulus (GPa) = 25.29574 34.43920 29.86747
# Shear Modulus (GPa) = 37.15718 12.87606 25.01662
#
# Velocity S-wave (km/s) = 4.54479 2.67537 3.72912
# Velocity P-wave (km/s) = 6.44993 5.35609 5.92829
#
# Compressibility (1/GPa) = 0.03953235
#
# Stress axis : x y z
#
# Youngs Moduli (GPa) = 44.85172 37.80472 62.82818
#
# Poissons Ratio (x) = -0.19307 0.53133
# Poissons Ratio (y) = -0.22906 0.57902
# Poissons Ratio (z) = 0.37930 0.34841
#
# Static dielectric constant tensor:
#      x y z
#    x 1.624400 0.000000 0.000000 
#    y 0.000000 1.600730 0.000000 
#    z 0.000000 0.000000 1.660160 
# 
# From -- ./inp_files/13589.got.cif
#   From: 2010.05.17/outbox.cif.g08.bks.cpg/sg55_7_cif.got.tgz:13589.got - 2010.06.03 13:27:54.
