data_PCOD9425784
_publ_section_title
;
Structure prediction by ZEFSAII (Michael W. Deem and Ramdas Pophale) SiO2 
 PCOD9425784
Probable space group: P B A M
;
_chemical_formula_sum "Si O2"
_cell_formula_units_Z 40
_cell_length_a 5.114795
_cell_length_b 10.420170
_cell_length_c 28.455973
_cell_angle_alpha 90.000000
_cell_angle_beta 90.000000
_cell_angle_gamma 90.000000
_cell_volume 1516.618944
_symmetry_space_group_name_H-M "P B A M"
_symmetry_group_IT_number 55
_symmetry_cell_setting 'orthorhombic'
loop_
_space_group_symop_operation_xyz
x,y,z
-x,-y,z
1/2+x,1/2-y,-z
1/2-x,1/2+y,-z
-x,-y,-z
x,y,-z
1/2-x,1/2+y,z
1/2+x,1/2-y,z
loop_
_atom_site_type_symbol
_atom_site_label
_atom_site_fract_x
_atom_site_fract_y
_atom_site_fract_z
Si Si1 0.681057 0.839807 0.000000
Si Si2 0.121586 0.678957 0.808300
Si Si3 0.000000 0.000000 0.377626
Si Si4 0.178429 0.335859 0.446298
Si Si5 0.742729 0.422910 0.291410
Si Si6 0.711804 0.340128 0.098055
O O1 0.738470 0.911629 0.951027
O O2 0.392971 0.777568 0.000000
O O3 0.316212 0.799471 0.814549
O O4 0.158402 0.654411 0.753025
O O5 0.230455 0.593965 0.851633
O O6 0.893219 0.889668 0.341247
O O7 0.223162 0.940730 0.409757
O O8 0.207504 0.383544 0.500000
O O9 0.388924 0.220154 0.440949
O O10 0.500000 0.500000 0.269092
O O11 0.000000 0.500000 0.306157
O O12 0.429130 0.274260 0.096944
#
# Coordination Sequence:
#
# PCOD9425784 Si02
#       6
#     4   8   4   8   8   8
#     4   8  12  20  34  58  92 118 150 202 264 324
#     4  10  19  33  53  74 101 136 179 227 272 325
#     4  10  25  40  64  84 124 151 192 236 286 324
#     4  10  23  41  64  93 120 153 193 230 281 339
#     4  10  23  38  51  78 107 143 184 217 273 326
#     4   8  14  23  39  64  91 123 159 208 268 318
#
# _framework density 26.374454
#
# number of rings (size 3 to 8) (size 9 to 14) (size 15 to 20)
#    0.600    2.000    0.000    1.500    2.800    1.600 
#    0.000    3.000    0.000    0.000    0.000    1.400 
#    0.000    0.000    0.000    0.000    0.000    0.000 
#
# Total GULP energy -222972.512728 kJ/mol
# GULP energy per Si atom -5574.312818 kJ/mol
# Density = 2.631443 g / cm^3
# Si number density = 26.374454 Si / 1000 Ang^3
#
#
#
# Elastic Constant Matrix: (Units=GPa)
#
#
# Indices 1 2 3 4 5 6 
#
# 1 142.4871 28.8195 3.4408 0.0000 0.0000 0.0000
# 2 28.8195 38.6286 35.7795 0.0000 0.0000 0.0000
# 3 3.4408 35.7795 224.6306 0.0000 0.0000 0.0000
# 4 0.0000 0.0000 0.0000 70.9139 0.0000 0.0000
# 5 0.0000 0.0000 0.0000 0.0000 63.5203 0.0000
# 6 0.0000 0.0000 0.0000 0.0000 0.0000 35.4783
#
#
#
# Elastic Compliance Matrix: (Units=1/GPa)
#
#
# Indices 1 2 3 4 5 6 
#
# 1 0.008463 -0.007266 0.001028 0.000000 0.000000 0.000000
# 2 -0.007266 0.036606 -0.005719 0.000000 0.000000 0.000000
# 3 0.001028 -0.005719 0.005347 0.000000 0.000000 0.000000
# 4 0.000000 0.000000 0.000000 0.014102 0.000000 0.000000
# 5 0.000000 0.000000 0.000000 0.000000 0.015743 0.000000
# 6 0.000000 0.000000 0.000000 0.000000 0.000000 0.028186
#
#
# Mechanical properties :
#
#
# Convention : Reuss Voigt Hill
#
# Bulk Modulus (GPa) = 37.73466 60.20288 48.96877
# Shear Modulus (GPa) = 35.41199 56.49626 45.95412
#
# Velocity S-wave (km/s) = 3.66821 4.63328 4.17870
# Velocity P-wave (km/s) = 5.68149 7.17627 6.47218
#
# Compressibility (1/GPa) = 0.02650083
#
# Stress axis : x y z
#
# Youngs Moduli (GPa) = 118.16217 27.31807 187.02077
#
# Poissons Ratio (x) = 0.19849 -0.19220
# Poissons Ratio (y) = 0.85854 1.06964
# Poissons Ratio (z) = -0.12143 0.15624
#
# Static dielectric constant tensor:
#      x y z
#    x 1.978220 0.000000 0.000000 
#    y 0.000000 2.472370 0.000000 
#    z 0.000000 0.000000 2.178020 
# 
# From -- ./inp_files/23756.got.cif
#   From: 2010.05.17/outbox.cif.g08.bks.cpg/sg55_12_cif.got.tgz:23756.got - 2010.06.03 13:27:54.
