data_PCOD9425468
_publ_section_title
;
Structure prediction by ZEFSAII (Michael W. Deem and Ramdas Pophale) SiO2 
 PCOD9425468
Probable space group: P B A M
;
_chemical_formula_sum "Si O2"
_cell_formula_units_Z 48
_cell_length_a 18.914673
_cell_length_b 16.870887
_cell_length_c 9.070155
_cell_angle_alpha 90.000000
_cell_angle_beta 90.000000
_cell_angle_gamma 90.000000
_cell_volume 2894.352771
_symmetry_space_group_name_H-M "P B A M"
_symmetry_group_IT_number 55
_symmetry_cell_setting 'orthorhombic'
loop_
_space_group_symop_operation_xyz
x,y,z
-x,-y,z
1/2+x,1/2-y,-z
1/2-x,1/2+y,-z
-x,-y,-z
x,y,-z
1/2-x,1/2+y,z
1/2+x,1/2-y,z
loop_
_atom_site_type_symbol
_atom_site_label
_atom_site_fract_x
_atom_site_fract_y
_atom_site_fract_z
Si Si1 0.834066 0.665252 0.823515
Si Si2 0.705319 0.920120 0.330572
Si Si3 0.418352 0.513805 0.321979
Si Si4 0.665737 0.343150 0.822843
Si Si5 0.208630 0.913177 0.331901
Si Si6 0.082224 0.492030 0.177847
O O1 0.855282 0.753827 0.779274
O O2 0.756235 0.644910 0.763340
O O3 0.886555 0.594209 0.777237
O O4 0.831736 0.663433 0.000000
O O5 0.696435 0.894681 0.500000
O O6 0.756042 0.861733 0.240162
O O7 0.748769 0.003282 0.332189
O O8 0.631589 0.942003 0.253532
O O9 0.500000 0.500000 0.287105
O O10 0.410803 0.522217 0.500000
O O11 0.386459 0.591517 0.245504
O O12 0.368958 0.438985 0.278842
O O13 0.666319 0.350079 0.000000
O O14 0.204583 0.884240 0.500000
O O15 0.000000 0.500000 0.216322
O O16 0.088950 0.498750 0.000000
#
# Coordination Sequence:
#
# PCOD9425468 Si02
#       6
#     8   8   8   8   8   8
#     4   9  18  31  47  69  95 123 157 198 240 283
#     4   9  17  30  48  69  92 120 157 195 231 277
#     4   9  18  33  51  71  97 127 158 193 237 288
#     4  10  19  31  48  70  95 123 159 200 240 282
#     4   8  15  28  47  68  88 116 153 189 226 274
#     4   9  17  31  51  72  97 129 160 193 238 287
#
# _framework density 16.584018
#
# number of rings (size 3 to 8) (size 9 to 14) (size 15 to 20)
#    0.000    3.000    0.000    2.000    0.000    6.000 
#    0.000    1.667    0.000    6.000    0.000    0.000 
#    0.000    0.000    0.000    0.000    0.000    0.000 
#
# Total GULP energy -267265.057025 kJ/mol
# GULP energy per Si atom -5568.022021 kJ/mol
# Density = 1.654627 g / cm^3
# Si number density = 16.584018 Si / 1000 Ang^3
#
#
#
# Elastic Constant Matrix: (Units=GPa)
#
#
# Indices 1 2 3 4 5 6 
#
# 1 142.0736 43.3236 36.1548 0.0000 0.0000 0.0000
# 2 43.3236 78.4904 29.1805 0.0000 0.0000 0.0000
# 3 36.1548 29.1805 31.8373 0.0000 0.0000 0.0000
# 4 0.0000 0.0000 0.0000 13.8394 0.0000 0.0000
# 5 0.0000 0.0000 0.0000 0.0000 24.6855 0.0000
# 6 0.0000 0.0000 0.0000 0.0000 0.0000 14.8732
#
#
#
# Elastic Compliance Matrix: (Units=1/GPa)
#
#
# Indices 1 2 3 4 5 6 
#
# 1 0.010100 -0.001988 -0.009647 0.000000 0.000000 0.000000
# 2 -0.001988 0.019717 -0.015814 0.000000 0.000000 0.000000
# 3 -0.009647 -0.015814 0.056859 0.000000 0.000000 0.000000
# 4 0.000000 0.000000 0.000000 0.072258 0.000000 0.000000
# 5 0.000000 0.000000 0.000000 0.000000 0.040510 0.000000
# 6 0.000000 0.000000 0.000000 0.000000 0.000000 0.067235
#
#
# Mechanical properties :
#
#
# Convention : Reuss Voigt Hill
#
# Bulk Modulus (GPa) = 31.46858 52.19103 41.82980
# Shear Modulus (GPa) = 15.05256 20.26246 17.65751
#
# Velocity S-wave (km/s) = 3.01600 3.49923 3.26656
# Velocity P-wave (km/s) = 5.58075 6.91846 6.28530
#
# Compressibility (1/GPa) = 0.03177773
#
# Stress axis : x y z
#
# Youngs Moduli (GPa) = 99.01072 50.71793 17.58722
#
# Poissons Ratio (x) = 0.10083 0.16967
# Poissons Ratio (y) = 0.19685 0.27812
# Poissons Ratio (z) = 0.95519 0.80204
#
# Static dielectric constant tensor:
#      x y z
#    x 1.557040 0.000000 0.000000 
#    y 0.000000 1.562580 0.000000 
#    z 0.000000 0.000000 1.560350 
# 
# From -- ./inp_files/7544.got.cif
#   From: 2010.05.17/outbox.cif.g08.bks.cpg/sg55_4_cif.got.tgz:7544.got - 2010.06.03 13:27:54.
