data_PCOD9425070
_publ_section_title
;
Structure prediction by ZEFSAII (Michael W. Deem and Ramdas Pophale) SiO2 
 PCOD9425070
Probable space group: P B A M
;
_chemical_formula_sum "Si O2"
_cell_formula_units_Z 64
_cell_length_a 23.945445
_cell_length_b 19.798140
_cell_length_c 8.513763
_cell_angle_alpha 90.000000
_cell_angle_beta 90.000000
_cell_angle_gamma 90.000000
_cell_volume 4036.164514
_symmetry_space_group_name_H-M "P B A M"
_symmetry_group_IT_number 55
_symmetry_cell_setting 'orthorhombic'
loop_
_space_group_symop_operation_xyz
x,y,z
-x,-y,z
1/2+x,1/2-y,-z
1/2-x,1/2+y,-z
-x,-y,-z
x,y,-z
1/2-x,1/2+y,z
1/2+x,1/2-y,z
loop_
_atom_site_type_symbol
_atom_site_label
_atom_site_fract_x
_atom_site_fract_y
_atom_site_fract_z
Si Si1 0.245526 0.495902 0.809766
Si Si2 0.118876 0.494790 0.687332
Si Si3 0.334149 0.220373 0.809550
Si Si4 0.279014 0.641166 0.189423
Si Si5 0.160041 0.266860 0.686339
Si Si6 0.936499 0.368822 0.190498
Si Si7 0.767904 0.153293 0.810004
Si Si8 0.064442 0.356615 0.188443
O O1 0.182044 0.500069 0.750359
O O2 0.278630 0.563153 0.761091
O O3 0.270883 0.424221 0.757878
O O4 0.243521 0.496384 0.000000
O O5 0.119629 0.494066 0.500000
O O6 0.083950 0.558864 0.747779
O O7 0.091603 0.425764 0.748988
O O8 0.281856 0.172120 0.768233
O O9 0.391657 0.187236 0.755002
O O10 0.316422 0.295307 0.756356
O O11 0.336458 0.221869 0.000000
O O12 0.324511 0.691018 0.262111
O O13 0.283695 0.644940 0.000000
O O14 0.161143 0.272474 0.500000
O O15 0.209440 0.314141 0.755633
O O16 0.101949 0.295096 0.750718
O O17 0.999825 0.353576 0.238263
O O18 0.934874 0.371235 0.000000
O O19 0.767667 0.153846 0.000000
O O20 0.066653 0.357768 0.000000
#
# Coordination Sequence:
#
# PCOD9425070 Si02
#       8
#     8   8   8   8   8   8   8   8
#     4  10  18  31  52  73  97 131 165 194 232 290
#     4  12  23  32  45  69 102 133 162 204 245 282
#     4   8  14  28  48  71  93 118 156 200 240 277
#     4   9  17  31  51  70  94 126 160 196 235 287
#     4  11  21  32  47  70  98 125 157 203 250 288
#     4  10  20  35  52  68  92 131 172 206 238 287
#     4   9  17  30  51  73  95 125 158 194 239 294
#     4  11  22  35  51  67  90 131 176 206 237 286
#
# _framework density 15.856638
#
# number of rings (size 3 to 8) (size 9 to 14) (size 15 to 20)
#    0.000    2.000    2.500    3.750    0.000    3.000 
#    0.000    0.000    0.000    0.000    0.000    0.875 
#    0.000    7.000    0.000    0.000    0.000    0.000 
#
# Total GULP energy -357029.138549 kJ/mol
# GULP energy per Si atom -5578.580290 kJ/mol
# Density = 1.582055 g / cm^3
# Si number density = 15.856638 Si / 1000 Ang^3
#
#
#
# Elastic Constant Matrix: (Units=GPa)
#
#
# Indices 1 2 3 4 5 6 
#
# 1 68.1649 44.5058 13.9610 0.0000 0.0000 0.0000
# 2 44.5058 118.1199 23.8036 0.0000 0.0000 0.0000
# 3 13.9610 23.8036 15.4841 0.0000 0.0000 0.0000
# 4 0.0000 0.0000 0.0000 -1.8909 0.0000 0.0000
# 5 0.0000 0.0000 0.0000 0.0000 -4.0473 0.0000
# 6 0.0000 0.0000 0.0000 0.0000 0.0000 18.0363
#
#
#
# Elastic Compliance Matrix: (Units=1/GPa)
#
#
# Indices 1 2 3 4 5 6 
#
# 1 0.020382 -0.005761 -0.009521 0.000000 0.000000 0.000000
# 2 -0.005761 0.013894 -0.016165 0.000000 0.000000 0.000000
# 3 -0.009521 -0.016165 0.098017 0.000000 0.000000 0.000000
# 4 0.000000 0.000000 0.000000 -0.528846 0.000000 0.000000
# 5 0.000000 0.000000 0.000000 0.000000 -0.247080 0.000000
# 6 0.000000 0.000000 0.000000 0.000000 0.000000 0.055444
#
#
# Mechanical properties :
#
#
# Convention : Reuss Voigt Hill
#
# Bulk Modulus (GPa) = 14.40933 40.70110 27.55522
# Shear Modulus (GPa) = -9.95695 10.38619 0.21462
#
# Velocity S-wave (km/s) = -2.50858 2.56208 0.36830
# Velocity P-wave (km/s) = 0.84636 5.87165 4.19479
#
# Compressibility (1/GPa) = 0.06939946
#
# Stress axis : x y z
#
# Youngs Moduli (GPa) = 49.06378 71.97240 10.20229
#
# Poissons Ratio (x) = 0.41462 0.09713
# Poissons Ratio (y) = 0.28265 0.16492
# Poissons Ratio (z) = 0.46712 1.16345
#
# Static dielectric constant tensor:
#      x y z
#    x 1.509960 0.000000 0.000000 
#    y 0.000000 1.546170 0.000000 
#    z 0.000000 0.000000 1.531240 
# 
# From -- ./inp_files/9135.got.cif
#   From: 2010.05.17/outbox.cif.g08.bks.cpg/sg55_5_cif.got.tgz:9135.got - 2010.06.03 13:27:54.
