data_PCOD9425338
_publ_section_title
;
Structure prediction by ZEFSAII (Michael W. Deem and Ramdas Pophale) SiO2 
 PCOD9425338
Probable space group: P B A M
;
_chemical_formula_sum "Si O2"
_cell_formula_units_Z 64
_cell_length_a 18.997931
_cell_length_b 27.131022
_cell_length_c 8.717048
_cell_angle_alpha 90.000000
_cell_angle_beta 90.000000
_cell_angle_gamma 90.000000
_cell_volume 4493.056677
_symmetry_space_group_name_H-M "P B A M"
_symmetry_group_IT_number 55
_symmetry_cell_setting 'orthorhombic'
loop_
_space_group_symop_operation_xyz
x,y,z
-x,-y,z
1/2+x,1/2-y,-z
1/2-x,1/2+y,-z
-x,-y,-z
x,y,-z
1/2-x,1/2+y,z
1/2+x,1/2-y,z
loop_
_atom_site_type_symbol
_atom_site_label
_atom_site_fract_x
_atom_site_fract_y
_atom_site_fract_z
Si Si1 0.157148 0.145928 0.317452
Si Si2 0.426557 0.555662 0.817429
Si Si3 0.163240 0.853056 0.316227
Si Si4 0.207010 0.293793 0.315878
Si Si5 0.568517 0.254708 0.682701
Si Si6 0.783577 0.300842 0.181565
Si Si7 0.414564 0.257292 0.816937
Si Si8 0.918487 0.050653 0.315259
O O1 0.153860 0.139064 0.500000
O O2 0.125608 0.098790 0.233169
O O3 0.108644 0.193875 0.279685
O O4 0.236719 0.158702 0.267299
O O5 0.401846 0.502140 0.758613
O O6 0.502571 0.564153 0.738535
O O7 0.435464 0.554755 0.000000
O O8 0.155026 0.851428 0.500000
O O9 0.245341 0.841426 0.282931
O O10 0.117169 0.808047 0.250334
O O11 0.133582 0.905622 0.265423
O O12 0.213975 0.283106 0.500000
O O13 0.124429 0.288866 0.281880
O O14 0.243827 0.250213 0.221502
O O15 0.556072 0.255028 0.500000
O O16 0.494453 0.250858 0.765464
O O17 0.863288 0.287986 0.231042
O O18 0.781723 0.310282 0.000000
O O19 0.410257 0.260504 0.000000
O O20 0.917671 0.046208 0.500000
#
# Coordination Sequence:
#
# PCOD9425338 Si02
#       8
#     8   8   8   8   8   8   8   8
#     4  10  19  31  45  60  79 108 142 174 206 243
#     4  11  21  31  43  60  83 110 138 173 210 244
#     4   9  17  29  45  60  78 107 141 172 205 240
#     4   8  15  28  42  58  79 105 136 169 202 239
#     4   9  17  27  41  59  81 108 137 166 198 237
#     4   9  17  28  40  58  81 106 135 168 203 239
#     4  10  19  27  39  60  86 111 137 168 201 239
#     4  10  19  31  45  61  82 109 141 176 207 241
#
# _framework density 14.244199999999999
#
# number of rings (size 3 to 8) (size 9 to 14) (size 15 to 20)
#    0.000    2.500    0.000    4.875    0.000    8.000 
#    0.000    0.000    0.000    0.000    0.000    0.000 
#    0.000    1.000    0.000   11.500    0.000    2.875 
#
# Total GULP energy -356448.001789 kJ/mol
# GULP energy per Si atom -5569.500028 kJ/mol
# Density = 1.421178 g / cm^3
# Si number density = 14.244200 Si / 1000 Ang^3
#
#
#
# Elastic Constant Matrix: (Units=GPa)
#
#
# Indices 1 2 3 4 5 6 
#
# 1 90.1091 42.7296 21.7138 0.0000 0.0000 0.0000
# 2 42.7296 71.3861 20.2120 0.0000 0.0000 0.0000
# 3 21.7138 20.2120 30.7763 0.0000 0.0000 0.0000
# 4 0.0000 0.0000 0.0000 14.7926 0.0000 0.0000
# 5 0.0000 0.0000 0.0000 0.0000 14.6450 0.0000
# 6 0.0000 0.0000 0.0000 0.0000 0.0000 25.4108
#
#
#
# Elastic Compliance Matrix: (Units=1/GPa)
#
#
# Indices 1 2 3 4 5 6 
#
# 1 0.016436 -0.008052 -0.006308 0.000000 0.000000 0.000000
# 2 -0.008052 0.021153 -0.008211 0.000000 0.000000 0.000000
# 3 -0.006308 -0.008211 0.042336 0.000000 0.000000 0.000000
# 4 0.000000 0.000000 0.000000 0.067602 0.000000 0.000000
# 5 0.000000 0.000000 0.000000 0.000000 0.068283 0.000000
# 6 0.000000 0.000000 0.000000 0.000000 0.000000 0.039353
#
#
# Mechanical properties :
#
#
# Convention : Reuss Voigt Hill
#
# Bulk Modulus (GPa) = 28.75027 40.17583 34.46305
# Shear Modulus (GPa) = 16.03087 18.14406 17.08747
#
# Velocity S-wave (km/s) = 3.35838 3.57289 3.46729
# Velocity P-wave (km/s) = 5.93852 6.72956 6.34637
#
# Compressibility (1/GPa) = 0.03478229
#
# Stress axis : x y z
#
# Youngs Moduli (GPa) = 60.84196 47.27498 23.62082
#
# Poissons Ratio (x) = 0.38066 0.14900
# Poissons Ratio (y) = 0.48990 0.19395
# Poissons Ratio (z) = 0.38380 0.38817
#
# Static dielectric constant tensor:
#      x y z
#    x 1.487140 0.000000 0.000000 
#    y 0.000000 1.461140 0.000000 
#    z 0.000000 0.000000 1.480150 
# 
# From -- ./inp_files/8232.got.cif
#   From: 2010.05.17/outbox.cif.g08.bks.cpg/sg55_5_cif.got.tgz:8232.got - 2010.06.03 13:27:54.
