data_PCOD9425550
_publ_section_title
;
Structure prediction by ZEFSAII (Michael W. Deem and Ramdas Pophale) SiO2 
 PCOD9425550
Probable space group: P B A M
;
_chemical_formula_sum "Si O2"
_cell_formula_units_Z 48
_cell_length_a 12.663124
_cell_length_b 11.334345
_cell_length_c 13.841723
_cell_angle_alpha 90.000000
_cell_angle_beta 90.000000
_cell_angle_gamma 90.000000
_cell_volume 1986.677811
_symmetry_space_group_name_H-M "P B A M"
_symmetry_group_IT_number 55
_symmetry_cell_setting 'orthorhombic'
loop_
_space_group_symop_operation_xyz
x,y,z
-x,-y,z
1/2+x,1/2-y,-z
1/2-x,1/2+y,-z
-x,-y,-z
x,y,-z
1/2-x,1/2+y,z
1/2+x,1/2-y,z
loop_
_atom_site_type_symbol
_atom_site_label
_atom_site_fract_x
_atom_site_fract_y
_atom_site_fract_z
Si Si1 0.647059 0.762780 0.108441
Si Si2 0.955320 0.344630 0.715190
Si Si3 0.734005 0.913208 0.613216
Si Si4 0.907745 0.097545 0.612813
Si Si5 0.059249 0.107736 0.107843
Si Si6 0.817087 0.724259 0.759255
O O1 0.614001 0.861670 0.186886
O O2 0.534088 0.701316 0.097121
O O3 0.726678 0.677421 0.168050
O O4 0.684051 0.792213 0.000000
O O5 0.890292 0.418880 0.636916
O O6 0.941299 0.209264 0.676699
O O7 0.079413 0.352705 0.737357
O O8 0.752965 0.902223 0.500000
O O9 0.775654 0.793350 0.664889
O O10 0.801049 0.028549 0.644047
O O11 0.895591 0.135531 0.500000
O O12 0.000000 0.000000 0.614505
O O13 0.146111 0.166244 0.172538
O O14 0.095307 0.071598 0.000000
O O15 0.000000 0.000000 0.156894
#
# Coordination Sequence:
#
# PCOD9425550 Si02
#       6
#     8   8   8   8   8   8
#     4   9  19  33  49  78 111 141 180 226 279 331
#     4  10  20  33  55  80 111 147 188 230 279 338
#     4  10  21  33  50  82 113 146 187 231 282 332
#     4  10  19  33  56  84 113 145 184 235 281 327
#     4   9  18  31  52  82 111 139 177 228 273 318
#     4  10  19  31  53  76 107 146 179 225 276 334
#
# _framework density 24.160938999999999
#
# number of rings (size 3 to 8) (size 9 to 14) (size 15 to 20)
#    0.000    2.333    1.667    1.000    4.667    1.333 
#    0.000    0.000    0.000    4.000    0.000   11.667 
#    0.000    0.000    0.000    0.000    0.000    0.000 
#
# Total GULP energy -267813.732684 kJ/mol
# GULP energy per Si atom -5579.452764 kJ/mol
# Density = 2.410595 g / cm^3
# Si number density = 24.160939 Si / 1000 Ang^3
#
#
#
# Elastic Constant Matrix: (Units=GPa)
#
#
# Indices 1 2 3 4 5 6 
#
# 1 88.0384 -2.9325 31.2521 0.0000 0.0000 0.0000
# 2 -2.9325 53.7896 10.3798 0.0000 0.0000 0.0000
# 3 31.2521 10.3798 140.2112 0.0000 0.0000 0.0000
# 4 0.0000 0.0000 0.0000 26.8067 0.0000 0.0000
# 5 0.0000 0.0000 0.0000 0.0000 229.1824 0.0000
# 6 0.0000 0.0000 0.0000 0.0000 0.0000 24.9841
#
#
#
# Elastic Compliance Matrix: (Units=1/GPa)
#
#
# Indices 1 2 3 4 5 6 
#
# 1 0.012414 0.001228 -0.002858 0.000000 0.000000 0.000000
# 2 0.001228 0.018982 -0.001679 0.000000 0.000000 0.000000
# 3 -0.002858 -0.001679 0.007893 0.000000 0.000000 0.000000
# 4 0.000000 0.000000 0.000000 0.037304 0.000000 0.000000
# 5 0.000000 0.000000 0.000000 0.000000 0.004363 0.000000
# 6 0.000000 0.000000 0.000000 0.000000 0.000000 0.040026
#
#
# Mechanical properties :
#
#
# Convention : Reuss Voigt Hill
#
# Bulk Modulus (GPa) = 30.60714 39.93757 35.27236
# Shear Modulus (GPa) = 36.10357 72.41728 54.26043
#
# Velocity S-wave (km/s) = 3.86981 5.48069 4.74412
# Velocity P-wave (km/s) = 5.71513 7.52438 6.68128
#
# Compressibility (1/GPa) = 0.03267211
#
# Stress axis : x y z
#
# Youngs Moduli (GPa) = 80.55343 52.68175 126.68790
#
# Poissons Ratio (x) = -0.06471 0.36207
# Poissons Ratio (y) = -0.09894 0.21271
# Poissons Ratio (z) = 0.23022 0.08845
#
# Static dielectric constant tensor:
#      x y z
#    x 2.015990 0.000000 0.000000 
#    y 0.000000 1.985400 0.000000 
#    z 0.000000 0.000000 1.987470 
# 
# From -- ./inp_files/18300.got.cif
#   From: 2010.05.17/outbox.cif.g08.bks.cpg/sg55_10_cif.got.tgz:18300.got - 2010.06.03 13:27:54.
