data_PCOD9425957
_publ_section_title
;
Structure prediction by ZEFSAII (Michael W. Deem and Ramdas Pophale) SiO2 
 PCOD9425957
Probable space group: P B A M
;
_chemical_formula_sum "Si O2"
_cell_formula_units_Z 64
_cell_length_a 9.901521
_cell_length_b 29.188629
_cell_length_c 11.770231
_cell_angle_alpha 90.000000
_cell_angle_beta 90.000000
_cell_angle_gamma 90.000000
_cell_volume 3401.735918
_symmetry_space_group_name_H-M "P B A M"
_symmetry_group_IT_number 55
_symmetry_cell_setting 'orthorhombic'
loop_
_space_group_symop_operation_xyz
x,y,z
-x,-y,z
1/2+x,1/2-y,-z
1/2-x,1/2+y,-z
-x,-y,-z
x,y,-z
1/2-x,1/2+y,z
1/2+x,1/2-y,z
loop_
_atom_site_type_symbol
_atom_site_label
_atom_site_fract_x
_atom_site_fract_y
_atom_site_fract_z
Si Si1 0.275565 0.387025 0.226608
Si Si2 0.963542 0.549970 0.130378
Si Si3 0.286119 0.156256 0.371533
Si Si4 0.166249 0.236897 0.749796
Si Si5 0.898903 0.671861 0.625339
Si Si6 0.508210 0.553611 0.871737
Si Si7 0.263945 0.109033 0.873062
Si Si8 0.893584 0.207413 0.867888
O O1 0.156048 0.419334 0.180252
O O2 0.212320 0.365432 0.339792
O O3 0.405174 0.419433 0.221012
O O4 0.321515 0.341538 0.156814
O O5 0.000000 0.500000 0.182290
O O6 0.096767 0.581177 0.132222
O O7 0.924040 0.540608 0.000000
O O8 0.243300 0.140270 0.500000
O O9 0.229229 0.207453 0.352685
O O10 0.448703 0.153613 0.371400
O O11 0.248200 0.134821 0.247803
O O12 0.109435 0.285428 0.708535
O O13 0.291382 0.251975 0.829945
O O14 0.037440 0.211379 0.804302
O O15 0.869968 0.688896 0.500000
O O16 0.500000 0.500000 0.849938
O O17 0.359585 0.574052 0.875482
O O18 0.567627 0.560558 0.000000
O O19 0.261609 0.133057 0.000000
O O20 0.920932 0.211243 0.000000
#
# Coordination Sequence:
#
# PCOD9425957 Si02
#       8
#     8   8   8   8   8   8   8   8
#     4  11  21  37  58  86 118 156 201 249 307 361
#     4  10  19  33  57  86 116 152 199 248 296 358
#     4  11  22  40  63  87 120 160 202 249 301 358
#     4  11  22  41  59  89 115 160 211 246 298 354
#     4  10  22  41  61  84 116 155 206 255 296 351
#     4  10  20  36  60  89 124 159 193 245 309 369
#     4  10  21  37  58  90 123 155 196 248 304 357
#     4  11  23  37  58  87 128 163 197 250 310 366
#
# _framework density 18.813922999999999
#
# number of rings (size 3 to 8) (size 9 to 14) (size 15 to 20)
#    0.000    1.500    2.500    3.375    0.000    4.000 
#    0.000    3.750    0.000    4.500    0.000    0.000 
#    0.000    0.000    0.000    0.000    0.000    0.000 
#
# Total GULP energy -356349.225368 kJ/mol
# GULP energy per Si atom -5567.956646 kJ/mol
# Density = 1.877110 g / cm^3
# Si number density = 18.813923 Si / 1000 Ang^3
#
#
#
# Elastic Constant Matrix: (Units=GPa)
#
#
# Indices 1 2 3 4 5 6 
#
# 1 144.2639 42.6224 36.6924 0.0000 0.0000 0.0000
# 2 42.6224 77.8363 36.1079 0.0000 0.0000 0.0000
# 3 36.6924 36.1079 98.8057 0.0000 0.0000 0.0000
# 4 0.0000 0.0000 0.0000 13.4614 0.0000 0.0000
# 5 0.0000 0.0000 0.0000 0.0000 9.0343 0.0000
# 6 0.0000 0.0000 0.0000 0.0000 0.0000 74.5843
#
#
#
# Elastic Compliance Matrix: (Units=1/GPa)
#
#
# Indices 1 2 3 4 5 6 
#
# 1 0.008515 -0.003848 -0.001756 0.000000 0.000000 0.000000
# 2 -0.003848 0.017209 -0.004860 0.000000 0.000000 0.000000
# 3 -0.001756 -0.004860 0.012549 0.000000 0.000000 0.000000
# 4 0.000000 0.000000 0.000000 0.074286 0.000000 0.000000
# 5 0.000000 0.000000 0.000000 0.000000 0.110689 0.000000
# 6 0.000000 0.000000 0.000000 0.000000 0.000000 0.013408
#
#
# Mechanical properties :
#
#
# Convention : Reuss Voigt Hill
#
# Bulk Modulus (GPa) = 57.65257 61.30569 59.47913
# Shear Modulus (GPa) = 18.98495 33.11489 26.04992
#
# Velocity S-wave (km/s) = 3.18006 4.19994 3.72507
# Velocity P-wave (km/s) = 6.64784 7.49502 7.08411
#
# Compressibility (1/GPa) = 0.01734528
#
# Stress axis : x y z
#
# Youngs Moduli (GPa) = 117.43534 58.10825 79.68793
#
# Poissons Ratio (x) = 0.22362 0.13992
# Poissons Ratio (y) = 0.45193 0.38727
# Poissons Ratio (z) = 0.20620 0.28240
#
# Static dielectric constant tensor:
#      x y z
#    x 1.638040 0.000000 0.000000 
#    y 0.000000 1.675540 0.000000 
#    z 0.000000 0.000000 1.673490 
# 
# From -- ./inp_files/12593.got.cif
#   From: 2010.05.17/outbox.cif.g08.bks.cpg/sg55_7_cif.got.tgz:12593.got - 2010.06.03 13:27:54.
