data_PCOD9425651
_publ_section_title
;
Structure prediction by ZEFSAII (Michael W. Deem and Ramdas Pophale) SiO2 
 PCOD9425651
Probable space group: P B A M
;
_chemical_formula_sum "Si O2"
_cell_formula_units_Z 58
_cell_length_a 22.650148
_cell_length_b 7.909949
_cell_length_c 14.570243
_cell_angle_alpha 90.000000
_cell_angle_beta 90.000000
_cell_angle_gamma 90.000000
_cell_volume 2610.426817
_symmetry_space_group_name_H-M "P B A M"
_symmetry_group_IT_number 55
_symmetry_cell_setting 'orthorhombic'
loop_
_space_group_symop_operation_xyz
x,y,z
-x,-y,z
1/2+x,1/2-y,-z
1/2-x,1/2+y,-z
-x,-y,-z
x,y,-z
1/2-x,1/2+y,z
1/2+x,1/2-y,z
loop_
_atom_site_type_symbol
_atom_site_label
_atom_site_fract_x
_atom_site_fract_y
_atom_site_fract_z
Si Si1 0.730365 0.305093 0.892817
Si Si2 0.927268 0.622242 0.245476
Si Si3 0.713812 0.646902 0.392382
Si Si4 0.858131 0.981475 0.235627
Si Si5 0.971155 0.166700 0.809192
Si Si6 0.844208 0.458677 0.105882
Si Si7 0.500000 0.500000 0.000000
Si Si8 0.161899 0.476006 0.393602
O O1 0.691385 0.438616 0.838554
O O2 0.697003 0.127103 0.888286
O O3 0.797849 0.317912 0.859454
O O4 0.732137 0.352630 0.000000
O O5 0.901421 0.506726 0.163633
O O6 0.897622 0.546499 0.336446
O O7 0.995511 0.674774 0.234718
O O8 0.895039 0.806586 0.238028
O O9 0.713846 0.595210 0.500000
O O10 0.673203 0.528378 0.330463
O O11 0.782152 0.636645 0.360123
O O12 0.687528 0.834491 0.386256
O O13 0.902510 0.130939 0.205875
O O14 0.000000 0.000000 0.762155
O O15 0.987161 0.140094 0.916829
O O16 0.859926 0.425671 0.000000
O O17 0.151076 0.436560 0.500000
#
# Coordination Sequence:
#
# PCOD9425651 Si02
#       8
#     8   8   8   8   8   8   2   8
#     4   9  18  29  44  68  99 131 164 204 256 313
#     4  10  19  32  52  78 106 136 180 225 267 313
#     4  10  21  37  57  80 106 140 178 221 277 336
#     4  10  19  32  52  78 106 136 180 225 267 313
#     4   8  18  30  52  80 108 140 187 222 263 306
#     4   9  18  29  44  68  99 131 164 204 256 313
#     4   8  16  32  56  80 112 148 196 228 258 318
#     4  10  21  37  57  80 106 140 178 221 277 336
#
# _framework density 22.218591
#
# number of rings (size 3 to 8) (size 9 to 14) (size 15 to 20)
#    0.414    2.207    0.000    1.655    1.931    4.966 
#    0.000    1.379    0.000    4.138    0.000    0.966 
#    0.000    0.000    0.000    0.000    0.000    0.000 
#
# Total GULP energy -323354.889993 kJ/mol
# GULP energy per Si atom -5575.084310 kJ/mol
# Density = 2.216802 g / cm^3
# Si number density = 22.218591 Si / 1000 Ang^3
#
#
#
# Elastic Constant Matrix: (Units=GPa)
#
#
# Indices 1 2 3 4 5 6 
#
# 1 109.6798 11.3441 29.9343 0.0000 0.0000 0.0000
# 2 11.3441 69.3897 0.4852 0.0000 0.0000 0.0000
# 3 29.9343 0.4852 49.8286 0.0000 0.0000 0.0000
# 4 0.0000 0.0000 0.0000 15.3472 0.0000 0.0000
# 5 0.0000 0.0000 0.0000 0.0000 15.4385 0.0000
# 6 0.0000 0.0000 0.0000 0.0000 0.0000 34.9476
#
#
#
# Elastic Compliance Matrix: (Units=1/GPa)
#
#
# Indices 1 2 3 4 5 6 
#
# 1 0.011119 -0.001771 -0.006662 0.000000 0.000000 0.000000
# 2 -0.001771 0.014694 0.000921 0.000000 0.000000 0.000000
# 3 -0.006662 0.000921 0.024062 0.000000 0.000000 0.000000
# 4 0.000000 0.000000 0.000000 0.065158 0.000000 0.000000
# 5 0.000000 0.000000 0.000000 0.000000 0.064773 0.000000
# 6 0.000000 0.000000 0.000000 0.000000 0.000000 0.028614
#
#
# Mechanical properties :
#
#
# Convention : Reuss Voigt Hill
#
# Bulk Modulus (GPa) = 28.69408 34.71391 31.70400
# Shear Modulus (GPa) = 21.27084 25.62230 23.44657
#
# Velocity S-wave (km/s) = 3.09745 3.39955 3.25201
# Velocity P-wave (km/s) = 5.07295 5.57378 5.32925
#
# Compressibility (1/GPa) = 0.03485039
#
# Stress axis : x y z
#
# Youngs Moduli (GPa) = 89.93628 68.05274 41.55888
#
# Poissons Ratio (x) = 0.12053 0.27688
# Poissons Ratio (y) = 0.15929 -0.03827
# Poissons Ratio (z) = 0.59919 -0.06267
#
# Static dielectric constant tensor:
#      x y z
#    x 1.835590 0.000000 0.000000 
#    y 0.000000 1.890880 0.000000 
#    z 0.000000 0.000000 1.775520 
# 
# From -- ./inp_files/19916.got.cif
#   From: 2010.05.17/outbox.cif.g08.bks.cpg/sg55_10_cif.got.tgz:19916.got - 2010.06.03 13:27:54.
