data_PCOD9425349
_publ_section_title
;
Structure prediction by ZEFSAII (Michael W. Deem and Ramdas Pophale) SiO2 
 PCOD9425349
Probable space group: P B A M
;
_chemical_formula_sum "Si O2"
_cell_formula_units_Z 64
_cell_length_a 26.656899
_cell_length_b 5.216170
_cell_length_c 28.172262
_cell_angle_alpha 90.000000
_cell_angle_beta 90.000000
_cell_angle_gamma 90.000000
_cell_volume 3917.266172
_symmetry_space_group_name_H-M "P B A M"
_symmetry_group_IT_number 55
_symmetry_cell_setting 'orthorhombic'
loop_
_space_group_symop_operation_xyz
x,y,z
-x,-y,z
1/2+x,1/2-y,-z
1/2-x,1/2+y,-z
-x,-y,-z
x,y,-z
1/2-x,1/2+y,z
1/2+x,1/2-y,z
loop_
_atom_site_type_symbol
_atom_site_label
_atom_site_fract_x
_atom_site_fract_y
_atom_site_fract_z
Si Si1 0.227910 0.099386 0.444926
Si Si2 0.384763 0.434172 0.313352
Si Si3 0.783293 0.949998 0.150707
Si Si4 0.784748 0.014896 0.256166
Si Si5 0.284561 0.434540 0.948396
Si Si6 0.384780 0.436083 0.427855
Si Si7 0.443624 0.936393 0.571129
Si Si8 0.943768 0.565346 0.313308
O O1 0.243069 0.136669 0.500000
O O2 0.262312 0.877180 0.422557
O O3 0.171007 0.006278 0.443687
O O4 0.330212 0.487852 0.292667
O O5 0.383127 0.435187 0.370553
O O6 0.423050 0.658813 0.298701
O O7 0.405997 0.158890 0.298189
O O8 0.737686 0.159585 0.149661
O O9 0.812049 0.013019 0.101639
O O10 0.806566 0.998352 0.202281
O O11 0.747672 0.773305 0.261453
O O12 0.241139 0.654355 0.947559
O O13 0.310238 0.462090 0.000000
O O14 0.422791 0.660196 0.443221
O O15 0.405517 0.161170 0.443461
O O16 0.444672 0.935676 0.628876
O O17 0.500000 0.000000 0.555534
O O18 0.000000 0.500000 0.297587
#
# Coordination Sequence:
#
# PCOD9425349 Si02
#       8
#     8   8   8   8   8   8   8   8
#     4  10  21  36  52  68  87 114 145 174 205 237
#     4  10  19  29  44  66  85 108 140 167 202 242
#     4   8  14  23  33  45  65  97 131 159 192 230
#     4  10  19  29  39  54  82 115 141 166 195 235
#     4   8  12  18  29  44  60  81 118 165 198 221
#     4  10  19  31  49  69  88 110 138 172 202 237
#     4   9  17  30  49  71  92 112 132 160 203 249
#     4   9  17  30  46  64  85 106 134 172 207 242
#
# _framework density 16.337924000000001
#
# number of rings (size 3 to 8) (size 9 to 14) (size 15 to 20)
#    0.000    2.750    0.000    2.250    0.000    4.000 
#    0.000    0.000    0.000    2.250    0.000    0.000 
#    0.000    0.000    0.000    0.000    0.000    3.750 
#
# Total GULP energy -356472.539974 kJ/mol
# GULP energy per Si atom -5569.883437 kJ/mol
# Density = 1.630074 g / cm^3
# Si number density = 16.337924 Si / 1000 Ang^3
#
#
#
# Elastic Constant Matrix: (Units=GPa)
#
#
# Indices 1 2 3 4 5 6 
#
# 1 29.0422 -13.9350 8.8326 0.0000 0.0000 0.0000
# 2 -13.9350 61.7628 4.2234 0.0000 0.0000 0.0000
# 3 8.8326 4.2234 52.0009 0.0000 0.0000 0.0000
# 4 0.0000 0.0000 0.0000 19.7156 0.0000 0.0000
# 5 0.0000 0.0000 0.0000 0.0000 3.3535 0.0000
# 6 0.0000 0.0000 0.0000 0.0000 0.0000 23.3758
#
#
#
# Elastic Compliance Matrix: (Units=1/GPa)
#
#
# Indices 1 2 3 4 5 6 
#
# 1 0.041586 0.009921 -0.007869 0.000000 0.000000 0.000000
# 2 0.009921 0.018648 -0.003200 0.000000 0.000000 0.000000
# 3 -0.007869 -0.003200 0.020827 0.000000 0.000000 0.000000
# 4 0.000000 0.000000 0.000000 0.050721 0.000000 0.000000
# 5 0.000000 0.000000 0.000000 0.000000 0.298194 0.000000
# 6 0.000000 0.000000 0.000000 0.000000 0.000000 0.042779
#
#
# Mechanical properties :
#
#
# Convention : Reuss Voigt Hill
#
# Bulk Modulus (GPa) = 12.69602 15.67201 14.18401
# Shear Modulus (GPa) = 9.97393 18.86798 14.42095
#
# Velocity S-wave (km/s) = 2.47346 3.40201 2.97420
# Velocity P-wave (km/s) = 3.99313 5.00447 4.52713
#
# Compressibility (1/GPa) = 0.07876486
#
# Stress axis : x y z
#
# Youngs Moduli (GPa) = 24.04643 53.62471 48.01473
#
# Poissons Ratio (x) = -0.53200 0.37785
# Poissons Ratio (y) = -0.23856 0.15363
# Poissons Ratio (z) = 0.18923 0.17158
#
# Static dielectric constant tensor:
#      x y z
#    x 1.508980 0.000000 0.000000 
#    y 0.000000 1.586560 0.000000 
#    z 0.000000 0.000000 1.610160 
# 
# From -- ./inp_files/23877.got.cif
#   From: 2010.05.17/outbox.cif.g08.bks.cpg/sg55_12_cif.got.tgz:23877.got - 2010.06.03 13:27:54.
