data_PCOD9425283
_publ_section_title
;
Structure prediction by ZEFSAII (Michael W. Deem and Ramdas Pophale) SiO2 
 PCOD9425283
Probable space group: P B A M
;
_chemical_formula_sum "Si O2"
_cell_formula_units_Z 64
_cell_length_a 25.386541
_cell_length_b 15.191627
_cell_length_c 8.318340
_cell_angle_alpha 90.000000
_cell_angle_beta 90.000000
_cell_angle_gamma 90.000000
_cell_volume 3208.074809
_symmetry_space_group_name_H-M "P B A M"
_symmetry_group_IT_number 55
_symmetry_cell_setting 'orthorhombic'
loop_
_space_group_symop_operation_xyz
x,y,z
-x,-y,z
1/2+x,1/2-y,-z
1/2-x,1/2+y,-z
-x,-y,-z
x,y,-z
1/2-x,1/2+y,z
1/2+x,1/2-y,z
loop_
_atom_site_type_symbol
_atom_site_label
_atom_site_fract_x
_atom_site_fract_y
_atom_site_fract_z
Si Si1 0.021234 0.095316 0.196128
Si Si2 0.134639 0.055693 0.807148
Si Si3 0.349878 0.359090 0.193745
Si Si4 0.259561 0.639394 0.687990
Si Si5 0.051492 0.551330 0.309037
Si Si6 0.267789 0.837447 0.194046
Si Si7 0.444228 0.247234 0.195472
Si Si8 0.168952 0.508142 0.807663
O O1 0.082182 0.106805 0.243201
O O2 0.984973 0.176606 0.244333
O O3 0.020260 0.092521 0.000000
O O4 0.000000 0.000000 0.250706
O O5 0.188353 0.082566 0.723522
O O6 0.123644 0.952875 0.776029
O O7 0.142271 0.065798 0.000000
O O8 0.290704 0.361178 0.254944
O O9 0.386531 0.280220 0.249995
O O10 0.346619 0.350516 0.000000
O O11 0.251170 0.650656 0.500000
O O12 0.272961 0.735219 0.761131
O O13 0.208837 0.586593 0.755355
O O14 0.053312 0.539231 0.500000
O O15 0.043695 0.653198 0.266471
O O16 0.108711 0.522479 0.244006
O O17 0.000000 0.500000 0.245244
O O18 0.307892 0.913468 0.251083
O O19 0.268647 0.842264 0.000000
O O20 0.444453 0.241901 0.000000
O O21 0.170226 0.507636 0.000000
#
# Coordination Sequence:
#
# PCOD9425283 Si02
#       8
#     8   8   8   8   8   8   8   8
#     4   9  16  29  56  91 122 152 194 248 302 352
#     4  10  18  34  58  85 121 161 201 250 303 356
#     4   9  16  31  58  88 117 150 194 250 304 352
#     4  12  25  39  58  90 130 167 202 245 305 374
#     4  11  26  46  64  86 122 167 206 251 312 370
#     4  10  21  38  62  90 119 159 208 256 307 359
#     4  10  19  34  62  95 121 157 209 259 302 358
#     4  11  23  43  71  96 119 155 208 265 312 361
#
# _framework density 19.949660000000002
#
# number of rings (size 3 to 8) (size 9 to 14) (size 15 to 20)
#    0.000    1.750    2.500    2.625    0.000    4.000 
#    0.000    5.000    0.000    0.750    0.000    0.000 
#    0.000    0.000    0.000    0.000    0.000    0.000 
#
# Total GULP energy -357181.536120 kJ/mol
# GULP energy per Si atom -5580.961502 kJ/mol
# Density = 1.990425 g / cm^3
# Si number density = 19.949660 Si / 1000 Ang^3
#
#
#
# Elastic Constant Matrix: (Units=GPa)
#
#
# Indices 1 2 3 4 5 6 
#
# 1 148.4458 70.8844 19.1518 0.0000 0.0000 0.0000
# 2 70.8844 133.9769 13.5460 0.0000 0.0000 0.0000
# 3 19.1518 13.5460 27.0057 0.0000 0.0000 0.0000
# 4 0.0000 0.0000 0.0000 208.1549 0.0000 0.0000
# 5 0.0000 0.0000 0.0000 0.0000 14.9797 0.0000
# 6 0.0000 0.0000 0.0000 0.0000 0.0000 35.3578
#
#
#
# Elastic Compliance Matrix: (Units=1/GPa)
#
#
# Indices 1 2 3 4 5 6 
#
# 1 0.009493 -0.004574 -0.004438 0.000000 0.000000 0.000000
# 2 -0.004574 0.010066 -0.001806 0.000000 0.000000 0.000000
# 3 -0.004438 -0.001806 0.041082 0.000000 0.000000 0.000000
# 4 0.000000 0.000000 0.000000 0.004804 0.000000 0.000000
# 5 0.000000 0.000000 0.000000 0.000000 0.066757 0.000000
# 6 0.000000 0.000000 0.000000 0.000000 0.000000 0.028282
#
#
# Mechanical properties :
#
#
# Convention : Reuss Voigt Hill
#
# Bulk Modulus (GPa) = 25.63656 57.39917 41.51787
# Shear Modulus (GPa) = 25.62492 65.42157 45.52325
#
# Velocity S-wave (km/s) = 3.58785 5.73276 4.78211
# Velocity P-wave (km/s) = 5.48107 8.52372 7.16575
#
# Compressibility (1/GPa) = 0.03900679
#
# Stress axis : x y z
#
# Youngs Moduli (GPa) = 105.33939 99.33949 24.34139
#
# Poissons Ratio (x) = 0.45437 0.10803
# Poissons Ratio (y) = 0.48181 0.04395
# Poissons Ratio (z) = 0.46750 0.17937
#
# Static dielectric constant tensor:
#      x y z
#    x 1.717750 0.000000 0.000000 
#    y 0.000000 1.722990 0.000000 
#    z 0.000000 0.000000 1.697630 
# 
# From -- ./inp_files/9752.got.cif
#   From: 2010.05.17/outbox.cif.g08.bks.cpg/sg55_5_cif.got.tgz:9752.got - 2010.06.03 13:27:54.
