data_PCOD9425208
_publ_section_title
;
Structure prediction by ZEFSAII (Michael W. Deem and Ramdas Pophale) SiO2 
 PCOD9425208
Probable space group: P B A M
;
_chemical_formula_sum "Si O2"
_cell_formula_units_Z 40
_cell_length_a 8.715984
_cell_length_b 18.091324
_cell_length_c 11.834096
_cell_angle_alpha 90.000000
_cell_angle_beta 90.000000
_cell_angle_gamma 90.000000
_cell_volume 1866.043931
_symmetry_space_group_name_H-M "P B A M"
_symmetry_group_IT_number 55
_symmetry_cell_setting 'orthorhombic'
loop_
_space_group_symop_operation_xyz
x,y,z
-x,-y,z
1/2+x,1/2-y,-z
1/2-x,1/2+y,-z
-x,-y,-z
x,y,-z
1/2-x,1/2+y,z
1/2+x,1/2-y,z
loop_
_atom_site_type_symbol
_atom_site_label
_atom_site_fract_x
_atom_site_fract_y
_atom_site_fract_z
Si Si1 0.750332 0.090490 0.635873
Si Si2 0.500000 0.000000 0.228079
Si Si3 0.335750 0.141185 0.868684
Si Si4 0.422147 0.620835 0.307654
Si Si5 0.201011 0.624173 0.500000
Si Si6 0.016207 0.288272 0.678300
O O1 0.757633 0.084961 0.500000
O O2 0.680200 0.171332 0.666889
O O3 0.915074 0.081076 0.693199
O O4 0.625188 0.036675 0.690028
O O5 0.424570 0.064124 0.153649
O O6 0.171168 0.131968 0.807567
O O7 0.437915 0.201307 0.800612
O O8 0.322452 0.157644 0.000000
O O9 0.308943 0.588089 0.400792
O O10 0.460565 0.703608 0.353704
O O11 0.096277 0.666136 0.596876
#
# Coordination Sequence:
#
# PCOD9425208 Si02
#       6
#     8   4   8   8   4   8
#     4  11  21  37  60  90 129 159 193 248 304 368
#     4  10  24  44  62  84 112 167 219 244 306 352
#     4  10  23  44  64  82 118 163 212 259 291 348
#     4  11  22  35  60 100 124 155 196 246 308 363
#     4  10  18  32  56  87 128 162 186 229 286 368
#     4  10  21  35  61  93 127 160 196 232 309 375
#
# _framework density 21.435724
#
# number of rings (size 3 to 8) (size 9 to 14) (size 15 to 20)
#    0.000    1.600    2.000    3.600    2.800    1.600 
#    1.800    7.000    0.000    0.000    0.000    0.000 
#    0.000    0.000    0.000    0.000    0.000    0.000 
#
# Total GULP energy -222741.276154 kJ/mol
# GULP energy per Si atom -5568.531904 kJ/mol
# Density = 2.138694 g / cm^3
# Si number density = 21.435724 Si / 1000 Ang^3
#
#
#
# Elastic Constant Matrix: (Units=GPa)
#
#
# Indices 1 2 3 4 5 6 
#
# 1 123.0778 9.8052 38.2697 0.0000 0.0000 0.0000
# 2 9.8052 46.1322 -16.6686 0.0000 0.0000 0.0000
# 3 38.2697 -16.6686 159.6165 0.0000 0.0000 0.0000
# 4 0.0000 0.0000 0.0000 6.2607 0.0000 0.0000
# 5 0.0000 0.0000 0.0000 0.0000 9.7658 0.0000
# 6 0.0000 0.0000 0.0000 0.0000 0.0000 29.5957
#
#
#
# Elastic Compliance Matrix: (Units=1/GPa)
#
#
# Indices 1 2 3 4 5 6 
#
# 1 0.009123 -0.002836 -0.002484 0.000000 0.000000 0.000000
# 2 -0.002836 0.023409 0.003125 0.000000 0.000000 0.000000
# 3 -0.002484 0.003125 0.007187 0.000000 0.000000 0.000000
# 4 0.000000 0.000000 0.000000 0.159726 0.000000 0.000000
# 5 0.000000 0.000000 0.000000 0.000000 0.102398 0.000000
# 6 0.000000 0.000000 0.000000 0.000000 0.000000 0.033789
#
#
# Mechanical properties :
#
#
# Convention : Reuss Voigt Hill
#
# Bulk Modulus (GPa) = 28.30631 43.51545 35.91088
# Shear Modulus (GPa) = 14.21270 28.95247 21.58258
#
# Velocity S-wave (km/s) = 2.57775 3.67913 3.17653
# Velocity P-wave (km/s) = 4.70038 6.19616 5.49936
#
# Compressibility (1/GPa) = 0.03532781
#
# Stress axis : x y z
#
# Youngs Moduli (GPa) = 109.61121 42.71915 139.14431
#
# Poissons Ratio (x) = 0.12117 0.34558
# Poissons Ratio (y) = 0.31091 -0.43477
# Poissons Ratio (z) = 0.27223 -0.13348
#
# Static dielectric constant tensor:
#      x y z
#    x 1.819260 0.000000 0.000000 
#    y 0.000000 1.852640 0.000000 
#    z 0.000000 0.000000 1.728120 
# 
# From -- ./inp_files/12082.got.cif
#   From: 2010.05.17/outbox.cif.g08.bks.cpg/sg55_7_cif.got.tgz:12082.got - 2010.06.03 13:27:54.
