data_PCOD9425865
_publ_section_title
;
Structure prediction by ZEFSAII (Michael W. Deem and Ramdas Pophale) SiO2 
 PCOD9425865
Probable space group: P B A M
;
_chemical_formula_sum "Si O2"
_cell_formula_units_Z 56
_cell_length_a 20.167044
_cell_length_b 14.237064
_cell_length_c 7.604087
_cell_angle_alpha 90.000000
_cell_angle_beta 90.000000
_cell_angle_gamma 90.000000
_cell_volume 2183.281628
_symmetry_space_group_name_H-M "P B A M"
_symmetry_group_IT_number 55
_symmetry_cell_setting 'orthorhombic'
loop_
_space_group_symop_operation_xyz
x,y,z
-x,-y,z
1/2+x,1/2-y,-z
1/2-x,1/2+y,-z
-x,-y,-z
x,y,-z
1/2-x,1/2+y,z
1/2+x,1/2-y,z
loop_
_atom_site_type_symbol
_atom_site_label
_atom_site_fract_x
_atom_site_fract_y
_atom_site_fract_z
Si Si1 0.210480 0.223457 0.714089
Si Si2 0.210136 0.445174 0.202665
Si Si3 0.065704 0.450779 0.290719
Si Si4 0.503147 0.770718 0.715294
Si Si5 0.647986 0.576197 0.208492
Si Si6 0.581691 0.393546 0.712065
Si Si7 0.144876 0.709239 0.700436
O O1 0.211436 0.223866 0.500000
O O2 0.205165 0.332216 0.770047
O O3 0.148201 0.161777 0.771626
O O4 0.282791 0.187076 0.777079
O O5 0.139642 0.486540 0.258687
O O6 0.282475 0.468525 0.279608
O O7 0.214676 0.467657 0.000000
O O8 0.059490 0.452712 0.500000
O O9 0.000000 0.500000 0.217676
O O10 0.055256 0.342537 0.237063
O O11 0.508075 0.769280 0.500000
O O12 0.480757 0.667853 0.774401
O O13 0.573100 0.811205 0.781532
O O14 0.590611 0.500835 0.235497
O O15 0.641047 0.676333 0.300276
O O16 0.654238 0.595498 0.000000
O O17 0.580351 0.391003 0.500000
O O18 0.144967 0.674068 0.500000
#
# Coordination Sequence:
#
# PCOD9425865 Si02
#       7
#     8   8   8   8   8   8   8
#     4   9  17  32  56  80 102 135 182 227 264 320
#     4  10  20  35  54  75 106 144 178 220 272 322
#     4  10  20  35  58  85 113 144 179 225 275 326
#     4   9  18  34  54  81 112 139 175 224 275 325
#     4  10  22  37  52  77 110 142 184 231 270 316
#     4  10  19  33  55  79 107 142 182 226 272 324
#     4   9  18  34  56  78 106 143 180 221 272 323
#
# _framework density 25.649460999999999
#
# number of rings (size 3 to 8) (size 9 to 14) (size 15 to 20)
#    0.000    2.429    1.429    0.857    0.000    4.286 
#    0.000    7.143    0.000    0.000    0.000    0.000 
#    0.000    0.000    0.000    0.000    0.000    0.000 
#
# Total GULP energy -312865.915042 kJ/mol
# GULP energy per Si atom -5586.891340 kJ/mol
# Density = 2.559108 g / cm^3
# Si number density = 25.649461 Si / 1000 Ang^3
#
#
#
# Elastic Constant Matrix: (Units=GPa)
#
#
# Indices 1 2 3 4 5 6 
#
# 1 122.1028 9.7260 4.4703 0.0000 0.0000 0.0000
# 2 9.7260 61.0522 -1.2019 0.0000 0.0000 0.0000
# 3 4.4703 -1.2019 61.3733 0.0000 0.0000 0.0000
# 4 0.0000 0.0000 0.0000 153.0268 0.0000 0.0000
# 5 0.0000 0.0000 0.0000 0.0000 19.7386 0.0000
# 6 0.0000 0.0000 0.0000 0.0000 0.0000 50.5321
#
#
#
# Elastic Compliance Matrix: (Units=1/GPa)
#
#
# Indices 1 2 3 4 5 6 
#
# 1 0.008320 -0.001338 -0.000632 0.000000 0.000000 0.000000
# 2 -0.001338 0.016601 0.000423 0.000000 0.000000 0.000000
# 3 -0.000632 0.000423 0.016348 0.000000 0.000000 0.000000
# 4 0.000000 0.000000 0.000000 0.006535 0.000000 0.000000
# 5 0.000000 0.000000 0.000000 0.000000 0.050662 0.000000
# 6 0.000000 0.000000 0.000000 0.000000 0.000000 0.019789
#
#
# Mechanical properties :
#
#
# Convention : Reuss Voigt Hill
#
# Bulk Modulus (GPa) = 26.19611 30.05744 28.12677
# Shear Modulus (GPa) = 37.29281 60.09510 48.69396
#
# Velocity S-wave (km/s) = 3.81719 4.84564 4.36184
# Velocity P-wave (km/s) = 5.44640 6.56132 6.02969
#
# Compressibility (1/GPa) = 0.03817361
#
# Stress axis : x y z
#
# Youngs Moduli (GPa) = 120.19916 60.23779 61.16939
#
# Poissons Ratio (x) = 0.08059 0.03867
# Poissons Ratio (y) = 0.16080 -0.02585
# Poissons Ratio (z) = 0.07599 -0.02545
#
# Static dielectric constant tensor:
#      x y z
#    x 2.081380 0.000000 0.000000 
#    y 0.000000 2.040760 0.000000 
#    z 0.000000 0.000000 1.966000 
# 
# From -- ./inp_files/6117.got.cif
#   From: 2010.05.17/outbox.cif.g08.bks.cpg/sg55_4_cif.got.tgz:6117.got - 2010.06.03 13:27:54.
