data_PCOD9425931
_publ_section_title
;
Structure prediction by ZEFSAII (Michael W. Deem and Ramdas Pophale) SiO2 
 PCOD9425931
Probable space group: P B A M
;
_chemical_formula_sum "Si O2"
_cell_formula_units_Z 40
_cell_length_a 10.741933
_cell_length_b 14.489752
_cell_length_c 12.973464
_cell_angle_alpha 90.000000
_cell_angle_beta 90.000000
_cell_angle_gamma 90.000000
_cell_volume 2019.293013
_symmetry_space_group_name_H-M "P B A M"
_symmetry_group_IT_number 55
_symmetry_cell_setting 'orthorhombic'
loop_
_space_group_symop_operation_xyz
x,y,z
-x,-y,z
1/2+x,1/2-y,-z
1/2-x,1/2+y,-z
-x,-y,-z
x,y,-z
1/2-x,1/2+y,z
1/2+x,1/2-y,z
loop_
_atom_site_type_symbol
_atom_site_label
_atom_site_fract_x
_atom_site_fract_y
_atom_site_fract_z
Si Si1 0.299218 0.553802 0.116266
Si Si2 0.933529 0.127979 0.173372
Si Si3 0.562906 0.099829 0.384881
Si Si4 0.130735 0.685923 0.757267
Si Si5 0.663181 0.656505 0.617696
O O1 0.433055 0.604384 0.127688
O O2 0.333512 0.446917 0.136057
O O3 0.206098 0.601241 0.196482
O O4 0.252363 0.564553 0.000000
O O5 0.891181 0.233447 0.158573
O O6 0.935632 0.120572 0.298670
O O7 0.538621 0.139908 0.500000
O O8 0.499274 0.156141 0.293424
O O9 0.711043 0.097335 0.374238
O O10 0.500000 0.000000 0.382801
O O11 0.197023 0.741874 0.663467
O O12 0.622345 0.658990 0.500000
#
# Coordination Sequence:
#
# PCOD9425931 Si02
#       5
#     8   8   8   8   8
#     4  11  22  40  60  81 113 156 198 246 293 333
#     4   9  21  37  60  84 117 146 195 239 286 353
#     4  10  19  33  56  84 118 156 186 226 290 350
#     4  10  21  36  59  85 114 150 194 239 280 348
#     4   9  19  35  57  84 118 151 183 231 290 349
#
# _framework density 19.808913
#
# number of rings (size 3 to 8) (size 9 to 14) (size 15 to 20)
#    1.200    1.000    0.000    4.200    0.000    1.600 
#    0.000    4.000    0.000    1.800    0.000    0.000 
#    0.000    0.000    0.000    0.000    0.000    0.000 
#
# Total GULP energy -222692.788984 kJ/mol
# GULP energy per Si atom -5567.319725 kJ/mol
# Density = 1.976383 g / cm^3
# Si number density = 19.808913 Si / 1000 Ang^3
#
#
#
# Elastic Constant Matrix: (Units=GPa)
#
#
# Indices 1 2 3 4 5 6 
#
# 1 14.2116 -3.9035 -1.1943 0.0000 0.0000 0.0000
# 2 -3.9035 48.8889 -2.1564 0.0000 0.0000 0.0000
# 3 -1.1943 -2.1564 87.4526 0.0000 0.0000 0.0000
# 4 0.0000 0.0000 0.0000 11.3145 0.0000 0.0000
# 5 0.0000 0.0000 0.0000 0.0000 25.0646 0.0000
# 6 0.0000 0.0000 0.0000 0.0000 0.0000 23.8153
#
#
#
# Elastic Compliance Matrix: (Units=1/GPa)
#
#
# Indices 1 2 3 4 5 6 
#
# 1 0.072054 0.005803 0.001127 0.000000 0.000000 0.000000
# 2 0.005803 0.020944 0.000596 0.000000 0.000000 0.000000
# 3 0.001127 0.000596 0.011465 0.000000 0.000000 0.000000
# 4 0.000000 0.000000 0.000000 0.088382 0.000000 0.000000
# 5 0.000000 0.000000 0.000000 0.000000 0.039897 0.000000
# 6 0.000000 0.000000 0.000000 0.000000 0.000000 0.041990
#
#
# Mechanical properties :
#
#
# Convention : Reuss Voigt Hill
#
# Bulk Modulus (GPa) = 8.36724 15.11608 11.74166
# Shear Modulus (GPa) = 16.69348 22.55937 19.62643
#
# Velocity S-wave (km/s) = 2.90612 3.37835 3.15109
# Velocity P-wave (km/s) = 3.93623 4.78175 4.37944
#
# Compressibility (1/GPa) = 0.11951375
#
# Stress axis : x y z
#
# Youngs Moduli (GPa) = 13.87856 47.74606 87.22315
#
# Poissons Ratio (x) = -0.27706 -0.09831
# Poissons Ratio (y) = -0.08054 -0.05196
# Poissons Ratio (z) = -0.01564 -0.02844
#
# Static dielectric constant tensor:
#      x y z
#    x 1.669590 0.000000 0.000000 
#    y 0.000000 1.747730 0.000000 
#    z 0.000000 0.000000 1.711350 
# 
# From -- ./inp_files/13013.got.cif
#   From: 2010.05.17/outbox.cif.g08.bks.cpg/sg55_7_cif.got.tgz:13013.got - 2010.06.03 13:27:54.
