data_PCOD9425177
_publ_section_title
;
Structure prediction by ZEFSAII (Michael W. Deem and Ramdas Pophale) SiO2 
 PCOD9425177
Probable space group: P B A M
;
_chemical_formula_sum "Si O2"
_cell_formula_units_Z 52
_cell_length_a 14.891080
_cell_length_b 20.770428
_cell_length_c 7.504307
_cell_angle_alpha 90.000000
_cell_angle_beta 90.000000
_cell_angle_gamma 90.000000
_cell_volume 2321.037917
_symmetry_space_group_name_H-M "P B A M"
_symmetry_group_IT_number 55
_symmetry_cell_setting 'orthorhombic'
loop_
_space_group_symop_operation_xyz
x,y,z
-x,-y,z
1/2+x,1/2-y,-z
1/2-x,1/2+y,-z
-x,-y,-z
x,y,-z
1/2-x,1/2+y,z
1/2+x,1/2-y,z
loop_
_atom_site_type_symbol
_atom_site_label
_atom_site_fract_x
_atom_site_fract_y
_atom_site_fract_z
Si Si1 0.782152 0.071042 0.714762
Si Si2 0.699372 0.801028 0.704759
Si Si3 0.686208 0.947174 0.719959
Si Si4 0.086361 0.376363 0.210040
Si Si5 0.413560 0.321022 0.714690
Si Si6 0.000000 0.500000 0.254339
Si Si7 0.599985 0.266298 0.789837
O O1 0.784461 0.071312 0.500000
O O2 0.691869 0.108986 0.770254
O O3 0.865549 0.113652 0.779032
O O4 0.767162 0.996313 0.765868
O O5 0.669944 0.806577 0.500000
O O6 0.692936 0.873415 0.778340
O O7 0.640779 0.742303 0.782948
O O8 0.804454 0.783207 0.707870
O O9 0.675484 0.950246 0.500000
O O10 0.598474 0.978418 0.808628
O O11 0.068611 0.304259 0.272205
O O12 0.031484 0.429479 0.317649
O O13 0.061475 0.383321 0.000000
O O14 0.405364 0.320696 0.500000
O O15 0.518133 0.314457 0.758362
O O16 0.616385 0.260547 0.000000
#
# Coordination Sequence:
#
# PCOD9425177 Si02
#       7
#     8   8   8   8   8   4   8
#     4   9  18  34  55  78 105 137 176 220 273 325
#     4  10  20  37  58  83 113 146 187 232 279 333
#     4   9  18  32  54  83 112 141 177 229 283 331
#     4  10  20  33  50  76 111 145 178 218 271 333
#     4  10  20  35  57  81 106 142 186 230 277 331
#     4  10  18  32  54  82 115 146 179 222 283 352
#     4  11  23  36  54  81 112 148 189 232 279 330
#
# _framework density 22.403770000000002
#
# number of rings (size 3 to 8) (size 9 to 14) (size 15 to 20)
#    0.000    2.154    1.538    1.846    0.000    2.462 
#    0.000    4.615    0.000    4.615    0.000    0.000 
#    0.000    0.000    0.000    0.000    0.000    0.000 
#
# Total GULP energy -289767.028537 kJ/mol
# GULP energy per Si atom -5572.442856 kJ/mol
# Density = 2.235278 g / cm^3
# Si number density = 22.403770 Si / 1000 Ang^3
#
#
#
# Elastic Constant Matrix: (Units=GPa)
#
#
# Indices 1 2 3 4 5 6 
#
# 1 55.9055 3.2394 -10.1833 0.0000 0.0000 0.0000
# 2 3.2394 99.3301 16.5120 0.0000 0.0000 0.0000
# 3 -10.1833 16.5120 72.8965 0.0000 0.0000 0.0000
# 4 0.0000 0.0000 0.0000 -18.7519 0.0000 0.0000
# 5 0.0000 0.0000 0.0000 0.0000 -4.0755 0.0000
# 6 0.0000 0.0000 0.0000 0.0000 0.0000 35.7148
#
#
#
# Elastic Compliance Matrix: (Units=1/GPa)
#
#
# Indices 1 2 3 4 5 6 
#
# 1 0.018463 -0.001071 0.002822 0.000000 0.000000 0.000000
# 2 -0.001071 0.010524 -0.002533 0.000000 0.000000 0.000000
# 3 0.002822 -0.002533 0.014686 0.000000 0.000000 0.000000
# 4 0.000000 0.000000 0.000000 -0.053328 0.000000 0.000000
# 5 0.000000 0.000000 0.000000 0.000000 -0.245369 0.000000
# 6 0.000000 0.000000 0.000000 0.000000 0.000000 0.028000
#
#
# Mechanical properties :
#
#
# Convention : Reuss Voigt Hill
#
# Bulk Modulus (GPa) = 23.74862 27.47424 25.61143
# Shear Modulus (GPa) = -23.64928 17.14842 -3.25043
#
# Velocity S-wave (km/s) = -3.25251 2.76963 -1.20582
# Velocity P-wave (km/s) = 1.86597 4.74528 3.08511
#
# Compressibility (1/GPa) = 0.04210771
#
# Stress axis : x y z
#
# Youngs Moduli (GPa) = 54.16111 95.02533 68.09149
#
# Poissons Ratio (x) = 0.10179 -0.19215
# Poissons Ratio (y) = 0.05802 0.17250
# Poissons Ratio (z) = -0.15284 0.24073
#
# Static dielectric constant tensor:
#      x y z
#    x 1.780440 0.000000 0.000000 
#    y 0.000000 1.871550 0.000000 
#    z 0.000000 0.000000 2.001280 
# 
# From -- ./inp_files/5896.got.cif
#   From: 2010.05.17/outbox.cif.g08.bks.cpg/sg55_3_cif.got.tgz:5896.got - 2010.06.03 13:27:54.
