data_PCOD9425542
_publ_section_title
;
Structure prediction by ZEFSAII (Michael W. Deem and Ramdas Pophale) SiO2 
 PCOD9425542
Probable space group: P B A M
;
_chemical_formula_sum "Si O2"
_cell_formula_units_Z 64
_cell_length_a 20.361104
_cell_length_b 20.946821
_cell_length_c 7.861843
_cell_angle_alpha 90.000000
_cell_angle_beta 90.000000
_cell_angle_gamma 90.000000
_cell_volume 3353.079191
_symmetry_space_group_name_H-M "P B A M"
_symmetry_group_IT_number 55
_symmetry_cell_setting 'orthorhombic'
loop_
_space_group_symop_operation_xyz
x,y,z
-x,-y,z
1/2+x,1/2-y,-z
1/2-x,1/2+y,-z
-x,-y,-z
x,y,-z
1/2-x,1/2+y,z
1/2+x,1/2-y,z
loop_
_atom_site_type_symbol
_atom_site_label
_atom_site_fract_x
_atom_site_fract_y
_atom_site_fract_z
Si Si1 0.590077 0.197266 0.204574
Si Si2 0.321151 0.915551 0.798600
Si Si3 0.558531 0.836751 0.705429
Si Si4 0.571309 0.474189 0.294377
Si Si5 0.952259 0.832840 0.202249
Si Si6 0.327561 0.419800 0.297807
Si Si7 0.927071 0.478310 0.706017
Si Si8 0.098033 0.799069 0.699539
O O1 0.645610 0.149525 0.271422
O O2 0.518400 0.169652 0.250177
O O3 0.588938 0.271003 0.261935
O O4 0.595302 0.197352 0.000000
O O5 0.249357 0.928605 0.726991
O O6 0.372189 0.972487 0.765252
O O7 0.313431 0.908418 0.000000
O O8 0.562742 0.835864 0.500000
O O9 0.583978 0.905429 0.764135
O O10 0.593780 0.772654 0.772562
O O11 0.500000 0.500000 0.237376
O O12 0.571064 0.474479 0.500000
O O13 0.578808 0.401114 0.239357
O O14 0.627821 0.522047 0.231693
O O15 0.024410 0.827587 0.285118
O O16 0.962065 0.826563 0.000000
O O17 0.340623 0.417576 0.500000
O O18 0.353004 0.351866 0.226266
O O19 0.926929 0.478986 0.500000
O O20 0.000000 0.500000 0.761425
O O21 0.113771 0.791594 0.500000
#
# Coordination Sequence:
#
# PCOD9425542 Si02
#       8
#     8   8   8   8   8   8   8   8
#     4   9  19  34  50  74 108 141 173 215 265 314
#     4  11  23  37  54  76 107 147 184 220 267 327
#     4   9  17  30  54  82 106 132 173 223 264 310
#     4  10  19  35  56  80 108 140 177 221 272 321
#     4  10  19  31  52  81 109 136 172 220 265 312
#     4  10  21  37  56  76 105 142 179 223 270 322
#     4  10  19  33  54  83 112 140 177 225 271 315
#     4   9  17  33  54  77 104 138 175 217 267 317
#
# _framework density 19.086932000000001
#
# number of rings (size 3 to 8) (size 9 to 14) (size 15 to 20)
#    0.000    2.250    2.500    0.750    0.000    3.000 
#    0.000    1.250    0.000    4.500    0.000    0.000 
#    0.000    0.000    0.000    0.000    0.000    0.000 
#
# Total GULP energy -356984.750502 kJ/mol
# GULP energy per Si atom -5577.886727 kJ/mol
# Density = 1.904349 g / cm^3
# Si number density = 19.086932 Si / 1000 Ang^3
#
#
#
# Elastic Constant Matrix: (Units=GPa)
#
#
# Indices 1 2 3 4 5 6 
#
# 1 89.5914 62.6592 -8.4785 0.0000 0.0000 0.0000
# 2 62.6592 155.4986 -0.2727 0.0000 0.0000 0.0000
# 3 -8.4785 -0.2727 16.3153 0.0000 0.0000 0.0000
# 4 0.0000 0.0000 0.0000 15.3376 0.0000 0.0000
# 5 0.0000 0.0000 0.0000 0.0000 46.3281 0.0000
# 6 0.0000 0.0000 0.0000 0.0000 0.0000 26.5862
#
#
#
# Elastic Compliance Matrix: (Units=1/GPa)
#
#
# Indices 1 2 3 4 5 6 
#
# 1 0.016653 -0.006695 0.008542 0.000000 0.000000 0.000000
# 2 -0.006695 0.009123 -0.003327 0.000000 0.000000 0.000000
# 3 0.008542 -0.003327 0.065676 0.000000 0.000000 0.000000
# 4 0.000000 0.000000 0.000000 0.065199 0.000000 0.000000
# 5 0.000000 0.000000 0.000000 0.000000 0.021585 0.000000
# 6 0.000000 0.000000 0.000000 0.000000 0.000000 0.037613
#
#
# Mechanical properties :
#
#
# Convention : Reuss Voigt Hill
#
# Bulk Modulus (GPa) = 11.30057 41.02458 26.16258
# Shear Modulus (GPa) = 20.13635 31.48354 25.80995
#
# Velocity S-wave (km/s) = 3.25157 4.06579 3.68126
# Velocity P-wave (km/s) = 4.47553 6.60159 5.63966
#
# Compressibility (1/GPa) = 0.08849108
#
# Stress axis : x y z
#
# Youngs Moduli (GPa) = 60.04981 109.61253 15.22634
#
# Poissons Ratio (x) = 0.73390 -0.13006
# Poissons Ratio (y) = 0.40206 0.05066
# Poissons Ratio (z) = -0.51295 0.36467
#
# Static dielectric constant tensor:
#      x y z
#    x 1.622430 0.000000 0.000000 
#    y 0.000000 1.705630 0.000000 
#    z 0.000000 0.000000 1.693550 
# 
# From -- ./inp_files/7948.got.cif
#   From: 2010.05.17/outbox.cif.g08.bks.cpg/sg55_4_cif.got.tgz:7948.got - 2010.06.03 13:27:54.
