data_PCOD9425332
_publ_section_title
;
Structure prediction by ZEFSAII (Michael W. Deem and Ramdas Pophale) SiO2 
 PCOD9425332
Probable space group: P B A M
;
_chemical_formula_sum "Si O2"
_cell_formula_units_Z 36
_cell_length_a 10.093374
_cell_length_b 17.009103
_cell_length_c 7.817053
_cell_angle_alpha 90.000000
_cell_angle_beta 90.000000
_cell_angle_gamma 90.000000
_cell_volume 1342.025702
_symmetry_space_group_name_H-M "P B A M"
_symmetry_group_IT_number 55
_symmetry_cell_setting 'orthorhombic'
loop_
_space_group_symop_operation_xyz
x,y,z
-x,-y,z
1/2+x,1/2-y,-z
1/2-x,1/2+y,-z
-x,-y,-z
x,y,-z
1/2-x,1/2+y,z
1/2+x,1/2-y,z
loop_
_atom_site_type_symbol
_atom_site_label
_atom_site_fract_x
_atom_site_fract_y
_atom_site_fract_z
Si Si1 0.300195 0.265692 0.500000
Si Si2 0.860899 0.784703 0.818209
Si Si3 0.709489 0.996660 0.295868
Si Si4 0.514000 0.867632 0.293929
Si Si5 0.947177 0.097192 0.691719
O O1 0.227555 0.216364 0.651051
O O2 0.350496 0.329764 0.354178
O O3 0.963051 0.711047 0.793720
O O4 0.943754 0.864773 0.809732
O O5 0.792418 0.774959 0.000000
O O6 0.716764 0.984223 0.500000
O O7 0.604880 0.068850 0.280798
O O8 0.852423 0.028316 0.240184
O O9 0.637814 0.918636 0.226715
O O10 0.531461 0.843490 0.500000
O O11 0.001404 0.079670 0.500000
#
# Coordination Sequence:
#
# PCOD9425332 Si02
#       5
#     4   8   8   8   8
#     4  10  18  38  51  66 107 140 166 212 254 298
#     4  12  21  31  51  79 103 136 174 207 250 305
#     4   8  13  25  50  74  94 134 167 198 248 312
#     4   9  14  28  49  70 103 133 162 198 255 308
#     4   9  17  32  52  72 101 136 173 206 248 294
#
# _framework density 26.825119999999998
#
# number of rings (size 3 to 8) (size 9 to 14) (size 15 to 20)
#    0.667    1.778    4.444    1.333    0.000    0.889 
#    0.000    3.333    0.000    0.000    0.000    3.111 
#    0.000    3.556    0.000    0.000    0.000    0.000 
#
# Total GULP energy -200418.158576 kJ/mol
# GULP energy per Si atom -5567.171072 kJ/mol
# Density = 2.676406 g / cm^3
# Si number density = 26.825120 Si / 1000 Ang^3
#
#
#
# Elastic Constant Matrix: (Units=GPa)
#
#
# Indices 1 2 3 4 5 6 
#
# 1 79.9884 34.1770 28.4567 0.0000 0.0000 0.0000
# 2 34.1770 292.4739 6.5703 0.0000 0.0000 0.0000
# 3 28.4567 6.5703 148.5144 0.0000 0.0000 0.0000
# 4 0.0000 0.0000 0.0000 2.6944 0.0000 0.0000
# 5 0.0000 0.0000 0.0000 0.0000 7.9810 0.0000
# 6 0.0000 0.0000 0.0000 0.0000 0.0000 37.7559
#
#
#
# Elastic Compliance Matrix: (Units=1/GPa)
#
#
# Indices 1 2 3 4 5 6 
#
# 1 0.014119 -0.001591 -0.002635 0.000000 0.000000 0.000000
# 2 -0.001591 0.003602 0.000145 0.000000 0.000000 0.000000
# 3 -0.002635 0.000145 0.007232 0.000000 0.000000 0.000000
# 4 0.000000 0.000000 0.000000 0.371144 0.000000 0.000000
# 5 0.000000 0.000000 0.000000 0.000000 0.125297 0.000000
# 6 0.000000 0.000000 0.000000 0.000000 0.000000 0.026486
#
#
# Mechanical properties :
#
#
# Convention : Reuss Voigt Hill
#
# Bulk Modulus (GPa) = 59.55187 73.26495 66.40841
# Shear Modulus (GPa) = 8.90255 39.80445 24.35350
#
# Velocity S-wave (km/s) = 1.82372 3.85626 3.01634
# Velocity P-wave (km/s) = 5.16554 6.87015 6.07790
#
# Compressibility (1/GPa) = 0.01679208
#
# Stress axis : x y z
#
# Youngs Moduli (GPa) = 70.82724 277.64528 138.27825
#
# Poissons Ratio (x) = 0.44164 0.36435
# Poissons Ratio (y) = 0.11266 -0.02011
# Poissons Ratio (z) = 0.18662 -0.04038
#
# Static dielectric constant tensor:
#      x y z
#    x 2.098850 0.000000 0.000000 
#    y 0.000000 0.469140 0.000000 
#    z 0.000000 0.000000 2.016480 
# 
# From -- ./inp_files/3796.got.cif
#   From: 2010.05.17/outbox.cif.g08.bks.cpg/sg55_2_cif.got.tgz:3796.got - 2010.06.03 13:27:54.
