data_PCOD9425838
_publ_section_title
;
Structure prediction by ZEFSAII (Michael W. Deem and Ramdas Pophale) SiO2 
 PCOD9425838
Probable space group: P B A M
;
_chemical_formula_sum "Si O2"
_cell_formula_units_Z 64
_cell_length_a 10.676773
_cell_length_b 34.080773
_cell_length_c 8.974771
_cell_angle_alpha 90.000000
_cell_angle_beta 90.000000
_cell_angle_gamma 90.000000
_cell_volume 3265.673949
_symmetry_space_group_name_H-M "P B A M"
_symmetry_group_IT_number 55
_symmetry_cell_setting 'orthorhombic'
loop_
_space_group_symop_operation_xyz
x,y,z
-x,-y,z
1/2+x,1/2-y,-z
1/2-x,1/2+y,-z
-x,-y,-z
x,y,-z
1/2-x,1/2+y,z
1/2+x,1/2-y,z
loop_
_atom_site_type_symbol
_atom_site_label
_atom_site_fract_x
_atom_site_fract_y
_atom_site_fract_z
Si Si1 0.717478 0.834104 0.320159
Si Si2 0.646402 0.494995 0.164751
Si Si3 0.692154 0.663132 0.819614
Si Si4 0.236879 0.079686 0.331574
Si Si5 0.753529 0.576172 0.820879
Si Si6 0.466168 0.800358 0.820996
Si Si7 0.968416 0.785768 0.678733
Si Si8 0.985621 0.545172 0.670447
O O1 0.698772 0.836056 0.500000
O O2 0.764038 0.876796 0.267144
O O3 0.586056 0.823043 0.245504
O O4 0.831151 0.804209 0.290685
O O5 0.500000 0.500000 0.150249
O O6 0.668095 0.454607 0.246793
O O7 0.696089 0.535170 0.237163
O O8 0.705539 0.491899 0.000000
O O9 0.693803 0.617277 0.771911
O O10 0.830454 0.680627 0.784069
O O11 0.580291 0.687292 0.743540
O O12 0.677599 0.665103 0.000000
O O13 0.188078 0.081907 0.500000
O O14 0.379884 0.065123 0.334813
O O15 0.896329 0.571746 0.770274
O O16 0.742915 0.575994 0.000000
O O17 0.473039 0.756775 0.753733
O O18 0.475900 0.799319 0.000000
O O19 0.982974 0.782659 0.500000
O O20 0.936389 0.542951 0.500000
O O21 0.000000 0.500000 0.724233
#
# Coordination Sequence:
#
# PCOD9425838 Si02
#       8
#     8   8   8   8   8   8   8   8
#     4  10  23  41  62  91 124 159 201 249 299 356
#     4  10  22  37  54  80 114 156 201 241 290 345
#     4  10  23  41  62  91 124 158 201 250 299 356
#     4  10  21  38  58  83 117 153 194 243 290 342
#     4  10  21  37  57  83 117 153 194 244 290 342
#     4  11  23  41  65  92 120 154 197 241 298 364
#     4  11  24  41  63  91 121 155 197 242 298 363
#     4  10  19  33  54  81 111 147 193 240 291 345
#
# _framework density 19.597791999999998
#
# number of rings (size 3 to 8) (size 9 to 14) (size 15 to 20)
#    0.000    1.750    1.250    2.250    1.750    6.000 
#    0.000    0.000    0.000    0.000    0.000    0.000 
#    0.000    0.000    0.000    0.000    0.000    0.000 
#
# Total GULP energy -357197.167588 kJ/mol
# GULP energy per Si atom -5581.205744 kJ/mol
# Density = 1.955319 g / cm^3
# Si number density = 19.597792 Si / 1000 Ang^3
#
#
#
# Elastic Constant Matrix: (Units=GPa)
#
#
# Indices 1 2 3 4 5 6 
#
# 1 57.1613 -3.9913 19.9509 0.0000 0.0000 0.0000
# 2 -3.9913 95.6917 23.2687 0.0000 0.0000 0.0000
# 3 19.9509 23.2687 27.3878 0.0000 0.0000 0.0000
# 4 0.0000 0.0000 0.0000 109.1753 0.0000 0.0000
# 5 0.0000 0.0000 0.0000 0.0000 16.8826 0.0000
# 6 0.0000 0.0000 0.0000 0.0000 0.0000 -17.0027
#
#
#
# Elastic Compliance Matrix: (Units=1/GPa)
#
#
# Indices 1 2 3 4 5 6 
#
# 1 0.027136 0.007485 -0.026126 0.000000 0.000000 0.000000
# 2 0.007485 0.015236 -0.018397 0.000000 0.000000 0.000000
# 3 -0.026126 -0.018397 0.071175 0.000000 0.000000 0.000000
# 4 0.000000 0.000000 0.000000 0.009160 0.000000 0.000000
# 5 0.000000 0.000000 0.000000 0.000000 0.059232 0.000000
# 6 0.000000 0.000000 0.000000 0.000000 0.000000 -0.058814
#
#
# Mechanical properties :
#
#
# Convention : Reuss Voigt Hill
#
# Bulk Modulus (GPa) = 25.33604 28.74415 27.04009
# Shear Modulus (GPa) = 23.76910 31.21189 27.49050
#
# Velocity S-wave (km/s) = 3.48637 3.99510 3.74937
# Velocity P-wave (km/s) = 5.40023 5.99833 5.70712
#
# Compressibility (1/GPa) = 0.03946947
#
# Stress axis : x y z
#
# Youngs Moduli (GPa) = 36.85167 65.63479 14.04997
#
# Poissons Ratio (x) = -0.49126 0.36708
# Poissons Ratio (y) = -0.27583 0.25847
# Poissons Ratio (z) = 0.96280 1.20747
#
# Static dielectric constant tensor:
#      x y z
#    x 1.689590 0.000000 0.000000 
#    y 0.000000 1.739570 0.000000 
#    z 0.000000 0.000000 1.713340 
# 
# From -- ./inp_files/4708.got.cif
#   From: 2010.05.17/outbox.cif.g08.bks.cpg/sg55_3_cif.got.tgz:4708.got - 2010.06.03 13:27:54.
