data_PCOD9425222
_publ_section_title
;
Structure prediction by ZEFSAII (Michael W. Deem and Ramdas Pophale) SiO2 
 PCOD9425222
Probable space group: P B A M
;
_chemical_formula_sum "Si O2"
_cell_formula_units_Z 56
_cell_length_a 19.583163
_cell_length_b 15.803364
_cell_length_c 7.622551
_cell_angle_alpha 90.000000
_cell_angle_beta 90.000000
_cell_angle_gamma 90.000000
_cell_volume 2359.025964
_symmetry_space_group_name_H-M "P B A M"
_symmetry_group_IT_number 55
_symmetry_cell_setting 'orthorhombic'
loop_
_space_group_symop_operation_xyz
x,y,z
-x,-y,z
1/2+x,1/2-y,-z
1/2-x,1/2+y,-z
-x,-y,-z
x,y,-z
1/2-x,1/2+y,z
1/2+x,1/2-y,z
loop_
_atom_site_type_symbol
_atom_site_label
_atom_site_fract_x
_atom_site_fract_y
_atom_site_fract_z
Si Si1 0.360873 0.345029 0.708333
Si Si2 0.109817 0.499244 0.199929
Si Si3 0.574234 0.817640 0.211500
Si Si4 0.079974 0.312678 0.215342
Si Si5 0.262262 0.492129 0.703937
Si Si6 0.993639 0.899765 0.295954
Si Si7 0.847300 0.845350 0.196946
O O1 0.363817 0.361679 0.500000
O O2 0.363667 0.244102 0.733509
O O3 0.304018 0.410263 0.774115
O O4 0.434884 0.369552 0.782677
O O5 0.083595 0.586850 0.279188
O O6 0.090713 0.408462 0.277266
O O7 0.191412 0.503785 0.199043
O O8 0.083425 0.497172 0.000000
O O9 0.497800 0.788231 0.265271
O O10 0.575428 0.819802 0.000000
O O11 0.139831 0.248488 0.275400
O O12 0.083274 0.310978 0.000000
O O13 0.246210 0.476648 0.500000
O O14 0.306165 0.578551 0.714701
O O15 0.985514 0.872282 0.500000
O O16 0.925965 0.875476 0.194162
O O17 0.000000 0.000000 0.300394
O O18 0.819517 0.837034 0.000000
#
# Coordination Sequence:
#
# PCOD9425222 Si02
#       7
#     8   8   8   8   8   8   8
#     4  10  21  36  57  84 117 155 191 232 285 345
#     4  10  22  41  62  83 113 154 197 239 286 340
#     4  10  20  37  63  91 115 145 189 244 296 339
#     4   9  19  37  61  89 117 146 186 238 293 345
#     4  11  24  42  58  80 119 161 196 229 283 349
#     4  10  18  33  54  80 117 156 190 230 287 344
#     4  11  21  34  58  91 120 146 188 238 289 343
#
# _framework density 23.738612
#
# number of rings (size 3 to 8) (size 9 to 14) (size 15 to 20)
#    0.000    1.857    2.857    1.286    0.000    4.857 
#    0.000    6.429    0.000    1.714    0.000    0.000 
#    0.000    0.000    0.000    0.000    0.000    0.000 
#
# Total GULP energy -312597.844413 kJ/mol
# GULP energy per Si atom -5582.104365 kJ/mol
# Density = 2.368458 g / cm^3
# Si number density = 23.738612 Si / 1000 Ang^3
#
#
#
# Elastic Constant Matrix: (Units=GPa)
#
#
# Indices 1 2 3 4 5 6 
#
# 1 68.9232 22.8208 -1.3124 0.0000 0.0000 0.0000
# 2 22.8208 151.8152 2.2420 0.0000 0.0000 0.0000
# 3 -1.3124 2.2420 57.2427 0.0000 0.0000 0.0000
# 4 0.0000 0.0000 0.0000 22.2391 0.0000 0.0000
# 5 0.0000 0.0000 0.0000 0.0000 8.7107 0.0000
# 6 0.0000 0.0000 0.0000 0.0000 0.0000 23.6179
#
#
#
# Elastic Compliance Matrix: (Units=1/GPa)
#
#
# Indices 1 2 3 4 5 6 
#
# 1 0.015280 -0.002303 0.000441 0.000000 0.000000 0.000000
# 2 -0.002303 0.006938 -0.000325 0.000000 0.000000 0.000000
# 3 0.000441 -0.000325 0.017492 0.000000 0.000000 0.000000
# 4 0.000000 0.000000 0.000000 0.044966 0.000000 0.000000
# 5 0.000000 0.000000 0.000000 0.000000 0.114801 0.000000
# 6 0.000000 0.000000 0.000000 0.000000 0.000000 0.042341
#
#
# Mechanical properties :
#
#
# Convention : Reuss Voigt Hill
#
# Bulk Modulus (GPa) = 28.30019 36.16465 32.23242
# Shear Modulus (GPa) = 19.38200 27.86225 23.62213
#
# Velocity S-wave (km/s) = 2.86050 3.42966 3.15793
# Velocity P-wave (km/s) = 4.78095 5.56337 5.18693
#
# Compressibility (1/GPa) = 0.03533545
#
# Stress axis : x y z
#
# Youngs Moduli (GPa) = 65.44520 144.13389 57.16804
#
# Poissons Ratio (x) = 0.33200 -0.02518
# Poissons Ratio (y) = 0.15075 0.01855
# Poissons Ratio (z) = -0.02883 0.04678
#
# Static dielectric constant tensor:
#      x y z
#    x 1.861190 0.000000 0.000000 
#    y 0.000000 2.013860 0.000000 
#    z 0.000000 0.000000 1.912280 
# 
# From -- ./inp_files/8716.got.cif
#   From: 2010.05.17/outbox.cif.g08.bks.cpg/sg55_5_cif.got.tgz:8716.got - 2010.06.03 13:27:54.
