data_PCOD9425903
_publ_section_title
;
Structure prediction by ZEFSAII (Michael W. Deem and Ramdas Pophale) SiO2 
 PCOD9425903
Probable space group: P B A M
;
_chemical_formula_sum "Si O2"
_cell_formula_units_Z 48
_cell_length_a 5.343465
_cell_length_b 16.636620
_cell_length_c 25.609951
_cell_angle_alpha 90.000000
_cell_angle_beta 90.000000
_cell_angle_gamma 90.000000
_cell_volume 2276.652851
_symmetry_space_group_name_H-M "P B A M"
_symmetry_group_IT_number 55
_symmetry_cell_setting 'orthorhombic'
loop_
_space_group_symop_operation_xyz
x,y,z
-x,-y,z
1/2+x,1/2-y,-z
1/2-x,1/2+y,-z
-x,-y,-z
x,y,-z
1/2-x,1/2+y,z
1/2+x,1/2-y,z
loop_
_atom_site_type_symbol
_atom_site_label
_atom_site_fract_x
_atom_site_fract_y
_atom_site_fract_z
Si Si1 0.750357 0.945671 0.944329
Si Si2 0.249862 0.553104 0.826284
Si Si3 0.991031 0.401739 0.439996
Si Si4 0.821220 0.207880 0.298929
Si Si5 0.290884 0.227039 0.185211
Si Si6 0.509928 0.596032 0.381554
O O1 0.500000 0.000000 0.944584
O O2 0.755677 0.911376 0.885876
O O3 0.748025 0.899408 0.000000
O O4 0.000000 0.000000 0.945518
O O5 0.500000 0.500000 0.817903
O O6 0.000000 0.500000 0.819877
O O7 0.228616 0.635716 0.794776
O O8 0.955903 0.377169 0.500000
O O9 0.755016 0.376067 0.404882
O O10 0.000000 0.500000 0.439265
O O11 0.259098 0.375522 0.417643
O O12 0.041629 0.269173 0.316154
O O13 0.809231 0.215439 0.236315
O O14 0.917651 0.126098 0.324014
O O15 0.046656 0.256413 0.155592
O O16 0.500000 0.500000 0.382135
#
# Coordination Sequence:
#
# PCOD9425903 Si02
#       6
#     8   8   8   8   8   8
#     4   8  14  25  44  73 106 137 173 223 276 318
#     4  10  19  33  56  83 108 140 189 236 269 322
#     4   9  17  30  52  83 111 132 162 211 262 301
#     4  10  21  38  55  73 102 142 175 211 269 319
#     4  10  21  38  56  77 108 147 182 222 288 341
#     4  10  19  33  56  80 102 134 177 214 246 305
#
# _framework density 21.083583000000001
#
# number of rings (size 3 to 8) (size 9 to 14) (size 15 to 20)
#    0.000    2.500    0.000    2.500    0.000    2.000 
#    0.000   10.000    0.000   11.000    0.000    0.000 
#    0.000    0.000    0.000    0.000    0.000    0.000 
#
# Total GULP energy -267220.158610 kJ/mol
# GULP energy per Si atom -5567.086638 kJ/mol
# Density = 2.103560 g / cm^3
# Si number density = 21.083583 Si / 1000 Ang^3
#
#
#
# Elastic Constant Matrix: (Units=GPa)
#
#
# Indices 1 2 3 4 5 6 
#
# 1 190.7731 34.4803 5.8208 0.0000 0.0000 0.0000
# 2 34.4803 36.0546 -2.4323 0.0000 0.0000 0.0000
# 3 5.8208 -2.4323 45.2332 0.0000 0.0000 0.0000
# 4 0.0000 0.0000 0.0000 3.7908 0.0000 0.0000
# 5 0.0000 0.0000 0.0000 0.0000 17.9150 0.0000
# 6 0.0000 0.0000 0.0000 0.0000 0.0000 27.0604
#
#
#
# Elastic Compliance Matrix: (Units=1/GPa)
#
#
# Indices 1 2 3 4 5 6 
#
# 1 0.006397 -0.006196 -0.001156 0.000000 0.000000 0.000000
# 2 -0.006196 0.033837 0.002617 0.000000 0.000000 0.000000
# 3 -0.001156 0.002617 0.022397 0.000000 0.000000 0.000000
# 4 0.000000 0.000000 0.000000 0.263797 0.000000 0.000000
# 5 0.000000 0.000000 0.000000 0.000000 0.055819 0.000000
# 6 0.000000 0.000000 0.000000 0.000000 0.000000 0.036954
#
#
# Mechanical properties :
#
#
# Convention : Reuss Voigt Hill
#
# Bulk Modulus (GPa) = 18.81072 38.64428 28.72750
# Shear Modulus (GPa) = 11.20090 25.36605 18.28347
#
# Velocity S-wave (km/s) = 2.30741 3.47236 2.94800
# Velocity P-wave (km/s) = 4.00502 5.86901 5.02422
#
# Compressibility (1/GPa) = 0.05316118
#
# Stress axis : x y z
#
# Youngs Moduli (GPa) = 156.32562 29.55315 44.64851
#
# Poissons Ratio (x) = 0.18310 0.05163
# Poissons Ratio (y) = 0.96853 -0.11684
# Poissons Ratio (z) = 0.18077 -0.07734
#
# Static dielectric constant tensor:
#      x y z
#    x 1.835260 0.000000 0.000000 
#    y 0.000000 1.759250 0.000000 
#    z 0.000000 0.000000 1.832600 
# 
# From -- ./inp_files/23834.got.cif
#   From: 2010.05.17/outbox.cif.g08.bks.cpg/sg55_12_cif.got.tgz:23834.got - 2010.06.03 13:27:54.
