data_PCOD9425499
_publ_section_title
;
Structure prediction by ZEFSAII (Michael W. Deem and Ramdas Pophale) SiO2 
 PCOD9425499
Probable space group: P B A M
;
_chemical_formula_sum "Si O2"
_cell_formula_units_Z 64
_cell_length_a 19.332439
_cell_length_b 14.673869
_cell_length_c 12.862855
_cell_angle_alpha 90.000000
_cell_angle_beta 90.000000
_cell_angle_gamma 90.000000
_cell_volume 3648.956282
_symmetry_space_group_name_H-M "P B A M"
_symmetry_group_IT_number 55
_symmetry_cell_setting 'orthorhombic'
loop_
_space_group_symop_operation_xyz
x,y,z
-x,-y,z
1/2+x,1/2-y,-z
1/2-x,1/2+y,-z
-x,-y,-z
x,y,-z
1/2-x,1/2+y,z
1/2+x,1/2-y,z
loop_
_atom_site_type_symbol
_atom_site_label
_atom_site_fract_x
_atom_site_fract_y
_atom_site_fract_z
Si Si1 0.564853 0.068895 0.378364
Si Si2 0.458472 0.594321 0.879135
Si Si3 0.335532 0.303747 0.876767
Si Si4 0.064749 0.647695 0.122417
Si Si5 0.049597 0.268415 0.243087
Si Si6 0.809130 0.990725 0.875969
Si Si7 0.336751 0.990406 0.195813
Si Si8 0.678625 0.208887 0.116469
O O1 0.580761 0.061027 0.500000
O O2 0.546462 0.174800 0.349817
O O3 0.500000 0.000000 0.357054
O O4 0.630020 0.040302 0.305867
O O5 0.500000 0.500000 0.866558
O O6 0.479122 0.670035 0.793620
O O7 0.377119 0.571125 0.868561
O O8 0.471807 0.625020 0.000000
O O9 0.389791 0.232046 0.833425
O O10 0.333213 0.407893 0.840174
O O11 0.258007 0.265354 0.866928
O O12 0.349859 0.311088 0.000000
O O13 0.106629 0.557804 0.149390
O O14 0.989058 0.658393 0.169060
O O15 0.059795 0.655173 0.000000
O O16 0.128220 0.259020 0.205975
O O17 0.740277 0.966153 0.811161
O O18 0.791240 0.993128 0.000000
O O19 0.326283 0.900452 0.125960
O O20 0.657695 0.237221 0.000000
#
# Coordination Sequence:
#
# PCOD9425499 Si02
#       8
#     8   8   8   8   8   8   8   8
#     4  10  21  41  60  74  97 131 179 237 295 338
#     4  10  20  33  52  81 120 158 186 211 245 307
#     4   8  16  28  42  63  99 144 176 201 235 287
#     4  11  19  27  43  72 109 140 170 210 255 316
#     4  11  21  32  50  78 101 138 183 219 263 320
#     4   9  17  31  49  73 109 149 181 207 245 307
#     4  10  19  31  49  76  97 133 175 216 271 328
#     4   9  17  29  43  66 103 137 169 206 249 310
#
# _framework density 17.539262999999998
#
# number of rings (size 3 to 8) (size 9 to 14) (size 15 to 20)
#    0.000    2.250    1.250    3.750    1.750    2.000 
#    0.000    1.875    0.000    1.125    0.000   13.125 
#    0.000    0.000    0.000    0.000    0.000    0.000 
#
# Total GULP energy -356328.350638 kJ/mol
# GULP energy per Si atom -5567.630479 kJ/mol
# Density = 1.749934 g / cm^3
# Si number density = 17.539263 Si / 1000 Ang^3
#
#
#
# Elastic Constant Matrix: (Units=GPa)
#
#
# Indices 1 2 3 4 5 6 
#
# 1 59.8856 17.7610 30.7834 0.0000 0.0000 0.0000
# 2 17.7610 51.4586 10.4015 0.0000 0.0000 0.0000
# 3 30.7834 10.4015 61.6544 0.0000 0.0000 0.0000
# 4 0.0000 0.0000 0.0000 17.1092 0.0000 0.0000
# 5 0.0000 0.0000 0.0000 0.0000 -3.7461 0.0000
# 6 0.0000 0.0000 0.0000 0.0000 0.0000 22.9516
#
#
#
# Elastic Compliance Matrix: (Units=1/GPa)
#
#
# Indices 1 2 3 4 5 6 
#
# 1 0.024191 -0.006117 -0.011046 0.000000 0.000000 0.000000
# 2 -0.006117 0.021666 -0.000601 0.000000 0.000000 0.000000
# 3 -0.011046 -0.000601 0.021836 0.000000 0.000000 0.000000
# 4 0.000000 0.000000 0.000000 0.058448 0.000000 0.000000
# 5 0.000000 0.000000 0.000000 0.000000 -0.266945 0.000000
# 6 0.000000 0.000000 0.000000 0.000000 0.000000 0.043570
#
#
# Mechanical properties :
#
#
# Convention : Reuss Voigt Hill
#
# Bulk Modulus (GPa) = 31.09019 32.32115 31.70567
# Shear Modulus (GPa) = -98.06852 14.86647 -41.60103
#
# Velocity S-wave (km/s) = -7.48566 2.91453 -4.87548
# Velocity P-wave (km/s) = 7.54645 5.45838 3.68477
#
# Compressibility (1/GPa) = 0.03216449
#
# Stress axis : x y z
#
# Youngs Moduli (GPa) = 41.33801 46.15576 45.79556
#
# Poissons Ratio (x) = 0.28232 0.50587
# Poissons Ratio (y) = 0.25285 0.02753
# Poissons Ratio (z) = 0.45663 0.02775
#
# Static dielectric constant tensor:
#      x y z
#    x 1.660750 0.000000 0.000000 
#    y 0.000000 1.694460 0.000000 
#    z 0.000000 0.000000 1.552300 
# 
# From -- ./inp_files/19589.got.cif
#   From: 2010.05.17/outbox.cif.g08.bks.cpg/sg55_10_cif.got.tgz:19589.got - 2010.06.03 13:27:54.
