data_PCOD9425661
_publ_section_title
;
Structure prediction by ZEFSAII (Michael W. Deem and Ramdas Pophale) SiO2 
 PCOD9425661
Probable space group: P B A M
;
_chemical_formula_sum "Si O2"
_cell_formula_units_Z 52
_cell_length_a 14.769960
_cell_length_b 9.151412
_cell_length_c 19.914458
_cell_angle_alpha 90.000000
_cell_angle_beta 90.000000
_cell_angle_gamma 90.000000
_cell_volume 2691.757415
_symmetry_space_group_name_H-M "P B A M"
_symmetry_group_IT_number 55
_symmetry_cell_setting 'orthorhombic'
loop_
_space_group_symop_operation_xyz
x,y,z
-x,-y,z
1/2+x,1/2-y,-z
1/2-x,1/2+y,-z
-x,-y,-z
x,y,-z
1/2-x,1/2+y,z
1/2+x,1/2-y,z
loop_
_atom_site_type_symbol
_atom_site_label
_atom_site_fract_x
_atom_site_fract_y
_atom_site_fract_z
Si Si1 0.694298 0.809416 0.608962
Si Si2 0.437067 0.298862 0.500000
Si Si3 0.500000 0.500000 0.180436
Si Si4 0.229903 0.438647 0.703184
Si Si5 0.269290 0.620776 0.075967
Si Si6 0.625959 0.663136 0.924587
Si Si7 0.346361 0.677966 0.783070
Si Si8 0.146858 0.128984 0.500000
O O1 0.607771 0.779120 0.563605
O O2 0.709599 0.672742 0.658923
O O3 0.786226 0.832788 0.563152
O O4 0.680536 0.956309 0.651005
O O5 0.546648 0.296596 0.500000
O O6 0.387487 0.459825 0.500000
O O7 0.438936 0.400548 0.131501
O O8 0.555009 0.387914 0.225254
O O9 0.282987 0.551902 0.750966
O O10 0.170588 0.330678 0.748048
O O11 0.167514 0.677449 0.086828
O O12 0.288373 0.448226 0.077366
O O13 0.326908 0.684453 0.137371
O O14 0.295095 0.667786 0.000000
O O15 0.586709 0.654164 0.000000
#
# Coordination Sequence:
#
# PCOD9425661 Si02
#       8
#     8   4   4   8   8   8   8   4
#     4  10  20  40  62  91 124 158 196 246 296 345
#     4  10  20  37  68  97 124 154 193 250 288 349
#     4  10  19  32  52  80 108 141 188 248 290 342
#     4  10  21  38  59  80 117 165 197 232 284 356
#     4   9  17  31  55  81 103 140 194 245 291 351
#     4   9  17  30  53  80 105 134 179 240 303 355
#     4  10  20  36  58  80 113 154 202 240 294 356
#     4  10  20  37  68  99 120 151 202 239 298 348
#
# _framework density 19.318232999999999
#
# number of rings (size 3 to 8) (size 9 to 14) (size 15 to 20)
#    0.000    2.308    1.538    2.077    0.000    0.615 
#    5.538    1.538    6.769   14.769    0.000   29.077 
#    0.000    0.000    0.000    0.000    0.000    0.000 
#
# Total GULP energy -289559.681049 kJ/mol
# GULP energy per Si atom -5568.455405 kJ/mol
# Density = 1.927426 g / cm^3
# Si number density = 19.318233 Si / 1000 Ang^3
#
#
#
# Elastic Constant Matrix: (Units=GPa)
#
#
# Indices 1 2 3 4 5 6 
#
# 1 86.9036 41.1374 28.4881 0.0000 0.0000 0.0000
# 2 41.1374 102.5104 41.7536 0.0000 0.0000 0.0000
# 3 28.4881 41.7536 78.6457 0.0000 0.0000 0.0000
# 4 0.0000 0.0000 0.0000 29.2994 0.0000 0.0000
# 5 0.0000 0.0000 0.0000 0.0000 -78.3655 0.0000
# 6 0.0000 0.0000 0.0000 0.0000 0.0000 24.4527
#
#
#
# Elastic Compliance Matrix: (Units=1/GPa)
#
#
# Indices 1 2 3 4 5 6 
#
# 1 0.014671 -0.004750 -0.002792 0.000000 0.000000 0.000000
# 2 -0.004750 0.013985 -0.005704 0.000000 0.000000 0.000000
# 3 -0.002792 -0.005704 0.016755 0.000000 0.000000 0.000000
# 4 0.000000 0.000000 0.000000 0.034130 0.000000 0.000000
# 5 0.000000 0.000000 0.000000 0.000000 -0.012761 0.000000
# 6 0.000000 0.000000 0.000000 0.000000 0.000000 0.040895
#
#
# Mechanical properties :
#
#
# Convention : Reuss Voigt Hill
#
# Bulk Modulus (GPa) = 52.86051 54.53532 53.69792
# Shear Modulus (GPa) = 35.59375 5.52270 20.55823
#
# Velocity S-wave (km/s) = 4.29709 1.69263 3.26573
# Velocity P-wave (km/s) = 7.21404 5.66668 6.48666
#
# Compressibility (1/GPa) = 0.01891771
#
# Stress axis : x y z
#
# Youngs Moduli (GPa) = 68.16199 71.50751 59.68366
#
# Poissons Ratio (x) = 0.33966 0.16666
# Poissons Ratio (y) = 0.32377 0.34043
# Poissons Ratio (z) = 0.19034 0.40787
#
# Static dielectric constant tensor:
#      x y z
#    x 1.684370 0.000000 0.000000 
#    y 0.000000 1.682660 0.000000 
#    z 0.000000 0.000000 1.711350 
# 
# From -- ./inp_files/22945.got.cif
#   From: 2010.05.17/outbox.cif.g08.bks.cpg/sg55_12_cif.got.tgz:22945.got - 2010.06.03 13:27:54.
