data_PCOD9425299
_publ_section_title
;
Structure prediction by ZEFSAII (Michael W. Deem and Ramdas Pophale) SiO2 
 PCOD9425299
Probable space group: P B A M
;
_chemical_formula_sum "Si O2"
_cell_formula_units_Z 44
_cell_length_a 7.477514
_cell_length_b 18.453762
_cell_length_c 13.856890
_cell_angle_alpha 90.000000
_cell_angle_beta 90.000000
_cell_angle_gamma 90.000000
_cell_volume 1912.088191
_symmetry_space_group_name_H-M "P B A M"
_symmetry_group_IT_number 55
_symmetry_cell_setting 'orthorhombic'
loop_
_space_group_symop_operation_xyz
x,y,z
-x,-y,z
1/2+x,1/2-y,-z
1/2-x,1/2+y,-z
-x,-y,-z
x,y,-z
1/2-x,1/2+y,z
1/2+x,1/2-y,z
loop_
_atom_site_type_symbol
_atom_site_label
_atom_site_fract_x
_atom_site_fract_y
_atom_site_fract_z
Si Si1 0.113673 0.935403 0.216736
Si Si2 0.732413 0.707505 0.889072
Si Si3 0.455807 0.812312 0.390769
Si Si4 0.500000 0.000000 0.198735
Si Si5 0.400873 0.151229 0.185960
Si Si6 0.462544 0.353708 0.607143
O O1 0.125618 0.859730 0.158524
O O2 0.318707 0.960747 0.240551
O O3 0.003441 0.912822 0.312136
O O4 0.000000 0.000000 0.169328
O O5 0.735335 0.784939 0.835933
O O6 0.932704 0.681257 0.874253
O O7 0.683060 0.715550 0.000000
O O8 0.527135 0.825429 0.500000
O O9 0.562669 0.846648 0.301591
O O10 0.251540 0.838941 0.388617
O O11 0.454273 0.725505 0.376234
O O12 0.603061 0.931613 0.151978
O O13 0.511407 0.377962 0.500000
#
# Coordination Sequence:
#
# PCOD9425299 Si02
#       6
#     8   8   8   4   8   8
#     4  11  24  43  66  92 134 173 216 276 333 391
#     4  11  24  42  65  93 123 169 225 270 328 397
#     4  10  18  34  63  91 122 164 207 260 317 384
#     4  10  24  42  64 100 132 170 214 270 344 384
#     4  11  21  42  64  93 131 166 214 277 323 396
#     4  10  20  37  60  94 131 168 217 264 323 397
#
# _framework density 23.011489999999998
#
# number of rings (size 3 to 8) (size 9 to 14) (size 15 to 20)
#    0.000    1.455    5.455    0.545    2.545    2.182 
#    0.000   13.182    0.000    0.000    0.000    0.000 
#    0.000    0.000    0.000    0.000    0.000    0.000 
#
# Total GULP energy -245224.328265 kJ/mol
# GULP energy per Si atom -5573.280188 kJ/mol
# Density = 2.295912 g / cm^3
# Si number density = 23.011490 Si / 1000 Ang^3
#
#
#
# Elastic Constant Matrix: (Units=GPa)
#
#
# Indices 1 2 3 4 5 6 
#
# 1 46.2867 27.2385 13.0018 0.0000 0.0000 0.0000
# 2 27.2385 143.3734 30.9951 0.0000 0.0000 0.0000
# 3 13.0018 30.9951 95.7520 0.0000 0.0000 0.0000
# 4 0.0000 0.0000 0.0000 -15.6266 0.0000 0.0000
# 5 0.0000 0.0000 0.0000 0.0000 14.3788 0.0000
# 6 0.0000 0.0000 0.0000 0.0000 0.0000 29.9444
#
#
#
# Elastic Compliance Matrix: (Units=1/GPa)
#
#
# Indices 1 2 3 4 5 6 
#
# 1 0.024665 -0.004260 -0.001970 0.000000 0.000000 0.000000
# 2 -0.004260 0.008235 -0.002087 0.000000 0.000000 0.000000
# 3 -0.001970 -0.002087 0.011387 0.000000 0.000000 0.000000
# 4 0.000000 0.000000 0.000000 -0.063994 0.000000 0.000000
# 5 0.000000 0.000000 0.000000 0.000000 0.069547 0.000000
# 6 0.000000 0.000000 0.000000 0.000000 0.000000 0.033395
#
#
# Mechanical properties :
#
#
# Convention : Reuss Voigt Hill
#
# Bulk Modulus (GPa) = 36.16377 47.54254 41.85315
# Shear Modulus (GPa) = 45.83465 20.01777 32.92621
#
# Velocity S-wave (km/s) = 4.46782 2.95261 3.78677
# Velocity P-wave (km/s) = 6.50883 5.68587 6.11122
#
# Compressibility (1/GPa) = 0.02765199
#
# Stress axis : x y z
#
# Youngs Moduli (GPa) = 40.54367 121.42748 87.82056
#
# Poissons Ratio (x) = 0.51728 0.17302
# Poissons Ratio (y) = 0.17271 0.18331
# Poissons Ratio (z) = 0.07988 0.25346
#
# Static dielectric constant tensor:
#      x y z
#    x 1.991500 0.000000 0.000000 
#    y 0.000000 2.127870 0.000000 
#    z 0.000000 0.000000 1.873390 
# 
# From -- ./inp_files/17260.got.cif
#   From: 2010.05.17/outbox.cif.g08.bks.cpg/sg55_9_cif.got.tgz:17260.got - 2010.06.03 13:27:54.
