data_PCOD9425404
_publ_section_title
;
Structure prediction by ZEFSAII (Michael W. Deem and Ramdas Pophale) SiO2 
 PCOD9425404
Probable space group: P B A M
;
_chemical_formula_sum "Si O2"
_cell_formula_units_Z 52
_cell_length_a 14.137142
_cell_length_b 5.028077
_cell_length_c 34.054590
_cell_angle_alpha 90.000000
_cell_angle_beta 90.000000
_cell_angle_gamma 90.000000
_cell_volume 2420.690111
_symmetry_space_group_name_H-M "P B A M"
_symmetry_group_IT_number 55
_symmetry_cell_setting 'orthorhombic'
loop_
_space_group_symop_operation_xyz
x,y,z
-x,-y,z
1/2+x,1/2-y,-z
1/2-x,1/2+y,-z
-x,-y,-z
x,y,-z
1/2-x,1/2+y,z
1/2+x,1/2-y,z
loop_
_atom_site_type_symbol
_atom_site_label
_atom_site_fract_x
_atom_site_fract_y
_atom_site_fract_z
Si Si1 0.812361 0.308774 0.710141
Si Si2 0.682654 0.933555 0.042506
Si Si3 0.193570 0.202819 0.500000
Si Si4 0.386970 0.009876 0.627052
Si Si5 0.817196 0.312350 0.124720
Si Si6 0.613525 0.490149 0.417906
Si Si7 0.683402 0.936574 0.792800
O O1 0.720796 0.504295 0.710752
O O2 0.862445 0.385405 0.669969
O O3 0.864929 0.377186 0.751052
O O4 0.729301 0.225121 0.043240
O O5 0.630982 0.871909 0.083549
O O6 0.634349 0.896828 0.000000
O O7 0.212834 0.516631 0.500000
O O8 0.142363 0.114781 0.539718
O O9 0.353540 0.716480 0.615618
O O10 0.500000 0.000000 0.624654
O O11 0.352560 0.217834 0.594093
O O12 0.727847 0.518748 0.124697
O O13 0.867623 0.372409 0.166104
O O14 0.500000 0.500000 0.417184
O O15 0.773167 0.731626 0.793071
#
# Coordination Sequence:
#
# PCOD9425404 Si02
#       7
#     8   8   4   8   8   8   8
#     4  10  19  30  47  69  92 117 146 184 224 260
#     4   8  12  16  22  33  49  73 108 148 187 226
#     4  12  25  38  57  84 106 124 154 194 225 252
#     4  10  21  36  54  74  96 125 157 185 218 262
#     4   8  12  18  27  38  57  84 114 151 191 235
#     4  10  22  40  57  73  99 132 157 179 217 268
#     4   8  14  23  34  51  73  98 128 161 203 250
#
# _framework density 21.481475
#
# number of rings (size 3 to 8) (size 9 to 14) (size 15 to 20)
#    0.000    2.769    0.000    2.077    0.000    3.692 
#    0.000    3.077    0.000    0.000    0.000    0.000 
#    0.000    0.000    0.000    0.000    0.000    0.769 
#
# Total GULP energy -289772.190665 kJ/mol
# GULP energy per Si atom -5572.542128 kJ/mol
# Density = 2.143258 g / cm^3
# Si number density = 21.481475 Si / 1000 Ang^3
#
#
#
# Elastic Constant Matrix: (Units=GPa)
#
#
# Indices 1 2 3 4 5 6 
#
# 1 23.7481 -5.1053 -6.3519 0.0000 0.0000 0.0000
# 2 -5.1053 90.7785 3.0820 0.0000 0.0000 0.0000
# 3 -6.3519 3.0820 158.9636 0.0000 0.0000 0.0000
# 4 0.0000 0.0000 0.0000 33.6891 0.0000 0.0000
# 5 0.0000 0.0000 0.0000 0.0000 -7.1825 0.0000
# 6 0.0000 0.0000 0.0000 0.0000 0.0000 11.0953
#
#
#
# Elastic Compliance Matrix: (Units=1/GPa)
#
#
# Indices 1 2 3 4 5 6 
#
# 1 0.043065 0.002365 0.001675 0.000000 0.000000 0.000000
# 2 0.002365 0.011153 -0.000122 0.000000 0.000000 0.000000
# 3 0.001675 -0.000122 0.006360 0.000000 0.000000 0.000000
# 4 0.000000 0.000000 0.000000 0.029683 0.000000 0.000000
# 5 0.000000 0.000000 0.000000 0.000000 -0.139228 0.000000
# 6 0.000000 0.000000 0.000000 0.000000 0.000000 0.090128
#
#
# Mechanical properties :
#
#
# Convention : Reuss Voigt Hill
#
# Bulk Modulus (GPa) = 14.61674 28.52665 21.57169
# Shear Modulus (GPa) = 89.07931 26.31142 57.69536
#
# Velocity S-wave (km/s) = 6.44655 3.50357 5.18811
# Velocity P-wave (km/s) = 7.88858 5.44749 6.77882
#
# Compressibility (1/GPa) = 0.06841473
#
# Stress axis : x y z
#
# Youngs Moduli (GPa) = 23.22065 89.66219 157.23178
#
# Poissons Ratio (x) = -0.21206 -0.26335
# Poissons Ratio (y) = -0.05492 0.01914
# Poissons Ratio (z) = -0.03889 0.01091
#
# Static dielectric constant tensor:
#      x y z
#    x 1.751160 0.000000 0.000000 
#    y 0.000000 1.759750 0.000000 
#    z 0.000000 0.000000 1.894910 
# 
# From -- ./inp_files/24211.got.cif
#   From: 2010.05.17/outbox.cif.g08.bks.cpg/sg55_13_cif.got.tgz:24211.got - 2010.06.03 13:27:54.
