data_PCOD9425614
_publ_section_title
;
Structure prediction by ZEFSAII (Michael W. Deem and Ramdas Pophale) SiO2 
 PCOD9425614
Probable space group: P B A M
;
_chemical_formula_sum "Si O2"
_cell_formula_units_Z 64
_cell_length_a 20.563476
_cell_length_b 18.914654
_cell_length_c 7.475765
_cell_angle_alpha 90.000000
_cell_angle_beta 90.000000
_cell_angle_gamma 90.000000
_cell_volume 2907.706524
_symmetry_space_group_name_H-M "P B A M"
_symmetry_group_IT_number 55
_symmetry_cell_setting 'orthorhombic'
loop_
_space_group_symop_operation_xyz
x,y,z
-x,-y,z
1/2+x,1/2-y,-z
1/2-x,1/2+y,-z
-x,-y,-z
x,y,-z
1/2-x,1/2+y,z
1/2+x,1/2-y,z
loop_
_atom_site_type_symbol
_atom_site_label
_atom_site_fract_x
_atom_site_fract_y
_atom_site_fract_z
Si Si1 0.478976 0.218002 0.719224
Si Si2 0.447424 0.058059 0.718351
Si Si3 0.377181 0.755629 0.292993
Si Si4 0.926821 0.018757 0.216655
Si Si5 0.827840 0.897625 0.210189
Si Si6 0.801815 0.477731 0.715248
Si Si7 0.372632 0.327078 0.291262
Si Si8 0.269353 0.863527 0.279881
O O1 0.477789 0.221538 0.500000
O O2 0.467659 0.136959 0.770631
O O3 0.549902 0.243660 0.781503
O O4 0.421387 0.268769 0.784743
O O5 0.447100 0.056505 0.500000
O O6 0.374217 0.040677 0.778264
O O7 0.500000 0.000000 0.776834
O O8 0.384873 0.776476 0.500000
O O9 0.345692 0.678357 0.287209
O O10 0.327687 0.813431 0.217233
O O11 0.905562 0.096061 0.278454
O O12 0.875386 0.959673 0.279625
O O13 0.925484 0.019617 0.000000
O O14 0.000000 0.000000 0.273069
O O15 0.753772 0.921667 0.237022
O O16 0.840294 0.891712 0.000000
O O17 0.804453 0.479956 0.500000
O O18 0.779932 0.555591 0.776611
O O19 0.364188 0.309132 0.500000
O O20 0.300097 0.334399 0.216559
O O21 0.268315 0.863538 0.500000
#
# Coordination Sequence:
#
# PCOD9425614 Si02
#       8
#     8   8   8   8   8   8   8   8
#     4   9  18  31  50  80 111 138 174 225 274 318
#     4   9  17  30  54  85 113 140 179 228 276 325
#     4  10  20  35  56  79 108 143 180 221 274 328
#     4  10  21  37  55  74 102 141 180 220 267 320
#     4  11  23  37  53  79 112 143 183 229 270 322
#     4  10  19  34  58  83 109 145 183 222 275 331
#     4  10  19  32  51  78 109 138 173 220 267 316
#     4   9  18  32  53  80 108 138 177 221 265 321
#
# _framework density 22.010475
#
# number of rings (size 3 to 8) (size 9 to 14) (size 15 to 20)
#    0.000    2.250    1.250    1.875    1.750    3.750 
#    0.000    1.250    0.000    1.125    0.000    0.000 
#    0.000    0.000    0.000    0.000    0.000    0.000 
#
# Total GULP energy -357714.945626 kJ/mol
# GULP energy per Si atom -5589.296025 kJ/mol
# Density = 2.196038 g / cm^3
# Si number density = 22.010475 Si / 1000 Ang^3
#
#
#
# Elastic Constant Matrix: (Units=GPa)
#
#
# Indices 1 2 3 4 5 6 
#
# 1 183.0635 70.5648 0.2370 0.0000 0.0000 0.0000
# 2 70.5648 118.2204 -9.4371 0.0000 0.0000 0.0000
# 3 0.2370 -9.4371 60.5262 0.0000 0.0000 0.0000
# 4 0.0000 0.0000 0.0000 -62.0038 0.0000 0.0000
# 5 0.0000 0.0000 0.0000 0.0000 11.5630 0.0000
# 6 0.0000 0.0000 0.0000 0.0000 0.0000 46.9451
#
#
#
# Elastic Compliance Matrix: (Units=1/GPa)
#
#
# Indices 1 2 3 4 5 6 
#
# 1 0.007124 -0.004308 -0.000700 0.000000 0.000000 0.000000
# 2 -0.004308 0.011171 0.001759 0.000000 0.000000 0.000000
# 3 -0.000700 0.001759 0.016799 0.000000 0.000000 0.000000
# 4 0.000000 0.000000 0.000000 -0.016128 0.000000 0.000000
# 5 0.000000 0.000000 0.000000 0.000000 0.086483 0.000000
# 6 0.000000 0.000000 0.000000 0.000000 0.000000 0.021301
#
#
# Mechanical properties :
#
#
# Convention : Reuss Voigt Hill
#
# Bulk Modulus (GPa) = 34.97108 53.83773 44.40440
# Shear Modulus (GPa) = 35.01886 19.33056 27.17471
#
# Velocity S-wave (km/s) = 3.99307 2.96673 3.51754
# Velocity P-wave (km/s) = 6.09774 6.02067 6.05933
#
# Compressibility (1/GPa) = 0.02859506
#
# Stress axis : x y z
#
# Youngs Moduli (GPa) = 140.36750 89.52000 59.52842
#
# Poissons Ratio (x) = 0.38567 0.04165
# Poissons Ratio (y) = 0.60473 -0.10469
# Poissons Ratio (z) = 0.09820 -0.15743
#
# Static dielectric constant tensor:
#      x y z
#    x 1.816240 0.000000 0.000000 
#    y 0.000000 1.739120 0.000000 
#    z 0.000000 0.000000 1.826910 
# 
# From -- ./inp_files/9063.got.cif
#   From: 2010.05.17/outbox.cif.g08.bks.cpg/sg55_5_cif.got.tgz:9063.got - 2010.06.03 13:27:54.
