data_PCOD9425095
_publ_section_title
;
Structure prediction by ZEFSAII (Michael W. Deem and Ramdas Pophale) SiO2 
 PCOD9425095
Probable space group: P B A M
;
_chemical_formula_sum "Si O2"
_cell_formula_units_Z 64
_cell_length_a 25.121829
_cell_length_b 15.450754
_cell_length_c 7.465797
_cell_angle_alpha 90.000000
_cell_angle_beta 90.000000
_cell_angle_gamma 90.000000
_cell_volume 2897.858064
_symmetry_space_group_name_H-M "P B A M"
_symmetry_group_IT_number 55
_symmetry_cell_setting 'orthorhombic'
loop_
_space_group_symop_operation_xyz
x,y,z
-x,-y,z
1/2+x,1/2-y,-z
1/2-x,1/2+y,-z
-x,-y,-z
x,y,-z
1/2-x,1/2+y,z
1/2+x,1/2-y,z
loop_
_atom_site_type_symbol
_atom_site_label
_atom_site_fract_x
_atom_site_fract_y
_atom_site_fract_z
Si Si1 0.873952 0.449325 0.716084
Si Si2 0.671420 0.505461 0.285940
Si Si3 0.765217 0.170959 0.717980
Si Si4 0.854668 0.638086 0.715827
Si Si5 0.551559 0.447789 0.215623
Si Si6 0.761169 0.370431 0.280959
Si Si7 0.012643 0.594825 0.209004
Si Si8 0.053120 0.245540 0.207195
O O1 0.874343 0.448880 0.500000
O O2 0.881072 0.548526 0.776568
O O3 0.816104 0.416753 0.771889
O O4 0.923989 0.394149 0.778657
O O5 0.678721 0.506803 0.500000
O O6 0.692225 0.599340 0.220088
O O7 0.609424 0.488124 0.252946
O O8 0.710298 0.427438 0.221031
O O9 0.768718 0.173987 0.500000
O O10 0.706788 0.136426 0.765913
O O11 0.765886 0.270681 0.778420
O O12 0.856965 0.641799 0.500000
O O13 0.886634 0.719962 0.785583
O O14 0.500000 0.500000 0.280837
O O15 0.549477 0.349547 0.286362
O O16 0.547996 0.444554 0.000000
O O17 0.759075 0.368963 0.500000
O O18 0.000000 0.500000 0.289135
O O19 0.981713 0.676591 0.288823
O O20 0.997150 0.590514 0.000000
O O21 0.036346 0.237974 0.000000
#
# Coordination Sequence:
#
# PCOD9425095 Si02
#       8
#     8   8   8   8   8   8   8   8
#     4  10  19  31  50  77 109 140 170 212 262 311
#     4  10  19  35  59  84 108 138 179 221 260 311
#     4   9  17  30  52  80 110 143 173 209 261 315
#     4  10  18  31  53  81 109 138 176 217 261 311
#     4  10  23  42  59  76 104 141 179 222 270 313
#     4   9  17  31  51  79 113 142 170 210 263 313
#     4  10  20  34  51  73 103 139 175 211 259 314
#     4  10  21  37  56  76 102 141 183 220 264 318
#
# _framework density 22.085277999999999
#
# number of rings (size 3 to 8) (size 9 to 14) (size 15 to 20)
#    0.000    2.250    2.500    0.750    0.000    3.500 
#    0.000    1.250    0.000    1.500    0.000    0.000 
#    0.000    0.000    0.000    0.000    0.000    0.000 
#
# Total GULP energy -357349.559017 kJ/mol
# GULP energy per Si atom -5583.586860 kJ/mol
# Density = 2.203501 g / cm^3
# Si number density = 22.085278 Si / 1000 Ang^3
#
#
#
# Elastic Constant Matrix: (Units=GPa)
#
#
# Indices 1 2 3 4 5 6 
#
# 1 163.3546 94.6082 -2.0065 0.0000 0.0000 0.0000
# 2 94.6082 178.7906 9.8579 0.0000 0.0000 0.0000
# 3 -2.0065 9.8579 65.3600 0.0000 0.0000 0.0000
# 4 0.0000 0.0000 0.0000 4.9657 0.0000 0.0000
# 5 0.0000 0.0000 0.0000 0.0000 25.6093 0.0000
# 6 0.0000 0.0000 0.0000 0.0000 0.0000 32.8992
#
#
#
# Elastic Compliance Matrix: (Units=1/GPa)
#
#
# Indices 1 2 3 4 5 6 
#
# 1 0.008890 -0.004759 0.000991 0.000000 0.000000 0.000000
# 2 -0.004759 0.008187 -0.001381 0.000000 0.000000 0.000000
# 3 0.000991 -0.001381 0.015539 0.000000 0.000000 0.000000
# 4 0.000000 0.000000 0.000000 0.201383 0.000000 0.000000
# 5 0.000000 0.000000 0.000000 0.000000 0.039048 0.000000
# 6 0.000000 0.000000 0.000000 0.000000 0.000000 0.030396
#
#
# Mechanical properties :
#
#
# Convention : Reuss Voigt Hill
#
# Bulk Modulus (GPa) = 44.80740 68.04717 56.42728
# Shear Modulus (GPa) = 15.56758 33.03122 24.29940
#
# Velocity S-wave (km/s) = 2.65785 3.87152 3.32060
# Velocity P-wave (km/s) = 5.45447 7.13182 6.34879
#
# Compressibility (1/GPa) = 0.02231774
#
# Stress axis : x y z
#
# Youngs Moduli (GPa) = 112.48723 122.13879 64.35596
#
# Poissons Ratio (x) = 0.58123 -0.06375
# Poissons Ratio (y) = 0.53530 0.08887
# Poissons Ratio (z) = -0.11144 0.16867
#
# Static dielectric constant tensor:
#      x y z
#    x 1.781780 0.000000 0.000000 
#    y 0.000000 1.831180 0.000000 
#    z 0.000000 0.000000 1.854720 
# 
# From -- ./inp_files/6675.got.cif
#   From: 2010.05.17/outbox.cif.g08.bks.cpg/sg55_4_cif.got.tgz:6675.got - 2010.06.03 13:27:54.
