data_PCOD9425646
_publ_section_title
;
Structure prediction by ZEFSAII (Michael W. Deem and Ramdas Pophale) SiO2 
 PCOD9425646
Probable space group: P B A M
;
_chemical_formula_sum "Si O2"
_cell_formula_units_Z 48
_cell_length_a 26.625522
_cell_length_b 5.177210
_cell_length_c 19.846261
_cell_angle_alpha 90.000000
_cell_angle_beta 90.000000
_cell_angle_gamma 90.000000
_cell_volume 2735.726081
_symmetry_space_group_name_H-M "P B A M"
_symmetry_group_IT_number 55
_symmetry_cell_setting 'orthorhombic'
loop_
_space_group_symop_operation_xyz
x,y,z
-x,-y,z
1/2+x,1/2-y,-z
1/2-x,1/2+y,-z
-x,-y,-z
x,y,-z
1/2-x,1/2+y,z
1/2+x,1/2-y,z
loop_
_atom_site_type_symbol
_atom_site_label
_atom_site_fract_x
_atom_site_fract_y
_atom_site_fract_z
Si Si1 0.885242 0.893511 0.579646
Si Si2 0.783802 0.526851 0.072798
Si Si3 0.279637 0.355194 0.418072
Si Si4 0.557232 0.556307 0.303430
Si Si5 0.383334 0.938213 0.698415
Si Si6 0.215287 0.553998 0.778987
O O1 0.887819 0.870410 0.500000
O O2 0.835672 0.057141 0.599821
O O3 0.932967 0.021041 0.615967
O O4 0.757964 0.417783 0.604767
O O5 0.738676 0.315686 0.073293
O O6 0.807918 0.475151 0.145267
O O7 0.810064 0.490064 0.000000
O O8 0.278629 0.348837 0.500000
O O9 0.379708 0.879277 0.381810
O O10 0.500000 0.500000 0.286563
O O11 0.594383 0.334382 0.274975
O O12 0.577218 0.837477 0.286118
O O13 0.329956 0.009048 0.728287
O O14 0.242732 0.829405 0.771896
#
# Coordination Sequence:
#
# PCOD9425646 Si02
#       6
#     8   8   8   8   8   8
#     4   9  22  36  53  73  94 122 161 209 256 311
#     4   8  14  25  43  70 104 141 171 193 226 276
#     4   9  18  30  44  63  89 118 145 175 218 277
#     4  10  22  40  55  70  93 123 163 221 269 307
#     4  10  22  36  52  76  97 127 166 206 245 314
#     4  10  19  32  52  77 110 142 167 200 240 287
#
# _framework density 17.545615000000002
#
# number of rings (size 3 to 8) (size 9 to 14) (size 15 to 20)
#    1.000    1.667    0.000    1.500    2.333    2.333 
#    0.000    0.833    0.000    0.000    0.000    0.000 
#    0.000    4.000    0.000    0.000    0.000    0.000 
#
# Total GULP energy -267312.983978 kJ/mol
# GULP energy per Si atom -5569.020500 kJ/mol
# Density = 1.750568 g / cm^3
# Si number density = 17.545615 Si / 1000 Ang^3
#
#
#
# Elastic Constant Matrix: (Units=GPa)
#
#
# Indices 1 2 3 4 5 6 
#
# 1 38.4975 -4.1194 0.3596 0.0000 0.0000 0.0000
# 2 -4.1194 68.1669 1.3978 0.0000 0.0000 0.0000
# 3 0.3596 1.3978 39.9898 0.0000 0.0000 0.0000
# 4 0.0000 0.0000 0.0000 13.7041 0.0000 0.0000
# 5 0.0000 0.0000 0.0000 0.0000 5.3318 0.0000
# 6 0.0000 0.0000 0.0000 0.0000 0.0000 22.7535
#
#
#
# Elastic Compliance Matrix: (Units=1/GPa)
#
#
# Indices 1 2 3 4 5 6 
#
# 1 0.026148 0.001586 -0.000291 0.000000 0.000000 0.000000
# 2 0.001586 0.014777 -0.000531 0.000000 0.000000 0.000000
# 3 -0.000291 -0.000531 0.025028 0.000000 0.000000 0.000000
# 4 0.000000 0.000000 0.000000 0.072971 0.000000 0.000000
# 5 0.000000 0.000000 0.000000 0.000000 0.187555 0.000000
# 6 0.000000 0.000000 0.000000 0.000000 0.000000 0.043949
#
#
# Mechanical properties :
#
#
# Convention : Reuss Voigt Hill
#
# Bulk Modulus (GPa) = 14.81881 15.77004 15.29443
# Shear Modulus (GPa) = 12.77492 18.29229 15.53361
#
# Velocity S-wave (km/s) = 2.70126 3.23237 2.97867
# Velocity P-wave (km/s) = 4.26536 4.78941 4.53496
#
# Compressibility (1/GPa) = 0.06748179
#
# Stress axis : x y z
#
# Youngs Moduli (GPa) = 38.24362 67.67453 39.95601
#
# Poissons Ratio (x) = -0.10734 0.01161
# Poissons Ratio (y) = -0.06066 0.02121
# Poissons Ratio (z) = 0.01111 0.03592
#
# Static dielectric constant tensor:
#      x y z
#    x 1.566390 0.000000 0.000000 
#    y 0.000000 1.636050 0.000000 
#    z 0.000000 0.000000 1.659040 
# 
# From -- ./inp_files/22334.got.cif
#   From: 2010.05.17/outbox.cif.g08.bks.cpg/sg55_12_cif.got.tgz:22334.got - 2010.06.03 13:27:54.
