data_PCOD9425115
_publ_section_title
;
Structure prediction by ZEFSAII (Michael W. Deem and Ramdas Pophale) SiO2 
 PCOD9425115
Probable space group: P B A M
;
_chemical_formula_sum "Si O2"
_cell_formula_units_Z 64
_cell_length_a 20.280179
_cell_length_b 20.262459
_cell_length_c 7.623097
_cell_angle_alpha 90.000000
_cell_angle_beta 90.000000
_cell_angle_gamma 90.000000
_cell_volume 3132.531010
_symmetry_space_group_name_H-M "P B A M"
_symmetry_group_IT_number 55
_symmetry_cell_setting 'orthorhombic'
loop_
_space_group_symop_operation_xyz
x,y,z
-x,-y,z
1/2+x,1/2-y,-z
1/2-x,1/2+y,-z
-x,-y,-z
x,y,-z
1/2-x,1/2+y,z
1/2+x,1/2-y,z
loop_
_atom_site_type_symbol
_atom_site_label
_atom_site_fract_x
_atom_site_fract_y
_atom_site_fract_z
Si Si1 0.680235 0.596343 0.789826
Si Si2 0.966440 0.068298 0.785251
Si Si3 0.212721 0.135980 0.203565
Si Si4 0.899354 0.675544 0.293692
Si Si5 0.433248 0.969183 0.795329
Si Si6 0.743475 0.221313 0.708144
Si Si7 0.710875 0.992211 0.215794
Si Si8 0.069023 0.178701 0.212436
O O1 0.608731 0.574591 0.724604
O O2 0.697992 0.671401 0.746919
O O3 0.739780 0.550232 0.726064
O O4 0.678917 0.589656 0.000000
O O5 0.010637 0.130598 0.730692
O O6 0.965915 0.068089 0.000000
O O7 0.000000 0.000000 0.729981
O O8 0.249599 0.205819 0.215126
O O9 0.256089 0.076293 0.275227
O O10 0.139578 0.150058 0.277955
O O11 0.201454 0.118817 0.000000
O O12 0.894201 0.662643 0.500000
O O13 0.931239 0.610283 0.214309
O O14 0.825102 0.689075 0.223236
O O15 0.936236 0.745027 0.266658
O O16 0.500000 0.000000 0.717694
O O17 0.363447 0.994991 0.721562
O O18 0.432521 0.988538 0.000000
O O19 0.736263 0.229025 0.500000
O O20 0.709010 0.993181 0.000000
O O21 0.070957 0.178373 0.000000
#
# Coordination Sequence:
#
# PCOD9425115 Si02
#       8
#     8   8   8   8   8   8   8   8
#     4  10  18  31  55  79 103 137 171 209 256 308
#     4   9  17  30  51  82 111 133 167 215 261 305
#     4   9  17  31  53  77 102 134 170 212 257 305
#     4  10  20  35  55  75 101 139 179 215 254 307
#     4  10  20  35  55  78 104 133 169 219 269 312
#     4  10  20  34  51  74 103 135 174 216 252 297
#     4   9  17  31  53  80 103 128 169 213 257 307
#     4   9  17  31  53  79 106 137 173 213 257 305
#
# _framework density 20.430764
#
# number of rings (size 3 to 8) (size 9 to 14) (size 15 to 20)
#    0.000    2.500    1.250    1.500    0.000    4.250 
#    2.250    1.875    0.000    3.000    0.000    0.000 
#    0.000    0.000    0.000    0.000    0.000    0.000 
#
# Total GULP energy -357178.358861 kJ/mol
# GULP energy per Si atom -5580.911857 kJ/mol
# Density = 2.038426 g / cm^3
# Si number density = 20.430764 Si / 1000 Ang^3
#
#
#
# Elastic Constant Matrix: (Units=GPa)
#
#
# Indices 1 2 3 4 5 6 
#
# 1 124.4179 60.7913 4.9858 0.0000 0.0000 0.0000
# 2 60.7913 104.8905 -11.9289 0.0000 0.0000 0.0000
# 3 4.9858 -11.9289 40.1170 0.0000 0.0000 0.0000
# 4 0.0000 0.0000 0.0000 -100.3299 0.0000 0.0000
# 5 0.0000 0.0000 0.0000 0.0000 2.3056 0.0000
# 6 0.0000 0.0000 0.0000 0.0000 0.0000 32.0625
#
#
#
# Elastic Compliance Matrix: (Units=1/GPa)
#
#
# Indices 1 2 3 4 5 6 
#
# 1 0.011692 -0.007184 -0.003589 0.000000 0.000000 0.000000
# 2 -0.007184 0.014282 0.005140 0.000000 0.000000 0.000000
# 3 -0.003589 0.005140 0.026901 0.000000 0.000000 0.000000
# 4 0.000000 0.000000 0.000000 -0.009967 0.000000 0.000000
# 5 0.000000 0.000000 0.000000 0.000000 0.433718 0.000000
# 6 0.000000 0.000000 0.000000 0.000000 0.000000 0.031189
#
#
# Mechanical properties :
#
#
# Convention : Reuss Voigt Hill
#
# Bulk Modulus (GPa) = 24.03423 41.90241 32.96832
# Shear Modulus (GPa) = 9.38172 1.17946 5.28059
#
# Velocity S-wave (km/s) = 2.14521 0.76063 1.60942
# Velocity P-wave (km/s) = 4.23381 4.61794 4.43004
#
# Compressibility (1/GPa) = 0.04160732
#
# Stress axis : x y z
#
# Youngs Moduli (GPa) = 85.53199 70.01796 37.17268
#
# Poissons Ratio (x) = 0.50303 0.13342
# Poissons Ratio (y) = 0.61448 -0.19106
# Poissons Ratio (z) = 0.30700 -0.35987
#
# Static dielectric constant tensor:
#      x y z
#    x 1.724790 0.000000 0.000000 
#    y 0.000000 1.667050 0.000000 
#    z 0.000000 0.000000 1.752140 
# 
# From -- ./inp_files/9037.got.cif
#   From: 2010.05.17/outbox.cif.g08.bks.cpg/sg55_5_cif.got.tgz:9037.got - 2010.06.03 13:27:54.
