data_PCOD9425438
_publ_section_title
;
Structure prediction by ZEFSAII (Michael W. Deem and Ramdas Pophale) SiO2 
 PCOD9425438
Probable space group: P B A M
;
_chemical_formula_sum "Si O2"
_cell_formula_units_Z 48
_cell_length_a 5.117647
_cell_length_b 33.455312
_cell_length_c 21.276086
_cell_angle_alpha 90.000000
_cell_angle_beta 90.000000
_cell_angle_gamma 90.000000
_cell_volume 3642.731387
_symmetry_space_group_name_H-M "P B A M"
_symmetry_group_IT_number 55
_symmetry_cell_setting 'orthorhombic'
loop_
_space_group_symop_operation_xyz
x,y,z
-x,-y,z
1/2+x,1/2-y,-z
1/2-x,1/2+y,-z
-x,-y,-z
x,y,-z
1/2-x,1/2+y,z
1/2+x,1/2-y,z
loop_
_atom_site_type_symbol
_atom_site_label
_atom_site_fract_x
_atom_site_fract_y
_atom_site_fract_z
Si Si1 0.105815 0.721635 0.729559
Si Si2 0.174601 0.883235 0.575314
Si Si3 0.306859 0.223051 0.132108
Si Si4 0.571357 0.777714 0.000000
Si Si5 0.751959 0.524911 0.423601
Si Si6 0.311986 0.165718 0.611625
Si Si7 0.654943 0.275328 0.500000
O O1 0.329706 0.755670 0.723002
O O2 0.137253 0.704165 0.800153
O O3 0.143812 0.688324 0.676947
O O4 0.119878 0.882416 0.500000
O O5 0.238400 0.928720 0.594197
O O6 0.422710 0.855409 0.589190
O O7 0.921296 0.866396 0.610630
O O8 0.511245 0.260524 0.131119
O O9 0.371234 0.201126 0.066525
O O10 0.281509 0.759090 0.000000
O O11 0.500000 0.500000 0.404196
O O12 0.759589 0.525075 0.500000
O O13 0.000000 0.500000 0.401229
O O14 0.223103 0.198802 0.560946
O O15 0.354061 0.262031 0.500000
#
# Coordination Sequence:
#
# PCOD9425438 Si02
#       7
#     8   8   8   4   8   8   4
#     4  10  19  31  41  53  72 100 133 167 198 226
#     4  11  20  33  45  60  78  95 119 155 197 232
#     4   8  14  23  37  52  70  90 116 153 193 227
#     4   8  12  20  34  54  70  86 110 146 192 230
#     4   9  17  29  46  64  78  92 109 137 182 237
#     4  12  21  32  43  56  74  99 128 166 198 230
#     4  12  22  32  42  52  66  94 132 170 200 222
#
# _framework density 13.176925000000001
#
# number of rings (size 3 to 8) (size 9 to 14) (size 15 to 20)
#    0.000    2.000    1.667    4.000    0.000    2.667 
#    0.000    0.000    0.000    0.000    0.000    0.000 
#    0.000    0.000    0.000    0.000    0.000    0.000 
#
# Total GULP energy -267485.341206 kJ/mol
# GULP energy per Si atom -5572.611275 kJ/mol
# Density = 1.314693 g / cm^3
# Si number density = 13.176925 Si / 1000 Ang^3
#
#
#
# Elastic Constant Matrix: (Units=GPa)
#
#
# Indices 1 2 3 4 5 6 
#
# 1 52.8795 -0.2509 -14.6115 0.0000 0.0000 0.0000
# 2 -0.2509 40.1061 19.0409 0.0000 0.0000 0.0000
# 3 -14.6115 19.0409 65.8809 0.0000 0.0000 0.0000
# 4 0.0000 0.0000 0.0000 1.6359 0.0000 0.0000
# 5 0.0000 0.0000 0.0000 0.0000 6.1663 0.0000
# 6 0.0000 0.0000 0.0000 0.0000 0.0000 18.5132
#
#
#
# Elastic Compliance Matrix: (Units=1/GPa)
#
#
# Indices 1 2 3 4 5 6 
#
# 1 0.020332 -0.002334 0.005184 0.000000 0.000000 0.000000
# 2 -0.002334 0.029167 -0.008948 0.000000 0.000000 0.000000
# 3 0.005184 -0.008948 0.018915 0.000000 0.000000 0.000000
# 4 0.000000 0.000000 0.000000 0.611299 0.000000 0.000000
# 5 0.000000 0.000000 0.000000 0.000000 0.162172 0.000000
# 6 0.000000 0.000000 0.000000 0.000000 0.000000 0.054016
#
#
# Mechanical properties :
#
#
# Convention : Reuss Voigt Hill
#
# Bulk Modulus (GPa) = 17.78755 18.58039 18.18397
# Shear Modulus (GPa) = 5.39470 15.57561 10.48516
#
# Velocity S-wave (km/s) = 2.02557 3.44181 2.82391
# Velocity P-wave (km/s) = 4.35877 5.47047 4.94595
#
# Compressibility (1/GPa) = 0.05621908
#
# Stress axis : x y z
#
# Youngs Moduli (GPa) = 49.18293 34.28508 52.86905
#
# Poissons Ratio (x) = 0.08002 -0.27407
# Poissons Ratio (y) = 0.11479 0.47305
# Poissons Ratio (z) = -0.25496 0.30677
#
# Static dielectric constant tensor:
#      x y z
#    x 1.446780 0.000000 0.000000 
#    y 0.000000 1.401470 0.000000 
#    z 0.000000 0.000000 1.462350 
# 
# From -- ./inp_files/22420.got.cif
#   From: 2010.05.17/outbox.cif.g08.bks.cpg/sg55_12_cif.got.tgz:22420.got - 2010.06.03 13:27:54.
