data_PCOD9425454
_publ_section_title
;
Structure prediction by ZEFSAII (Michael W. Deem and Ramdas Pophale) SiO2 
 PCOD9425454
Probable space group: P B A M
;
_chemical_formula_sum "Si O2"
_cell_formula_units_Z 56
_cell_length_a 29.286070
_cell_length_b 8.869474
_cell_length_c 12.994357
_cell_angle_alpha 90.000000
_cell_angle_beta 90.000000
_cell_angle_gamma 90.000000
_cell_volume 3375.310693
_symmetry_space_group_name_H-M "P B A M"
_symmetry_group_IT_number 55
_symmetry_cell_setting 'orthorhombic'
loop_
_space_group_symop_operation_xyz
x,y,z
-x,-y,z
1/2+x,1/2-y,-z
1/2-x,1/2+y,-z
-x,-y,-z
x,y,-z
1/2-x,1/2+y,z
1/2+x,1/2-y,z
loop_
_atom_site_type_symbol
_atom_site_label
_atom_site_fract_x
_atom_site_fract_y
_atom_site_fract_z
Si Si1 0.974465 0.661769 0.112832
Si Si2 0.610033 0.004134 0.186313
Si Si3 0.298572 0.499510 0.875871
Si Si4 0.702810 0.149148 0.874609
Si Si5 0.448866 0.067388 0.382384
Si Si6 0.472174 0.361490 0.274118
Si Si7 0.393483 0.344282 0.878889
O O1 0.921518 0.622028 0.124787
O O2 0.000000 0.500000 0.120209
O O3 0.993699 0.766645 0.201153
O O4 0.984370 0.725803 0.000000
O O5 0.661745 0.057446 0.177098
O O6 0.586674 0.996820 0.298922
O O7 0.605290 0.836681 0.138282
O O8 0.299969 0.674733 0.846048
O O9 0.251809 0.418662 0.843562
O O10 0.344222 0.409370 0.847283
O O11 0.297598 0.497481 0.000000
O O12 0.698419 0.136146 0.000000
O O13 0.435567 0.039276 0.500000
O O14 0.452933 0.244765 0.357027
O O15 0.500000 0.000000 0.367462
O O16 0.500000 0.500000 0.318946
O O17 0.431966 0.410458 0.196215
O O18 0.401255 0.376091 0.000000
#
# Coordination Sequence:
#
# PCOD9425454 Si02
#       7
#     8   8   8   8   8   8   8
#     4  11  19  31  47  71 106 141 174 200 238 299
#     4  11  19  32  51  75  94 133 172 214 256 305
#     4   9  19  32  46  71 104 141 175 202 240 292
#     4  10  19  31  49  72 104 136 169 207 243 296
#     4  10  20  38  57  72  95 129 173 222 264 307
#     4  11  22  33  48  74 106 138 176 213 257 309
#     4  10  19  31  46  69 104 141 173 204 245 296
#
# _framework density 16.591065
#
# number of rings (size 3 to 8) (size 9 to 14) (size 15 to 20)
#    0.000    1.714    4.286    2.571    2.000    3.714 
#    0.000    0.000    0.000    0.000    0.000    9.000 
#    0.000    0.000    0.000    0.000    0.000    0.000 
#
# Total GULP energy -312437.934861 kJ/mol
# GULP energy per Si atom -5579.248837 kJ/mol
# Density = 1.655330 g / cm^3
# Si number density = 16.591065 Si / 1000 Ang^3
#
#
#
# Elastic Constant Matrix: (Units=GPa)
#
#
# Indices 1 2 3 4 5 6 
#
# 1 104.1015 21.5727 12.7290 0.0000 0.0000 0.0000
# 2 21.5727 31.5695 8.3585 0.0000 0.0000 0.0000
# 3 12.7290 8.3585 62.7443 0.0000 0.0000 0.0000
# 4 0.0000 0.0000 0.0000 5.6403 0.0000 0.0000
# 5 0.0000 0.0000 0.0000 0.0000 15.2912 0.0000
# 6 0.0000 0.0000 0.0000 0.0000 0.0000 34.9454
#
#
#
# Elastic Compliance Matrix: (Units=1/GPa)
#
#
# Indices 1 2 3 4 5 6 
#
# 1 0.011293 -0.007371 -0.001309 0.000000 0.000000 0.000000
# 2 -0.007371 0.037645 -0.003520 0.000000 0.000000 0.000000
# 3 -0.001309 -0.003520 0.016672 0.000000 0.000000 0.000000
# 4 0.000000 0.000000 0.000000 0.177297 0.000000 0.000000
# 5 0.000000 0.000000 0.000000 0.000000 0.065397 0.000000
# 6 0.000000 0.000000 0.000000 0.000000 0.000000 0.028616
#
#
# Mechanical properties :
#
#
# Convention : Reuss Voigt Hill
#
# Bulk Modulus (GPa) = 24.26514 31.52619 27.89566
# Shear Modulus (GPa) = 13.33134 21.55905 17.44519
#
# Velocity S-wave (km/s) = 2.83773 3.60868 3.24617
# Velocity P-wave (km/s) = 5.03926 6.03379 5.55881
#
# Compressibility (1/GPa) = 0.04121139
#
# Stress axis : x y z
#
# Youngs Moduli (GPa) = 88.54657 26.56423 59.98020
#
# Poissons Ratio (x) = 0.19580 0.07853
# Poissons Ratio (y) = 0.65265 0.21110
# Poissons Ratio (z) = 0.11593 0.09349
#
# Static dielectric constant tensor:
#      x y z
#    x 1.575480 0.000000 0.000000 
#    y 0.000000 1.579320 0.000000 
#    z 0.000000 0.000000 1.538900 
# 
# From -- ./inp_files/20177.got.cif
#   From: 2010.05.17/outbox.cif.g08.bks.cpg/sg55_11_cif.got.tgz:20177.got - 2010.06.03 13:27:54.
