data_PCOD9425447
_publ_section_title
;
Structure prediction by ZEFSAII (Michael W. Deem and Ramdas Pophale) SiO2 
 PCOD9425447
Probable space group: P B A M
;
_chemical_formula_sum "Si O2"
_cell_formula_units_Z 64
_cell_length_a 17.736484
_cell_length_b 21.822159
_cell_length_c 7.532714
_cell_angle_alpha 90.000000
_cell_angle_beta 90.000000
_cell_angle_gamma 90.000000
_cell_volume 2915.524705
_symmetry_space_group_name_H-M "P B A M"
_symmetry_group_IT_number 55
_symmetry_cell_setting 'orthorhombic'
loop_
_space_group_symop_operation_xyz
x,y,z
-x,-y,z
1/2+x,1/2-y,-z
1/2-x,1/2+y,-z
-x,-y,-z
x,y,-z
1/2-x,1/2+y,z
1/2+x,1/2-y,z
loop_
_atom_site_type_symbol
_atom_site_label
_atom_site_fract_x
_atom_site_fract_y
_atom_site_fract_z
Si Si1 0.172039 0.250327 0.782231
Si Si2 0.908723 0.507148 0.210147
Si Si3 0.161191 0.753477 0.213930
Si Si4 0.549399 0.638129 0.701482
Si Si5 0.570731 0.138659 0.217098
Si Si6 0.619704 0.379715 0.201564
Si Si7 0.103707 0.624475 0.783093
Si Si8 0.086938 0.991016 0.785993
O O1 0.255147 0.272325 0.731171
O O2 0.111130 0.299905 0.723011
O O3 0.155132 0.181481 0.718249
O O4 0.168481 0.248439 0.000000
O O5 0.891514 0.574912 0.279722
O O6 0.874896 0.443644 0.280951
O O7 0.000000 0.500000 0.225013
O O8 0.891535 0.508567 0.000000
O O9 0.096073 0.800289 0.267899
O O10 0.148803 0.683829 0.275921
O O11 0.159248 0.752436 0.000000
O O12 0.524014 0.635838 0.500000
O O13 0.471027 0.632102 0.807169
O O14 0.602816 0.579008 0.735820
O O15 0.483188 0.136687 0.266517
O O16 0.572609 0.137963 0.000000
O O17 0.629631 0.448089 0.279776
O O18 0.649571 0.383187 0.000000
O O19 0.106652 0.622602 0.000000
O O20 0.088872 0.993772 0.000000
O O21 0.000000 0.000000 0.728253
#
# Coordination Sequence:
#
# PCOD9425447 Si02
#       8
#     8   8   8   8   8   8   8   8
#     4   9  17  28  44  68  96 126 157 188 230 286
#     4   7  10  17  31  55  84 109 136 174 220 263
#     4  10  19  31  46  66  95 128 159 191 232 282
#     4  11  21  32  49  72  96 125 164 205 242 286
#     4   8  12  20  36  59  87 114 140 177 224 269
#     4   9  17  32  53  75  99 125 157 200 248 295
#     4   8  13  22  39  60  83 113 145 180 223 269
#     4   8  15  29  50  74  98 123 152 195 249 294
#
# _framework density 21.951452
#
# number of rings (size 3 to 8) (size 9 to 14) (size 15 to 20)
#    0.000    3.250    0.000    4.125    0.000    4.250 
#    0.000    1.875    0.000    6.000    0.000    0.000 
#    0.000   12.500    0.000    0.000    0.000    0.000 
#
# Total GULP energy -356595.760625 kJ/mol
# GULP energy per Si atom -5571.808760 kJ/mol
# Density = 2.190149 g / cm^3
# Si number density = 21.951452 Si / 1000 Ang^3
#
#
#
# Elastic Constant Matrix: (Units=GPa)
#
#
# Indices 1 2 3 4 5 6 
#
# 1 14.3634 -1.0794 -6.0737 0.0000 0.0000 0.0000
# 2 -1.0794 99.8565 1.6485 0.0000 0.0000 0.0000
# 3 -6.0737 1.6485 58.5676 0.0000 0.0000 0.0000
# 4 0.0000 0.0000 0.0000 -76.8760 0.0000 0.0000
# 5 0.0000 0.0000 0.0000 0.0000 -17.2179 0.0000
# 6 0.0000 0.0000 0.0000 0.0000 0.0000 2.0216
#
#
#
# Elastic Compliance Matrix: (Units=1/GPa)
#
#
# Indices 1 2 3 4 5 6 
#
# 1 0.072858 0.000663 0.007537 0.000000 0.000000 0.000000
# 2 0.000663 0.010025 -0.000213 0.000000 0.000000 0.000000
# 3 0.007537 -0.000213 0.017862 0.000000 0.000000 0.000000
# 4 0.000000 0.000000 0.000000 -0.013008 0.000000 0.000000
# 5 0.000000 0.000000 0.000000 0.000000 -0.058079 0.000000
# 6 0.000000 0.000000 0.000000 0.000000 0.000000 0.494663
#
#
# Mechanical properties :
#
#
# Convention : Reuss Voigt Hill
#
# Bulk Modulus (GPa) = 8.56763 17.97539 13.27151
# Shear Modulus (GPa) = 9.13654 -6.52832 1.30411
#
# Velocity S-wave (km/s) = 2.04235 -1.72639 0.77161
# Velocity P-wave (km/s) = 3.07783 2.05732 2.61779
#
# Compressibility (1/GPa) = 0.11671845
#
# Stress axis : x y z
#
# Youngs Moduli (GPa) = 13.72531 99.75004 55.98509
#
# Poissons Ratio (x) = -0.06615 -0.42196
# Poissons Ratio (y) = -0.00910 0.01195
# Poissons Ratio (z) = -0.10345 0.02129
#
# Static dielectric constant tensor:
#      x y z
#    x 1.767490 0.000000 0.000000 
#    y 0.000000 1.854590 0.000000 
#    z 0.000000 0.000000 1.871800 
# 
# From -- ./inp_files/7946.got.cif
#   From: 2010.05.17/outbox.cif.g08.bks.cpg/sg55_4_cif.got.tgz:7946.got - 2010.06.03 13:27:54.
