data_PCOD9425937
_publ_section_title
;
Structure prediction by ZEFSAII (Michael W. Deem and Ramdas Pophale) SiO2 
 PCOD9425937
Probable space group: P B A M
;
_chemical_formula_sum "Si O2"
_cell_formula_units_Z 64
_cell_length_a 10.802540
_cell_length_b 22.477795
_cell_length_c 12.899002
_cell_angle_alpha 90.000000
_cell_angle_beta 90.000000
_cell_angle_gamma 90.000000
_cell_volume 3132.100575
_symmetry_space_group_name_H-M "P B A M"
_symmetry_group_IT_number 55
_symmetry_cell_setting 'orthorhombic'
loop_
_space_group_symop_operation_xyz
x,y,z
-x,-y,z
1/2+x,1/2-y,-z
1/2-x,1/2+y,-z
-x,-y,-z
x,y,-z
1/2-x,1/2+y,z
1/2+x,1/2-y,z
loop_
_atom_site_type_symbol
_atom_site_label
_atom_site_fract_x
_atom_site_fract_y
_atom_site_fract_z
Si Si1 0.336913 0.182650 0.305211
Si Si2 0.736928 0.425831 0.226123
Si Si3 0.135133 0.967937 0.883305
Si Si4 0.319780 0.735201 0.117943
Si Si5 0.488333 0.070304 0.112896
Si Si6 0.336388 0.309182 0.384038
Si Si7 0.614279 0.155678 0.742146
Si Si8 0.512738 0.646939 0.810623
O O1 0.287852 0.114870 0.322028
O O2 0.276394 0.202648 0.195098
O O3 0.303759 0.238728 0.376836
O O4 0.484273 0.180237 0.300122
O O5 0.707257 0.495781 0.206888
O O6 0.847101 0.415366 0.143557
O O7 0.605405 0.395430 0.206475
O O8 0.112629 0.898223 0.859777
O O9 0.190398 0.975108 0.000000
O O10 0.000000 0.000000 0.888801
O O11 0.337895 0.799012 0.170086
O O12 0.451542 0.700272 0.124257
O O13 0.277558 0.737041 0.000000
O O14 0.578268 0.095664 0.199965
O O15 0.500000 0.000000 0.110020
O O16 0.517012 0.095815 0.000000
O O17 0.375997 0.323798 0.500000
O O18 0.214831 0.344949 0.347935
O O19 0.436599 0.325596 0.296145
#
# Coordination Sequence:
#
# PCOD9425937 Si02
#       8
#     8   8   8   8   8   8   8   8
#     4   9  20  39  57  85 117 153 205 249 303 371
#     4   9  19  35  58  85 127 159 197 244 298 362
#     4   9  17  30  54  88 124 161 193 227 284 365
#     4  10  19  33  56  85 125 162 187 235 307 381
#     4  10  21  36  59  91 126 170 210 242 291 365
#     4  11  24  42  64  86 116 157 205 272 328 358
#     4  10  21  39  55  85 119 156 205 252 308 368
#     4  10  20  36  57  92 122 157 206 254 306 376
#
# _framework density 20.433571000000001
#
# number of rings (size 3 to 8) (size 9 to 14) (size 15 to 20)
#    0.000    2.250    1.250    1.125    1.750    9.000 
#    0.000    1.250    0.000    5.250    0.000    0.000 
#    0.000    0.000    0.000    0.000    0.000    0.000 
#
# Total GULP energy -356389.911635 kJ/mol
# GULP energy per Si atom -5568.592369 kJ/mol
# Density = 2.038706 g / cm^3
# Si number density = 20.433571 Si / 1000 Ang^3
#
#
#
# Elastic Constant Matrix: (Units=GPa)
#
#
# Indices 1 2 3 4 5 6 
#
# 1 70.9717 9.6843 10.5797 0.0000 0.0000 0.0000
# 2 9.6843 74.3422 14.7930 0.0000 0.0000 0.0000
# 3 10.5797 14.7930 66.9673 0.0000 0.0000 0.0000
# 4 0.0000 0.0000 0.0000 7.5395 0.0000 0.0000
# 5 0.0000 0.0000 0.0000 0.0000 13.0646 0.0000
# 6 0.0000 0.0000 0.0000 0.0000 0.0000 35.4493
#
#
#
# Elastic Compliance Matrix: (Units=1/GPa)
#
#
# Indices 1 2 3 4 5 6 
#
# 1 0.014590 -0.001508 -0.001972 0.000000 0.000000 0.000000
# 2 -0.001508 0.014226 -0.002904 0.000000 0.000000 0.000000
# 3 -0.001972 -0.002904 0.015886 0.000000 0.000000 0.000000
# 4 0.000000 0.000000 0.000000 0.132634 0.000000 0.000000
# 5 0.000000 0.000000 0.000000 0.000000 0.076543 0.000000
# 6 0.000000 0.000000 0.000000 0.000000 0.000000 0.028209
#
#
# Mechanical properties :
#
#
# Convention : Reuss Voigt Hill
#
# Bulk Modulus (GPa) = 31.31566 31.37723 31.34645
# Shear Modulus (GPa) = 16.36659 23.02563 19.69611
#
# Velocity S-wave (km/s) = 2.83320 3.36050 3.10806
# Velocity P-wave (km/s) = 5.10506 5.51782 5.31545
#
# Compressibility (1/GPa) = 0.03193291
#
# Stress axis : x y z
#
# Youngs Moduli (GPa) = 68.54076 70.29553 62.94973
#
# Poissons Ratio (x) = 0.10602 0.12412
# Poissons Ratio (y) = 0.10337 0.18282
# Poissons Ratio (z) = 0.13515 0.20415
#
# Static dielectric constant tensor:
#      x y z
#    x 1.778540 0.000000 0.000000 
#    y 0.000000 1.817180 0.000000 
#    z 0.000000 0.000000 1.690640 
# 
# From -- ./inp_files/13572.got.cif
#   From: 2010.05.17/outbox.cif.g08.bks.cpg/sg55_7_cif.got.tgz:13572.got - 2010.06.03 13:27:54.
