data_PCOD9425389
_publ_section_title
;
Structure prediction by ZEFSAII (Michael W. Deem and Ramdas Pophale) SiO2 
 PCOD9425389
Probable space group: P B A M
;
_chemical_formula_sum "Si O2"
_cell_formula_units_Z 56
_cell_length_a 17.821919
_cell_length_b 19.966289
_cell_length_c 7.465161
_cell_angle_alpha 90.000000
_cell_angle_beta 90.000000
_cell_angle_gamma 90.000000
_cell_volume 2656.384864
_symmetry_space_group_name_H-M "P B A M"
_symmetry_group_IT_number 55
_symmetry_cell_setting 'orthorhombic'
loop_
_space_group_symop_operation_xyz
x,y,z
-x,-y,z
1/2+x,1/2-y,-z
1/2-x,1/2+y,-z
-x,-y,-z
x,y,-z
1/2-x,1/2+y,z
1/2+x,1/2-y,z
loop_
_atom_site_type_symbol
_atom_site_label
_atom_site_fract_x
_atom_site_fract_y
_atom_site_fract_z
Si Si1 0.339965 0.245133 0.794512
Si Si2 0.315838 0.388013 0.780978
Si Si3 0.177076 0.469514 0.204714
Si Si4 0.013454 0.926697 0.291045
Si Si5 0.891385 0.392712 0.218713
Si Si6 0.936807 0.643926 0.292117
Si Si7 0.011652 0.216904 0.281112
O O1 0.301287 0.311518 0.717617
O O2 0.341011 0.170305 0.718089
O O3 0.428389 0.264899 0.787566
O O4 0.315079 0.239403 0.000000
O O5 0.252647 0.438839 0.715762
O O6 0.398216 0.410727 0.722787
O O7 0.315357 0.386203 0.000000
O O8 0.140555 0.536455 0.282488
O O9 0.116911 0.409643 0.202327
O O10 0.195904 0.487443 0.000000
O O11 0.991675 0.930717 0.500000
O O12 0.972876 0.859163 0.221118
O O13 0.000000 0.000000 0.210296
O O14 0.977052 0.380726 0.276810
O O15 0.893320 0.391445 0.000000
O O16 0.915633 0.644720 0.500000
O O17 0.936402 0.720890 0.225265
O O18 0.008163 0.217753 0.500000
#
# Coordination Sequence:
#
# PCOD9425389 Si02
#       7
#     8   8   8   8   8   8   8
#     4   8  14  27  47  65  81 109 150 187 217 258
#     4   9  18  32  48  67  92 121 154 191 229 271
#     4  10  20  32  45  65  96 127 152 185 231 278
#     4   9  17  31  52  73  92 118 152 190 232 276
#     4   9  17  30  48  67  89 121 157 190 227 270
#     4  10  19  30  46  68  93 121 155 193 228 267
#     4   8  15  28  45  66  90 113 141 180 223 265
#
# _framework density 21.081284
#
# number of rings (size 3 to 8) (size 9 to 14) (size 15 to 20)
#    0.000    3.000    0.000    0.857    0.000    3.714 
#    0.000    1.429    0.000    1.714    0.000    0.000 
#    0.000    0.000    0.000    0.000    0.000    0.000 
#
# Total GULP energy -311941.834918 kJ/mol
# GULP energy per Si atom -5570.389909 kJ/mol
# Density = 2.103330 g / cm^3
# Si number density = 21.081284 Si / 1000 Ang^3
#
#
#
# Elastic Constant Matrix: (Units=GPa)
#
#
# Indices 1 2 3 4 5 6 
#
# 1 22.9635 31.4232 -12.1733 0.0000 0.0000 0.0000
# 2 31.4232 199.9798 -3.4017 0.0000 0.0000 0.0000
# 3 -12.1733 -3.4017 66.9260 0.0000 0.0000 0.0000
# 4 0.0000 0.0000 0.0000 37.5376 0.0000 0.0000
# 5 0.0000 0.0000 0.0000 0.0000 9.9597 0.0000
# 6 0.0000 0.0000 0.0000 0.0000 0.0000 7.0804
#
#
#
# Elastic Compliance Matrix: (Units=1/GPa)
#
#
# Indices 1 2 3 4 5 6 
#
# 1 0.062500 -0.009636 0.010878 0.000000 0.000000 0.000000
# 2 -0.009636 0.006490 -0.001423 0.000000 0.000000 0.000000
# 3 0.010878 -0.001423 0.016848 0.000000 0.000000 0.000000
# 4 0.000000 0.000000 0.000000 0.026640 0.000000 0.000000
# 5 0.000000 0.000000 0.000000 0.000000 0.100404 0.000000
# 6 0.000000 0.000000 0.000000 0.000000 0.000000 0.141235
#
#
# Mechanical properties :
#
#
# Convention : Reuss Voigt Hill
#
# Bulk Modulus (GPa) = 11.69888 35.72952 23.71420
# Shear Modulus (GPa) = 13.05585 29.18363 21.11974
#
# Velocity S-wave (km/s) = 2.49129 3.72471 3.16859
# Velocity P-wave (km/s) = 3.71979 5.95677 4.96588
#
# Compressibility (1/GPa) = 0.08547829
#
# Stress axis : x y z
#
# Youngs Moduli (GPa) = 16.00010 154.07439 59.35328
#
# Poissons Ratio (x) = 1.48461 -0.64567
# Poissons Ratio (y) = 0.15417 0.08445
# Poissons Ratio (z) = -0.17406 0.21921
#
# Static dielectric constant tensor:
#      x y z
#    x 1.702900 0.000000 0.000000 
#    y 0.000000 1.835010 0.000000 
#    z 0.000000 0.000000 1.860750 
# 
# From -- ./inp_files/7807.got.cif
#   From: 2010.05.17/outbox.cif.g08.bks.cpg/sg55_4_cif.got.tgz:7807.got - 2010.06.03 13:27:54.
