data_PCOD9425132
_publ_section_title
;
Structure prediction by ZEFSAII (Michael W. Deem and Ramdas Pophale) SiO2 
 PCOD9425132
Probable space group: P B A M
;
_chemical_formula_sum "Si O2"
_cell_formula_units_Z 64
_cell_length_a 31.181750
_cell_length_b 9.825806
_cell_length_c 13.524257
_cell_angle_alpha 90.000000
_cell_angle_beta 90.000000
_cell_angle_gamma 90.000000
_cell_volume 4143.640655
_symmetry_space_group_name_H-M "P B A M"
_symmetry_group_IT_number 55
_symmetry_cell_setting 'orthorhombic'
loop_
_space_group_symop_operation_xyz
x,y,z
-x,-y,z
1/2+x,1/2-y,-z
1/2-x,1/2+y,-z
-x,-y,-z
x,y,-z
1/2-x,1/2+y,z
1/2+x,1/2-y,z
loop_
_atom_site_type_symbol
_atom_site_label
_atom_site_fract_x
_atom_site_fract_y
_atom_site_fract_z
Si Si1 0.292168 0.999570 0.246702
Si Si2 0.832477 0.790519 0.740790
Si Si3 0.082008 0.160758 0.617167
Si Si4 0.832347 0.210678 0.258998
Si Si5 0.779551 0.000906 0.614469
Si Si6 0.999895 0.343818 0.619367
Si Si7 0.917804 0.160803 0.617170
Si Si8 0.204671 0.999668 0.883254
O O1 0.319818 0.134889 0.239966
O O2 0.269620 0.000030 0.354067
O O3 0.251742 0.999909 0.169988
O O4 0.319498 0.863582 0.240306
O O5 0.878649 0.808525 0.690487
O O6 0.801059 0.868385 0.663786
O O7 0.822345 0.872926 0.841102
O O8 0.092959 0.184631 0.500000
O O9 0.042110 0.256798 0.644592
O O10 0.071276 0.999910 0.624779
O O11 0.878406 0.191202 0.309590
O O12 0.800592 0.133954 0.335874
O O13 0.822154 0.128231 0.158748
O O14 0.787406 0.001304 0.500000
O O15 0.999869 0.350965 0.500000
O O16 0.957608 0.257199 0.644681
O O17 0.000000 0.500000 0.656394
O O18 0.906844 0.184568 0.500000
O O19 0.209370 0.999821 0.000000
#
# Coordination Sequence:
#
# PCOD9425132 Si02
#       8
#     8   8   8   8   8   8   8   8
#     4  10  22  32  46  73 101 130 169 210 255 299
#     4  10  20  33  49  74  99 129 171 211 248 304
#     4  10  18  32  51  71 103 142 173 204 241 287
#     4  10  20  33  49  74  99 129 171 211 248 304
#     4  10  18  32  46  62  97 138 175 205 237 287
#     4   9  19  31  47  77 107 134 170 205 242 293
#     4  10  18  32  51  71 103 142 173 204 241 287
#     4  10  20  38  58  72  96 129 166 215 264 310
#
# _framework density 15.445354999999999
#
# number of rings (size 3 to 8) (size 9 to 14) (size 15 to 20)
#    0.000    2.375    2.500    4.125    1.750    6.500 
#    0.000    0.000    0.000    0.000    0.000    1.750 
#    0.000    1.000    0.000    0.000    0.000    0.000 
#
# Total GULP energy -356465.837161 kJ/mol
# GULP energy per Si atom -5569.778706 kJ/mol
# Density = 1.541020 g / cm^3
# Si number density = 15.445355 Si / 1000 Ang^3
#
#
#
# Elastic Constant Matrix: (Units=GPa)
#
#
# Indices 1 2 3 4 5 6 
#
# 1 78.6577 63.5932 21.7008 0.0000 0.0000 0.0000
# 2 63.5932 157.5112 36.1305 0.0000 0.0000 0.0000
# 3 21.7008 36.1305 86.9515 0.0000 0.0000 0.0000
# 4 0.0000 0.0000 0.0000 2.0476 0.0000 0.0000
# 5 0.0000 0.0000 0.0000 0.0000 14.3246 0.0000
# 6 0.0000 0.0000 0.0000 0.0000 0.0000 77.0946
#
#
#
# Elastic Compliance Matrix: (Units=1/GPa)
#
#
# Indices 1 2 3 4 5 6 
#
# 1 0.019106 -0.007318 -0.001728 0.000000 0.000000 0.000000
# 2 -0.007318 0.009820 -0.002254 0.000000 0.000000 0.000000
# 3 -0.001728 -0.002254 0.012869 0.000000 0.000000 0.000000
# 4 0.000000 0.000000 0.000000 0.488375 0.000000 0.000000
# 5 0.000000 0.000000 0.000000 0.000000 0.069810 0.000000
# 6 0.000000 0.000000 0.000000 0.000000 0.000000 0.012971
#
#
# Mechanical properties :
#
#
# Convention : Reuss Voigt Hill
#
# Bulk Modulus (GPa) = 52.09493 62.88551 57.49022
# Shear Modulus (GPa) = 7.78879 32.13975 19.96427
#
# Velocity S-wave (km/s) = 2.24805 4.56660 3.59914
# Velocity P-wave (km/s) = 6.36711 8.28302 7.38744
#
# Compressibility (1/GPa) = 0.01919573
#
# Stress axis : x y z
#
# Youngs Moduli (GPa) = 52.33941 101.83079 77.70864
#
# Poissons Ratio (x) = 0.74515 0.13426
# Poissons Ratio (y) = 0.38299 0.17518
# Poissons Ratio (z) = 0.09043 0.22956
#
# Static dielectric constant tensor:
#      x y z
#    x 1.519130 0.000000 0.000000 
#    y 0.000000 1.534410 0.000000 
#    z 0.000000 0.000000 1.493460 
# 
# From -- ./inp_files/20194.got.cif
#   From: 2010.05.17/outbox.cif.g08.bks.cpg/sg55_11_cif.got.tgz:20194.got - 2010.06.03 13:27:54.
