data_PCOD9425084
_publ_section_title
;
Structure prediction by ZEFSAII (Michael W. Deem and Ramdas Pophale) SiO2 
 PCOD9425084
Probable space group: P B A M
;
_chemical_formula_sum "Si O2"
_cell_formula_units_Z 64
_cell_length_a 22.537447
_cell_length_b 16.034518
_cell_length_c 9.924870
_cell_angle_alpha 90.000000
_cell_angle_beta 90.000000
_cell_angle_gamma 90.000000
_cell_volume 3586.620734
_symmetry_space_group_name_H-M "P B A M"
_symmetry_group_IT_number 55
_symmetry_cell_setting 'orthorhombic'
loop_
_space_group_symop_operation_xyz
x,y,z
-x,-y,z
1/2+x,1/2-y,-z
1/2-x,1/2+y,-z
-x,-y,-z
x,y,-z
1/2-x,1/2+y,z
1/2+x,1/2-y,z
loop_
_atom_site_type_symbol
_atom_site_label
_atom_site_fract_x
_atom_site_fract_y
_atom_site_fract_z
Si Si1 0.053021 0.933101 0.840568
Si Si2 0.737442 0.669377 0.349358
Si Si3 0.333630 0.219626 0.850017
Si Si4 0.470885 0.244159 0.157071
Si Si5 0.036509 0.418619 0.836389
Si Si6 0.839937 0.002647 0.652908
Si Si7 0.326856 0.897815 0.846927
Si Si8 0.246983 0.064130 0.148229
O O1 0.032399 0.840126 0.793924
O O2 0.106013 0.965661 0.745882
O O3 0.071261 0.926213 0.000000
O O4 0.000000 0.000000 0.833824
O O5 0.748454 0.700286 0.500000
O O6 0.690512 0.722989 0.266952
O O7 0.706221 0.579320 0.358746
O O8 0.796637 0.663195 0.260040
O O9 0.403844 0.208890 0.837450
O O10 0.295892 0.135809 0.841784
O O11 0.323231 0.257064 0.000000
O O12 0.511771 0.170538 0.215409
O O13 0.488308 0.252787 0.000000
O O14 0.106525 0.423770 0.809376
O O15 0.000000 0.500000 0.788584
O O16 0.029642 0.417682 0.000000
O O17 0.857437 0.979247 0.500000
O O18 0.802296 0.934405 0.735946
O O19 0.284429 0.978591 0.848835
O O20 0.328006 0.863353 0.000000
O O21 0.218089 0.069861 0.000000
#
# Coordination Sequence:
#
# PCOD9425084 Si02
#       8
#     8   8   8   8   8   8   8   8
#     4  10  20  35  55  77 104 142 184 229 274 317
#     4  10  20  33  51  73 102 137 173 214 262 315
#     4  10  18  31  53  78 102 132 174 220 267 316
#     4   9  17  30  51  78 107 139 178 223 267 315
#     4   9  16  28  50  81 112 139 171 218 272 323
#     4  10  20  35  54  75 102 138 176 218 272 323
#     4   9  17  31  51  75 105 137 169 207 259 316
#     4   9  18  31  51  79 105 133 171 217 266 322
#
# _framework density 17.844093999999998
#
# number of rings (size 3 to 8) (size 9 to 14) (size 15 to 20)
#    0.000    2.500    1.250    1.500    0.000    4.750 
#    2.250    0.000    0.000    1.875    0.000    0.000 
#    0.000    0.000    0.000    0.000    0.000    0.000 
#
# Total GULP energy -356313.028139 kJ/mol
# GULP energy per Si atom -5567.391065 kJ/mol
# Density = 1.780348 g / cm^3
# Si number density = 17.844094 Si / 1000 Ang^3
#
#
#
# Elastic Constant Matrix: (Units=GPa)
#
#
# Indices 1 2 3 4 5 6 
#
# 1 65.5261 6.9652 36.2823 0.0000 0.0000 0.0000
# 2 6.9652 31.2276 13.4355 0.0000 0.0000 0.0000
# 3 36.2823 13.4355 91.2704 0.0000 0.0000 0.0000
# 4 0.0000 0.0000 0.0000 5.9384 0.0000 0.0000
# 5 0.0000 0.0000 0.0000 0.0000 4.4597 0.0000
# 6 0.0000 0.0000 0.0000 0.0000 0.0000 24.8367
#
#
#
# Elastic Compliance Matrix: (Units=1/GPa)
#
#
# Indices 1 2 3 4 5 6 
#
# 1 0.019603 -0.001089 -0.007632 0.000000 0.000000 0.000000
# 2 -0.001089 0.034249 -0.004609 0.000000 0.000000 0.000000
# 3 -0.007632 -0.004609 0.014669 0.000000 0.000000 0.000000
# 4 0.000000 0.000000 0.000000 0.168396 0.000000 0.000000
# 5 0.000000 0.000000 0.000000 0.000000 0.224232 0.000000
# 6 0.000000 0.000000 0.000000 0.000000 0.000000 0.040263
#
#
# Mechanical properties :
#
#
# Convention : Reuss Voigt Hill
#
# Bulk Modulus (GPa) = 23.88860 33.48777 28.68818
# Shear Modulus (GPa) = 9.22467 15.80302 12.51384
#
# Velocity S-wave (km/s) = 2.27614 2.97916 2.65106
# Velocity P-wave (km/s) = 4.50824 5.53547 5.04805
#
# Compressibility (1/GPa) = 0.04186098
#
# Stress axis : x y z
#
# Youngs Moduli (GPa) = 51.01277 29.19815 68.17110
#
# Poissons Ratio (x) = 0.03178 0.52031
# Poissons Ratio (y) = 0.05553 0.31419
# Poissons Ratio (z) = 0.38935 0.13457
#
# Static dielectric constant tensor:
#      x y z
#    x 1.656470 0.000000 0.000000 
#    y 0.000000 1.647380 0.000000 
#    z 0.000000 0.000000 1.630480 
# 
# From -- ./inp_files/9719.got.cif
#   From: 2010.05.17/outbox.cif.g08.bks.cpg/sg55_5_cif.got.tgz:9719.got - 2010.06.03 13:27:54.
