data_PCOD9425479
_publ_section_title
;
Structure prediction by ZEFSAII (Michael W. Deem and Ramdas Pophale) SiO2 
 PCOD9425479
Probable space group: P B A M
;
_chemical_formula_sum "Si O2"
_cell_formula_units_Z 48
_cell_length_a 28.680177
_cell_length_b 7.770519
_cell_length_c 7.726859
_cell_angle_alpha 90.000000
_cell_angle_beta 90.000000
_cell_angle_gamma 90.000000
_cell_volume 1722.006717
_symmetry_space_group_name_H-M "P B A M"
_symmetry_group_IT_number 55
_symmetry_cell_setting 'orthorhombic'
loop_
_space_group_symop_operation_xyz
x,y,z
-x,-y,z
1/2+x,1/2-y,-z
1/2-x,1/2+y,-z
-x,-y,-z
x,y,-z
1/2-x,1/2+y,z
1/2+x,1/2-y,z
loop_
_atom_site_type_symbol
_atom_site_label
_atom_site_fract_x
_atom_site_fract_y
_atom_site_fract_z
Si Si1 0.490612 0.780354 0.792807
Si Si2 0.766418 0.612352 0.794784
Si Si3 0.572252 0.559236 0.789981
Si Si4 0.156957 0.144064 0.202484
Si Si5 0.175301 0.719412 0.300764
Si Si6 0.597320 0.019211 0.707034
O O1 0.540669 0.715840 0.719587
O O2 0.458473 0.612196 0.754258
O O3 0.456903 0.939220 0.743642
O O4 0.495984 0.791193 0.000000
O O5 0.794633 0.780374 0.727635
O O6 0.711207 0.640967 0.775593
O O7 0.792150 0.452525 0.710376
O O8 0.774953 0.595556 0.000000
O O9 0.623945 0.508044 0.724489
O O10 0.574526 0.571362 0.000000
O O11 0.124305 0.315029 0.217188
O O12 0.163201 0.108117 0.000000
O O13 0.169053 0.758485 0.500000
O O14 0.126638 0.645396 0.222132
O O15 0.603064 0.019469 0.500000
#
# Coordination Sequence:
#
# PCOD9425479 Si02
#       6
#     8   8   8   8   8   8
#     4   8  12  19  32  48  70 102 136 167 201 246
#     4  10  19  31  49  70  89 114 153 195 225 257
#     4   7  10  18  32  49  70 100 134 164 202 252
#     4   8  14  25  39  54  76 106 138 173 213 254
#     4  10  20  33  47  64  91 124 151 181 228 277
#     4   9  16  24  35  53  78 108 140 172 209 254
#
# _framework density 27.874455999999999
#
# number of rings (size 3 to 8) (size 9 to 14) (size 15 to 20)
#    0.000    3.333    0.000    3.500    0.000    2.667 
#    0.000    6.667    0.000    0.000    0.000    0.000 
#    0.000    1.333    0.000   15.333    0.000   11.500 
#
# Total GULP energy -268345.422833 kJ/mol
# GULP energy per Si atom -5590.529642 kJ/mol
# Density = 2.781101 g / cm^3
# Si number density = 27.874456 Si / 1000 Ang^3
#
#
#
# Elastic Constant Matrix: (Units=GPa)
#
#
# Indices 1 2 3 4 5 6 
#
# 1 236.5290 -12.6250 14.6252 0.0000 0.0000 0.0000
# 2 -12.6250 76.3963 6.7641 0.0000 0.0000 0.0000
# 3 14.6252 6.7641 72.6782 0.0000 0.0000 0.0000
# 4 0.0000 0.0000 0.0000 30.2215 0.0000 0.0000
# 5 0.0000 0.0000 0.0000 0.0000 15.7216 0.0000
# 6 0.0000 0.0000 0.0000 0.0000 0.0000 56.8586
#
#
#
# Elastic Compliance Matrix: (Units=1/GPa)
#
#
# Indices 1 2 3 4 5 6 
#
# 1 0.004329 0.000799 -0.000945 0.000000 0.000000 0.000000
# 2 0.000799 0.013346 -0.001403 0.000000 0.000000 0.000000
# 3 -0.000945 -0.001403 0.014080 0.000000 0.000000 0.000000
# 4 0.000000 0.000000 0.000000 0.033089 0.000000 0.000000
# 5 0.000000 0.000000 0.000000 0.000000 0.063607 0.000000
# 6 0.000000 0.000000 0.000000 0.000000 0.000000 0.017588
#
#
# Mechanical properties :
#
#
# Convention : Reuss Voigt Hill
#
# Bulk Modulus (GPa) = 34.89623 44.79244 39.84433
# Shear Modulus (GPa) = 31.50823 45.68296 38.59559
#
# Velocity S-wave (km/s) = 3.36573 4.05270 3.72509
# Velocity P-wave (km/s) = 5.25837 6.16469 5.72948
#
# Compressibility (1/GPa) = 0.02865639
#
# Stress axis : x y z
#
# Youngs Moduli (GPa) = 231.00411 74.92931 71.02212
#
# Poissons Ratio (x) = -0.05988 0.06715
# Poissons Ratio (y) = -0.18459 0.09964
# Poissons Ratio (z) = 0.21841 0.10512
#
# Static dielectric constant tensor:
#      x y z
#    x 2.261800 0.000000 0.000000 
#    y 0.000000 2.353060 0.000000 
#    z 0.000000 0.000000 1.951380 
# 
# From -- ./inp_files/4364.got.cif
#   From: 2010.05.17/outbox.cif.g08.bks.cpg/sg55_3_cif.got.tgz:4364.got - 2010.06.03 13:27:54.
