data_PCOD9425248
_publ_section_title
;
Structure prediction by ZEFSAII (Michael W. Deem and Ramdas Pophale) SiO2 
 PCOD9425248
Probable space group: P B A M
;
_chemical_formula_sum "Si O2"
_cell_formula_units_Z 32
_cell_length_a 8.010161
_cell_length_b 14.093481
_cell_length_c 12.736113
_cell_angle_alpha 90.000000
_cell_angle_beta 90.000000
_cell_angle_gamma 90.000000
_cell_volume 1437.793193
_symmetry_space_group_name_H-M "P B A M"
_symmetry_group_IT_number 55
_symmetry_cell_setting 'orthorhombic'
loop_
_space_group_symop_operation_xyz
x,y,z
-x,-y,z
1/2+x,1/2-y,-z
1/2-x,1/2+y,-z
-x,-y,-z
x,y,-z
1/2-x,1/2+y,z
1/2+x,1/2-y,z
loop_
_atom_site_type_symbol
_atom_site_label
_atom_site_fract_x
_atom_site_fract_y
_atom_site_fract_z
Si Si1 0.707451 0.313631 0.282197
Si Si2 0.235249 0.893922 0.500000
Si Si3 0.334346 0.393003 0.276958
Si Si4 0.388863 0.185788 0.500000
Si Si5 0.687287 0.959700 0.879652
O O1 0.520015 0.351777 0.276883
O O2 0.715964 0.199745 0.273127
O O3 0.793427 0.339268 0.393023
O O4 0.803108 0.363157 0.186439
O O5 0.200671 0.942959 0.610707
O O6 0.425933 0.856515 0.500000
O O7 0.115082 0.800923 0.500000
O O8 0.298253 0.463941 0.182994
O O9 0.500000 0.000000 0.878119
O O10 0.740165 0.947104 0.000000
#
# Coordination Sequence:
#
# PCOD9425248 Si02
#       5
#     8   4   8   4   8
#     4  11  22  39  63  91 123 158 197 242 297 355
#     4  10  18  33  58  89 123 156 194 239 293 353
#     4  11  22  39  63  91 123 158 197 242 297 355
#     4  10  18  33  58  89 123 156 194 239 293 353
#     4  11  25  44  63  86 117 155 203 253 298 349
#
# _framework density 22.256330999999999
#
# number of rings (size 3 to 8) (size 9 to 14) (size 15 to 20)
#    0.000    1.250    0.000   10.500    0.000    4.000 
#    0.000    5.000    0.000    0.000    0.000    0.000 
#    0.000    0.000    0.000    0.000    0.000    0.000 
#
# Total GULP energy -179186.596132 kJ/mol
# GULP energy per Si atom -5599.581129 kJ/mol
# Density = 2.220567 g / cm^3
# Si number density = 22.256331 Si / 1000 Ang^3
#
#
#
# Elastic Constant Matrix: (Units=GPa)
#
#
# Indices 1 2 3 4 5 6 
#
# 1 78.0877 -7.3838 19.8782 0.0000 0.0000 0.0000
# 2 -7.3838 78.9465 47.0580 0.0000 0.0000 0.0000
# 3 19.8782 47.0580 214.0399 0.0000 0.0000 0.0000
# 4 0.0000 0.0000 0.0000 25.9502 0.0000 0.0000
# 5 0.0000 0.0000 0.0000 0.0000 28.3550 0.0000
# 6 0.0000 0.0000 0.0000 0.0000 0.0000 32.8359
#
#
#
# Elastic Compliance Matrix: (Units=1/GPa)
#
#
# Indices 1 2 3 4 5 6 
#
# 1 0.013472 0.002308 -0.001759 0.000000 0.000000 0.000000
# 2 0.002308 0.014973 -0.003506 0.000000 0.000000 0.000000
# 3 -0.001759 -0.003506 0.005606 0.000000 0.000000 0.000000
# 4 0.000000 0.000000 0.000000 0.038535 0.000000 0.000000
# 5 0.000000 0.000000 0.000000 0.000000 0.035267 0.000000
# 6 0.000000 0.000000 0.000000 0.000000 0.000000 0.030454
#
#
# Mechanical properties :
#
#
# Convention : Reuss Voigt Hill
#
# Bulk Modulus (GPa) = 35.53933 54.46433 45.00183
# Shear Modulus (GPa) = 32.55201 38.19633 35.37417
#
# Velocity S-wave (km/s) = 3.82854 4.14720 3.99105
# Velocity P-wave (km/s) = 5.96209 6.88889 6.44218
#
# Compressibility (1/GPa) = 0.02813784
#
# Stress axis : x y z
#
# Youngs Moduli (GPa) = 74.22766 66.78835 178.37334
#
# Poissons Ratio (x) = -0.15417 0.31370
# Poissons Ratio (y) = -0.17134 0.62541
# Poissons Ratio (z) = 0.13054 0.23417
#
# Static dielectric constant tensor:
#      x y z
#    x 1.831570 0.000000 0.000000 
#    y 0.000000 1.853100 0.000000 
#    z 0.000000 0.000000 1.809080 
# 
# From -- ./inp_files/11722.got.cif
#   From: 2010.05.17/outbox.cif.g08.bks.cpg/sg55_6_cif.got.tgz:11722.got - 2010.06.03 13:27:54.
