data_PCOD9425912
_publ_section_title
;
Structure prediction by ZEFSAII (Michael W. Deem and Ramdas Pophale) SiO2 
 PCOD9425912
Probable space group: P B A M
;
_chemical_formula_sum "Si O2"
_cell_formula_units_Z 64
_cell_length_a 19.359868
_cell_length_b 19.508878
_cell_length_c 7.324229
_cell_angle_alpha 90.000000
_cell_angle_beta 90.000000
_cell_angle_gamma 90.000000
_cell_volume 2766.282945
_symmetry_space_group_name_H-M "P B A M"
_symmetry_group_IT_number 55
_symmetry_cell_setting 'orthorhombic'
loop_
_space_group_symop_operation_xyz
x,y,z
-x,-y,z
1/2+x,1/2-y,-z
1/2-x,1/2+y,-z
-x,-y,-z
x,y,-z
1/2-x,1/2+y,z
1/2+x,1/2-y,z
loop_
_atom_site_type_symbol
_atom_site_label
_atom_site_fract_x
_atom_site_fract_y
_atom_site_fract_z
Si Si1 0.835911 0.637145 0.290936
Si Si2 0.326282 0.594631 0.221452
Si Si3 0.581104 0.001216 0.276570
Si Si4 0.084334 0.226526 0.221076
Si Si5 0.715593 0.735211 0.709828
Si Si6 0.432610 0.321848 0.777959
Si Si7 0.678977 0.881525 0.708158
Si Si8 0.076773 0.974795 0.781972
O O1 0.817896 0.619483 0.500000
O O2 0.873961 0.568407 0.217082
O O3 0.891111 0.699217 0.285300
O O4 0.767021 0.676304 0.212530
O O5 0.362101 0.666564 0.277916
O O6 0.250345 0.577736 0.291014
O O7 0.373403 0.532740 0.287716
O O8 0.325718 0.595190 0.000000
O O9 0.581944 0.002117 0.500000
O O10 0.500000 0.000000 0.222815
O O11 0.619653 0.930975 0.216805
O O12 0.006654 0.207784 0.279388
O O13 0.085345 0.227499 0.000000
O O14 0.739571 0.743990 0.500000
O O15 0.635941 0.714933 0.714630
O O16 0.708260 0.811018 0.795610
O O17 0.421185 0.398686 0.711355
O O18 0.433750 0.320804 0.000000
O O19 0.657942 0.864567 0.500000
O O20 0.089358 0.970262 0.000000
O O21 0.000000 0.000000 0.755658
#
# Coordination Sequence:
#
# PCOD9425912 Si02
#       8
#     8   8   8   8   8   8   8   8
#     4  10  21  38  59  82 110 144 188 235 282 335
#     4  10  19  33  56  82 109 144 181 219 267 326
#     4   9  20  38  60  81 105 147 194 229 271 333
#     4  10  20  35  56  83 112 144 184 228 277 332
#     4  10  22  37  54  83 114 142 181 233 285 329
#     4  10  21  35  55  82 111 147 185 223 272 331
#     4  10  21  38  58  80 107 141 183 229 274 327
#     4   9  16  31  53  77 108 144 181 215 253 317
#
# _framework density 23.135738
#
# number of rings (size 3 to 8) (size 9 to 14) (size 15 to 20)
#    0.000    2.250    2.500    0.000    3.500    1.500 
#    0.000    0.625    0.000    1.500    0.000    0.000 
#    0.000    0.000    0.000    0.000    0.000    0.000 
#
# Total GULP energy -356942.940726 kJ/mol
# GULP energy per Si atom -5577.233449 kJ/mol
# Density = 2.308308 g / cm^3
# Si number density = 23.135738 Si / 1000 Ang^3
#
#
#
# Elastic Constant Matrix: (Units=GPa)
#
#
# Indices 1 2 3 4 5 6 
#
# 1 169.5382 67.8871 2.2955 0.0000 0.0000 0.0000
# 2 67.8871 68.4889 2.6555 0.0000 0.0000 0.0000
# 3 2.2955 2.6555 96.4367 0.0000 0.0000 0.0000
# 4 0.0000 0.0000 0.0000 8.1627 0.0000 0.0000
# 5 0.0000 0.0000 0.0000 0.0000 13.3997 0.0000
# 6 0.0000 0.0000 0.0000 0.0000 0.0000 50.1916
#
#
#
# Elastic Compliance Matrix: (Units=1/GPa)
#
#
# Indices 1 2 3 4 5 6 
#
# 1 0.009780 -0.009696 0.000034 0.000000 0.000000 0.000000
# 2 -0.009696 0.024228 -0.000436 0.000000 0.000000 0.000000
# 3 0.000034 -0.000436 0.010381 0.000000 0.000000 0.000000
# 4 0.000000 0.000000 0.000000 0.122509 0.000000 0.000000
# 5 0.000000 0.000000 0.000000 0.000000 0.074629 0.000000
# 6 0.000000 0.000000 0.000000 0.000000 0.000000 0.019924
#
#
# Mechanical properties :
#
#
# Convention : Reuss Voigt Hill
#
# Bulk Modulus (GPa) = 41.33327 53.34888 47.34107
# Shear Modulus (GPa) = 17.25861 31.79251 24.52556
#
# Velocity S-wave (km/s) = 2.73421 3.71101 3.25941
# Velocity P-wave (km/s) = 5.27941 6.43982 5.88827
#
# Compressibility (1/GPa) = 0.02419359
#
# Stress axis : x y z
#
# Youngs Moduli (GPa) = 102.24647 41.27402 96.33260
#
# Poissons Ratio (x) = 0.40018 -0.00329
# Poissons Ratio (y) = 0.99135 0.04204
# Poissons Ratio (z) = -0.00349 0.01801
#
# Static dielectric constant tensor:
#      x y z
#    x 1.967100 0.000000 0.000000 
#    y 0.000000 1.884630 0.000000 
#    z 0.000000 0.000000 1.895100 
# 
# From -- ./inp_files/8097.got.cif
#   From: 2010.05.17/outbox.cif.g08.bks.cpg/sg55_5_cif.got.tgz:8097.got - 2010.06.03 13:27:54.
