data_PCOD9425284
_publ_section_title
;
Structure prediction by ZEFSAII (Michael W. Deem and Ramdas Pophale) SiO2 
 PCOD9425284
Probable space group: P B A M
;
_chemical_formula_sum "Si O2"
_cell_formula_units_Z 40
_cell_length_a 8.064735
_cell_length_b 29.392622
_cell_length_c 8.599725
_cell_angle_alpha 90.000000
_cell_angle_beta 90.000000
_cell_angle_gamma 90.000000
_cell_volume 2038.510696
_symmetry_space_group_name_H-M "P B A M"
_symmetry_group_IT_number 55
_symmetry_cell_setting 'orthorhombic'
loop_
_space_group_symop_operation_xyz
x,y,z
-x,-y,z
1/2+x,1/2-y,-z
1/2-x,1/2+y,-z
-x,-y,-z
x,y,-z
1/2-x,1/2+y,z
1/2+x,1/2-y,z
loop_
_atom_site_type_symbol
_atom_site_label
_atom_site_fract_x
_atom_site_fract_y
_atom_site_fract_z
Si Si1 0.489120 0.947309 0.812154
Si Si2 0.803490 0.892307 0.315749
Si Si3 0.704963 0.199809 0.811169
Si Si4 0.320698 0.200518 0.811883
Si Si5 0.846129 0.104271 0.188038
O O1 0.645089 0.919548 0.748020
O O2 0.313500 0.925324 0.764527
O O3 0.500000 0.000000 0.766362
O O4 0.496316 0.944495 0.000000
O O5 0.802292 0.893402 0.500000
O O6 0.784968 0.840438 0.256634
O O7 0.977806 0.911240 0.252976
O O8 0.512861 0.193212 0.770109
O O9 0.766631 0.249228 0.759330
O O10 0.809425 0.156229 0.759858
O O11 0.713411 0.200362 0.000000
O O12 0.306172 0.198817 0.000000
O O13 0.854381 0.103757 0.000000
#
# Coordination Sequence:
#
# PCOD9425284 Si02
#       5
#     8   8   8   8   8
#     4  10  22  43  71  96 117 151 205 265 313 355
#     4  12  25  39  58  88 128 169 200 241 305 370
#     4   9  17  31  59  90 116 153 203 259 304 348
#     4  10  18  34  58  87 119 156 208 255 299 354
#     4  10  20  39  65  91 120 156 203 255 301 355
#
# _framework density 19.622167999999999
#
# number of rings (size 3 to 8) (size 9 to 14) (size 15 to 20)
#    0.000    1.800    2.000    3.000    0.000    5.200 
#    0.000    8.000    0.000    0.000    0.000    0.000 
#    0.000    0.000    0.000    0.000    0.000    0.000 
#
# Total GULP energy -223473.319417 kJ/mol
# GULP energy per Si atom -5586.832985 kJ/mol
# Density = 1.957751 g / cm^3
# Si number density = 19.622168 Si / 1000 Ang^3
#
#
#
# Elastic Constant Matrix: (Units=GPa)
#
#
# Indices 1 2 3 4 5 6 
#
# 1 119.6654 20.9748 13.9325 0.0000 0.0000 0.0000
# 2 20.9748 77.1578 11.2869 0.0000 0.0000 0.0000
# 3 13.9325 11.2869 11.2414 0.0000 0.0000 0.0000
# 4 0.0000 0.0000 0.0000 -2.1523 0.0000 0.0000
# 5 0.0000 0.0000 0.0000 0.0000 -10.3188 0.0000
# 6 0.0000 0.0000 0.0000 0.0000 0.0000 25.7025
#
#
#
# Elastic Compliance Matrix: (Units=1/GPa)
#
#
# Indices 1 2 3 4 5 6 
#
# 1 0.009837 -0.001044 -0.011144 0.000000 0.000000 0.000000
# 2 -0.001044 0.015303 -0.014071 0.000000 0.000000 0.000000
# 3 -0.011144 -0.014071 0.116896 0.000000 0.000000 0.000000
# 4 0.000000 0.000000 0.000000 -0.464621 0.000000 0.000000
# 5 0.000000 0.000000 0.000000 0.000000 -0.096911 0.000000
# 6 0.000000 0.000000 0.000000 0.000000 0.000000 0.038907
#
#
# Mechanical properties :
#
#
# Convention : Reuss Voigt Hill
#
# Bulk Modulus (GPa) = 11.17083 33.38367 22.27725
# Shear Modulus (GPa) = -16.76538 13.43765 -1.66387
#
# Velocity S-wave (km/s) = -2.92620 2.61975 -0.92184
# Velocity P-wave (km/s) = 2.38988 5.11868 3.20073
#
# Compressibility (1/GPa) = 0.08951885
#
# Stress axis : x y z
#
# Youngs Moduli (GPa) = 101.65617 65.34860 8.55461
#
# Poissons Ratio (x) = 0.06822 0.09533
# Poissons Ratio (y) = 0.10613 0.12037
# Poissons Ratio (z) = 1.13284 0.91949
#
# Static dielectric constant tensor:
#      x y z
#    x 1.681520 0.000000 0.000000 
#    y 0.000000 1.687130 0.000000 
#    z 0.000000 0.000000 1.662790 
# 
# From -- ./inp_files/2516.got.cif
#   From: 2010.05.17/outbox.cif.g08.bks.cpg/sg55_2_cif.got.tgz:2516.got - 2010.06.03 13:27:54.
