data_PCOD9425817
_publ_section_title
;
Structure prediction by ZEFSAII (Michael W. Deem and Ramdas Pophale) SiO2 
 PCOD9425817
Probable space group: P B A M
;
_chemical_formula_sum "Si O2"
_cell_formula_units_Z 64
_cell_length_a 20.947935
_cell_length_b 17.737938
_cell_length_c 7.863193
_cell_angle_alpha 90.000000
_cell_angle_beta 90.000000
_cell_angle_gamma 90.000000
_cell_volume 2921.751567
_symmetry_space_group_name_H-M "P B A M"
_symmetry_group_IT_number 55
_symmetry_cell_setting 'orthorhombic'
loop_
_space_group_symop_operation_xyz
x,y,z
-x,-y,z
1/2+x,1/2-y,-z
1/2-x,1/2+y,-z
-x,-y,-z
x,y,-z
1/2-x,1/2+y,z
1/2+x,1/2-y,z
loop_
_atom_site_type_symbol
_atom_site_label
_atom_site_fract_x
_atom_site_fract_y
_atom_site_fract_z
Si Si1 0.883731 0.790889 0.798564
Si Si2 0.793034 0.922170 0.306139
Si Si3 0.483905 0.111132 0.800556
Si Si4 0.342420 0.282669 0.302898
Si Si5 0.738658 0.578524 0.295108
Si Si6 0.845035 0.386515 0.802826
Si Si7 0.622389 0.119121 0.205795
Si Si8 0.978987 0.206038 0.198407
O O1 0.828661 0.851611 0.774726
O O2 0.869705 0.706389 0.732991
O O3 0.952392 0.820249 0.732747
O O4 0.893469 0.781117 0.000000
O O5 0.815123 0.923544 0.500000
O O6 0.717087 0.910329 0.297996
O O7 0.799411 0.005614 0.228415
O O8 0.414314 0.089361 0.731294
O O9 0.553438 0.088566 0.731835
O O10 0.484915 0.202552 0.793427
O O11 0.481835 0.089823 0.000000
O O12 0.327399 0.265254 0.500000
O O13 0.292372 0.343457 0.234813
O O14 0.343442 0.204678 0.201969
O O15 0.414197 0.315332 0.292238
O O16 0.732385 0.577853 0.500000
O O17 0.813526 0.576228 0.253868
O O18 0.839555 0.411065 0.000000
O O19 0.618608 0.119020 0.000000
O O20 0.971377 0.185201 0.000000
#
# Coordination Sequence:
#
# PCOD9425817 Si02
#       8
#     8   8   8   8   8   8   8   8
#     4   9  18  34  56  81 105 130 166 211 258 306
#     4  11  23  37  50  69 102 140 176 212 251 299
#     4   7  13  28  50  76 102 124 152 197 251 301
#     4  10  19  33  54  78 103 134 172 209 250 304
#     4  10  23  38  48  67 104 142 172 208 252 298
#     4  10  19  34  56  79 103 131 165 210 261 307
#     4   9  17  32  56  80  99 125 164 207 250 301
#     4   8  15  30  52  78 106 130 159 207 257 300
#
# _framework density 21.904668000000001
#
# number of rings (size 3 to 8) (size 9 to 14) (size 15 to 20)
#    0.000    2.750    0.000    4.125    0.000    5.000 
#    0.000    6.875    0.000    7.500    0.000    0.000 
#    0.000    0.000    0.000    0.000    0.000    0.000 
#
# Total GULP energy -356921.885052 kJ/mol
# GULP energy per Si atom -5576.904454 kJ/mol
# Density = 2.185481 g / cm^3
# Si number density = 21.904668 Si / 1000 Ang^3
#
#
#
# Elastic Constant Matrix: (Units=GPa)
#
#
# Indices 1 2 3 4 5 6 
#
# 1 84.5597 8.0781 -10.1591 0.0000 0.0000 0.0000
# 2 8.0781 35.3077 -5.6128 0.0000 0.0000 0.0000
# 3 -10.1591 -5.6128 28.3446 0.0000 0.0000 0.0000
# 4 0.0000 0.0000 0.0000 12.0066 0.0000 0.0000
# 5 0.0000 0.0000 0.0000 0.0000 33.9513 0.0000
# 6 0.0000 0.0000 0.0000 0.0000 0.0000 -22.1157
#
#
#
# Elastic Compliance Matrix: (Units=1/GPa)
#
#
# Indices 1 2 3 4 5 6 
#
# 1 0.012525 -0.002222 0.004049 0.000000 0.000000 0.000000
# 2 -0.002222 0.029637 0.005072 0.000000 0.000000 0.000000
# 3 0.004049 0.005072 0.037736 0.000000 0.000000 0.000000
# 4 0.000000 0.000000 0.000000 0.083287 0.000000 0.000000
# 5 0.000000 0.000000 0.000000 0.000000 0.029454 0.000000
# 6 0.000000 0.000000 0.000000 0.000000 0.000000 -0.045217
#
#
# Mechanical properties :
#
#
# Convention : Reuss Voigt Hill
#
# Bulk Modulus (GPa) = 10.67274 14.75827 12.71550
# Shear Modulus (GPa) = 30.32968 15.16217 22.74593
#
# Velocity S-wave (km/s) = 3.72509 2.63380 3.22593
# Velocity P-wave (km/s) = 4.83577 4.00017 4.43768
#
# Compressibility (1/GPa) = 0.09369667
#
# Stress axis : x y z
#
# Youngs Moduli (GPa) = 79.84234 33.74150 26.50008
#
# Poissons Ratio (x) = 0.07497 -0.10730
# Poissons Ratio (y) = 0.17740 -0.13442
# Poissons Ratio (z) = -0.32329 -0.17115
#
# Static dielectric constant tensor:
#      x y z
#    x 1.834320 0.000000 0.000000 
#    y 0.000000 1.822810 0.000000 
#    z 0.000000 0.000000 1.777790 
# 
# From -- ./inp_files/8950.got.cif
#   From: 2010.05.17/outbox.cif.g08.bks.cpg/sg55_5_cif.got.tgz:8950.got - 2010.06.03 13:27:54.
