data_PCOD9425907
_publ_section_title
;
Structure prediction by ZEFSAII (Michael W. Deem and Ramdas Pophale) SiO2 
 PCOD9425907
Probable space group: P B A M
;
_chemical_formula_sum "Si O2"
_cell_formula_units_Z 64
_cell_length_a 11.691033
_cell_length_b 34.131150
_cell_length_c 9.042078
_cell_angle_alpha 90.000000
_cell_angle_beta 90.000000
_cell_angle_gamma 90.000000
_cell_volume 3608.045926
_symmetry_space_group_name_H-M "P B A M"
_symmetry_group_IT_number 55
_symmetry_cell_setting 'orthorhombic'
loop_
_space_group_symop_operation_xyz
x,y,z
-x,-y,z
1/2+x,1/2-y,-z
1/2-x,1/2+y,-z
-x,-y,-z
x,y,-z
1/2-x,1/2+y,z
1/2+x,1/2-y,z
loop_
_atom_site_type_symbol
_atom_site_label
_atom_site_fract_x
_atom_site_fract_y
_atom_site_fract_z
Si Si1 0.715811 0.128820 0.322811
Si Si2 0.555906 0.201162 0.323010
Si Si3 0.474865 0.357481 0.322355
Si Si4 0.089043 0.443818 0.177530
Si Si5 0.904542 0.784562 0.173978
Si Si6 0.666394 0.970219 0.822213
Si Si7 0.828256 0.332347 0.825629
Si Si8 0.201205 0.095639 0.323604
O O1 0.711741 0.123862 0.500000
O O2 0.656377 0.170268 0.288116
O O3 0.848377 0.129524 0.276812
O O4 0.644880 0.093875 0.250065
O O5 0.544594 0.203847 0.500000
O O6 0.581422 0.243522 0.255680
O O7 0.440164 0.184012 0.253138
O O8 0.474830 0.351090 0.500000
O O9 0.513138 0.317484 0.243683
O O10 0.572738 0.389612 0.289840
O O11 0.155306 0.484002 0.216957
O O12 0.956214 0.450744 0.217976
O O13 0.092526 0.440154 0.000000
O O14 0.776237 0.801651 0.190251
O O15 0.928484 0.780014 0.000000
O O16 0.765205 0.946198 0.742326
O O17 0.678387 0.967407 0.000000
O O18 0.784572 0.372308 0.750887
O O19 0.848926 0.338782 0.000000
O O20 0.216210 0.096104 0.500000
#
# Coordination Sequence:
#
# PCOD9425907 Si02
#       8
#     8   8   8   8   8   8   8   8
#     4  10  22  38  55  79 109 144 182 222 271 326
#     4  11  23  36  55  81 108 140 179 223 273 327
#     4   9  20  39  57  76 108 147 183 223 272 327
#     4   9  19  35  55  81 111 146 180 221 275 327
#     4  10  22  38  56  80 106 137 181 227 271 320
#     4   9  18  34  56  81 112 144 179 223 275 327
#     4  10  21  37  55  78 109 140 176 223 271 322
#     4  10  19  33  56  82 106 140 184 225 271 322
#
# _framework density 17.738133999999999
#
# number of rings (size 3 to 8) (size 9 to 14) (size 15 to 20)
#    0.000    2.250    0.000    3.000    1.750    6.500 
#    0.000    1.875    0.000    3.750    0.000    0.000 
#    0.000    0.000    0.000    0.000    0.000    0.000 
#
# Total GULP energy -357337.868158 kJ/mol
# GULP energy per Si atom -5583.404190 kJ/mol
# Density = 1.769776 g / cm^3
# Si number density = 17.738134 Si / 1000 Ang^3
#
#
#
# Elastic Constant Matrix: (Units=GPa)
#
#
# Indices 1 2 3 4 5 6 
#
# 1 49.3546 27.8510 23.9343 0.0000 0.0000 0.0000
# 2 27.8510 79.6949 26.7099 0.0000 0.0000 0.0000
# 3 23.9343 26.7099 37.6646 0.0000 0.0000 0.0000
# 4 0.0000 0.0000 0.0000 35.5770 0.0000 0.0000
# 5 0.0000 0.0000 0.0000 0.0000 23.9872 0.0000
# 6 0.0000 0.0000 0.0000 0.0000 0.0000 15.0903
#
#
#
# Elastic Compliance Matrix: (Units=1/GPa)
#
#
# Indices 1 2 3 4 5 6 
#
# 1 0.031058 -0.005561 -0.015793 0.000000 0.000000 0.000000
# 2 -0.005561 0.017456 -0.008845 0.000000 0.000000 0.000000
# 3 -0.015793 -0.008845 0.042858 0.000000 0.000000 0.000000
# 4 0.000000 0.000000 0.000000 0.028108 0.000000 0.000000
# 5 0.000000 0.000000 0.000000 0.000000 0.041689 0.000000
# 6 0.000000 0.000000 0.000000 0.000000 0.000000 0.066268
#
#
# Mechanical properties :
#
#
# Convention : Reuss Voigt Hill
#
# Bulk Modulus (GPa) = 32.28423 35.96716 34.12570
# Shear Modulus (GPa) = 16.76960 20.81217 18.79088
#
# Velocity S-wave (km/s) = 3.07807 3.42906 3.25830
# Velocity P-wave (km/s) = 5.55632 5.99989 5.78236
#
# Compressibility (1/GPa) = 0.03097487
#
# Stress axis : x y z
#
# Youngs Moduli (GPa) = 32.19768 57.28814 23.33284
#
# Poissons Ratio (x) = 0.31858 0.36849
# Poissons Ratio (y) = 0.17905 0.20638
# Poissons Ratio (z) = 0.50849 0.50671
#
# Static dielectric constant tensor:
#      x y z
#    x 1.595740 0.000000 0.000000 
#    y 0.000000 1.584110 0.000000 
#    z 0.000000 0.000000 1.590450 
# 
# From -- ./inp_files/4688.got.cif
#   From: 2010.05.17/outbox.cif.g08.bks.cpg/sg55_3_cif.got.tgz:4688.got - 2010.06.03 13:27:54.
