data_PCOD9425344
_publ_section_title
;
Structure prediction by ZEFSAII (Michael W. Deem and Ramdas Pophale) SiO2 
 PCOD9425344
Probable space group: P B A M
;
_chemical_formula_sum "Si O2"
_cell_formula_units_Z 48
_cell_length_a 23.020626
_cell_length_b 7.556189
_cell_length_c 13.872194
_cell_angle_alpha 90.000000
_cell_angle_beta 90.000000
_cell_angle_gamma 90.000000
_cell_volume 2413.043190
_symmetry_space_group_name_H-M "P B A M"
_symmetry_group_IT_number 55
_symmetry_cell_setting 'orthorhombic'
loop_
_space_group_symop_operation_xyz
x,y,z
-x,-y,z
1/2+x,1/2-y,-z
1/2-x,1/2+y,-z
-x,-y,-z
x,y,-z
1/2-x,1/2+y,z
1/2+x,1/2-y,z
loop_
_atom_site_type_symbol
_atom_site_label
_atom_site_fract_x
_atom_site_fract_y
_atom_site_fract_z
Si Si1 0.016835 0.699349 0.612341
Si Si2 0.792520 0.103686 0.608166
Si Si3 0.975658 0.302657 0.107911
Si Si4 0.382002 0.301573 0.249542
Si Si5 0.837541 0.697584 0.607850
Si Si6 0.926270 0.815917 0.742596
O O1 0.022884 0.699457 0.500000
O O2 0.075750 0.752520 0.662666
O O3 0.000000 0.500000 0.645387
O O4 0.965739 0.828903 0.646776
O O5 0.804422 0.179734 0.500000
O O6 0.819318 0.207399 0.699822
O O7 0.723102 0.095887 0.616764
O O8 0.819838 0.906403 0.607857
O O9 0.912466 0.296785 0.159521
O O10 0.000000 0.500000 0.100879
O O11 0.024723 0.217416 0.176887
O O12 0.972806 0.226642 0.000000
O O13 0.393426 0.508081 0.227084
O O14 0.862740 0.657636 0.500000
O O15 0.879082 0.675402 0.700973
#
# Coordination Sequence:
#
# PCOD9425344 Si02
#       6
#     8   8   8   8   8   8
#     4  10  19  28  41  65  96 128 159 191 232 283
#     4   9  18  31  47  70 100 133 165 194 228 273
#     4  10  21  36  53  73  96 122 155 199 250 299
#     4  10  19  31  49  71  95 124 159 199 240 285
#     4   9  18  31  47  70 100 133 165 194 228 273
#     4  10  19  31  49  71  95 124 159 199 240 285
#
# _framework density 19.891894000000001
#
# number of rings (size 3 to 8) (size 9 to 14) (size 15 to 20)
#    0.000    2.333    0.000    5.000    0.000    6.667 
#    0.000    3.333    0.000    1.000    0.000    0.000 
#    0.000    0.000    0.000    0.000    0.000    0.000 
#
# Total GULP energy -267339.597246 kJ/mol
# GULP energy per Si atom -5569.574943 kJ/mol
# Density = 1.984662 g / cm^3
# Si number density = 19.891894 Si / 1000 Ang^3
#
#
#
# Elastic Constant Matrix: (Units=GPa)
#
#
# Indices 1 2 3 4 5 6 
#
# 1 48.7421 1.4901 32.8517 0.0000 0.0000 0.0000
# 2 1.4901 18.0975 12.3309 0.0000 0.0000 0.0000
# 3 32.8517 12.3309 110.2022 0.0000 0.0000 0.0000
# 4 0.0000 0.0000 0.0000 2.1296 0.0000 0.0000
# 5 0.0000 0.0000 0.0000 0.0000 11.9012 0.0000
# 6 0.0000 0.0000 0.0000 0.0000 0.0000 23.5851
#
#
#
# Elastic Compliance Matrix: (Units=1/GPa)
#
#
# Indices 1 2 3 4 5 6 
#
# 1 0.025864 0.003382 -0.008089 0.000000 0.000000 0.000000
# 2 0.003382 0.060259 -0.007751 0.000000 0.000000 0.000000
# 3 -0.008089 -0.007751 0.012353 0.000000 0.000000 0.000000
# 4 0.000000 0.000000 0.000000 0.469562 0.000000 0.000000
# 5 0.000000 0.000000 0.000000 0.000000 0.084025 0.000000
# 6 0.000000 0.000000 0.000000 0.000000 0.000000 0.042400
#
#
# Mechanical properties :
#
#
# Convention : Reuss Voigt Hill
#
# Bulk Modulus (GPa) = 13.59425 30.04304 21.81865
# Shear Modulus (GPa) = 6.72135 16.21444 11.46790
#
# Velocity S-wave (km/s) = 1.84018 2.85814 2.40367
# Velocity P-wave (km/s) = 3.37104 5.10176 4.32388
#
# Compressibility (1/GPa) = 0.07356049
#
# Stress axis : x y z
#
# Youngs Moduli (GPa) = 38.66308 16.59512 80.95370
#
# Poissons Ratio (x) = -0.05612 0.65481
# Poissons Ratio (y) = -0.13074 0.62744
# Poissons Ratio (z) = 0.31273 0.12862
#
# Static dielectric constant tensor:
#      x y z
#    x 1.761160 0.000000 0.000000 
#    y 0.000000 1.829370 0.000000 
#    z 0.000000 0.000000 1.711880 
# 
# From -- ./inp_files/19864.got.cif
#   From: 2010.05.17/outbox.cif.g08.bks.cpg/sg55_10_cif.got.tgz:19864.got - 2010.06.03 13:27:54.
