data_PCOD9425874
_publ_section_title
;
Structure prediction by ZEFSAII (Michael W. Deem and Ramdas Pophale) SiO2 
 PCOD9425874
Probable space group: P B A M
;
_chemical_formula_sum "Si O2"
_cell_formula_units_Z 52
_cell_length_a 9.631040
_cell_length_b 12.788561
_cell_length_c 16.141990
_cell_angle_alpha 90.000000
_cell_angle_beta 90.000000
_cell_angle_gamma 90.000000
_cell_volume 1988.162783
_symmetry_space_group_name_H-M "P B A M"
_symmetry_group_IT_number 55
_symmetry_cell_setting 'orthorhombic'
loop_
_space_group_symop_operation_xyz
x,y,z
-x,-y,z
1/2+x,1/2-y,-z
1/2-x,1/2+y,-z
-x,-y,-z
x,y,-z
1/2-x,1/2+y,z
1/2+x,1/2-y,z
loop_
_atom_site_type_symbol
_atom_site_label
_atom_site_fract_x
_atom_site_fract_y
_atom_site_fract_z
Si Si1 0.833937 0.857229 0.698959
Si Si2 0.580203 0.633265 0.590073
Si Si3 0.637317 0.661136 0.000000
Si Si4 0.321870 0.892526 0.297904
Si Si5 0.841544 0.525270 0.112702
Si Si6 0.582159 0.396290 0.119591
Si Si7 0.913689 0.384005 0.594062
O O1 0.825100 0.733232 0.715240
O O2 0.910156 0.893679 0.781910
O O3 0.685515 0.903230 0.673246
O O4 0.922423 0.877305 0.616602
O O5 0.613198 0.590555 0.500000
O O6 0.671762 0.587851 0.663196
O O7 0.602464 0.757931 0.587371
O O8 0.752601 0.618861 0.929655
O O9 0.515379 0.686120 0.927155
O O10 0.346543 0.943670 0.209303
O O11 0.432140 0.907899 0.372682
O O12 0.742700 0.422243 0.096708
O O13 0.000000 0.500000 0.088189
O O14 0.500000 0.500000 0.090193
O O15 0.886840 0.421386 0.500000
#
# Coordination Sequence:
#
# PCOD9425874 Si02
#       7
#     8   8   4   8   8   8   8
#     4  10  19  33  55  81 107 138 179 223 265 307
#     4   9  16  28  50  77 104 140 185 222 252 301
#     4  10  22  40  61  80  99 138 183 220 257 318
#     4  10  20  33  53  81 110 139 174 221 269 309
#     4  11  21  36  58  81 106 137 177 216 263 325
#     4  10  20  37  59  78 103 137 177 219 264 315
#     4   9  17  30  50  78 110 143 180 217 253 304
#
# _framework density 26.154799000000001
#
# number of rings (size 3 to 8) (size 9 to 14) (size 15 to 20)
#    0.000    2.154    0.000    6.000    0.000    3.692 
#    0.000    0.769    0.000   22.154    0.000    0.000 
#    0.000    0.000    0.000    0.000    0.000    0.000 
#
# Total GULP energy -289485.552684 kJ/mol
# GULP energy per Si atom -5567.029859 kJ/mol
# Density = 2.609527 g / cm^3
# Si number density = 26.154799 Si / 1000 Ang^3
#
#
#
# Elastic Constant Matrix: (Units=GPa)
#
#
# Indices 1 2 3 4 5 6 
#
# 1 156.0898 10.7704 66.9364 0.0000 0.0000 0.0000
# 2 10.7704 54.2049 18.8176 0.0000 0.0000 0.0000
# 3 66.9364 18.8176 246.3058 0.0000 0.0000 0.0000
# 4 0.0000 0.0000 0.0000 0.2092 0.0000 0.0000
# 5 0.0000 0.0000 0.0000 0.0000 -113.2405 0.0000
# 6 0.0000 0.0000 0.0000 0.0000 0.0000 35.8682
#
#
#
# Elastic Compliance Matrix: (Units=1/GPa)
#
#
# Indices 1 2 3 4 5 6 
#
# 1 0.007284 -0.000781 -0.001920 0.000000 0.000000 0.000000
# 2 -0.000781 0.019035 -0.001242 0.000000 0.000000 0.000000
# 3 -0.001920 -0.001242 0.004677 0.000000 0.000000 0.000000
# 4 0.000000 0.000000 0.000000 4.779924 0.000000 0.000000
# 5 0.000000 0.000000 0.000000 0.000000 -0.008831 0.000000
# 6 0.000000 0.000000 0.000000 0.000000 0.000000 0.027880
#
#
# Mechanical properties :
#
#
# Convention : Reuss Voigt Hill
#
# Bulk Modulus (GPa) = 43.27153 72.18325 57.72739
# Shear Modulus (GPa) = 1.03187 8.57246 4.80217
#
# Velocity S-wave (km/s) = 0.62879 1.81237 1.35648
# Velocity P-wave (km/s) = 4.13612 5.66021 4.95709
#
# Compressibility (1/GPa) = 0.02310988
#
# Stress axis : x y z
#
# Youngs Moduli (GPa) = 137.29274 52.53527 213.83026
#
# Poissons Ratio (x) = 0.04102 0.41051
# Poissons Ratio (y) = 0.10720 0.26559
# Poissons Ratio (z) = 0.26357 0.06525
#
# Static dielectric constant tensor:
#      x y z
#    x 2.018790 0.000000 0.000000 
#    y 0.000000 2.292980 0.000000 
#    z 0.000000 0.000000 1.991960 
# 
# From -- ./inp_files/17564.got.cif
#   From: 2010.05.17/outbox.cif.g08.bks.cpg/sg55_9_cif.got.tgz:17564.got - 2010.06.03 13:27:54.
