data_PCOD9425685
_publ_section_title
;
Structure prediction by ZEFSAII (Michael W. Deem and Ramdas Pophale) SiO2 
 PCOD9425685
Probable space group: P B A M
;
_chemical_formula_sum "Si O2"
_cell_formula_units_Z 48
_cell_length_a 15.326133
_cell_length_b 20.394274
_cell_length_c 8.752210
_cell_angle_alpha 90.000000
_cell_angle_beta 90.000000
_cell_angle_gamma 90.000000
_cell_volume 2735.637632
_symmetry_space_group_name_H-M "P B A M"
_symmetry_group_IT_number 55
_symmetry_cell_setting 'orthorhombic'
loop_
_space_group_symop_operation_xyz
x,y,z
-x,-y,z
1/2+x,1/2-y,-z
1/2-x,1/2+y,-z
-x,-y,-z
x,y,-z
1/2-x,1/2+y,z
1/2+x,1/2-y,z
loop_
_atom_site_type_symbol
_atom_site_label
_atom_site_fract_x
_atom_site_fract_y
_atom_site_fract_z
Si Si1 0.383241 0.314182 0.316841
Si Si2 0.276416 0.984878 0.816989
Si Si3 0.303917 0.833428 0.183087
Si Si4 0.934322 0.442615 0.683947
Si Si5 0.512622 0.197032 0.684669
Si Si6 0.082014 0.956087 0.815530
O O1 0.377049 0.315010 0.500000
O O2 0.286346 0.305234 0.248689
O O3 0.449799 0.256801 0.271112
O O4 0.417269 0.384287 0.257738
O O5 0.339141 0.037786 0.742116
O O6 0.305511 0.910887 0.771975
O O7 0.174540 0.989518 0.775461
O O8 0.283831 0.989528 0.000000
O O9 0.390728 0.799880 0.246381
O O10 0.301533 0.830460 0.000000
O O11 0.933896 0.443080 0.500000
O O12 0.000000 0.500000 0.737058
O O13 0.969049 0.371857 0.733863
O O14 0.519664 0.196426 0.500000
O O15 0.080916 0.948373 0.000000
O O16 0.000000 0.000000 0.769896
#
# Coordination Sequence:
#
# PCOD9425685 Si02
#       6
#     8   8   8   8   8   8
#     4  10  21  37  57  80 111 145 182 228 274 327
#     4   9  18  32  52  79 106 137 175 220 268 315
#     4  10  20  35  57  80 105 142 184 222 270 329
#     4  10  19  32  53  79 107 142 177 215 266 320
#     4  10  21  37  55  79 111 145 182 225 272 320
#     4   9  19  38  60  80 109 143 181 227 273 325
#
# _framework density 17.546182999999999
#
# number of rings (size 3 to 8) (size 9 to 14) (size 15 to 20)
#    0.000    2.333    1.667    2.000    0.000    5.333 
#    3.000    0.000    0.000    0.000    0.000    0.000 
#    0.000    0.000    0.000    0.000    0.000    0.000 
#
# Total GULP energy -267820.564548 kJ/mol
# GULP energy per Si atom -5579.595095 kJ/mol
# Density = 1.750625 g / cm^3
# Si number density = 17.546183 Si / 1000 Ang^3
#
#
#
# Elastic Constant Matrix: (Units=GPa)
#
#
# Indices 1 2 3 4 5 6 
#
# 1 182.2548 99.9239 42.4635 0.0000 0.0000 0.0000
# 2 99.9239 99.1333 31.7648 0.0000 0.0000 0.0000
# 3 42.4635 31.7648 19.8225 0.0000 0.0000 0.0000
# 4 0.0000 0.0000 0.0000 15.7042 0.0000 0.0000
# 5 0.0000 0.0000 0.0000 0.0000 31.2291 0.0000
# 6 0.0000 0.0000 0.0000 0.0000 0.0000 35.0573
#
#
#
# Elastic Compliance Matrix: (Units=1/GPa)
#
#
# Indices 1 2 3 4 5 6 
#
# 1 0.014241 -0.009412 -0.015424 0.000000 0.000000 0.000000
# 2 -0.009412 0.026954 -0.023030 0.000000 0.000000 0.000000
# 3 -0.015424 -0.023030 0.120393 0.000000 0.000000 0.000000
# 4 0.000000 0.000000 0.000000 0.063677 0.000000 0.000000
# 5 0.000000 0.000000 0.000000 0.000000 0.032021 0.000000
# 6 0.000000 0.000000 0.000000 0.000000 0.000000 0.028525
#
#
# Mechanical properties :
#
#
# Convention : Reuss Voigt Hill
#
# Bulk Modulus (GPa) = 15.18471 72.16835 43.67653
# Shear Modulus (GPa) = 12.39168 24.86865 18.63017
#
# Velocity S-wave (km/s) = 2.66039 3.76882 3.26203
# Velocity P-wave (km/s) = 4.25556 7.75619 6.25573
#
# Compressibility (1/GPa) = 0.06585572
#
# Stress axis : x y z
#
# Youngs Moduli (GPa) = 70.22096 37.09985 8.30611
#
# Poissons Ratio (x) = 0.34919 0.12811
# Poissons Ratio (y) = 0.66094 0.19129
# Poissons Ratio (z) = 1.08306 0.85443
#
# Static dielectric constant tensor:
#      x y z
#    x 1.589950 0.000000 0.000000 
#    y 0.000000 1.578610 0.000000 
#    z 0.000000 0.000000 1.592450 
# 
# From -- ./inp_files/5676.got.cif
#   From: 2010.05.17/outbox.cif.g08.bks.cpg/sg55_3_cif.got.tgz:5676.got - 2010.06.03 13:27:54.
