data_PCOD9425186
_publ_section_title
;
Structure prediction by ZEFSAII (Michael W. Deem and Ramdas Pophale) SiO2 
 PCOD9425186
Probable space group: P B A M
;
_chemical_formula_sum "Si O2"
_cell_formula_units_Z 48
_cell_length_a 15.467192
_cell_length_b 19.788280
_cell_length_c 7.462246
_cell_angle_alpha 90.000000
_cell_angle_beta 90.000000
_cell_angle_gamma 90.000000
_cell_volume 2283.963112
_symmetry_space_group_name_H-M "P B A M"
_symmetry_group_IT_number 55
_symmetry_cell_setting 'orthorhombic'
loop_
_space_group_symop_operation_xyz
x,y,z
-x,-y,z
1/2+x,1/2-y,-z
1/2-x,1/2+y,-z
-x,-y,-z
x,y,-z
1/2-x,1/2+y,z
1/2+x,1/2-y,z
loop_
_atom_site_type_symbol
_atom_site_label
_atom_site_fract_x
_atom_site_fract_y
_atom_site_fract_z
Si Si1 0.724818 0.571962 0.280534
Si Si2 0.875244 0.827080 0.280356
Si Si3 0.519107 0.924758 0.790999
Si Si4 0.281423 0.078020 0.283784
Si Si5 0.868765 0.674709 0.292408
Si Si6 0.971398 0.075101 0.718497
O O1 0.726668 0.571012 0.500000
O O2 0.752494 0.496727 0.223437
O O3 0.793874 0.626797 0.215875
O O4 0.627007 0.587560 0.225672
O O5 0.876991 0.827510 0.500000
O O6 0.788567 0.866719 0.225078
O O7 0.876987 0.749872 0.216923
O O8 0.958746 0.869938 0.222550
O O9 0.620144 0.909285 0.770999
O O10 0.457297 0.867612 0.712375
O O11 0.500000 0.000000 0.715495
O O12 0.496535 0.927127 0.000000
O O13 0.279834 0.077534 0.500000
O O14 0.844854 0.684643 0.500000
O O15 0.972064 0.075168 0.500000
O O16 0.000000 0.000000 0.773936
#
# Coordination Sequence:
#
# PCOD9425186 Si02
#       6
#     8   8   8   8   8   8
#     4   9  16  26  46  73 103 136 169 206 259 319
#     4   9  18  30  49  80 112 137 170 218 266 316
#     4  11  23  37  54  77 104 141 187 226 262 312
#     4  10  18  32  55  81 105 135 175 217 263 317
#     4  10  20  34  52  79 110 138 172 221 275 316
#     4   9  14  24  44  73 107 138 166 206 261 317
#
# _framework density 21.016103000000001
#
# number of rings (size 3 to 8) (size 9 to 14) (size 15 to 20)
#    0.000    2.333    3.333    0.500    0.000    2.000 
#    0.000    5.833    0.000    0.000    0.000    3.500 
#    0.000    0.000    0.000    0.000    0.000    0.000 
#
# Total GULP energy -268118.601837 kJ/mol
# GULP energy per Si atom -5585.804205 kJ/mol
# Density = 2.096827 g / cm^3
# Si number density = 21.016103 Si / 1000 Ang^3
#
#
#
# Elastic Constant Matrix: (Units=GPa)
#
#
# Indices 1 2 3 4 5 6 
#
# 1 202.3433 113.6090 -11.1294 0.0000 0.0000 0.0000
# 2 113.6090 212.6267 3.0369 0.0000 0.0000 0.0000
# 3 -11.1294 3.0369 59.4725 0.0000 0.0000 0.0000
# 4 0.0000 0.0000 0.0000 -9.6468 0.0000 0.0000
# 5 0.0000 0.0000 0.0000 0.0000 -51.5990 0.0000
# 6 0.0000 0.0000 0.0000 0.0000 0.0000 32.5128
#
#
#
# Elastic Compliance Matrix: (Units=1/GPa)
#
#
# Indices 1 2 3 4 5 6 
#
# 1 0.007199 -0.003869 0.001545 0.000000 0.000000 0.000000
# 2 -0.003869 0.006785 -0.001070 0.000000 0.000000 0.000000
# 3 0.001545 -0.001070 0.017158 0.000000 0.000000 0.000000
# 4 0.000000 0.000000 0.000000 -0.103662 0.000000 0.000000
# 5 0.000000 0.000000 0.000000 0.000000 -0.019380 0.000000
# 6 0.000000 0.000000 0.000000 0.000000 0.000000 0.030757
#
#
# Mechanical properties :
#
#
# Convention : Reuss Voigt Hill
#
# Bulk Modulus (GPa) = 41.06076 76.16396 58.61236
# Shear Modulus (GPa) = -108.14292 18.84849 -44.64722
#
# Velocity S-wave (km/s) = -7.18115 2.99801 -4.61415
# Velocity P-wave (km/s) = 7.01273 6.95007 0.66137
#
# Compressibility (1/GPa) = 0.02435415
#
# Stress axis : x y z
#
# Youngs Moduli (GPa) = 138.90441 147.37421 58.28105
#
# Poissons Ratio (x) = 0.57014 -0.09003
# Poissons Ratio (y) = 0.53738 0.06239
# Poissons Ratio (z) = -0.21458 0.15776
#
# Static dielectric constant tensor:
#      x y z
#    x 1.707390 0.000000 0.000000 
#    y 0.000000 1.725620 0.000000 
#    z 0.000000 0.000000 1.791580 
# 
# From -- ./inp_files/5666.got.cif
#   From: 2010.05.17/outbox.cif.g08.bks.cpg/sg55_3_cif.got.tgz:5666.got - 2010.06.03 13:27:54.
