data_PCOD9425366
_publ_section_title
;
Structure prediction by ZEFSAII (Michael W. Deem and Ramdas Pophale) SiO2 
 PCOD9425366
Probable space group: P B A M
;
_chemical_formula_sum "Si O2"
_cell_formula_units_Z 64
_cell_length_a 15.067020
_cell_length_b 30.837145
_cell_length_c 7.757560
_cell_angle_alpha 90.000000
_cell_angle_beta 90.000000
_cell_angle_gamma 90.000000
_cell_volume 3604.347630
_symmetry_space_group_name_H-M "P B A M"
_symmetry_group_IT_number 55
_symmetry_cell_setting 'orthorhombic'
loop_
_space_group_symop_operation_xyz
x,y,z
-x,-y,z
1/2+x,1/2-y,-z
1/2-x,1/2+y,-z
-x,-y,-z
x,y,-z
1/2-x,1/2+y,z
1/2+x,1/2-y,z
loop_
_atom_site_type_symbol
_atom_site_label
_atom_site_fract_x
_atom_site_fract_y
_atom_site_fract_z
Si Si1 0.699435 0.632892 0.292169
Si Si2 0.154876 0.302350 0.794935
Si Si3 0.466625 0.217475 0.196499
Si Si4 0.906861 0.050778 0.699770
Si Si5 0.968980 0.187668 0.702329
Si Si6 0.643324 0.362290 0.208911
Si Si7 0.891270 0.955355 0.198980
Si Si8 0.765851 0.282034 0.211139
O O1 0.701963 0.632593 0.500000
O O2 0.790950 0.653557 0.231631
O O3 0.664786 0.585650 0.235508
O O4 0.622228 0.666245 0.236845
O O5 0.054707 0.303507 0.722766
O O6 0.212859 0.261112 0.728970
O O7 0.145729 0.295084 0.000000
O O8 0.489132 0.268565 0.197354
O O9 0.367676 0.215429 0.273178
O O10 0.458109 0.201197 0.000000
O O11 0.925573 0.061327 0.500000
O O12 0.002215 0.052911 0.791893
O O13 0.875032 0.001183 0.710871
O O14 0.961258 0.198098 0.500000
O O15 0.048091 0.154113 0.727772
O O16 0.655274 0.411879 0.267756
O O17 0.713510 0.325588 0.260988
O O18 0.641523 0.363169 0.000000
O O19 0.866619 0.961170 0.000000
O O20 0.767932 0.279740 0.000000
#
# Coordination Sequence:
#
# PCOD9425366 Si02
#       8
#     8   8   8   8   8   8   8   8
#     4  10  21  33  45  66  95 127 159 190 232 276
#     4  10  19  30  49  70  89 122 160 193 230 272
#     4  10  19  33  48  66  93 124 160 194 230 274
#     4  10  19  32  47  64  94 128 154 186 232 285
#     4  11  20  29  44  67  95 125 159 193 227 267
#     4  10  19  32  48  68  95 127 159 190 230 276
#     4  10  19  29  46  71  95 120 154 195 231 272
#     4   9  17  30  48  68  92 122 156 190 227 274
#
# _framework density 17.756333000000001
#
# number of rings (size 3 to 8) (size 9 to 14) (size 15 to 20)
#    0.000    2.000    3.750    1.875    0.000    2.500 
#    0.000    0.625    0.000    0.000    0.000    0.875 
#    0.000    7.000    0.000    0.000    0.000    0.000 
#
# Total GULP energy -356901.803480 kJ/mol
# GULP energy per Si atom -5576.590679 kJ/mol
# Density = 1.771592 g / cm^3
# Si number density = 17.756333 Si / 1000 Ang^3
#
#
#
# Elastic Constant Matrix: (Units=GPa)
#
#
# Indices 1 2 3 4 5 6 
#
# 1 58.0424 3.5637 -0.0999 0.0000 0.0000 0.0000
# 2 3.5637 73.2990 -2.0233 0.0000 0.0000 0.0000
# 3 -0.0999 -2.0233 28.7797 0.0000 0.0000 0.0000
# 4 0.0000 0.0000 0.0000 513.5765 0.0000 0.0000
# 5 0.0000 0.0000 0.0000 0.0000 -101.6335 0.0000
# 6 0.0000 0.0000 0.0000 0.0000 0.0000 24.4727
#
#
#
# Elastic Compliance Matrix: (Units=1/GPa)
#
#
# Indices 1 2 3 4 5 6 
#
# 1 0.017280 -0.000840 0.000001 0.000000 0.000000 0.000000
# 2 -0.000840 0.013710 0.000961 0.000000 0.000000 0.000000
# 3 0.000001 0.000961 0.034814 0.000000 0.000000 0.000000
# 4 0.000000 0.000000 0.000000 0.001947 0.000000 0.000000
# 5 0.000000 0.000000 0.000000 0.000000 -0.009839 0.000000
# 6 0.000000 0.000000 0.000000 0.000000 0.000000 0.040862
#
#
# Mechanical properties :
#
#
# Convention : Reuss Voigt Hill
#
# Bulk Modulus (GPa) = 15.14043 18.11133 16.62588
# Shear Modulus (GPa) = 41.47756 97.86185 69.66970
#
# Velocity S-wave (km/s) = 4.83839 7.43192 6.27070
# Velocity P-wave (km/s) = 6.30545 9.15787 7.86210
#
# Compressibility (1/GPa) = 0.06604832
#
# Stress axis : x y z
#
# Youngs Moduli (GPa) = 57.86915 72.93880 28.72383
#
# Poissons Ratio (x) = 0.06128 -0.00003
# Poissons Ratio (y) = 0.04862 -0.02760
# Poissons Ratio (z) = -0.00005 -0.07009
#
# Static dielectric constant tensor:
#      x y z
#    x 1.620480 0.000000 0.000000 
#    y 0.000000 1.620840 0.000000 
#    z 0.000000 0.000000 1.655750 
# 
# From -- ./inp_files/6940.got.cif
#   From: 2010.05.17/outbox.cif.g08.bks.cpg/sg55_4_cif.got.tgz:6940.got - 2010.06.03 13:27:54.
