data_PCOD9425779
_publ_section_title
;
Structure prediction by ZEFSAII (Michael W. Deem and Ramdas Pophale) SiO2 
 PCOD9425779
Probable space group: P B A M
;
_chemical_formula_sum "Si O2"
_cell_formula_units_Z 64
_cell_length_a 8.710804
_cell_length_b 31.511516
_cell_length_c 12.795185
_cell_angle_alpha 90.000000
_cell_angle_beta 90.000000
_cell_angle_gamma 90.000000
_cell_volume 3512.158515
_symmetry_space_group_name_H-M "P B A M"
_symmetry_group_IT_number 55
_symmetry_cell_setting 'orthorhombic'
loop_
_space_group_symop_operation_xyz
x,y,z
-x,-y,z
1/2+x,1/2-y,-z
1/2-x,1/2+y,-z
-x,-y,-z
x,y,-z
1/2-x,1/2+y,z
1/2+x,1/2-y,z
loop_
_atom_site_type_symbol
_atom_site_label
_atom_site_fract_x
_atom_site_fract_y
_atom_site_fract_z
Si Si1 0.502359 0.804873 0.623594
Si Si2 0.491619 0.311758 0.805465
Si Si3 0.262160 0.746648 0.733427
Si Si4 0.577432 0.453780 0.716980
Si Si5 0.142258 0.385950 0.296397
Si Si6 0.107868 0.899637 0.881625
Si Si7 0.590731 0.955978 0.621495
Si Si8 0.963165 0.128881 0.388183
O O1 0.505425 0.815104 0.500000
O O2 0.372173 0.770721 0.652362
O O3 0.657163 0.784157 0.665267
O O4 0.462412 0.844476 0.698197
O O5 0.635919 0.280586 0.814656
O O6 0.343694 0.281629 0.790801
O O7 0.460335 0.351586 0.880537
O O8 0.515223 0.337595 0.697401
O O9 0.500000 0.500000 0.704916
O O10 0.511293 0.431610 0.823188
O O11 0.758906 0.457787 0.695256
O O12 0.523700 0.418329 0.633693
O O13 0.238700 0.396618 0.191116
O O14 0.280000 0.375535 0.376809
O O15 0.032372 0.422872 0.334638
O O16 0.138563 0.912842 0.000000
O O17 0.633317 0.946079 0.500000
O O18 0.500000 0.000000 0.620894
O O19 0.011365 0.144323 0.500000
#
# Coordination Sequence:
#
# PCOD9425779 Si02
#       8
#     8   8   8   8   8   8   8   8
#     4  11  20  31  51  81 118 157 191 227 281 345
#     4   9  20  36  55  80 112 150 194 250 289 345
#     4  10  20  34  52  77 117 154 194 240 284 339
#     4  10  22  39  61  89 117 154 197 244 283 347
#     4  10  21  36  55  82 115 152 192 241 286 343
#     4  10  22  44  66  82 110 155 201 255 310 347
#     4  11  22  36  59  91 128 160 184 220 281 354
#     4  10  19  33  52  78 118 161 196 230 282 348
#
# _framework density 18.222411000000001
#
# number of rings (size 3 to 8) (size 9 to 14) (size 15 to 20)
#    0.000    2.125    2.500    3.375    3.500    4.750 
#    0.000    1.250    0.000    1.500    0.000    0.000 
#    0.000    0.000    0.000    0.000    0.000    0.000 
#
# Total GULP energy -356490.684479 kJ/mol
# GULP energy per Si atom -5570.166945 kJ/mol
# Density = 1.818094 g / cm^3
# Si number density = 18.222411 Si / 1000 Ang^3
#
#
#
# Elastic Constant Matrix: (Units=GPa)
#
#
# Indices 1 2 3 4 5 6 
#
# 1 64.6208 43.1117 27.9840 0.0000 0.0000 0.0000
# 2 43.1117 102.4037 18.8319 0.0000 0.0000 0.0000
# 3 27.9840 18.8319 81.0534 0.0000 0.0000 0.0000
# 4 0.0000 0.0000 0.0000 5.5572 0.0000 0.0000
# 5 0.0000 0.0000 0.0000 0.0000 20.6654 0.0000
# 6 0.0000 0.0000 0.0000 0.0000 0.0000 32.6775
#
#
#
# Elastic Compliance Matrix: (Units=1/GPa)
#
#
# Indices 1 2 3 4 5 6 
#
# 1 0.024221 -0.009046 -0.006261 0.000000 0.000000 0.000000
# 2 -0.009046 0.013579 -0.000032 0.000000 0.000000 0.000000
# 3 -0.006261 -0.000032 0.014507 0.000000 0.000000 0.000000
# 4 0.000000 0.000000 0.000000 0.179946 0.000000 0.000000
# 5 0.000000 0.000000 0.000000 0.000000 0.048390 0.000000
# 6 0.000000 0.000000 0.000000 0.000000 0.000000 0.030602
#
#
# Mechanical properties :
#
#
# Convention : Reuss Voigt Hill
#
# Bulk Modulus (GPa) = 46.23180 47.54813 46.88997
# Shear Modulus (GPa) = 14.32126 22.32337 18.32232
#
# Velocity S-wave (km/s) = 2.80646 3.50387 3.17437
# Velocity P-wave (km/s) = 5.99396 6.52068 6.26286
#
# Compressibility (1/GPa) = 0.02163013
#
# Stress axis : x y z
#
# Youngs Moduli (GPa) = 41.28680 73.64137 68.93456
#
# Poissons Ratio (x) = 0.66613 0.43158
# Poissons Ratio (y) = 0.37346 0.00221
# Poissons Ratio (z) = 0.25848 0.00236
#
# Static dielectric constant tensor:
#      x y z
#    x 1.679030 0.000000 0.000000 
#    y 0.000000 1.720690 0.000000 
#    z 0.000000 0.000000 1.625910 
# 
# From -- ./inp_files/17932.got.cif
#   From: 2010.05.17/outbox.cif.g08.bks.cpg/sg55_9_cif.got.tgz:17932.got - 2010.06.03 13:27:54.
