data_PCOD9425427
_publ_section_title
;
Structure prediction by ZEFSAII (Michael W. Deem and Ramdas Pophale) SiO2 
 PCOD9425427
Probable space group: P B A M
;
_chemical_formula_sum "Si O2"
_cell_formula_units_Z 64
_cell_length_a 19.767396
_cell_length_b 21.458285
_cell_length_c 7.620688
_cell_angle_alpha 90.000000
_cell_angle_beta 90.000000
_cell_angle_gamma 90.000000
_cell_volume 3232.500890
_symmetry_space_group_name_H-M "P B A M"
_symmetry_group_IT_number 55
_symmetry_cell_setting 'orthorhombic'
loop_
_space_group_symop_operation_xyz
x,y,z
-x,-y,z
1/2+x,1/2-y,-z
1/2-x,1/2+y,-z
-x,-y,-z
x,y,-z
1/2-x,1/2+y,z
1/2+x,1/2-y,z
loop_
_atom_site_type_symbol
_atom_site_label
_atom_site_fract_x
_atom_site_fract_y
_atom_site_fract_z
Si Si1 0.663653 0.158454 0.711442
Si Si2 0.666443 0.294359 0.206672
Si Si3 0.511785 0.305141 0.700037
Si Si4 0.461867 0.561996 0.713522
Si Si5 0.193740 0.476637 0.295289
Si Si6 0.005972 0.329013 0.285088
Si Si7 0.695895 0.426665 0.204502
Si Si8 0.061285 0.545852 0.714255
O O1 0.665968 0.161201 0.500000
O O2 0.693938 0.224615 0.771817
O O3 0.697041 0.093988 0.775128
O O4 0.584075 0.156871 0.764340
O O5 0.593525 0.296233 0.300660
O O6 0.707564 0.355263 0.268663
O O7 0.652945 0.304140 0.000000
O O8 0.486697 0.307807 0.500000
O O9 0.503358 0.373845 0.778282
O O10 0.486577 0.240146 0.779131
O O11 0.500000 0.500000 0.770591
O O12 0.462372 0.564056 0.500000
O O13 0.383856 0.561886 0.769990
O O14 0.176804 0.467718 0.500000
O O15 0.260067 0.518742 0.286570
O O16 0.131162 0.516464 0.220723
O O17 0.005634 0.327260 0.500000
O O18 0.957778 0.384752 0.226937
O O19 0.712777 0.428440 0.000000
O O20 0.063294 0.548316 0.500000
O O21 0.000000 0.500000 0.761172
#
# Coordination Sequence:
#
# PCOD9425427 Si02
#       8
#     8   8   8   8   8   8   8   8
#     4   9  16  27  46  72  95 120 157 203 248 286
#     4   9  17  29  46  67  90 121 161 202 238 282
#     4   8  14  25  44  70  94 119 150 191 239 286
#     4   9  17  31  53  77  98 122 154 202 257 297
#     4  10  19  30  49  74  99 129 165 205 246 292
#     4   8  12  21  40  66  95 120 149 190 232 276
#     4  10  21  35  50  70  98 133 167 201 243 298
#     4   9  14  23  42  70  99 125 155 194 237 280
#
# _framework density 19.798914
#
# number of rings (size 3 to 8) (size 9 to 14) (size 15 to 20)
#    0.000    3.000    1.250    1.500    0.000    2.250 
#    0.000    0.000    2.750    3.375    0.000    0.000 
#    0.000    0.000    0.000    0.000    0.000    0.000 
#
# Total GULP energy -356403.776724 kJ/mol
# GULP energy per Si atom -5568.809011 kJ/mol
# Density = 1.975385 g / cm^3
# Si number density = 19.798914 Si / 1000 Ang^3
#
#
#
# Elastic Constant Matrix: (Units=GPa)
#
#
# Indices 1 2 3 4 5 6 
#
# 1 32.9896 47.9629 -5.0705 0.0000 0.0000 0.0000
# 2 47.9629 232.2188 3.2940 0.0000 0.0000 0.0000
# 3 -5.0705 3.2940 43.1386 0.0000 0.0000 0.0000
# 4 0.0000 0.0000 0.0000 -36.4666 0.0000 0.0000
# 5 0.0000 0.0000 0.0000 0.0000 -64.5493 0.0000
# 6 0.0000 0.0000 0.0000 0.0000 0.0000 26.3064
#
#
#
# Elastic Compliance Matrix: (Units=1/GPa)
#
#
# Indices 1 2 3 4 5 6 
#
# 1 0.044811 -0.009340 0.005980 0.000000 0.000000 0.000000
# 2 -0.009340 0.006258 -0.001576 0.000000 0.000000 0.000000
# 3 0.005980 -0.001576 0.024004 0.000000 0.000000 0.000000
# 4 0.000000 0.000000 0.000000 -0.027422 0.000000 0.000000
# 5 0.000000 0.000000 0.000000 0.000000 -0.015492 0.000000
# 6 0.000000 0.000000 0.000000 0.000000 0.000000 0.038014
#
#
# Mechanical properties :
#
#
# Convention : Reuss Voigt Hill
#
# Bulk Modulus (GPa) = 15.33686 44.52441 29.93063
# Shear Modulus (GPa) = 49.12648 2.53548 25.83098
#
# Velocity S-wave (km/s) = 4.98664 1.13287 3.61594
# Velocity P-wave (km/s) = 6.39676 4.92426 5.70819
#
# Compressibility (1/GPa) = 0.06520240
#
# Stress axis : x y z
#
# Youngs Moduli (GPa) = 22.31572 159.80078 41.65913
#
# Poissons Ratio (x) = 1.49258 -0.24914
# Poissons Ratio (y) = 0.20843 0.06564
# Poissons Ratio (z) = -0.13346 0.25180
#
# Static dielectric constant tensor:
#      x y z
#    x 1.640480 0.000000 0.000000 
#    y 0.000000 1.775220 0.000000 
#    z 0.000000 0.000000 1.732290 
# 
# From -- ./inp_files/9189.got.cif
#   From: 2010.05.17/outbox.cif.g08.bks.cpg/sg55_5_cif.got.tgz:9189.got - 2010.06.03 13:27:54.
