data_PCOD9425515
_publ_section_title
;
Structure prediction by ZEFSAII (Michael W. Deem and Ramdas Pophale) SiO2 
 PCOD9425515
Probable space group: P B A M
;
_chemical_formula_sum "Si O2"
_cell_formula_units_Z 64
_cell_length_a 14.631814
_cell_length_b 25.175715
_cell_length_c 9.172090
_cell_angle_alpha 90.000000
_cell_angle_beta 90.000000
_cell_angle_gamma 90.000000
_cell_volume 3378.689583
_symmetry_space_group_name_H-M "P B A M"
_symmetry_group_IT_number 55
_symmetry_cell_setting 'orthorhombic'
loop_
_space_group_symop_operation_xyz
x,y,z
-x,-y,z
1/2+x,1/2-y,-z
1/2-x,1/2+y,-z
-x,-y,-z
x,y,-z
1/2-x,1/2+y,z
1/2+x,1/2-y,z
loop_
_atom_site_type_symbol
_atom_site_label
_atom_site_fract_x
_atom_site_fract_y
_atom_site_fract_z
Si Si1 0.638727 0.919594 0.327316
Si Si2 0.839026 0.308329 0.829644
Si Si3 0.460467 0.927256 0.833572
Si Si4 0.678041 0.605482 0.332901
Si Si5 0.365577 0.731368 0.834202
Si Si6 0.124800 0.337143 0.335797
Si Si7 0.732824 0.010870 0.169595
Si Si8 0.067981 0.804001 0.170901
O O1 0.646204 0.921037 0.500000
O O2 0.640458 0.859774 0.265992
O O3 0.541573 0.943065 0.273673
O O4 0.716790 0.955836 0.253541
O O5 0.730085 0.298777 0.822562
O O6 0.889924 0.253558 0.783765
O O7 0.863709 0.317949 0.000000
O O8 0.434165 0.868049 0.783631
O O9 0.366092 0.959507 0.823560
O O10 0.493442 0.930568 0.000000
O O11 0.652600 0.594278 0.500000
O O12 0.775631 0.635948 0.334702
O O13 0.696223 0.551218 0.244760
O O14 0.609659 0.646988 0.258465
O O15 0.366658 0.777175 0.714581
O O16 0.458528 0.698428 0.817055
O O17 0.368164 0.754304 0.000000
O O18 0.087084 0.342794 0.500000
O O19 0.754523 0.002369 0.000000
O O20 0.093097 0.809984 0.000000
#
# Coordination Sequence:
#
# PCOD9425515 Si02
#       8
#     8   8   8   8   8   8   8   8
#     4  12  24  36  53  79 113 148 186 232 286 340
#     4  10  21  37  56  80 115 154 191 231 275 333
#     4  10  20  34  54  79 109 147 189 228 273 334
#     4  10  20  34  54  81 112 143 180 225 276 329
#     4  10  20  34  55  81 109 148 193 232 276 331
#     4  10  19  31  50  78 111 145 181 226 276 327
#     4  10  21  37  58  80 107 147 190 231 277 332
#     4  10  20  35  57  83 110 144 188 232 276 329
#
# _framework density 18.942254999999999
#
# number of rings (size 3 to 8) (size 9 to 14) (size 15 to 20)
#    0.000    1.750    1.250    3.750    0.000    6.500 
#    0.000    0.000    0.000    0.750    0.000    5.250 
#    0.000    0.000    0.000    0.000    0.000    0.000 
#
# Total GULP energy -357320.423322 kJ/mol
# GULP energy per Si atom -5583.131614 kJ/mol
# Density = 1.889914 g / cm^3
# Si number density = 18.942255 Si / 1000 Ang^3
#
#
#
# Elastic Constant Matrix: (Units=GPa)
#
#
# Indices 1 2 3 4 5 6 
#
# 1 56.2350 5.7974 12.5357 0.0000 0.0000 0.0000
# 2 5.7974 25.7738 10.4110 0.0000 0.0000 0.0000
# 3 12.5357 10.4110 85.7499 0.0000 0.0000 0.0000
# 4 0.0000 0.0000 0.0000 22.3323 0.0000 0.0000
# 5 0.0000 0.0000 0.0000 0.0000 15.6434 0.0000
# 6 0.0000 0.0000 0.0000 0.0000 0.0000 18.6795
#
#
#
# Elastic Compliance Matrix: (Units=1/GPa)
#
#
# Indices 1 2 3 4 5 6 
#
# 1 0.018637 -0.003251 -0.002330 0.000000 0.000000 0.000000
# 2 -0.003251 0.041367 -0.004547 0.000000 0.000000 0.000000
# 3 -0.002330 -0.004547 0.012555 0.000000 0.000000 0.000000
# 4 0.000000 0.000000 0.000000 0.044778 0.000000 0.000000
# 5 0.000000 0.000000 0.000000 0.000000 0.063925 0.000000
# 6 0.000000 0.000000 0.000000 0.000000 0.000000 0.053535
#
#
# Mechanical properties :
#
#
# Convention : Reuss Voigt Hill
#
# Bulk Modulus (GPa) = 19.11948 25.02743 22.07345
# Shear Modulus (GPa) = 18.34954 20.59869 19.47412
#
# Velocity S-wave (km/s) = 3.11579 3.30122 3.20984
# Velocity P-wave (km/s) = 4.80205 5.26991 5.04141
#
# Compressibility (1/GPa) = 0.05230268
#
# Stress axis : x y z
#
# Youngs Moduli (GPa) = 53.65659 24.17373 79.65270
#
# Poissons Ratio (x) = 0.07859 0.18558
# Poissons Ratio (y) = 0.17444 0.36220
# Poissons Ratio (z) = 0.12501 0.10992
#
# Static dielectric constant tensor:
#      x y z
#    x 1.665330 0.000000 0.000000 
#    y 0.000000 1.657630 0.000000 
#    z 0.000000 0.000000 1.648050 
# 
# From -- ./inp_files/6687.got.cif
#   From: 2010.05.17/outbox.cif.g08.bks.cpg/sg55_4_cif.got.tgz:6687.got - 2010.06.03 13:27:54.
