data_PCOD9425958
_publ_section_title
;
Structure prediction by ZEFSAII (Michael W. Deem and Ramdas Pophale) SiO2 
 PCOD9425958
Probable space group: P B A M
;
_chemical_formula_sum "Si O2"
_cell_formula_units_Z 64
_cell_length_a 20.457404
_cell_length_b 14.849882
_cell_length_c 11.254471
_cell_angle_alpha 90.000000
_cell_angle_beta 90.000000
_cell_angle_gamma 90.000000
_cell_volume 3418.996144
_symmetry_space_group_name_H-M "P B A M"
_symmetry_group_IT_number 55
_symmetry_cell_setting 'orthorhombic'
loop_
_space_group_symop_operation_xyz
x,y,z
-x,-y,z
1/2+x,1/2-y,-z
1/2-x,1/2+y,-z
-x,-y,-z
x,y,-z
1/2-x,1/2+y,z
1/2+x,1/2-y,z
loop_
_atom_site_type_symbol
_atom_site_label
_atom_site_fract_x
_atom_site_fract_y
_atom_site_fract_z
Si Si1 0.851560 0.558041 0.638910
Si Si2 0.878826 0.345050 0.357998
Si Si3 0.049647 0.129207 0.700838
Si Si4 0.971036 0.671541 0.634935
Si Si5 0.795919 0.265787 0.136425
Si Si6 0.581252 0.569045 0.631090
Si Si7 0.286932 0.421081 0.241537
Si Si8 0.671030 0.387409 0.862146
O O1 0.845000 0.583702 0.500000
O O2 0.862357 0.451059 0.644244
O O3 0.914916 0.609421 0.690823
O O4 0.784595 0.583132 0.702782
O O5 0.870009 0.316355 0.500000
O O6 0.837135 0.299408 0.251747
O O7 0.954688 0.332439 0.321610
O O8 0.052206 0.225305 0.638073
O O9 0.100387 0.134107 0.808060
O O10 0.972746 0.108342 0.721281
O O11 0.073114 0.039137 0.632622
O O12 0.977150 0.638064 0.500000
O O13 0.793632 0.158044 0.146229
O O14 0.724011 0.308723 0.154760
O O15 0.816752 0.291434 0.000000
O O16 0.563866 0.603207 0.500000
O O17 0.654497 0.593711 0.664185
O O18 0.300311 0.521194 0.193946
O O19 0.663284 0.403810 0.000000
#
# Coordination Sequence:
#
# PCOD9425958 Si02
#       8
#     8   8   8   8   8   8   8   8
#     4  10  20  35  57  89 123 158 200 247 302 357
#     4  10  21  39  61  89 122 159 199 247 303 357
#     4  10  19  34  53  79 110 151 196 237 291 356
#     4  10  19  33  57  86 121 157 196 243 298 359
#     4  11  23  40  62  88 118 158 204 249 302 364
#     4  10  20  34  54  82 120 155 189 239 302 356
#     4  11  21  37  60  85 115 154 201 243 295 357
#     4  10  22  40  58  79 112 153 195 249 301 349
#
# _framework density 18.718945000000001
#
# number of rings (size 3 to 8) (size 9 to 14) (size 15 to 20)
#    0.000    1.750    1.250    4.125    0.000    3.500 
#    0.000    8.750    0.000    3.000    0.000    0.000 
#    0.000    0.000    0.000    0.000    0.000    0.000 
#
# Total GULP energy -356558.603002 kJ/mol
# GULP energy per Si atom -5571.228172 kJ/mol
# Density = 1.867634 g / cm^3
# Si number density = 18.718945 Si / 1000 Ang^3
#
#
#
# Elastic Constant Matrix: (Units=GPa)
#
#
# Indices 1 2 3 4 5 6 
#
# 1 106.9806 9.8753 47.5163 0.0000 0.0000 0.0000
# 2 9.8753 60.2650 8.0550 0.0000 0.0000 0.0000
# 3 47.5163 8.0550 69.6765 0.0000 0.0000 0.0000
# 4 0.0000 0.0000 0.0000 21.2682 0.0000 0.0000
# 5 0.0000 0.0000 0.0000 0.0000 23.0195 0.0000
# 6 0.0000 0.0000 0.0000 0.0000 0.0000 19.0098
#
#
#
# Elastic Compliance Matrix: (Units=1/GPa)
#
#
# Indices 1 2 3 4 5 6 
#
# 1 0.013467 -0.000995 -0.009069 0.000000 0.000000 0.000000
# 2 -0.000995 0.016927 -0.001279 0.000000 0.000000 0.000000
# 3 -0.009069 -0.001279 0.020685 0.000000 0.000000 0.000000
# 4 0.000000 0.000000 0.000000 0.047019 0.000000 0.000000
# 5 0.000000 0.000000 0.000000 0.000000 0.043441 0.000000
# 6 0.000000 0.000000 0.000000 0.000000 0.000000 0.052604
#
#
# Mechanical properties :
#
#
# Convention : Reuss Voigt Hill
#
# Bulk Modulus (GPa) = 35.21812 40.86837 38.04324
# Shear Modulus (GPa) = 22.09520 24.09121 23.09321
#
# Velocity S-wave (km/s) = 3.43937 3.59136 3.51619
# Velocity P-wave (km/s) = 5.88450 6.25118 6.07061
#
# Compressibility (1/GPa) = 0.02839448
#
# Stress axis : x y z
#
# Youngs Moduli (GPa) = 74.25296 59.07629 48.34495
#
# Poissons Ratio (x) = 0.05876 0.43845
# Poissons Ratio (y) = 0.07386 0.06181
# Poissons Ratio (z) = 0.67342 0.07553
#
# Static dielectric constant tensor:
#      x y z
#    x 1.660160 0.000000 0.000000 
#    y 0.000000 1.672140 0.000000 
#    z 0.000000 0.000000 1.636210 
# 
# From -- ./inp_files/14997.got.cif
#   From: 2010.05.17/outbox.cif.g08.bks.cpg/sg55_8_cif.got.tgz:14997.got - 2010.06.03 13:27:54.
