data_PCOD9425064
_publ_section_title
;
Structure prediction by ZEFSAII (Michael W. Deem and Ramdas Pophale) SiO2 
 PCOD9425064
Probable space group: P B A M
;
_chemical_formula_sum "Si O2"
_cell_formula_units_Z 48
_cell_length_a 20.536070
_cell_length_b 15.511230
_cell_length_c 7.554710
_cell_angle_alpha 90.000000
_cell_angle_beta 90.000000
_cell_angle_gamma 90.000000
_cell_volume 2406.475095
_symmetry_space_group_name_H-M "P B A M"
_symmetry_group_IT_number 55
_symmetry_cell_setting 'orthorhombic'
loop_
_space_group_symop_operation_xyz
x,y,z
-x,-y,z
1/2+x,1/2-y,-z
1/2-x,1/2+y,-z
-x,-y,-z
x,y,-z
1/2-x,1/2+y,z
1/2+x,1/2-y,z
loop_
_atom_site_type_symbol
_atom_site_label
_atom_site_fract_x
_atom_site_fract_y
_atom_site_fract_z
Si Si1 0.535603 0.083844 0.790778
Si Si2 0.976190 0.775493 0.210912
Si Si3 0.443042 0.437295 0.711812
Si Si4 0.815955 0.614558 0.285373
Si Si5 0.829300 0.807154 0.705500
Si Si6 0.803177 0.995255 0.717531
O O1 0.514998 0.178041 0.720248
O O2 0.613298 0.079717 0.768020
O O3 0.500000 0.000000 0.715028
O O4 0.520718 0.085836 0.000000
O O5 0.908070 0.811782 0.286015
O O6 0.034438 0.840290 0.250742
O O7 0.967112 0.771641 0.000000
O O8 0.500000 0.500000 0.781979
O O9 0.441574 0.448090 0.500000
O O10 0.371794 0.463736 0.776020
O O11 0.815260 0.617482 0.500000
O O12 0.810735 0.713549 0.219043
O O13 0.757495 0.553409 0.226668
O O14 0.809897 0.804997 0.500000
O O15 0.801142 0.896013 0.779630
O O16 0.803266 0.994120 0.500000
#
# Coordination Sequence:
#
# PCOD9425064 Si02
#       6
#     8   8   8   8   8   8
#     4   9  19  37  56  71  97 136 168 200 253 308
#     4  10  19  31  50  75  99 124 165 213 247 286
#     4  10  18  31  51  73 100 136 167 194 246 309
#     4   9  18  32  52  76  98 126 168 212 244 285
#     4   9  16  31  52  68  94 134 166 194 245 304
#     4   9  17  31  49  72 101 131 163 200 246 297
#
# _framework density 19.946187999999999
#
# number of rings (size 3 to 8) (size 9 to 14) (size 15 to 20)
#    0.000    2.667    1.667    0.500    0.000    1.333 
#    3.000    1.667    0.000    0.000    0.000    0.000 
#    0.000    0.000    0.000    0.000    0.000    0.000 
#
# Total GULP energy -267749.240150 kJ/mol
# GULP energy per Si atom -5578.109170 kJ/mol
# Density = 1.990079 g / cm^3
# Si number density = 19.946188 Si / 1000 Ang^3
#
#
#
# Elastic Constant Matrix: (Units=GPa)
#
#
# Indices 1 2 3 4 5 6 
#
# 1 96.0066 109.5622 -11.4987 0.0000 0.0000 0.0000
# 2 109.5622 191.9444 -5.0967 0.0000 0.0000 0.0000
# 3 -11.4987 -5.0967 43.3173 0.0000 0.0000 0.0000
# 4 0.0000 0.0000 0.0000 7.4004 0.0000 0.0000
# 5 0.0000 0.0000 0.0000 0.0000 18.6189 0.0000
# 6 0.0000 0.0000 0.0000 0.0000 0.0000 37.2147
#
#
#
# Elastic Compliance Matrix: (Units=1/GPa)
#
#
# Indices 1 2 3 4 5 6 
#
# 1 0.031486 -0.017806 0.006263 0.000000 0.000000 0.000000
# 2 -0.017806 0.015296 -0.002927 0.000000 0.000000 0.000000
# 3 0.006263 -0.002927 0.024404 0.000000 0.000000 0.000000
# 4 0.000000 0.000000 0.000000 0.135128 0.000000 0.000000
# 5 0.000000 0.000000 0.000000 0.000000 0.053709 0.000000
# 6 0.000000 0.000000 0.000000 0.000000 0.000000 0.026871
#
#
# Mechanical properties :
#
#
# Convention : Reuss Voigt Hill
#
# Bulk Modulus (GPa) = 23.67101 57.46687 40.56894
# Shear Modulus (GPa) = 15.15536 28.53356 21.84446
#
# Velocity S-wave (km/s) = 2.75946 3.78633 3.31292
# Velocity P-wave (km/s) = 4.69532 6.92738 5.91754
#
# Compressibility (1/GPa) = 0.04224576
#
# Stress axis : x y z
#
# Youngs Moduli (GPa) = 31.75976 65.37694 40.97750
#
# Poissons Ratio (x) = 1.16411 -0.25664
# Poissons Ratio (y) = 0.56552 0.11994
# Poissons Ratio (z) = -0.19891 0.19136
#
# Static dielectric constant tensor:
#      x y z
#    x 1.648550 0.000000 0.000000 
#    y 0.000000 1.735960 0.000000 
#    z 0.000000 0.000000 1.742720 
# 
# From -- ./inp_files/5797.got.cif
#   From: 2010.05.17/outbox.cif.g08.bks.cpg/sg55_3_cif.got.tgz:5797.got - 2010.06.03 13:27:54.
