data_PCOD9425605
_publ_section_title
;
Structure prediction by ZEFSAII (Michael W. Deem and Ramdas Pophale) SiO2 
 PCOD9425605
Probable space group: P B A M
;
_chemical_formula_sum "Si O2"
_cell_formula_units_Z 40
_cell_length_a 6.989902
_cell_length_b 15.492877
_cell_length_c 15.217388
_cell_angle_alpha 90.000000
_cell_angle_beta 90.000000
_cell_angle_gamma 90.000000
_cell_volume 1647.947128
_symmetry_space_group_name_H-M "P B A M"
_symmetry_group_IT_number 55
_symmetry_cell_setting 'orthorhombic'
loop_
_space_group_symop_operation_xyz
x,y,z
-x,-y,z
1/2+x,1/2-y,-z
1/2-x,1/2+y,-z
-x,-y,-z
x,y,-z
1/2-x,1/2+y,z
1/2+x,1/2-y,z
loop_
_atom_site_type_symbol
_atom_site_label
_atom_site_fract_x
_atom_site_fract_y
_atom_site_fract_z
Si Si1 0.835711 0.872453 0.405097
Si Si2 0.814268 0.629310 0.216051
Si Si3 0.219536 0.428337 0.596137
Si Si4 0.126886 0.180760 0.780995
Si Si5 0.773398 0.972981 0.899516
O O1 0.785248 0.833494 0.500000
O O2 0.792593 0.817968 0.318418
O O3 0.064034 0.891175 0.405986
O O4 0.744447 0.968044 0.397375
O O5 0.877457 0.604988 0.314952
O O6 0.585463 0.642865 0.223638
O O7 0.887822 0.722023 0.185785
O O8 0.833066 0.551898 0.147881
O O9 0.133945 0.407985 0.500000
O O10 0.240353 0.113454 0.841238
O O11 0.715723 0.959321 0.000000
O O12 0.000000 0.000000 0.900941
#
# Coordination Sequence:
#
# PCOD9425605 Si02
#       5
#     8   8   8   8   8
#     4   8  13  24  45  70  94 124 163 199 228 271
#     4  10  19  32  51  75  99 126 161 199 240 286
#     4   8  13  24  45  70  94 124 163 199 228 271
#     4  10  19  32  51  75  99 126 161 199 240 286
#     4   9  18  34  54  72  94 127 165 201 238 286
#
# _framework density 24.272621999999998
#
# number of rings (size 3 to 8) (size 9 to 14) (size 15 to 20)
#    0.000    3.000    2.000    1.200    0.000    1.600 
#    0.000    1.000    0.000    1.200    0.000    2.800 
#    0.000    0.000    0.000    0.000    0.000    0.000 
#
# Total GULP energy -223766.874114 kJ/mol
# GULP energy per Si atom -5594.171853 kJ/mol
# Density = 2.421738 g / cm^3
# Si number density = 24.272622 Si / 1000 Ang^3
#
#
#
# Elastic Constant Matrix: (Units=GPa)
#
#
# Indices 1 2 3 4 5 6 
#
# 1 75.9693 12.3248 15.8768 0.0000 0.0000 0.0000
# 2 12.3248 133.8928 95.7322 0.0000 0.0000 0.0000
# 3 15.8768 95.7322 192.0616 0.0000 0.0000 0.0000
# 4 0.0000 0.0000 0.0000 -6.5218 0.0000 0.0000
# 5 0.0000 0.0000 0.0000 0.0000 2.3950 0.0000
# 6 0.0000 0.0000 0.0000 0.0000 0.0000 26.8642
#
#
#
# Elastic Compliance Matrix: (Units=1/GPa)
#
#
# Indices 1 2 3 4 5 6 
#
# 1 0.013435 -0.000688 -0.000768 0.000000 0.000000 0.000000
# 2 -0.000688 0.011639 -0.005745 0.000000 0.000000 0.000000
# 3 -0.000768 -0.005745 0.008134 0.000000 0.000000 0.000000
# 4 0.000000 0.000000 0.000000 -0.153332 0.000000 0.000000
# 5 0.000000 0.000000 0.000000 0.000000 0.417528 0.000000
# 6 0.000000 0.000000 0.000000 0.000000 0.000000 0.037224
#
#
# Mechanical properties :
#
#
# Convention : Reuss Voigt Hill
#
# Bulk Modulus (GPa) = 53.16994 72.19905 62.68450
# Shear Modulus (GPa) = 14.07267 23.08016 18.57641
#
# Velocity S-wave (km/s) = 2.41046 3.08697 2.76945
# Velocity P-wave (km/s) = 5.44977 6.52039 6.00897
#
# Compressibility (1/GPa) = 0.01880762
#
# Stress axis : x y z
#
# Youngs Moduli (GPa) = 74.43106 85.91493 122.94704
#
# Poissons Ratio (x) = 0.05909 0.09440
# Poissons Ratio (y) = 0.05119 0.70630
# Poissons Ratio (z) = 0.05715 0.49356
#
# Static dielectric constant tensor:
#      x y z
#    x 2.020360 0.000000 0.000000 
#    y 0.000000 1.883090 0.000000 
#    z 0.000000 0.000000 1.893780 
# 
# From -- ./inp_files/17065.got.cif
#   From: 2010.05.17/outbox.cif.g08.bks.cpg/sg55_9_cif.got.tgz:17065.got - 2010.06.03 13:27:54.
