data_PCOD9425502
_publ_section_title
;
Structure prediction by ZEFSAII (Michael W. Deem and Ramdas Pophale) SiO2 
 PCOD9425502
Probable space group: P B A M
;
_chemical_formula_sum "Si O2"
_cell_formula_units_Z 56
_cell_length_a 19.508380
_cell_length_b 19.857933
_cell_length_c 7.694085
_cell_angle_alpha 90.000000
_cell_angle_beta 90.000000
_cell_angle_gamma 90.000000
_cell_volume 2980.658545
_symmetry_space_group_name_H-M "P B A M"
_symmetry_group_IT_number 55
_symmetry_cell_setting 'orthorhombic'
loop_
_space_group_symop_operation_xyz
x,y,z
-x,-y,z
1/2+x,1/2-y,-z
1/2-x,1/2+y,-z
-x,-y,-z
x,y,-z
1/2-x,1/2+y,z
1/2+x,1/2-y,z
loop_
_atom_site_type_symbol
_atom_site_label
_atom_site_fract_x
_atom_site_fract_y
_atom_site_fract_z
Si Si1 0.489697 0.801326 0.213705
Si Si2 0.262862 0.609262 0.205904
Si Si3 0.646085 0.790605 0.209716
Si Si4 0.743132 0.184831 0.292791
Si Si5 0.283671 0.964409 0.704047
Si Si6 0.628067 0.291051 0.200919
Si Si7 0.559176 0.050998 0.210189
O O1 0.568231 0.795608 0.271334
O O2 0.440999 0.740826 0.276550
O O3 0.458012 0.873106 0.267419
O O4 0.488701 0.800949 0.000000
O O5 0.195666 0.649002 0.273804
O O6 0.254294 0.530195 0.227124
O O7 0.331156 0.645255 0.278759
O O8 0.264243 0.623358 0.000000
O O9 0.685299 0.722155 0.258137
O O10 0.643239 0.794768 0.000000
O O11 0.730232 0.184846 0.500000
O O12 0.739045 0.108538 0.225842
O O13 0.684240 0.230965 0.208289
O O14 0.270528 0.963282 0.500000
O O15 0.365095 0.970385 0.734427
O O16 0.612200 0.306907 0.000000
O O17 0.500000 0.000000 0.269918
O O18 0.558456 0.050368 0.000000
#
# Coordination Sequence:
#
# PCOD9425502 Si02
#       7
#     8   8   8   8   8   8   8
#     4   9  16  29  51  76 100 125 158 203 250 295
#     4   9  18  31  49  72  98 127 166 206 244 295
#     4   9  18  33  53  76  99 126 163 205 249 297
#     4  10  20  33  48  70  99 131 169 206 241 291
#     4  11  22  33  47  70 101 135 168 203 244 290
#     4   9  17  32  53  74  95 126 166 207 249 295
#     4  10  19  31  50  74 102 134 163 194 243 303
#
# _framework density 18.787793000000001
#
# number of rings (size 3 to 8) (size 9 to 14) (size 15 to 20)
#    0.000    2.429    1.429    2.571    0.000    6.571 
#    0.000    1.429    0.000    0.857    0.000    6.000 
#    0.000    0.000    0.000    0.000    0.000    0.000 
#
# Total GULP energy -312350.018195 kJ/mol
# GULP energy per Si atom -5577.678896 kJ/mol
# Density = 1.874503 g / cm^3
# Si number density = 18.787793 Si / 1000 Ang^3
#
#
#
# Elastic Constant Matrix: (Units=GPa)
#
#
# Indices 1 2 3 4 5 6 
#
# 1 18.8766 -3.4168 -4.6329 0.0000 0.0000 0.0000
# 2 -3.4168 81.9070 -11.1628 0.0000 0.0000 0.0000
# 3 -4.6329 -11.1628 28.1570 0.0000 0.0000 0.0000
# 4 0.0000 0.0000 0.0000 60.1081 0.0000 0.0000
# 5 0.0000 0.0000 0.0000 0.0000 -10.7424 0.0000
# 6 0.0000 0.0000 0.0000 0.0000 0.0000 28.7560
#
#
#
# Elastic Compliance Matrix: (Units=1/GPa)
#
#
# Indices 1 2 3 4 5 6 
#
# 1 0.056312 0.003818 0.010779 0.000000 0.000000 0.000000
# 2 0.003818 0.013165 0.005848 0.000000 0.000000 0.000000
# 3 0.010779 0.005848 0.039607 0.000000 0.000000 0.000000
# 4 0.000000 0.000000 0.000000 0.016637 0.000000 0.000000
# 5 0.000000 0.000000 0.000000 0.000000 -0.093089 0.000000
# 6 0.000000 0.000000 0.000000 0.000000 0.000000 0.034775
#
#
# Mechanical properties :
#
#
# Convention : Reuss Voigt Hill
#
# Bulk Modulus (GPa) = 6.66778 10.05727 8.36253
# Shear Modulus (GPa) = 65.35199 25.50123 45.42661
#
# Velocity S-wave (km/s) = 5.90422 3.68819 4.92253
# Velocity P-wave (km/s) = 7.07364 4.84786 6.06375
#
# Compressibility (1/GPa) = 0.14997490
#
# Stress axis : x y z
#
# Youngs Moduli (GPa) = 17.75809 75.95788 25.24800
#
# Poissons Ratio (x) = -0.29002 -0.27216
# Poissons Ratio (y) = -0.06780 -0.14764
# Poissons Ratio (z) = -0.19142 -0.44417
#
# Static dielectric constant tensor:
#      x y z
#    x 1.642450 0.000000 0.000000 
#    y 0.000000 1.660180 0.000000 
#    z 0.000000 0.000000 1.723000 
# 
# From -- ./inp_files/7796.got.cif
#   From: 2010.05.17/outbox.cif.g08.bks.cpg/sg55_4_cif.got.tgz:7796.got - 2010.06.03 13:27:54.
