data_PCOD9425196
_publ_section_title
;
Structure prediction by ZEFSAII (Michael W. Deem and Ramdas Pophale) SiO2 
 PCOD9425196
Probable space group: P B A M
;
_chemical_formula_sum "Si O2"
_cell_formula_units_Z 64
_cell_length_a 20.566858
_cell_length_b 20.124849
_cell_length_c 7.721711
_cell_angle_alpha 90.000000
_cell_angle_beta 90.000000
_cell_angle_gamma 90.000000
_cell_volume 3196.054109
_symmetry_space_group_name_H-M "P B A M"
_symmetry_group_IT_number 55
_symmetry_cell_setting 'orthorhombic'
loop_
_space_group_symop_operation_xyz
x,y,z
-x,-y,z
1/2+x,1/2-y,-z
1/2-x,1/2+y,-z
-x,-y,-z
x,y,-z
1/2-x,1/2+y,z
1/2+x,1/2-y,z
loop_
_atom_site_type_symbol
_atom_site_label
_atom_site_fract_x
_atom_site_fract_y
_atom_site_fract_z
Si Si1 0.279480 0.251128 0.702288
Si Si2 0.433341 0.466050 0.712391
Si Si3 0.325102 0.569117 0.290792
Si Si4 0.817778 0.396301 0.204619
Si Si5 0.006838 0.290537 0.795423
Si Si6 0.903097 0.179522 0.294356
Si Si7 0.461107 0.065321 0.788192
Si Si8 0.139977 0.217471 0.290289
O O1 0.272486 0.268262 0.500000
O O2 0.306893 0.175984 0.711701
O O3 0.333768 0.298548 0.781167
O O4 0.207005 0.249978 0.775944
O O5 0.500000 0.500000 0.769322
O O6 0.434328 0.466447 0.500000
O O7 0.371297 0.509484 0.766706
O O8 0.428667 0.390393 0.773484
O O9 0.324879 0.569799 0.500000
O O10 0.249924 0.565355 0.235077
O O11 0.355762 0.640148 0.234084
O O12 0.884893 0.430326 0.263819
O O13 0.824518 0.384534 0.000000
O O14 0.077055 0.258708 0.761125
O O15 0.953614 0.239152 0.726231
O O16 0.994754 0.365526 0.730473
O O17 0.996831 0.293530 0.000000
O O18 0.894308 0.170403 0.500000
O O19 0.500000 0.000000 0.728819
O O20 0.462300 0.063587 0.000000
O O21 0.141174 0.215976 0.500000
#
# Coordination Sequence:
#
# PCOD9425196 Si02
#       8
#     8   8   8   8   8   8   8   8
#     4   9  18  33  53  75 102 134 171 212 258 309
#     4   9  17  31  52  77 104 138 177 209 249 308
#     4   9  18  34  55  79 108 140 177 216 253 306
#     4  10  18  32  56  78 100 134 175 215 259 311
#     4  11  21  34  54  80 104 133 174 219 262 308
#     4  10  19  33  56  79 103 139 176 215 262 312
#     4   9  19  36  54  72 100 137 175 213 259 317
#     4   9  18  33  52  75 105 139 170 209 259 311
#
# _framework density 20.024692999999999
#
# number of rings (size 3 to 8) (size 9 to 14) (size 15 to 20)
#    0.000    2.500    1.250    2.250    0.000    4.000 
#    2.250    0.625    0.000    6.750    0.000    0.000 
#    0.000    0.000    0.000    0.000    0.000    0.000 
#
# Total GULP energy -357019.544600 kJ/mol
# GULP energy per Si atom -5578.430384 kJ/mol
# Density = 1.997912 g / cm^3
# Si number density = 20.024693 Si / 1000 Ang^3
#
#
#
# Elastic Constant Matrix: (Units=GPa)
#
#
# Indices 1 2 3 4 5 6 
#
# 1 117.6425 66.7149 -8.2186 0.0000 0.0000 0.0000
# 2 66.7149 128.1507 -2.4799 0.0000 0.0000 0.0000
# 3 -8.2186 -2.4799 29.4207 0.0000 0.0000 0.0000
# 4 0.0000 0.0000 0.0000 6.6317 0.0000 0.0000
# 5 0.0000 0.0000 0.0000 0.0000 -6.5493 0.0000
# 6 0.0000 0.0000 0.0000 0.0000 0.0000 32.8755
#
#
#
# Elastic Compliance Matrix: (Units=1/GPa)
#
#
# Indices 1 2 3 4 5 6 
#
# 1 0.012304 -0.006349 0.002902 0.000000 0.000000 0.000000
# 2 -0.006349 0.011092 -0.000839 0.000000 0.000000 0.000000
# 3 0.002902 -0.000839 0.034730 0.000000 0.000000 0.000000
# 4 0.000000 0.000000 0.000000 0.150791 0.000000 0.000000
# 5 0.000000 0.000000 0.000000 0.000000 -0.152687 0.000000
# 6 0.000000 0.000000 0.000000 0.000000 0.000000 0.030418
#
#
# Mechanical properties :
#
#
# Convention : Reuss Voigt Hill
#
# Bulk Modulus (GPa) = 20.18006 43.02742 31.60374
# Shear Modulus (GPa) = 44.74783 21.20472 32.97628
#
# Velocity S-wave (km/s) = 4.73232 3.25765 4.06246
# Velocity P-wave (km/s) = 6.32133 5.97357 6.14991
#
# Compressibility (1/GPa) = 0.04955387
#
# Stress axis : x y z
#
# Youngs Moduli (GPa) = 81.27696 90.15183 28.79386
#
# Poissons Ratio (x) = 0.57238 -0.08355
# Poissons Ratio (y) = 0.51603 0.02415
# Poissons Ratio (z) = -0.23585 0.07560
#
# Static dielectric constant tensor:
#      x y z
#    x 1.687330 0.000000 0.000000 
#    y 0.000000 1.695560 0.000000 
#    z 0.000000 0.000000 1.745020 
# 
# From -- ./inp_files/9185.got.cif
#   From: 2010.05.17/outbox.cif.g08.bks.cpg/sg55_5_cif.got.tgz:9185.got - 2010.06.03 13:27:54.
