data_PCOD9425530
_publ_section_title
;
Structure prediction by ZEFSAII (Michael W. Deem and Ramdas Pophale) SiO2 
 PCOD9425530
Probable space group: P B A M
;
_chemical_formula_sum "Si O2"
_cell_formula_units_Z 56
_cell_length_a 14.492205
_cell_length_b 20.838322
_cell_length_c 9.688406
_cell_angle_alpha 90.000000
_cell_angle_beta 90.000000
_cell_angle_gamma 90.000000
_cell_volume 2925.833063
_symmetry_space_group_name_H-M "P B A M"
_symmetry_group_IT_number 55
_symmetry_cell_setting 'orthorhombic'
loop_
_space_group_symop_operation_xyz
x,y,z
-x,-y,z
1/2+x,1/2-y,-z
1/2-x,1/2+y,-z
-x,-y,-z
x,y,-z
1/2-x,1/2+y,z
1/2+x,1/2-y,z
loop_
_atom_site_type_symbol
_atom_site_label
_atom_site_fract_x
_atom_site_fract_y
_atom_site_fract_z
Si Si1 0.217929 0.240217 0.663324
Si Si2 0.257807 0.112979 0.838047
Si Si3 0.785752 0.006171 0.661038
Si Si4 0.501966 0.741707 0.660299
Si Si5 0.464601 0.140114 0.841401
Si Si6 0.923369 0.555543 0.649796
Si Si7 0.851483 0.142350 0.665885
O O1 0.239130 0.228067 0.500000
O O2 0.242687 0.179803 0.758475
O O3 0.273213 0.304975 0.705129
O O4 0.107591 0.246483 0.674753
O O5 0.368650 0.101362 0.832015
O O6 0.206799 0.056209 0.756248
O O7 0.232747 0.116906 0.000000
O O8 0.810837 0.992346 0.500000
O O9 0.678098 0.027004 0.660571
O O10 0.837336 0.069850 0.715799
O O11 0.525314 0.753493 0.500000
O O12 0.546758 0.795385 0.755035
O O13 0.549657 0.674100 0.697074
O O14 0.547847 0.101767 0.772203
O O15 0.482725 0.154409 0.000000
O O16 0.928996 0.589983 0.500000
O O17 0.000000 0.500000 0.648124
O O18 0.842471 0.136509 0.500000
#
# Coordination Sequence:
#
# PCOD9425530 Si02
#       7
#     8   8   8   8   8   8   8
#     4  10  20  37  62  86 109 145 189 234 284 333
#     4  11  23  37  54  81 116 152 189 228 276 337
#     4  10  20  36  57  81 112 150 189 233 286 337
#     4  10  20  36  60  85 109 140 186 237 284 332
#     4  11  22  34  52  79 114 150 182 223 281 343
#     4  10  19  31  51  78 107 142 184 228 275 331
#     4   9  18  34  57  85 112 138 180 237 283 330
#
# _framework density 19.139848000000001
#
# number of rings (size 3 to 8) (size 9 to 14) (size 15 to 20)
#    0.000    1.857    2.857    1.714    0.000    4.857 
#    0.000    2.143    0.000    4.286    0.000    0.000 
#    0.000    0.000    0.000    0.000    0.000    0.000 
#
# Total GULP energy -312388.988661 kJ/mol
# GULP energy per Si atom -5578.374798 kJ/mol
# Density = 1.909629 g / cm^3
# Si number density = 19.139848 Si / 1000 Ang^3
#
#
#
# Elastic Constant Matrix: (Units=GPa)
#
#
# Indices 1 2 3 4 5 6 
#
# 1 33.3296 -9.6459 8.7375 0.0000 0.0000 0.0000
# 2 -9.6459 77.6950 47.2181 0.0000 0.0000 0.0000
# 3 8.7375 47.2181 93.3914 0.0000 0.0000 0.0000
# 4 0.0000 0.0000 0.0000 -40.2118 0.0000 0.0000
# 5 0.0000 0.0000 0.0000 0.0000 6.8033 0.0000
# 6 0.0000 0.0000 0.0000 0.0000 0.0000 21.8480
#
#
#
# Elastic Compliance Matrix: (Units=1/GPa)
#
#
# Indices 1 2 3 4 5 6 
#
# 1 0.034677 0.009061 -0.007826 0.000000 0.000000 0.000000
# 2 0.009061 0.020947 -0.011439 0.000000 0.000000 0.000000
# 3 -0.007826 -0.011439 0.017223 0.000000 0.000000 0.000000
# 4 0.000000 0.000000 0.000000 -0.024868 0.000000 0.000000
# 5 0.000000 0.000000 0.000000 0.000000 0.146988 0.000000
# 6 0.000000 0.000000 0.000000 0.000000 0.000000 0.045771
#
#
# Mechanical properties :
#
#
# Convention : Reuss Voigt Hill
#
# Bulk Modulus (GPa) = 19.06886 33.00394 26.03640
# Shear Modulus (GPa) = 17.94525 8.22829 13.08677
#
# Velocity S-wave (km/s) = 3.06532 2.07566 2.61769
# Velocity P-wave (km/s) = 4.74477 4.79849 4.77170
#
# Compressibility (1/GPa) = 0.05244151
#
# Stress axis : x y z
#
# Youngs Moduli (GPa) = 28.83735 47.73857 58.06169
#
# Poissons Ratio (x) = -0.43256 0.45437
# Poissons Ratio (y) = -0.26130 0.66415
# Poissons Ratio (z) = 0.22567 0.54606
#
# Static dielectric constant tensor:
#      x y z
#    x 1.693850 0.000000 0.000000 
#    y 0.000000 1.689050 0.000000 
#    z 0.000000 0.000000 1.642820 
# 
# From -- ./inp_files/6099.got.cif
#   From: 2010.05.17/outbox.cif.g08.bks.cpg/sg55_4_cif.got.tgz:6099.got - 2010.06.03 13:27:54.
