data_PCOD9425496
_publ_section_title
;
Structure prediction by ZEFSAII (Michael W. Deem and Ramdas Pophale) SiO2 
 PCOD9425496
Probable space group: P B A M
;
_chemical_formula_sum "Si O2"
_cell_formula_units_Z 40
_cell_length_a 30.323698
_cell_length_b 7.488001
_cell_length_c 8.021874
_cell_angle_alpha 90.000000
_cell_angle_beta 90.000000
_cell_angle_gamma 90.000000
_cell_volume 1821.477843
_symmetry_space_group_name_H-M "P B A M"
_symmetry_group_IT_number 55
_symmetry_cell_setting 'orthorhombic'
loop_
_space_group_symop_operation_xyz
x,y,z
-x,-y,z
1/2+x,1/2-y,-z
1/2-x,1/2+y,-z
-x,-y,-z
x,y,-z
1/2-x,1/2+y,z
1/2+x,1/2-y,z
loop_
_atom_site_type_symbol
_atom_site_label
_atom_site_fract_x
_atom_site_fract_y
_atom_site_fract_z
Si Si1 0.451437 0.969960 0.310697
Si Si2 0.301850 0.949399 0.500000
Si Si3 0.952628 0.915451 0.802938
Si Si4 0.801559 0.977773 0.500000
Si Si5 0.142550 0.456785 0.816475
Si Si6 0.857951 0.981449 0.187576
O O1 0.450923 0.041218 0.500000
O O2 0.448165 0.756134 0.311725
O O3 0.407378 0.024178 0.214234
O O4 0.500000 0.000000 0.234826
O O5 0.307389 0.735786 0.500000
O O6 0.326402 0.016085 0.334217
O O7 0.250178 0.986290 0.500000
O O8 0.908885 0.032634 0.777329
O O9 0.951187 0.862087 0.000000
O O10 0.000000 0.000000 0.772718
O O11 0.825712 0.043683 0.332797
O O12 0.141812 0.237890 0.813849
O O13 0.157821 0.510365 0.000000
O O14 0.845821 0.037628 0.000000
#
# Coordination Sequence:
#
# PCOD9425496 Si02
#       6
#     8   4   8   4   8   8
#     4  10  19  31  49  76 106 135 171 209 244 295
#     4  10  20  36  53  76  98 124 167 210 251 306
#     4   9  18  32  50  74 104 136 172 209 245 294
#     4  10  20  34  55  72  98 128 159 210 257 292
#     4   9  17  32  54  74  98 134 169 203 244 297
#     4   8  16  31  51  74  98 130 170 201 238 298
#
# _framework density 21.960190999999998
#
# number of rings (size 3 to 8) (size 9 to 14) (size 15 to 20)
#    0.000    2.800    1.000    1.800    4.200    2.800 
#    0.000    2.000    0.000    2.400    0.000    0.000 
#    0.000    0.000    0.000    0.000    0.000    0.000 
#
# Total GULP energy -223176.508742 kJ/mol
# GULP energy per Si atom -5579.412719 kJ/mol
# Density = 2.191021 g / cm^3
# Si number density = 21.960191 Si / 1000 Ang^3
#
#
#
# Elastic Constant Matrix: (Units=GPa)
#
#
# Indices 1 2 3 4 5 6 
#
# 1 185.7433 -2.8424 117.3129 0.0000 0.0000 0.0000
# 2 -2.8424 42.5273 6.7610 0.0000 0.0000 0.0000
# 3 117.3129 6.7610 160.7264 0.0000 0.0000 0.0000
# 4 0.0000 0.0000 0.0000 21.6645 0.0000 0.0000
# 5 0.0000 0.0000 0.0000 0.0000 32.1656 0.0000
# 6 0.0000 0.0000 0.0000 0.0000 0.0000 24.5519
#
#
#
# Elastic Compliance Matrix: (Units=1/GPa)
#
#
# Indices 1 2 3 4 5 6 
#
# 1 0.010133 0.001866 -0.007475 0.000000 0.000000 0.000000
# 2 0.001866 0.024016 -0.002372 0.000000 0.000000 0.000000
# 3 -0.007475 -0.002372 0.011777 0.000000 0.000000 0.000000
# 4 0.000000 0.000000 0.000000 0.046158 0.000000 0.000000
# 5 0.000000 0.000000 0.000000 0.000000 0.031089 0.000000
# 6 0.000000 0.000000 0.000000 0.000000 0.000000 0.040730
#
#
# Mechanical properties :
#
#
# Convention : Reuss Voigt Hill
#
# Bulk Modulus (GPa) = 33.37273 70.16221 51.76747
# Shear Modulus (GPa) = 26.33601 33.52743 29.93172
#
# Velocity S-wave (km/s) = 3.46679 3.91159 3.69589
# Velocity P-wave (km/s) = 5.59060 7.24015 6.46817
#
# Compressibility (1/GPa) = 0.02996459
#
# Stress axis : x y z
#
# Youngs Moduli (GPa) = 98.68580 41.63874 84.91004
#
# Poissons Ratio (x) = -0.07768 0.63467
# Poissons Ratio (y) = -0.18411 0.20140
# Poissons Ratio (z) = 0.73764 0.09876
#
# Static dielectric constant tensor:
#      x y z
#    x 1.802640 0.000000 0.000000 
#    y 0.000000 1.844510 0.000000 
#    z 0.000000 0.000000 1.788840 
# 
# From -- ./inp_files/9317.got.cif
#   From: 2010.05.17/outbox.cif.g08.bks.cpg/sg55_5_cif.got.tgz:9317.got - 2010.06.03 13:27:54.
