data_PCOD9425195
_publ_section_title
;
Structure prediction by ZEFSAII (Michael W. Deem and Ramdas Pophale) SiO2 
 PCOD9425195
Probable space group: P B A M
;
_chemical_formula_sum "Si O2"
_cell_formula_units_Z 64
_cell_length_a 8.052728
_cell_length_b 32.306650
_cell_length_c 12.668285
_cell_angle_alpha 90.000000
_cell_angle_beta 90.000000
_cell_angle_gamma 90.000000
_cell_volume 3295.738777
_symmetry_space_group_name_H-M "P B A M"
_symmetry_group_IT_number 55
_symmetry_cell_setting 'orthorhombic'
loop_
_space_group_symop_operation_xyz
x,y,z
-x,-y,z
1/2+x,1/2-y,-z
1/2-x,1/2+y,-z
-x,-y,-z
x,y,-z
1/2-x,1/2+y,z
1/2+x,1/2-y,z
loop_
_atom_site_type_symbol
_atom_site_label
_atom_site_fract_x
_atom_site_fract_y
_atom_site_fract_z
Si Si1 0.418235 0.705371 0.118975
Si Si2 0.205321 0.567629 0.877376
Si Si3 0.228795 0.842804 0.310535
Si Si4 0.154909 0.752631 0.753147
Si Si5 0.164035 0.396353 0.123416
Si Si6 0.579527 0.826142 0.620539
Si Si7 0.325491 0.481259 0.873718
Si Si8 0.885533 0.871186 0.263743
O O1 0.588544 0.729799 0.134690
O O2 0.319116 0.729541 0.209637
O O3 0.419508 0.659098 0.163425
O O4 0.357855 0.706358 0.000000
O O5 0.194338 0.518442 0.859152
O O6 0.330334 0.586661 0.792038
O O7 0.029549 0.590917 0.868210
O O8 0.262588 0.572849 0.000000
O O9 0.178231 0.794458 0.313335
O O10 0.290189 0.857348 0.194345
O O11 0.398517 0.847851 0.375617
O O12 0.057598 0.868062 0.329125
O O13 0.064816 0.716247 0.688247
O O14 0.265729 0.436571 0.164164
O O15 0.199823 0.388866 0.000000
O O16 0.622550 0.816430 0.500000
O O17 0.727633 0.853313 0.671832
O O18 0.500000 0.500000 0.834998
O O19 0.342365 0.475610 0.000000
#
# Coordination Sequence:
#
# PCOD9425195 Si02
#       8
#     8   8   8   8   8   8   8   8
#     4  10  19  32  52  75 110 147 180 225 278 338
#     4  10  18  32  55  84 126 167 201 241 284 343
#     4  11  22  40  59  84 115 147 195 241 292 365
#     4  10  21  38  52  80 108 140 197 234 283 359
#     4  10  20  33  54  85 125 169 203 237 288 345
#     4  11  24  44  62  80 111 144 189 259 315 350
#     4   9  17  29  48  81 122 166 209 239 277 337
#     4  10  22  37  57  85 114 147 200 236 291 360
#
# _framework density 19.419015999999999
#
# number of rings (size 3 to 8) (size 9 to 14) (size 15 to 20)
#    0.000    1.875    2.500    1.875    0.000    6.500 
#    0.000    0.000    0.000    0.000    0.000    1.750 
#    0.000    3.000    0.000    0.000    0.000    0.000 
#
# Total GULP energy -356297.302456 kJ/mol
# GULP energy per Si atom -5567.145351 kJ/mol
# Density = 1.937482 g / cm^3
# Si number density = 19.419016 Si / 1000 Ang^3
#
#
#
# Elastic Constant Matrix: (Units=GPa)
#
#
# Indices 1 2 3 4 5 6 
#
# 1 84.1220 9.6243 15.2900 0.0000 0.0000 0.0000
# 2 9.6243 60.7108 16.6889 0.0000 0.0000 0.0000
# 3 15.2900 16.6889 58.8503 0.0000 0.0000 0.0000
# 4 0.0000 0.0000 0.0000 6.0928 0.0000 0.0000
# 5 0.0000 0.0000 0.0000 0.0000 7.9825 0.0000
# 6 0.0000 0.0000 0.0000 0.0000 0.0000 28.5346
#
#
#
# Elastic Compliance Matrix: (Units=1/GPa)
#
#
# Indices 1 2 3 4 5 6 
#
# 1 0.012555 -0.001186 -0.002926 0.000000 0.000000 0.000000
# 2 -0.001186 0.017976 -0.004790 0.000000 0.000000 0.000000
# 3 -0.002926 -0.004790 0.019111 0.000000 0.000000 0.000000
# 4 0.000000 0.000000 0.000000 0.164128 0.000000 0.000000
# 5 0.000000 0.000000 0.000000 0.000000 0.125273 0.000000
# 6 0.000000 0.000000 0.000000 0.000000 0.000000 0.035045
#
#
# Mechanical properties :
#
#
# Convention : Reuss Voigt Hill
#
# Bulk Modulus (GPa) = 31.40773 31.87660 31.64217
# Shear Modulus (GPa) = 12.42224 19.32731 15.87478
#
# Velocity S-wave (km/s) = 2.53196 3.15822 2.86227
# Velocity P-wave (km/s) = 4.97560 5.45435 5.22047
#
# Compressibility (1/GPa) = 0.03183929
#
# Stress axis : x y z
#
# Youngs Moduli (GPa) = 79.64993 55.62920 52.32703
#
# Poissons Ratio (x) = 0.06598 0.15309
# Poissons Ratio (y) = 0.09447 0.25062
# Poissons Ratio (z) = 0.23302 0.26644
#
# Static dielectric constant tensor:
#      x y z
#    x 1.820130 0.000000 0.000000 
#    y 0.000000 1.701410 0.000000 
#    z 0.000000 0.000000 1.629810 
# 
# From -- ./inp_files/12622.got.cif
#   From: 2010.05.17/outbox.cif.g08.bks.cpg/sg55_7_cif.got.tgz:12622.got - 2010.06.03 13:27:54.
