data_PCOD9425463
_publ_section_title
;
Structure prediction by ZEFSAII (Michael W. Deem and Ramdas Pophale) SiO2 
 PCOD9425463
Probable space group: P B A M
;
_chemical_formula_sum "Si O2"
_cell_formula_units_Z 64
_cell_length_a 28.661773
_cell_length_b 10.502159
_cell_length_c 14.104901
_cell_angle_alpha 90.000000
_cell_angle_beta 90.000000
_cell_angle_gamma 90.000000
_cell_volume 4245.723264
_symmetry_space_group_name_H-M "P B A M"
_symmetry_group_IT_number 55
_symmetry_cell_setting 'orthorhombic'
loop_
_space_group_symop_operation_xyz
x,y,z
-x,-y,z
1/2+x,1/2-y,-z
1/2-x,1/2+y,-z
-x,-y,-z
x,y,-z
1/2-x,1/2+y,z
1/2+x,1/2-y,z
loop_
_atom_site_type_symbol
_atom_site_label
_atom_site_fract_x
_atom_site_fract_y
_atom_site_fract_z
Si Si1 0.364543 0.510180 0.887420
Si Si2 0.625655 0.794136 0.113101
Si Si3 0.691944 0.144772 0.390321
Si Si4 0.518617 0.863004 0.884817
Si Si5 0.534771 0.387735 0.884597
Si Si6 0.689042 0.889755 0.276732
Si Si7 0.698546 0.392842 0.728858
Si Si8 0.805153 0.139215 0.607277
O O1 0.367041 0.357640 0.870742
O O2 0.413186 0.574568 0.856550
O O3 0.323916 0.578906 0.830032
O O4 0.359217 0.527200 0.000000
O O5 0.572437 0.832202 0.138502
O O6 0.661342 0.872247 0.178719
O O7 0.632055 0.816866 0.000000
O O8 0.675522 0.152738 0.500000
O O9 0.681441 0.266206 0.324605
O O10 0.748567 0.143398 0.395706
O O11 0.677196 0.016187 0.336401
O O12 0.485289 0.747729 0.852681
O O13 0.500000 0.000000 0.851938
O O14 0.516893 0.863750 0.000000
O O15 0.500000 0.500000 0.854662
O O16 0.534346 0.386785 0.000000
O O17 0.745191 0.890108 0.262327
O O18 0.678325 0.765200 0.339432
O O19 0.683738 0.512180 0.664213
O O20 0.822325 0.134850 0.500000
#
# Coordination Sequence:
#
# PCOD9425463 Si02
#       8
#     8   8   8   8   8   8   8   8
#     4  10  19  31  49  70  97 133 169 197 228 278
#     4  10  19  32  49  69  98 136 166 194 233 281
#     4   9  18  31  47  68  95 123 153 203 260 285
#     4   9  17  29  47  70  95 120 153 201 250 283
#     4   9  15  27  47  68  89 120 158 197 240 279
#     4  10  19  31  48  69  98 131 164 197 232 287
#     4  10  19  31  47  70  98 130 164 200 233 278
#     4   9  16  29  49  69  89 120 162 204 248 288
#
# _framework density 15.073992000000001
#
# number of rings (size 3 to 8) (size 9 to 14) (size 15 to 20)
#    0.000    2.500    2.500    0.750    0.000    4.500 
#    0.000    1.875    0.000    0.000    0.000    0.000 
#    0.000   20.000    0.000    0.000    0.000    0.000 
#
# Total GULP energy -356374.457812 kJ/mol
# GULP energy per Si atom -5568.350903 kJ/mol
# Density = 1.503968 g / cm^3
# Si number density = 15.073992 Si / 1000 Ang^3
#
#
#
# Elastic Constant Matrix: (Units=GPa)
#
#
# Indices 1 2 3 4 5 6 
#
# 1 45.4857 32.3100 33.8439 0.0000 0.0000 0.0000
# 2 32.3100 129.0140 45.3049 0.0000 0.0000 0.0000
# 3 33.8439 45.3049 71.4020 0.0000 0.0000 0.0000
# 4 0.0000 0.0000 0.0000 19.0565 0.0000 0.0000
# 5 0.0000 0.0000 0.0000 0.0000 -1.1672 0.0000
# 6 0.0000 0.0000 0.0000 0.0000 0.0000 15.4898
#
#
#
# Elastic Compliance Matrix: (Units=1/GPa)
#
#
# Indices 1 2 3 4 5 6 
#
# 1 0.035369 -0.003822 -0.014339 0.000000 0.000000 0.000000
# 2 -0.003822 0.010386 -0.004778 0.000000 0.000000 0.000000
# 3 -0.014339 -0.004778 0.023834 0.000000 0.000000 0.000000
# 4 0.000000 0.000000 0.000000 0.052476 0.000000 0.000000
# 5 0.000000 0.000000 0.000000 0.000000 -0.856758 0.000000
# 6 0.000000 0.000000 0.000000 0.000000 0.000000 0.064559
#
#
# Mechanical properties :
#
#
# Convention : Reuss Voigt Hill
#
# Bulk Modulus (GPa) = 42.17777 52.09104 47.13440
# Shear Modulus (GPa) = -8.11227 15.63867 3.76320
#
# Velocity S-wave (km/s) = -2.32235 3.22446 1.58174
# Velocity P-wave (km/s) = 4.56620 6.96382 5.88833
#
# Compressibility (1/GPa) = 0.02370917
#
# Stress axis : x y z
#
# Youngs Moduli (GPa) = 28.27301 96.28009 41.95695
#
# Poissons Ratio (x) = 0.36802 0.60164
# Poissons Ratio (y) = 0.10807 0.20049
# Poissons Ratio (z) = 0.40542 0.46007
#
# Static dielectric constant tensor:
#      x y z
#    x 1.486880 0.000000 0.000000 
#    y 0.000000 1.509180 0.000000 
#    z 0.000000 0.000000 1.491110 
# 
# From -- ./inp_files/13640.got.cif
#   From: 2010.05.17/outbox.cif.g08.bks.cpg/sg55_7_cif.got.tgz:13640.got - 2010.06.03 13:27:54.
