data_PCOD9425096
_publ_section_title
;
Structure prediction by ZEFSAII (Michael W. Deem and Ramdas Pophale) SiO2 
 PCOD9425096
Probable space group: P B A M
;
_chemical_formula_sum "Si O2"
_cell_formula_units_Z 58
_cell_length_a 25.825262
_cell_length_b 14.859805
_cell_length_c 7.611238
_cell_angle_alpha 90.000000
_cell_angle_beta 90.000000
_cell_angle_gamma 90.000000
_cell_volume 2920.876193
_symmetry_space_group_name_H-M "P B A M"
_symmetry_group_IT_number 55
_symmetry_cell_setting 'orthorhombic'
loop_
_space_group_symop_operation_xyz
x,y,z
-x,-y,z
1/2+x,1/2-y,-z
1/2-x,1/2+y,-z
-x,-y,-z
x,y,-z
1/2-x,1/2+y,z
1/2+x,1/2-y,z
loop_
_atom_site_type_symbol
_atom_site_label
_atom_site_fract_x
_atom_site_fract_y
_atom_site_fract_z
Si Si1 0.108970 0.266646 0.211828
Si Si2 0.141309 0.461657 0.799235
Si Si3 0.000000 0.500000 0.500000
Si Si4 0.255582 0.447879 0.296749
Si Si5 0.686961 0.379183 0.799377
Si Si6 0.280040 0.247697 0.294322
Si Si7 0.113565 0.653842 0.210473
Si Si8 0.501982 0.157624 0.789833
O O1 0.130223 0.363324 0.278225
O O2 0.141462 0.182298 0.280519
O O3 0.047634 0.270513 0.239141
O O4 0.118411 0.266162 0.000000
O O5 0.202930 0.475693 0.799588
O O6 0.116698 0.551167 0.716725
O O7 0.121793 0.457542 0.000000
O O8 0.988788 0.575848 0.343304
O O9 0.240534 0.438847 0.500000
O O10 0.297548 0.526458 0.284917
O O11 0.274546 0.350592 0.232568
O O12 0.738207 0.316510 0.795977
O O13 0.673570 0.400481 0.000000
O O14 0.266867 0.244478 0.500000
O O15 0.337941 0.210651 0.274948
O O16 0.056453 0.690335 0.247119
O O17 0.119690 0.648042 0.000000
O O18 0.503876 0.132333 0.000000
#
# Coordination Sequence:
#
# PCOD9425096 Si02
#       8
#     8   8   2   8   8   8   8   8
#     4   9  19  37  59  80 113 154 191 240 290 343
#     4  10  18  31  53  81 112 150 188 225 275 342
#     4  12  22  36  60  94 116 170 202 236 300 352
#     4  11  23  37  51  80 116 152 185 234 295 340
#     4  11  21  36  59  84 110 149 196 237 291 353
#     4  11  23  37  55  81 116 151 190 240 291 350
#     4  10  21  36  59  82 112 157 193 236 289 340
#     4  10  22  41  57  84 125 158 201 249 293 353
#
# _framework density 19.857057000000001
#
# number of rings (size 3 to 8) (size 9 to 14) (size 15 to 20)
#    0.000    1.655    2.759    2.276    0.966    3.862 
#    6.207    0.000    0.000    0.828    0.000    5.793 
#    0.000    0.000    0.000    0.000    0.000    0.000 
#
# Total GULP energy -323246.194234 kJ/mol
# GULP energy per Si atom -5573.210245 kJ/mol
# Density = 1.981186 g / cm^3
# Si number density = 19.857057 Si / 1000 Ang^3
#
#
#
# Elastic Constant Matrix: (Units=GPa)
#
#
# Indices 1 2 3 4 5 6 
#
# 1 69.7286 8.5974 -3.0698 0.0000 0.0000 0.0000
# 2 8.5974 69.8729 -4.2219 0.0000 0.0000 0.0000
# 3 -3.0698 -4.2219 60.9020 0.0000 0.0000 0.0000
# 4 0.0000 0.0000 0.0000 19.6933 0.0000 0.0000
# 5 0.0000 0.0000 0.0000 0.0000 43.2129 0.0000
# 6 0.0000 0.0000 0.0000 0.0000 0.0000 27.5651
#
#
#
# Elastic Compliance Matrix: (Units=1/GPa)
#
#
# Indices 1 2 3 4 5 6 
#
# 1 0.014585 -0.001758 0.000613 0.000000 0.000000 0.000000
# 2 -0.001758 0.014584 0.000922 0.000000 0.000000 0.000000
# 3 0.000613 0.000922 0.016515 0.000000 0.000000 0.000000
# 4 0.000000 0.000000 0.000000 0.050779 0.000000 0.000000
# 5 0.000000 0.000000 0.000000 0.000000 0.023141 0.000000
# 6 0.000000 0.000000 0.000000 0.000000 0.000000 0.036278
#
#
# Mechanical properties :
#
#
# Convention : Reuss Voigt Hill
#
# Bulk Modulus (GPa) = 22.10447 22.56834 22.33641
# Shear Modulus (GPa) = 29.17073 31.37411 30.27242
#
# Velocity S-wave (km/s) = 3.83696 3.97923 3.90874
# Velocity P-wave (km/s) = 5.54848 5.70109 5.62530
#
# Compressibility (1/GPa) = 0.04523972
#
# Stress axis : x y z
#
# Youngs Moduli (GPa) = 68.56345 68.56978 60.55222
#
# Poissons Ratio (x) = 0.12051 -0.03714
# Poissons Ratio (y) = 0.12050 -0.05585
# Poissons Ratio (z) = -0.04205 -0.06325
#
# Static dielectric constant tensor:
#      x y z
#    x 1.720490 0.000000 0.000000 
#    y 0.000000 1.696000 0.000000 
#    z 0.000000 0.000000 1.607010 
# 
# From -- ./inp_files/9596.got.cif
#   From: 2010.05.17/outbox.cif.g08.bks.cpg/sg55_5_cif.got.tgz:9596.got - 2010.06.03 13:27:54.
