data_PCOD9425713
_publ_section_title
;
Structure prediction by ZEFSAII (Michael W. Deem and Ramdas Pophale) SiO2 
 PCOD9425713
Probable space group: P B A M
;
_chemical_formula_sum "Si O2"
_cell_formula_units_Z 48
_cell_length_a 10.444746
_cell_length_b 29.870837
_cell_length_c 8.664818
_cell_angle_alpha 90.000000
_cell_angle_beta 90.000000
_cell_angle_gamma 90.000000
_cell_volume 2703.365207
_symmetry_space_group_name_H-M "P B A M"
_symmetry_group_IT_number 55
_symmetry_cell_setting 'orthorhombic'
loop_
_space_group_symop_operation_xyz
x,y,z
-x,-y,z
1/2+x,1/2-y,-z
1/2-x,1/2+y,-z
-x,-y,-z
x,y,-z
1/2-x,1/2+y,z
1/2+x,1/2-y,z
loop_
_atom_site_type_symbol
_atom_site_label
_atom_site_fract_x
_atom_site_fract_y
_atom_site_fract_z
Si Si1 0.506374 0.718780 0.185878
Si Si2 0.872884 0.473082 0.686344
Si Si3 0.276530 0.116945 0.184687
Si Si4 0.278345 0.215125 0.315740
Si Si5 0.123444 0.971989 0.685778
Si Si6 0.019302 0.884039 0.184728
O O1 0.611776 0.752372 0.251576
O O2 0.362668 0.726831 0.248813
O O3 0.542726 0.667521 0.228974
O O4 0.502505 0.721508 0.000000
O O5 0.868846 0.468387 0.500000
O O6 0.862135 0.424092 0.759326
O O7 0.750799 0.502481 0.736355
O O8 0.000000 0.500000 0.727912
O O9 0.307606 0.164447 0.261207
O O10 0.128669 0.106115 0.228408
O O11 0.281590 0.121918 0.000000
O O12 0.274047 0.217277 0.500000
O O13 0.122054 0.971866 0.500000
O O14 0.109154 0.921303 0.742030
O O15 0.000000 0.000000 0.740797
O O16 0.028715 0.887059 0.000000
#
# Coordination Sequence:
#
# PCOD9425713 Si02
#       6
#     8   8   8   8   8   8
#     4  10  21  40  61  85 118 154 191 236 291 348
#     4  10  21  37  54  77 112 148 183 231 284 336
#     4  10  20  36  58  82 110 149 190 230 280 342
#     4  11  22  38  62  90 116 150 193 240 290 346
#     4  10  19  32  54  81 106 140 182 226 274 324
#     4   9  19  34  56  83 108 141 184 230 276 327
#
# _framework density 17.755648999999998
#
# number of rings (size 3 to 8) (size 9 to 14) (size 15 to 20)
#    0.000    2.000    1.667    3.500    0.000    4.667 
#    3.000    0.000    0.000    0.000    0.000    0.000 
#    0.000    0.000    0.000    0.000    0.000    0.000 
#
# Total GULP energy -267955.470754 kJ/mol
# GULP energy per Si atom -5582.405641 kJ/mol
# Density = 1.771524 g / cm^3
# Si number density = 17.755649 Si / 1000 Ang^3
#
#
#
# Elastic Constant Matrix: (Units=GPa)
#
#
# Indices 1 2 3 4 5 6 
#
# 1 121.5643 91.8825 44.6615 0.0000 0.0000 0.0000
# 2 91.8825 146.1987 50.5944 0.0000 0.0000 0.0000
# 3 44.6615 50.5944 61.0840 0.0000 0.0000 0.0000
# 4 0.0000 0.0000 0.0000 34.4853 0.0000 0.0000
# 5 0.0000 0.0000 0.0000 0.0000 21.4282 0.0000
# 6 0.0000 0.0000 0.0000 0.0000 0.0000 37.1002
#
#
#
# Elastic Compliance Matrix: (Units=1/GPa)
#
#
# Indices 1 2 3 4 5 6 
#
# 1 0.016661 -0.008769 -0.004919 0.000000 0.000000 0.000000
# 2 -0.008769 0.014204 -0.005353 0.000000 0.000000 0.000000
# 3 -0.004919 -0.005353 0.024401 0.000000 0.000000 0.000000
# 4 0.000000 0.000000 0.000000 0.028998 0.000000 0.000000
# 5 0.000000 0.000000 0.000000 0.000000 0.046668 0.000000
# 6 0.000000 0.000000 0.000000 0.000000 0.000000 0.026954
#
#
# Mechanical properties :
#
#
# Convention : Reuss Voigt Hill
#
# Bulk Modulus (GPa) = 58.19255 78.12486 68.15871
# Shear Modulus (GPa) = 24.79000 28.04997 26.41998
#
# Velocity S-wave (km/s) = 3.74060 3.97895 3.86161
# Velocity P-wave (km/s) = 7.17644 8.07496 7.63892
#
# Compressibility (1/GPa) = 0.01718433
#
# Stress axis : x y z
#
# Youngs Moduli (GPa) = 60.02064 70.40488 40.98199
#
# Poissons Ratio (x) = 0.61737 0.20157
# Poissons Ratio (y) = 0.52631 0.21938
# Poissons Ratio (z) = 0.29522 0.37689
#
# Static dielectric constant tensor:
#      x y z
#    x 1.590450 0.000000 0.000000 
#    y 0.000000 1.591960 0.000000 
#    z 0.000000 0.000000 1.598220 
# 
# From -- ./inp_files/2839.got.cif
#   From: 2010.05.17/outbox.cif.g08.bks.cpg/sg55_2_cif.got.tgz:2839.got - 2010.06.03 13:27:54.
