data_PCOD9425470
_publ_section_title
;
Structure prediction by ZEFSAII (Michael W. Deem and Ramdas Pophale) SiO2 
 PCOD9425470
Probable space group: P B A M
;
_chemical_formula_sum "Si O2"
_cell_formula_units_Z 48
_cell_length_a 5.192070
_cell_length_b 10.728183
_cell_length_c 33.926574
_cell_angle_alpha 90.000000
_cell_angle_beta 90.000000
_cell_angle_gamma 90.000000
_cell_volume 1889.760285
_symmetry_space_group_name_H-M "P B A M"
_symmetry_group_IT_number 55
_symmetry_cell_setting 'orthorhombic'
loop_
_space_group_symop_operation_xyz
x,y,z
-x,-y,z
1/2+x,1/2-y,-z
1/2-x,1/2+y,-z
-x,-y,-z
x,y,-z
1/2-x,1/2+y,z
1/2+x,1/2-y,z
loop_
_atom_site_type_symbol
_atom_site_label
_atom_site_fract_x
_atom_site_fract_y
_atom_site_fract_z
Si Si1 0.750269 0.081906 0.500000
Si Si2 0.820385 0.180172 0.412854
Si Si3 0.691326 0.663753 0.748554
Si Si4 0.249777 0.910069 0.000000
Si Si5 0.828916 0.679093 0.828691
Si Si6 0.315691 0.836156 0.332689
Si Si7 0.749306 0.085207 0.916437
O O1 0.760465 0.147744 0.457869
O O2 0.500000 0.000000 0.500000
O O3 0.000000 0.000000 0.500000
O O4 0.623594 0.296851 0.408473
O O5 0.733386 0.099437 0.374958
O O6 0.408730 0.725475 0.747896
O O7 0.741494 0.598817 0.790711
O O8 0.752762 0.592549 0.707897
O O9 0.244831 0.839272 0.957914
O O10 0.500000 0.000000 0.000000
O O11 0.000000 0.000000 0.000000
O O12 0.631517 0.795651 0.824543
O O13 0.771508 0.644425 0.873589
O O14 0.598522 0.774724 0.331961
O O15 0.500000 0.000000 0.919120
O O16 0.000000 0.000000 0.915832
#
# Coordination Sequence:
#
# PCOD9425470 Si02
#       7
#     4   8   8   4   8   8   8
#     4  12  24  36  50  72 104 134 156 188 246 300
#     4  10  19  34  55  75  94 122 166 207 231 266
#     4   8  14  25  42  66  94 120 148 186 232 277
#     4   8  16  30  48  66  86 120 160 194 230 278
#     4  10  19  31  48  72 100 126 154 192 238 283
#     4   8  14  25  45  70  90 114 154 198 229 261
#     4  10  19  33  51  69  92 124 162 197 233 281
#
# _framework density 25.400046
#
# number of rings (size 3 to 8) (size 9 to 14) (size 15 to 20)
#    0.000    2.667    0.000    2.500    0.000    0.000 
#    0.000    0.833    0.000    2.000    0.000    0.000 
#    0.000    0.000    0.000    0.000    0.000    0.000 
#
# Total GULP energy -267506.149082 kJ/mol
# GULP energy per Si atom -5573.044773 kJ/mol
# Density = 2.534223 g / cm^3
# Si number density = 25.400046 Si / 1000 Ang^3
#
#
#
# Elastic Constant Matrix: (Units=GPa)
#
#
# Indices 1 2 3 4 5 6 
#
# 1 181.9110 29.8732 8.9513 0.0000 0.0000 0.0000
# 2 29.8732 21.1618 20.2287 0.0000 0.0000 0.0000
# 3 8.9513 20.2287 307.3097 0.0000 0.0000 0.0000
# 4 0.0000 0.0000 0.0000 6.2873 0.0000 0.0000
# 5 0.0000 0.0000 0.0000 0.0000 43.7513 0.0000
# 6 0.0000 0.0000 0.0000 0.0000 0.0000 34.1001
#
#
#
# Elastic Compliance Matrix: (Units=1/GPa)
#
#
# Indices 1 2 3 4 5 6 
#
# 1 0.007225 -0.010670 0.000492 0.000000 0.000000 0.000000
# 2 -0.010670 0.066184 -0.004046 0.000000 0.000000 0.000000
# 3 0.000492 -0.004046 0.003506 0.000000 0.000000 0.000000
# 4 0.000000 0.000000 0.000000 0.159050 0.000000 0.000000
# 5 0.000000 0.000000 0.000000 0.000000 0.022856 0.000000
# 6 0.000000 0.000000 0.000000 0.000000 0.000000 0.029325
#
#
# Mechanical properties :
#
#
# Convention : Reuss Voigt Hill
#
# Bulk Modulus (GPa) = 20.63205 69.83210 45.23207
# Shear Modulus (GPa) = 15.02628 46.91637 30.97133
#
# Velocity S-wave (km/s) = 2.43489 4.30245 3.49570
# Velocity P-wave (km/s) = 4.00567 7.22731 5.84292
#
# Compressibility (1/GPa) = 0.04846828
#
# Stress axis : x y z
#
# Youngs Moduli (GPa) = 138.40558 15.10935 285.22244
#
# Poissons Ratio (x) = 0.16121 -0.14029
# Poissons Ratio (y) = 1.47673 1.15395
# Poissons Ratio (z) = -0.06808 0.06113
#
# Static dielectric constant tensor:
#      x y z
#    x 1.918320 0.000000 0.000000 
#    y 0.000000 2.039990 0.000000 
#    z 0.000000 0.000000 2.285650 
# 
# From -- ./inp_files/24051.got.cif
#   From: 2010.05.17/outbox.cif.g08.bks.cpg/sg55_13_cif.got.tgz:24051.got - 2010.06.03 13:27:54.
