data_PCOD9425529
_publ_section_title
;
Structure prediction by ZEFSAII (Michael W. Deem and Ramdas Pophale) SiO2 
 PCOD9425529
Probable space group: P B A M
;
_chemical_formula_sum "Si O2"
_cell_formula_units_Z 64
_cell_length_a 20.021528
_cell_length_b 20.938781
_cell_length_c 9.290722
_cell_angle_alpha 90.000000
_cell_angle_beta 90.000000
_cell_angle_gamma 90.000000
_cell_volume 3894.915845
_symmetry_space_group_name_H-M "P B A M"
_symmetry_group_IT_number 55
_symmetry_cell_setting 'orthorhombic'
loop_
_space_group_symop_operation_xyz
x,y,z
-x,-y,z
1/2+x,1/2-y,-z
1/2-x,1/2+y,-z
-x,-y,-z
x,y,-z
1/2-x,1/2+y,z
1/2+x,1/2-y,z
loop_
_atom_site_type_symbol
_atom_site_label
_atom_site_fract_x
_atom_site_fract_y
_atom_site_fract_z
Si Si1 0.711689 0.690506 0.172948
Si Si2 0.213005 0.440101 0.171432
Si Si3 0.933916 0.233932 0.831046
Si Si4 0.572382 0.121915 0.828234
Si Si5 0.292335 0.068289 0.328067
Si Si6 0.711165 0.305103 0.672197
Si Si7 0.567638 0.257460 0.671501
Si Si8 0.577137 0.887500 0.831790
O O1 0.743624 0.622269 0.209322
O O2 0.633745 0.697802 0.210699
O O3 0.752029 0.747078 0.248749
O O4 0.717225 0.698679 0.000000
O O5 0.135419 0.422672 0.201273
O O6 0.232238 0.502714 0.258235
O O7 0.219260 0.450935 0.000000
O O8 0.921067 0.310289 0.815908
O O9 0.998806 0.217579 0.738803
O O10 0.947459 0.222702 0.000000
O O11 0.579675 0.187892 0.742176
O O12 0.499166 0.093551 0.796266
O O13 0.572544 0.136630 0.000000
O O14 0.294346 0.063643 0.500000
O O15 0.245502 0.128223 0.287440
O O16 0.365912 0.082603 0.265541
O O17 0.719259 0.296989 0.500000
O O18 0.632448 0.300172 0.704012
O O19 0.561375 0.250864 0.500000
O O20 0.589866 0.902890 0.000000
#
# Coordination Sequence:
#
# PCOD9425529 Si02
#       8
#     8   8   8   8   8   8   8   8
#     4  10  19  34  58  81 102 133 174 218 263 310
#     4  10  21  36  54  76 103 137 176 217 262 310
#     4   9  18  32  52  80 107 132 167 214 263 311
#     4   9  18  33  52  74 103 137 173 213 256 303
#     4  11  23  36  50  72 106 143 176 214 257 306
#     4  10  21  35  52  77 107 138 175 216 258 306
#     4  10  19  31  51  78 106 136 170 212 258 308
#     4   9  17  31  51  74 102 136 173 210 251 304
#
# _framework density 16.431677000000001
#
# number of rings (size 3 to 8) (size 9 to 14) (size 15 to 20)
#    0.000    2.250    2.500    1.500    0.000    5.000 
#    0.000    2.500    0.000    0.750    0.000    5.250 
#    0.000    0.000    0.000    0.000    0.000    0.000 
#
# Total GULP energy -357062.229257 kJ/mol
# GULP energy per Si atom -5579.097332 kJ/mol
# Density = 1.639428 g / cm^3
# Si number density = 16.431677 Si / 1000 Ang^3
#
#
#
# Elastic Constant Matrix: (Units=GPa)
#
#
# Indices 1 2 3 4 5 6 
#
# 1 116.4454 66.1055 51.1500 0.0000 0.0000 0.0000
# 2 66.1055 105.5852 49.7356 0.0000 0.0000 0.0000
# 3 51.1500 49.7356 39.7789 0.0000 0.0000 0.0000
# 4 0.0000 0.0000 0.0000 23.9865 0.0000 0.0000
# 5 0.0000 0.0000 0.0000 0.0000 25.5653 0.0000
# 6 0.0000 0.0000 0.0000 0.0000 0.0000 16.2437
#
#
#
# Elastic Compliance Matrix: (Units=1/GPa)
#
#
# Indices 1 2 3 4 5 6 
#
# 1 0.019776 -0.000981 -0.024202 0.000000 0.000000 0.000000
# 2 -0.000981 0.023090 -0.027608 0.000000 0.000000 0.000000
# 3 -0.024202 -0.027608 0.090778 0.000000 0.000000 0.000000
# 4 0.000000 0.000000 0.000000 0.041690 0.000000 0.000000
# 5 0.000000 0.000000 0.000000 0.000000 0.039115 0.000000
# 6 0.000000 0.000000 0.000000 0.000000 0.000000 0.061562
#
#
# Mechanical properties :
#
#
# Convention : Reuss Voigt Hill
#
# Bulk Modulus (GPa) = 35.63650 66.19909 50.91780
# Shear Modulus (GPa) = 12.78944 19.48033 16.13488
#
# Velocity S-wave (km/s) = 2.79290 3.44689 3.13699
# Velocity P-wave (km/s) = 5.66879 7.49776 6.64649
#
# Compressibility (1/GPa) = 0.02806112
#
# Stress axis : x y z
#
# Youngs Moduli (GPa) = 50.56697 43.30931 11.01588
#
# Poissons Ratio (x) = 0.04248 0.26661
# Poissons Ratio (y) = 0.04960 0.30413
# Poissons Ratio (z) = 1.22385 1.19568
#
# Static dielectric constant tensor:
#      x y z
#    x 1.564580 0.000000 0.000000 
#    y 0.000000 1.536810 0.000000 
#    z 0.000000 0.000000 1.544450 
# 
# From -- ./inp_files/9116.got.cif
#   From: 2010.05.17/outbox.cif.g08.bks.cpg/sg55_5_cif.got.tgz:9116.got - 2010.06.03 13:27:54.
