data_PCOD9425043
_publ_section_title
;
Structure prediction by ZEFSAII (Michael W. Deem and Ramdas Pophale) SiO2 
 PCOD9425043
Probable space group: P B A M
;
_chemical_formula_sum "Si O2"
_cell_formula_units_Z 64
_cell_length_a 15.954276
_cell_length_b 14.732745
_cell_length_c 14.107367
_cell_angle_alpha 90.000000
_cell_angle_beta 90.000000
_cell_angle_gamma 90.000000
_cell_volume 3315.940563
_symmetry_space_group_name_H-M "P B A M"
_symmetry_group_IT_number 55
_symmetry_cell_setting 'orthorhombic'
loop_
_space_group_symop_operation_xyz
x,y,z
-x,-y,z
1/2+x,1/2-y,-z
1/2-x,1/2+y,-z
-x,-y,-z
x,y,-z
1/2-x,1/2+y,z
1/2+x,1/2-y,z
loop_
_atom_site_type_symbol
_atom_site_label
_atom_site_fract_x
_atom_site_fract_y
_atom_site_fract_z
Si Si1 0.933839 0.419359 0.394973
Si Si2 0.165239 0.998246 0.887178
Si Si3 0.587850 0.318008 0.195908
Si Si4 0.241353 0.363161 0.606349
Si Si5 0.063131 0.260454 0.393810
Si Si6 0.780601 0.463816 0.279224
Si Si7 0.760921 0.266843 0.231364
Si Si8 0.908581 0.203464 0.888807
O O1 0.890581 0.415684 0.500000
O O2 0.876210 0.445499 0.306839
O O3 0.000000 0.500000 0.401975
O O4 0.982666 0.325211 0.381575
O O5 0.119382 0.901889 0.872640
O O6 0.110793 0.083125 0.847206
O O7 0.249559 0.999277 0.822548
O O8 0.179641 0.010127 0.000000
O O9 0.569793 0.310285 0.308542
O O10 0.670575 0.254182 0.180891
O O11 0.502501 0.284023 0.148350
O O12 0.272036 0.349932 0.500000
O O13 0.144576 0.327597 0.609847
O O14 0.248624 0.465910 0.641195
O O15 0.283616 0.303484 0.687031
O O16 0.061809 0.221239 0.500000
O O17 0.745392 0.362580 0.282533
O O18 0.838136 0.265561 0.160297
O O19 0.906656 0.219509 0.000000
#
# Coordination Sequence:
#
# PCOD9425043 Si02
#       8
#     8   8   8   8   8   8   8   8
#     4  10  18  30  54  87 118 156 203 245 291 361
#     4  10  22  40  62  85 112 154 208 259 302 359
#     4  10  21  38  63  89 119 158 199 248 304 362
#     4  10  19  35  57  83 118 157 200 243 290 358
#     4   9  18  34  56  86 121 155 195 243 294 357
#     4  11  20  35  59  83 117 158 198 245 306 355
#     4  10  23  38  57  93 122 156 195 255 307 360
#     4  11  22  40  65  89 117 155 205 258 310 363
#
# _framework density 19.300709000000001
#
# number of rings (size 3 to 8) (size 9 to 14) (size 15 to 20)
#    0.000    1.875    2.500    1.875    0.000    4.500 
#    0.000    4.375    0.000    1.125    0.000    0.000 
#    0.000    0.000    0.000    0.000    0.000    0.000 
#
# Total GULP energy -356480.562251 kJ/mol
# GULP energy per Si atom -5570.008785 kJ/mol
# Density = 1.925678 g / cm^3
# Si number density = 19.300709 Si / 1000 Ang^3
#
#
#
# Elastic Constant Matrix: (Units=GPa)
#
#
# Indices 1 2 3 4 5 6 
#
# 1 85.1285 2.1604 54.3811 0.0000 0.0000 0.0000
# 2 2.1604 45.2136 33.2556 0.0000 0.0000 0.0000
# 3 54.3811 33.2556 122.4690 0.0000 0.0000 0.0000
# 4 0.0000 0.0000 0.0000 27.8776 0.0000 0.0000
# 5 0.0000 0.0000 0.0000 0.0000 22.4428 0.0000
# 6 0.0000 0.0000 0.0000 0.0000 0.0000 15.2752
#
#
#
# Elastic Compliance Matrix: (Units=1/GPa)
#
#
# Indices 1 2 3 4 5 6 
#
# 1 0.017671 0.006157 -0.009519 0.000000 0.000000 0.000000
# 2 0.006157 0.029782 -0.010821 0.000000 0.000000 0.000000
# 3 -0.009519 -0.010821 0.015330 0.000000 0.000000 0.000000
# 4 0.000000 0.000000 0.000000 0.035871 0.000000 0.000000
# 5 0.000000 0.000000 0.000000 0.000000 0.044558 0.000000
# 6 0.000000 0.000000 0.000000 0.000000 0.000000 0.065465
#
#
# Mechanical properties :
#
#
# Convention : Reuss Voigt Hill
#
# Bulk Modulus (GPa) = 29.05446 48.04504 38.54975
# Shear Modulus (GPa) = 20.11941 23.98672 22.05306
#
# Velocity S-wave (km/s) = 3.23215 3.52915 3.38391
# Velocity P-wave (km/s) = 5.38659 6.44620 5.94007
#
# Compressibility (1/GPa) = 0.03441812
#
# Stress axis : x y z
#
# Youngs Moduli (GPa) = 56.58900 33.57720 65.23019
#
# Poissons Ratio (x) = -0.20673 0.62090
# Poissons Ratio (y) = -0.34840 0.70585
# Poissons Ratio (z) = 0.53865 0.36334
#
# Static dielectric constant tensor:
#      x y z
#    x 1.745740 0.000000 0.000000 
#    y 0.000000 1.714150 0.000000 
#    z 0.000000 0.000000 1.690300 
# 
# From -- ./inp_files/14971.got.cif
#   From: 2010.05.17/outbox.cif.g08.bks.cpg/sg55_8_cif.got.tgz:14971.got - 2010.06.03 13:27:54.
