data_PCOD9425190
_publ_section_title
;
Structure prediction by ZEFSAII (Michael W. Deem and Ramdas Pophale) SiO2 
 PCOD9425190
Probable space group: P B A M
;
_chemical_formula_sum "Si O2"
_cell_formula_units_Z 56
_cell_length_a 14.501280
_cell_length_b 15.562302
_cell_length_c 12.656270
_cell_angle_alpha 90.000000
_cell_angle_beta 90.000000
_cell_angle_gamma 90.000000
_cell_volume 2856.182201
_symmetry_space_group_name_H-M "P B A M"
_symmetry_group_IT_number 55
_symmetry_cell_setting 'orthorhombic'
loop_
_space_group_symop_operation_xyz
x,y,z
-x,-y,z
1/2+x,1/2-y,-z
1/2-x,1/2+y,-z
-x,-y,-z
x,y,-z
1/2-x,1/2+y,z
1/2+x,1/2-y,z
loop_
_atom_site_type_symbol
_atom_site_label
_atom_site_fract_x
_atom_site_fract_y
_atom_site_fract_z
Si Si1 0.460643 0.406115 0.115231
Si Si2 0.748487 0.493893 0.374665
Si Si3 0.301252 0.188981 0.123473
Si Si4 0.369627 0.642515 0.747823
Si Si5 0.491839 0.760358 0.375498
Si Si6 0.429398 0.076301 0.747388
Si Si7 0.837910 0.154948 0.717494
O O1 0.500000 0.500000 0.103115
O O2 0.537186 0.359743 0.184023
O O3 0.372997 0.408238 0.189538
O O4 0.444281 0.367424 0.000000
O O5 0.754002 0.480989 0.500000
O O6 0.664583 0.435319 0.327301
O O7 0.842399 0.460864 0.319202
O O8 0.728966 0.594373 0.349503
O O9 0.206809 0.145888 0.160883
O O10 0.384977 0.125014 0.152004
O O11 0.305383 0.265857 0.209799
O O12 0.300343 0.211971 0.000000
O O13 0.396369 0.721495 0.670779
O O14 0.484346 0.772117 0.500000
O O15 0.519352 0.849339 0.319297
O O16 0.577575 0.693911 0.351728
O O17 0.500000 0.000000 0.772264
#
# Coordination Sequence:
#
# PCOD9425190 Si02
#       7
#     8   8   8   8   8   8   8
#     4  10  18  32  55  82 114 150 187 238 301 352
#     4  11  22  38  61  89 125 162 200 252 304 357
#     4  10  22  42  64  87 122 157 196 254 308 353
#     4  10  21  37  59  90 121 153 203 249 298 373
#     4  10  21  38  61  88 125 164 199 250 307 359
#     4  10  24  43  63  89 122 156 212 254 297 368
#     4  10  21  37  57  88 120 155 203 248 295 371
#
# _framework density 19.606591999999999
#
# number of rings (size 3 to 8) (size 9 to 14) (size 15 to 20)
#    0.000    1.857    1.429    2.143    2.000    1.429 
#    0.000    5.000    0.000    0.000    0.000    0.000 
#    0.000    0.000    0.000    0.000    0.000    0.000 
#
# Total GULP energy -311781.915852 kJ/mol
# GULP energy per Si atom -5567.534212 kJ/mol
# Density = 1.956197 g / cm^3
# Si number density = 19.606592 Si / 1000 Ang^3
#
#
#
# Elastic Constant Matrix: (Units=GPa)
#
#
# Indices 1 2 3 4 5 6 
#
# 1 38.2681 20.1494 19.2545 0.0000 0.0000 0.0000
# 2 20.1494 79.4427 -0.6410 0.0000 0.0000 0.0000
# 3 19.2545 -0.6410 81.7267 0.0000 0.0000 0.0000
# 4 0.0000 0.0000 0.0000 15.2609 0.0000 0.0000
# 5 0.0000 0.0000 0.0000 0.0000 16.8580 0.0000
# 6 0.0000 0.0000 0.0000 0.0000 0.0000 30.5713
#
#
#
# Elastic Compliance Matrix: (Units=1/GPa)
#
#
# Indices 1 2 3 4 5 6 
#
# 1 0.035034 -0.008953 -0.008324 0.000000 0.000000 0.000000
# 2 -0.008953 0.014876 0.002226 0.000000 0.000000 0.000000
# 3 -0.008324 0.002226 0.014214 0.000000 0.000000 0.000000
# 4 0.000000 0.000000 0.000000 0.065527 0.000000 0.000000
# 5 0.000000 0.000000 0.000000 0.000000 0.059319 0.000000
# 6 0.000000 0.000000 0.000000 0.000000 0.000000 0.032710
#
#
# Mechanical properties :
#
#
# Convention : Reuss Voigt Hill
#
# Bulk Modulus (GPa) = 29.39223 30.77368 30.08295
# Shear Modulus (GPa) = 19.00248 23.24968 21.12608
#
# Velocity S-wave (km/s) = 3.11656 3.44729 3.28609
# Velocity P-wave (km/s) = 5.28905 5.61914 5.45660
#
# Compressibility (1/GPa) = 0.03402260
#
# Stress axis : x y z
#
# Youngs Moduli (GPa) = 28.54408 67.22061 70.35090
#
# Poissons Ratio (x) = 0.60182 0.58560
# Poissons Ratio (y) = 0.25555 -0.15660
# Poissons Ratio (z) = 0.23760 -0.14963
#
# Static dielectric constant tensor:
#      x y z
#    x 1.723790 0.000000 0.000000 
#    y 0.000000 1.778250 0.000000 
#    z 0.000000 0.000000 1.690680 
# 
# From -- ./inp_files/14224.got.cif
#   From: 2010.05.17/outbox.cif.g08.bks.cpg/sg55_8_cif.got.tgz:14224.got - 2010.06.03 13:27:54.
