data_PCOD9425788
_publ_section_title
;
Structure prediction by ZEFSAII (Michael W. Deem and Ramdas Pophale) SiO2 
 PCOD9425788
Probable space group: P B A M
;
_chemical_formula_sum "Si O2"
_cell_formula_units_Z 40
_cell_length_a 18.913437
_cell_length_b 14.095868
_cell_length_c 7.780815
_cell_angle_alpha 90.000000
_cell_angle_beta 90.000000
_cell_angle_gamma 90.000000
_cell_volume 2074.375483
_symmetry_space_group_name_H-M "P B A M"
_symmetry_group_IT_number 55
_symmetry_cell_setting 'orthorhombic'
loop_
_space_group_symop_operation_xyz
x,y,z
-x,-y,z
1/2+x,1/2-y,-z
1/2-x,1/2+y,-z
-x,-y,-z
x,y,-z
1/2-x,1/2+y,z
1/2+x,1/2-y,z
loop_
_atom_site_type_symbol
_atom_site_label
_atom_site_fract_x
_atom_site_fract_y
_atom_site_fract_z
Si Si1 0.493519 0.608575 0.792227
Si Si2 0.841488 0.809647 0.699711
Si Si3 0.219638 0.387536 0.792233
Si Si4 0.364169 0.289345 0.210815
Si Si5 0.800709 0.404181 0.801326
O O1 0.500000 0.500000 0.732196
O O2 0.419167 0.653306 0.740174
O O3 0.561137 0.668999 0.732973
O O4 0.495642 0.607242 0.000000
O O5 0.826284 0.823288 0.500000
O O6 0.831262 0.698989 0.743537
O O7 0.780281 0.867418 0.797513
O O8 0.298491 0.356151 0.736270
O O9 0.197548 0.490635 0.724545
O O10 0.221867 0.392734 0.000000
O O11 0.346290 0.182877 0.272376
O O12 0.363434 0.287703 0.000000
O O13 0.822929 0.413261 0.000000
#
# Coordination Sequence:
#
# PCOD9425788 Si02
#       5
#     8   8   8   8   8
#     4  10  19  33  53  74  99 133 171 211 255 301
#     4  11  22  33  48  75 109 138 165 201 250 310
#     4   9  17  33  56  76  96 127 169 213 252 295
#     4   8  15  28  49  76  97 118 161 214 255 292
#     4   9  17  33  56  77  97 127 171 218 256 293
#
# _framework density 19.282910000000001
#
# number of rings (size 3 to 8) (size 9 to 14) (size 15 to 20)
#    0.000    2.600    0.000    4.200    0.000    4.400 
#    0.000    5.000    0.000    6.000    0.000    0.000 
#    0.000    0.000    0.000    0.000    0.000    0.000 
#
# Total GULP energy -223143.490464 kJ/mol
# GULP energy per Si atom -5578.587262 kJ/mol
# Density = 1.923902 g / cm^3
# Si number density = 19.282910 Si / 1000 Ang^3
#
#
#
# Elastic Constant Matrix: (Units=GPa)
#
#
# Indices 1 2 3 4 5 6 
#
# 1 108.7707 68.3111 -10.5875 0.0000 0.0000 0.0000
# 2 68.3111 165.7901 -3.1390 0.0000 0.0000 0.0000
# 3 -10.5875 -3.1390 27.7946 0.0000 0.0000 0.0000
# 4 0.0000 0.0000 0.0000 165.5272 0.0000 0.0000
# 5 0.0000 0.0000 0.0000 0.0000 -17.4171 0.0000
# 6 0.0000 0.0000 0.0000 0.0000 0.0000 12.1246
#
#
#
# Elastic Compliance Matrix: (Units=1/GPa)
#
#
# Indices 1 2 3 4 5 6 
#
# 1 0.012902 -0.005234 0.004323 0.000000 0.000000 0.000000
# 2 -0.005234 0.008168 -0.001071 0.000000 0.000000 0.000000
# 3 0.004323 -0.001071 0.037504 0.000000 0.000000 0.000000
# 4 0.000000 0.000000 0.000000 0.006041 0.000000 0.000000
# 5 0.000000 0.000000 0.000000 0.000000 -0.057415 0.000000
# 6 0.000000 0.000000 0.000000 0.000000 0.000000 0.082477
#
#
# Mechanical properties :
#
#
# Convention : Reuss Voigt Hill
#
# Bulk Modulus (GPa) = 18.31171 45.72493 32.01832
# Shear Modulus (GPa) = 44.70514 48.56501 46.63508
#
# Velocity S-wave (km/s) = 4.82018 5.02396 4.92313
# Velocity P-wave (km/s) = 6.36363 7.57745 6.99691
#
# Compressibility (1/GPa) = 0.05460985
#
# Stress axis : x y z
#
# Youngs Moduli (GPa) = 77.50980 122.42847 26.66375
#
# Poissons Ratio (x) = 0.64079 -0.11528
# Poissons Ratio (y) = 0.40569 0.02856
# Poissons Ratio (z) = -0.33510 0.13115
#
# Static dielectric constant tensor:
#      x y z
#    x 1.628260 0.000000 0.000000 
#    y 0.000000 1.690080 0.000000 
#    z 0.000000 0.000000 1.701700 
# 
# From -- ./inp_files/5179.got.cif
#   From: 2010.05.17/outbox.cif.g08.bks.cpg/sg55_3_cif.got.tgz:5179.got - 2010.06.03 13:27:54.
