data_PCOD9425962
_publ_section_title
;
Structure prediction by ZEFSAII (Michael W. Deem and Ramdas Pophale) SiO2 
 PCOD9425962
Probable space group: P B A M
;
_chemical_formula_sum "Si O2"
_cell_formula_units_Z 48
_cell_length_a 11.085821
_cell_length_b 20.100957
_cell_length_c 10.791959
_cell_angle_alpha 90.000000
_cell_angle_beta 90.000000
_cell_angle_gamma 90.000000
_cell_volume 2404.832780
_symmetry_space_group_name_H-M "P B A M"
_symmetry_group_IT_number 55
_symmetry_cell_setting 'orthorhombic'
loop_
_space_group_symop_operation_xyz
x,y,z
-x,-y,z
1/2+x,1/2-y,-z
1/2-x,1/2+y,-z
-x,-y,-z
x,y,-z
1/2-x,1/2+y,z
1/2+x,1/2-y,z
loop_
_atom_site_type_symbol
_atom_site_label
_atom_site_fract_x
_atom_site_fract_y
_atom_site_fract_z
Si Si1 0.437357 0.572221 0.856125
Si Si2 0.552786 0.318198 0.635608
Si Si3 0.069051 0.635123 0.143720
Si Si4 0.292482 0.862759 0.857080
Si Si5 0.822765 0.491657 0.857035
Si Si6 0.190512 0.746100 0.300263
O O1 0.500000 0.500000 0.831792
O O2 0.456534 0.629233 0.751373
O O3 0.296680 0.553099 0.856244
O O4 0.469432 0.591765 0.000000
O O5 0.553234 0.352765 0.500000
O O6 0.435088 0.269609 0.635523
O O7 0.680068 0.276968 0.642672
O O8 0.077798 0.559383 0.192110
O O9 0.152204 0.683463 0.218984
O O10 0.931899 0.658438 0.147140
O O11 0.105541 0.633877 0.000000
O O12 0.218973 0.809767 0.782712
O O13 0.290165 0.937116 0.801702
O O14 0.252181 0.864403 0.000000
O O15 0.856441 0.508406 0.000000
#
# Coordination Sequence:
#
# PCOD9425962 Si02
#       6
#     8   8   8   8   8   8
#     4  10  21  39  65  97 130 164 208 266 327 386
#     4  12  27  45  67  92 128 176 219 267 321 384
#     4  10  19  33  57  91 128 167 212 264 321 383
#     4  10  20  34  58  94 132 166 208 261 325 387
#     4   9  17  32  55  88 128 165 201 256 321 381
#     4  12  23  42  62  89 123 171 222 266 318 380
#
# _framework density 19.959807000000001
#
# number of rings (size 3 to 8) (size 9 to 14) (size 15 to 20)
#    0.000    1.500    3.333    2.500    0.000    5.667 
#    0.000    0.000    0.000    0.000    0.000    2.333 
#    0.000    0.000    0.000    0.000    0.000    0.000 
#
# Total GULP energy -267321.030307 kJ/mol
# GULP energy per Si atom -5569.188131 kJ/mol
# Density = 1.991438 g / cm^3
# Si number density = 19.959807 Si / 1000 Ang^3
#
#
#
# Elastic Constant Matrix: (Units=GPa)
#
#
# Indices 1 2 3 4 5 6 
#
# 1 117.7356 31.7162 37.4299 0.0000 0.0000 0.0000
# 2 31.7162 113.4685 58.0277 0.0000 0.0000 0.0000
# 3 37.4299 58.0277 96.6555 0.0000 0.0000 0.0000
# 4 0.0000 0.0000 0.0000 13.1037 0.0000 0.0000
# 5 0.0000 0.0000 0.0000 0.0000 -200.9987 0.0000
# 6 0.0000 0.0000 0.0000 0.0000 0.0000 43.0852
#
#
#
# Elastic Compliance Matrix: (Units=1/GPa)
#
#
# Indices 1 2 3 4 5 6 
#
# 1 0.009789 -0.001151 -0.003100 0.000000 0.000000 0.000000
# 2 -0.001151 0.012853 -0.007271 0.000000 0.000000 0.000000
# 3 -0.003100 -0.007271 0.015911 0.000000 0.000000 0.000000
# 4 0.000000 0.000000 0.000000 0.076314 0.000000 0.000000
# 5 0.000000 0.000000 0.000000 0.000000 -0.004975 0.000000
# 6 0.000000 0.000000 0.000000 0.000000 0.000000 0.023210
#
#
# Mechanical properties :
#
#
# Convention : Reuss Voigt Hill
#
# Bulk Modulus (GPa) = 64.47206 64.68969 64.58088
# Shear Modulus (GPa) = 30.99521 -15.58289 7.70616
#
# Velocity S-wave (km/s) = 3.94494 -2.79716 1.96703
# Velocity P-wave (km/s) = 7.28842 4.69555 6.13063
#
# Compressibility (1/GPa) = 0.01551059
#
# Stress axis : x y z
#
# Youngs Moduli (GPa) = 102.15385 77.80345 62.84804
#
# Poissons Ratio (x) = 0.08955 0.19482
# Poissons Ratio (y) = 0.11757 0.45694
# Poissons Ratio (z) = 0.31666 0.56568
#
# Static dielectric constant tensor:
#      x y z
#    x 1.811260 0.000000 0.000000 
#    y 0.000000 1.713640 0.000000 
#    z 0.000000 0.000000 1.696410 
# 
# From -- ./inp_files/13293.got.cif
#   From: 2010.05.17/outbox.cif.g08.bks.cpg/sg55_7_cif.got.tgz:13293.got - 2010.06.03 13:27:54.
