data_PCOD9425971
_publ_section_title
;
Structure prediction by ZEFSAII (Michael W. Deem and Ramdas Pophale) SiO2 
 PCOD9425971
Probable space group: P B A M
;
_chemical_formula_sum "Si O2"
_cell_formula_units_Z 64
_cell_length_a 9.063794
_cell_length_b 20.963476
_cell_length_c 16.521550
_cell_angle_alpha 90.000000
_cell_angle_beta 90.000000
_cell_angle_gamma 90.000000
_cell_volume 3139.237048
_symmetry_space_group_name_H-M "P B A M"
_symmetry_group_IT_number 55
_symmetry_cell_setting 'orthorhombic'
loop_
_space_group_symop_operation_xyz
x,y,z
-x,-y,z
1/2+x,1/2-y,-z
1/2-x,1/2+y,-z
-x,-y,-z
x,y,-z
1/2-x,1/2+y,z
1/2+x,1/2-y,z
loop_
_atom_site_type_symbol
_atom_site_label
_atom_site_fract_x
_atom_site_fract_y
_atom_site_fract_z
Si Si1 0.091079 0.854199 0.253352
Si Si2 0.492809 0.797271 0.857133
Si Si3 0.331941 0.670749 0.148545
Si Si4 0.235288 0.395815 0.093093
Si Si5 0.345542 0.526352 0.904592
Si Si6 0.202942 0.184389 0.407916
Si Si7 0.975052 0.274278 0.680925
Si Si8 0.037260 0.925521 0.409048
O O1 0.162653 0.869945 0.166564
O O2 0.126322 0.784332 0.286286
O O3 0.915291 0.844482 0.233315
O O4 0.119653 0.902790 0.326843
O O5 0.668167 0.802000 0.858023
O O6 0.432718 0.728466 0.886453
O O7 0.412968 0.854859 0.902224
O O8 0.453538 0.803144 0.761654
O O9 0.321039 0.599535 0.114812
O O10 0.224884 0.471483 0.111494
O O11 0.294597 0.389068 0.000000
O O12 0.500000 0.500000 0.867522
O O13 0.363279 0.525994 0.000000
O O14 0.241686 0.200081 0.500000
O O15 0.357019 0.180110 0.360644
O O16 0.107699 0.119453 0.407421
O O17 0.093772 0.240558 0.376547
O O18 0.104188 0.914912 0.500000
O O19 0.000000 0.000000 0.402762
#
# Coordination Sequence:
#
# PCOD9425971 Si02
#       8
#     8   8   8   8   8   8   8   8
#     4  10  20  37  63  89 124 166 203 262 312 368
#     4  11  23  41  63  90 128 165 207 265 319 376
#     4  11  23  39  64  93 120 167 215 259 323 384
#     4  11  24  42  64  92 124 165 217 267 315 378
#     4  10  22  41  64  89 120 156 207 268 322 379
#     4  10  19  33  58  89 123 161 200 251 308 366
#     4  10  19  36  55  87 125 159 201 251 305 373
#     4   9  19  33  54  90 126 158 203 250 300 369
#
# _framework density 20.387118999999998
#
# number of rings (size 3 to 8) (size 9 to 14) (size 15 to 20)
#    0.000    1.750    1.250    4.875    1.750    2.000 
#    0.000    5.625    0.000    0.000    0.000    0.000 
#    0.000   22.000    0.000    0.000    0.000    0.000 
#
# Total GULP energy -356317.287604 kJ/mol
# GULP energy per Si atom -5567.457619 kJ/mol
# Density = 2.034072 g / cm^3
# Si number density = 20.387119 Si / 1000 Ang^3
#
#
#
# Elastic Constant Matrix: (Units=GPa)
#
#
# Indices 1 2 3 4 5 6 
#
# 1 75.8572 43.0196 23.6884 0.0000 0.0000 0.0000
# 2 43.0196 118.8602 20.0455 0.0000 0.0000 0.0000
# 3 23.6884 20.0455 99.6021 0.0000 0.0000 0.0000
# 4 0.0000 0.0000 0.0000 24.8414 0.0000 0.0000
# 5 0.0000 0.0000 0.0000 0.0000 17.9182 0.0000
# 6 0.0000 0.0000 0.0000 0.0000 0.0000 24.0259
#
#
#
# Elastic Compliance Matrix: (Units=1/GPa)
#
#
# Indices 1 2 3 4 5 6 
#
# 1 0.017397 -0.005796 -0.002971 0.000000 0.000000 0.000000
# 2 -0.005796 0.010640 -0.000763 0.000000 0.000000 0.000000
# 3 -0.002971 -0.000763 0.010900 0.000000 0.000000 0.000000
# 4 0.000000 0.000000 0.000000 0.040255 0.000000 0.000000
# 5 0.000000 0.000000 0.000000 0.000000 0.055809 0.000000
# 6 0.000000 0.000000 0.000000 0.000000 0.000000 0.041622
#
#
# Mechanical properties :
#
#
# Convention : Reuss Voigt Hill
#
# Bulk Modulus (GPa) = 50.30803 51.98072 51.14438
# Shear Modulus (GPa) = 24.71473 27.19483 25.95478
#
# Velocity S-wave (km/s) = 3.48555 3.65625 3.57192
# Velocity P-wave (km/s) = 6.39755 6.58608 6.49250
#
# Compressibility (1/GPa) = 0.01987754
#
# Stress axis : x y z
#
# Youngs Moduli (GPa) = 57.48035 93.98923 91.74202
#
# Poissons Ratio (x) = 0.54472 0.27258
# Poissons Ratio (y) = 0.33313 0.06999
# Poissons Ratio (z) = 0.17079 0.07170
#
# Static dielectric constant tensor:
#      x y z
#    x 1.770610 0.000000 0.000000 
#    y 0.000000 1.768440 0.000000 
#    z 0.000000 0.000000 1.817540 
# 
# From -- ./inp_files/21096.got.cif
#   From: 2010.05.17/outbox.cif.g08.bks.cpg/sg55_11_cif.got.tgz:21096.got - 2010.06.03 13:27:54.
