data_PCOD9425932
_publ_section_title
;
Structure prediction by ZEFSAII (Michael W. Deem and Ramdas Pophale) SiO2 
 PCOD9425932
Probable space group: P B A M
;
_chemical_formula_sum "Si O2"
_cell_formula_units_Z 64
_cell_length_a 14.897093
_cell_length_b 25.665173
_cell_length_c 7.633568
_cell_angle_alpha 90.000000
_cell_angle_beta 90.000000
_cell_angle_gamma 90.000000
_cell_volume 2918.591435
_symmetry_space_group_name_H-M "P B A M"
_symmetry_group_IT_number 55
_symmetry_cell_setting 'orthorhombic'
loop_
_space_group_symop_operation_xyz
x,y,z
-x,-y,z
1/2+x,1/2-y,-z
1/2-x,1/2+y,-z
-x,-y,-z
x,y,-z
1/2-x,1/2+y,z
1/2+x,1/2-y,z
loop_
_atom_site_type_symbol
_atom_site_label
_atom_site_fract_x
_atom_site_fract_y
_atom_site_fract_z
Si Si1 0.027930 0.600595 0.787463
Si Si2 0.551438 0.669567 0.212613
Si Si3 0.740637 0.281296 0.794717
Si Si4 0.553845 0.785197 0.786470
Si Si5 0.760074 0.665716 0.703634
Si Si6 0.875244 0.878427 0.214559
Si Si7 0.714907 0.946140 0.204484
Si Si8 0.341527 0.940319 0.294957
O O1 0.010466 0.660398 0.729792
O O2 0.125597 0.581929 0.722828
O O3 0.948401 0.563215 0.727661
O O4 0.028398 0.599359 0.000000
O O5 0.519612 0.728081 0.264906
O O6 0.652381 0.661805 0.277244
O O7 0.478180 0.627530 0.271643
O O8 0.556717 0.669339 0.000000
O O9 0.842061 0.286163 0.725561
O O10 0.710895 0.221509 0.778730
O O11 0.674998 0.325475 0.726929
O O12 0.748710 0.292647 0.000000
O O13 0.552179 0.785790 0.000000
O O14 0.783628 0.667703 0.500000
O O15 0.803344 0.613716 0.781900
O O16 0.809611 0.924715 0.274105
O O17 0.880118 0.879476 0.000000
O O18 0.699944 0.007523 0.217584
O O19 0.715339 0.931544 0.000000
O O20 0.319652 0.941666 0.500000
#
# Coordination Sequence:
#
# PCOD9425932 Si02
#       8
#     8   8   8   8   8   8   8   8
#     4  10  19  33  56  85 112 141 178 220 270 330
#     4   9  18  33  57  85 112 142 177 220 273 331
#     4   9  16  31  57  83 109 140 173 215 270 329
#     4   8  14  27  49  81 113 137 166 205 256 321
#     4  10  22  39  53  73 110 149 187 231 270 312
#     4   9  17  32  58  89 113 135 173 226 275 323
#     4  10  20  37  59  83 111 140 178 227 275 324
#     4  11  25  40  53  73 107 150 193 232 270 316
#
# _framework density 21.928384999999999
#
# number of rings (size 3 to 8) (size 9 to 14) (size 15 to 20)
#    0.000    2.500    1.250    1.875    1.750    4.000 
#    0.000    5.000    0.000    3.750    0.000    0.000 
#    0.000    0.000    0.000    0.000    0.000    0.000 
#
# Total GULP energy -357163.646555 kJ/mol
# GULP energy per Si atom -5580.681977 kJ/mol
# Density = 2.187848 g / cm^3
# Si number density = 21.928385 Si / 1000 Ang^3
#
#
#
# Elastic Constant Matrix: (Units=GPa)
#
#
# Indices 1 2 3 4 5 6 
#
# 1 26.7379 5.8912 -5.1956 0.0000 0.0000 0.0000
# 2 5.8912 78.1753 -7.8569 0.0000 0.0000 0.0000
# 3 -5.1956 -7.8569 36.0918 0.0000 0.0000 0.0000
# 4 0.0000 0.0000 0.0000 37.4212 0.0000 0.0000
# 5 0.0000 0.0000 0.0000 0.0000 20.5314 0.0000
# 6 0.0000 0.0000 0.0000 0.0000 0.0000 35.3723
#
#
#
# Elastic Compliance Matrix: (Units=1/GPa)
#
#
# Indices 1 2 3 4 5 6 
#
# 1 0.038920 -0.002423 0.005075 0.000000 0.000000 0.000000
# 2 -0.002423 0.013229 0.002531 0.000000 0.000000 0.000000
# 3 0.005075 0.002531 0.028989 0.000000 0.000000 0.000000
# 4 0.000000 0.000000 0.000000 0.026723 0.000000 0.000000
# 5 0.000000 0.000000 0.000000 0.000000 0.048706 0.000000
# 6 0.000000 0.000000 0.000000 0.000000 0.000000 0.028271
#
#
# Mechanical properties :
#
#
# Convention : Reuss Voigt Hill
#
# Bulk Modulus (GPa) = 10.92843 14.07583 12.50213
# Shear Modulus (GPa) = 24.39361 28.54272 26.46816
#
# Velocity S-wave (km/s) = 3.33892 3.61173 3.47800
# Velocity P-wave (km/s) = 4.45634 4.88116 4.67358
#
# Compressibility (1/GPa) = 0.09150442
#
# Stress axis : x y z
#
# Youngs Moduli (GPa) = 25.69363 75.59305 34.49621
#
# Poissons Ratio (x) = 0.18315 -0.17508
# Poissons Ratio (y) = 0.06225 -0.08731
# Poissons Ratio (z) = -0.13040 -0.19133
#
# Static dielectric constant tensor:
#      x y z
#    x 1.808380 0.000000 0.000000 
#    y 0.000000 1.808740 0.000000 
#    z 0.000000 0.000000 1.832500 
# 
# From -- ./inp_files/6539.got.cif
#   From: 2010.05.17/outbox.cif.g08.bks.cpg/sg55_4_cif.got.tgz:6539.got - 2010.06.03 13:27:54.
