data_PCOD9425412
_publ_section_title
;
Structure prediction by ZEFSAII (Michael W. Deem and Ramdas Pophale) SiO2 
 PCOD9425412
Probable space group: P B A M
;
_chemical_formula_sum "Si O2"
_cell_formula_units_Z 64
_cell_length_a 17.034967
_cell_length_b 23.460483
_cell_length_c 7.846504
_cell_angle_alpha 90.000000
_cell_angle_beta 90.000000
_cell_angle_gamma 90.000000
_cell_volume 3135.843975
_symmetry_space_group_name_H-M "P B A M"
_symmetry_group_IT_number 55
_symmetry_cell_setting 'orthorhombic'
loop_
_space_group_symop_operation_xyz
x,y,z
-x,-y,z
1/2+x,1/2-y,-z
1/2-x,1/2+y,-z
-x,-y,-z
x,y,-z
1/2-x,1/2+y,z
1/2+x,1/2-y,z
loop_
_atom_site_type_symbol
_atom_site_label
_atom_site_fract_x
_atom_site_fract_y
_atom_site_fract_z
Si Si1 0.568255 0.353154 0.204694
Si Si2 0.001889 0.432988 0.699490
Si Si3 0.388249 0.158373 0.802020
Si Si4 0.052849 0.947632 0.294556
Si Si5 0.773457 0.028462 0.700641
Si Si6 0.155019 0.374465 0.808054
Si Si7 0.764176 0.898991 0.204186
Si Si8 0.545001 0.223575 0.209654
O O1 0.492401 0.390282 0.248876
O O2 0.648481 0.383074 0.268649
O O3 0.558009 0.288262 0.263545
O O4 0.573996 0.351183 0.000000
O O5 0.008031 0.415331 0.500000
O O6 0.927181 0.403798 0.782905
O O7 0.000000 0.500000 0.702950
O O8 0.076206 0.411776 0.803231
O O9 0.301631 0.145754 0.728138
O O10 0.459423 0.198715 0.734227
O O11 0.378915 0.174708 0.000000
O O12 0.056053 0.950334 0.500000
O O13 0.140743 0.955834 0.227843
O O14 0.000000 0.000000 0.231977
O O15 0.780175 0.019774 0.500000
O O16 0.718272 0.083388 0.726771
O O17 0.747022 0.966128 0.765847
O O18 0.118683 0.315854 0.733092
O O19 0.181839 0.362475 0.000000
O O20 0.764002 0.891796 0.000000
O O21 0.544787 0.220109 0.000000
#
# Coordination Sequence:
#
# PCOD9425412 Si02
#       8
#     8   8   8   8   8   8   8   8
#     4  10  20  36  59  84 108 140 187 236 276 323
#     4  10  19  30  47  74 106 141 180 220 265 316
#     4   9  18  33  51  73 106 146 181 221 273 327
#     4  10  21  39  58  78 108 147 181 218 280 338
#     4  11  22  36  56  81 114 146 180 227 277 333
#     4  10  20  35  55  79 110 145 180 220 272 326
#     4  10  20  33  54  83 111 140 181 231 281 331
#     4   8  17  36  56  78 110 146 183 223 272 326
#
# _framework density 20.409179000000002
#
# number of rings (size 3 to 8) (size 9 to 14) (size 15 to 20)
#    0.000    2.250    1.250    2.625    0.000    4.750 
#    2.250    3.125    0.000    0.000    0.000    0.000 
#    0.000    0.000    0.000    0.000    0.000    0.000 
#
# Total GULP energy -356537.450498 kJ/mol
# GULP energy per Si atom -5570.897664 kJ/mol
# Density = 2.036273 g / cm^3
# Si number density = 20.409179 Si / 1000 Ang^3
#
#
#
# Elastic Constant Matrix: (Units=GPa)
#
#
# Indices 1 2 3 4 5 6 
#
# 1 107.5165 37.5855 -2.3736 0.0000 0.0000 0.0000
# 2 37.5855 128.4006 2.5925 0.0000 0.0000 0.0000
# 3 -2.3736 2.5925 24.0532 0.0000 0.0000 0.0000
# 4 0.0000 0.0000 0.0000 19.9261 0.0000 0.0000
# 5 0.0000 0.0000 0.0000 0.0000 3.9752 0.0000
# 6 0.0000 0.0000 0.0000 0.0000 0.0000 23.7713
#
#
#
# Elastic Compliance Matrix: (Units=1/GPa)
#
#
# Indices 1 2 3 4 5 6 
#
# 1 0.010405 -0.003073 0.001358 0.000000 0.000000 0.000000
# 2 -0.003073 0.008713 -0.001242 0.000000 0.000000 0.000000
# 3 0.001358 -0.001242 0.041842 0.000000 0.000000 0.000000
# 4 0.000000 0.000000 0.000000 0.050185 0.000000 0.000000
# 5 0.000000 0.000000 0.000000 0.000000 0.251557 0.000000
# 6 0.000000 0.000000 0.000000 0.000000 0.000000 0.042068
#
#
# Mechanical properties :
#
#
# Convention : Reuss Voigt Hill
#
# Bulk Modulus (GPa) = 18.16683 37.28658 27.72671
# Shear Modulus (GPa) = 11.65407 24.34558 17.99983
#
# Velocity S-wave (km/s) = 2.39220 3.45755 2.97298
# Velocity P-wave (km/s) = 4.06826 5.85224 5.03981
#
# Compressibility (1/GPa) = 0.05504536
#
# Stress axis : x y z
#
# Youngs Moduli (GPa) = 96.10563 114.77356 23.89916
#
# Poissons Ratio (x) = 0.35273 -0.03246
# Poissons Ratio (y) = 0.29536 0.02969
# Poissons Ratio (z) = -0.13051 0.14259
#
# Static dielectric constant tensor:
#      x y z
#    x 1.759560 0.000000 0.000000 
#    y 0.000000 1.698130 0.000000 
#    z 0.000000 0.000000 1.760510 
# 
# From -- ./inp_files/6666.got.cif
#   From: 2010.05.17/outbox.cif.g08.bks.cpg/sg55_4_cif.got.tgz:6666.got - 2010.06.03 13:27:54.
