data_PCOD9425365
_publ_section_title
;
Structure prediction by ZEFSAII (Michael W. Deem and Ramdas Pophale) SiO2 
 PCOD9425365
Probable space group: P B A M
;
_chemical_formula_sum "Si O2"
_cell_formula_units_Z 64
_cell_length_a 14.233930
_cell_length_b 18.352780
_cell_length_c 14.267762
_cell_angle_alpha 90.000000
_cell_angle_beta 90.000000
_cell_angle_gamma 90.000000
_cell_volume 3727.198654
_symmetry_space_group_name_H-M "P B A M"
_symmetry_group_IT_number 55
_symmetry_cell_setting 'orthorhombic'
loop_
_space_group_symop_operation_xyz
x,y,z
-x,-y,z
1/2+x,1/2-y,-z
1/2-x,1/2+y,-z
-x,-y,-z
x,y,-z
1/2-x,1/2+y,z
1/2+x,1/2-y,z
loop_
_atom_site_type_symbol
_atom_site_label
_atom_site_fract_x
_atom_site_fract_y
_atom_site_fract_z
Si Si1 0.844107 0.988727 0.109412
Si Si2 0.714545 0.437933 0.390071
Si Si3 0.502909 0.619961 0.890412
Si Si4 0.379831 0.173409 0.390118
Si Si5 0.510088 0.416424 0.389174
Si Si6 0.384082 0.313703 0.264335
Si Si7 0.559185 0.074892 0.606797
Si Si8 0.764391 0.565410 0.738304
O O1 0.903560 0.916880 0.140221
O O2 0.920465 0.054342 0.116405
O O3 0.755164 0.015737 0.169555
O O4 0.820986 0.979544 0.000000
O O5 0.717120 0.453115 0.500000
O O6 0.805626 0.390516 0.367165
O O7 0.618250 0.395435 0.371815
O O8 0.712846 0.514467 0.338031
O O9 0.548522 0.682979 0.827090
O O10 0.494557 0.639348 0.000000
O O11 0.363170 0.195104 0.500000
O O12 0.368498 0.237698 0.315814
O O13 0.483972 0.139718 0.385391
O O14 0.500000 0.500000 0.356946
O O15 0.491929 0.414925 0.500000
O O16 0.441370 0.363623 0.336750
O O17 0.287647 0.357811 0.246451
O O18 0.600700 0.077405 0.500000
O O19 0.634556 0.076271 0.690318
O O20 0.500000 0.000000 0.611617
#
# Coordination Sequence:
#
# PCOD9425365 Si02
#       8
#     8   8   8   8   8   8   8   8
#     4   8  15  28  49  80 109 131 166 217 262 309
#     4  10  19  32  50  72  99 135 177 216 258 312
#     4   8  15  29  50  75 107 141 168 204 261 324
#     4  10  22  37  50  71 105 140 178 225 264 303
#     4  10  19  29  45  72 107 139 165 202 263 328
#     4  11  21  31  50  79 110 133 169 216 272 322
#     4  10  20  36  56  74  97 139 189 223 251 303
#     4  11  19  30  55  79  97 134 181 220 258 314
#
# _framework density 17.171073
#
# number of rings (size 3 to 8) (size 9 to 14) (size 15 to 20)
#    0.000    2.250    2.500    2.250    1.750    2.500 
#    0.000    2.500    0.000    1.875    0.000    5.250 
#    0.000    0.000    0.000    0.000    0.000    0.000 
#
# Total GULP energy -356462.441399 kJ/mol
# GULP energy per Si atom -5569.725647 kJ/mol
# Density = 1.713199 g / cm^3
# Si number density = 17.171073 Si / 1000 Ang^3
#
#
#
# Elastic Constant Matrix: (Units=GPa)
#
#
# Indices 1 2 3 4 5 6 
#
# 1 63.9748 -0.8871 29.6791 0.0000 0.0000 0.0000
# 2 -0.8871 32.8521 27.8865 0.0000 0.0000 0.0000
# 3 29.6791 27.8865 78.3121 0.0000 0.0000 0.0000
# 4 0.0000 0.0000 0.0000 26.6230 0.0000 0.0000
# 5 0.0000 0.0000 0.0000 0.0000 13.2762 0.0000
# 6 0.0000 0.0000 0.0000 0.0000 0.0000 14.6428
#
#
#
# Elastic Compliance Matrix: (Units=1/GPa)
#
#
# Indices 1 2 3 4 5 6 
#
# 1 0.021276 0.010633 -0.011850 0.000000 0.000000 0.000000
# 2 0.010633 0.048941 -0.021457 0.000000 0.000000 0.000000
# 3 -0.011850 -0.021457 0.024901 0.000000 0.000000 0.000000
# 4 0.000000 0.000000 0.000000 0.037561 0.000000 0.000000
# 5 0.000000 0.000000 0.000000 0.000000 0.075323 0.000000
# 6 0.000000 0.000000 0.000000 0.000000 0.000000 0.068293
#
#
# Mechanical properties :
#
#
# Convention : Reuss Voigt Hill
#
# Bulk Modulus (GPa) = 20.09243 32.05510 26.07376
# Shear Modulus (GPa) = 14.78275 18.80578 16.79427
#
# Velocity S-wave (km/s) = 2.93731 3.31297 3.13078
# Velocity P-wave (km/s) = 4.81980 5.77434 5.31853
#
# Compressibility (1/GPa) = 0.04977000
#
# Stress axis : x y z
#
# Youngs Moduli (GPa) = 47.00158 20.43292 40.15895
#
# Poissons Ratio (x) = -0.21727 0.47587
# Poissons Ratio (y) = -0.49977 0.86170
# Poissons Ratio (z) = 0.55695 0.43843
#
# Static dielectric constant tensor:
#      x y z
#    x 1.624800 0.000000 0.000000 
#    y 0.000000 1.569700 0.000000 
#    z 0.000000 0.000000 1.616820 
# 
# From -- ./inp_files/19114.got.cif
#   From: 2010.05.17/outbox.cif.g08.bks.cpg/sg55_10_cif.got.tgz:19114.got - 2010.06.03 13:27:54.
