data_PCOD9425375
_publ_section_title
;
Structure prediction by ZEFSAII (Michael W. Deem and Ramdas Pophale) SiO2 
 PCOD9425375
Probable space group: P B A M
;
_chemical_formula_sum "Si O2"
_cell_formula_units_Z 64
_cell_length_a 23.607518
_cell_length_b 13.768363
_cell_length_c 8.771695
_cell_angle_alpha 90.000000
_cell_angle_beta 90.000000
_cell_angle_gamma 90.000000
_cell_volume 2851.124352
_symmetry_space_group_name_H-M "P B A M"
_symmetry_group_IT_number 55
_symmetry_cell_setting 'orthorhombic'
loop_
_space_group_symop_operation_xyz
x,y,z
-x,-y,z
1/2+x,1/2-y,-z
1/2-x,1/2+y,-z
-x,-y,-z
x,y,-z
1/2-x,1/2+y,z
1/2+x,1/2-y,z
loop_
_atom_site_type_symbol
_atom_site_label
_atom_site_fract_x
_atom_site_fract_y
_atom_site_fract_z
Si Si1 0.326403 0.867376 0.671793
Si Si2 0.302259 0.634682 0.327204
Si Si3 0.440367 0.821220 0.816771
Si Si4 0.293770 0.354002 0.679538
Si Si5 0.563501 0.808051 0.183956
Si Si6 0.584149 0.398295 0.177219
Si Si7 0.313681 0.151652 0.821994
Si Si8 0.921385 0.095873 0.326037
O O1 0.336176 0.900933 0.500000
O O2 0.312606 0.751409 0.670880
O O3 0.384763 0.878077 0.761808
O O4 0.264974 0.905420 0.724417
O O5 0.313225 0.599831 0.500000
O O6 0.348327 0.600756 0.205402
O O7 0.238308 0.613385 0.277618
O O8 0.503295 0.853945 0.769166
O O9 0.434841 0.708019 0.764681
O O10 0.438459 0.820763 0.000000
O O11 0.287003 0.321096 0.500000
O O12 0.304405 0.267120 0.797586
O O13 0.352751 0.409337 0.677648
O O14 0.621495 0.861547 0.234034
O O15 0.564014 0.695628 0.238761
O O16 0.565795 0.806995 0.000000
O O17 0.560191 0.493036 0.258606
O O18 0.570325 0.403666 0.000000
O O19 0.308782 0.125096 0.000000
O O20 0.940177 0.106390 0.500000
#
# Coordination Sequence:
#
# PCOD9425375 Si02
#       8
#     8   8   8   8   8   8   8   8
#     4   8  14  25  41  59  77  98 127 165 206 244
#     4   9  16  27  42  59  80 103 129 165 209 250
#     4   9  18  30  42  57  80 111 142 171 203 238
#     4   8  15  27  41  57  78 103 130 165 209 251
#     4   9  18  31  43  57  81 112 143 172 202 238
#     4  10  19  30  43  59  81 110 144 176 205 239
#     4   9  15  24  41  61  78  99 130 167 205 243
#     4  10  19  30  43  59  81 110 143 175 208 243
#
# _framework density 22.447284
#
# number of rings (size 3 to 8) (size 9 to 14) (size 15 to 20)
#    0.000    3.000    0.000    2.250    0.000    5.500 
#    0.000    2.500    0.000    0.000    0.000    0.000 
#    0.000    1.000    0.000   11.500    0.000    4.000 
#
# Total GULP energy -356627.378751 kJ/mol
# GULP energy per Si atom -5572.302793 kJ/mol
# Density = 2.239619 g / cm^3
# Si number density = 22.447284 Si / 1000 Ang^3
#
#
#
# Elastic Constant Matrix: (Units=GPa)
#
#
# Indices 1 2 3 4 5 6 
#
# 1 187.6336 -12.6626 20.6372 0.0000 0.0000 0.0000
# 2 -12.6626 31.4090 -2.9621 0.0000 0.0000 0.0000
# 3 20.6372 -2.9621 23.8204 0.0000 0.0000 0.0000
# 4 0.0000 0.0000 0.0000 8.3815 0.0000 0.0000
# 5 0.0000 0.0000 0.0000 0.0000 21.5335 0.0000
# 6 0.0000 0.0000 0.0000 0.0000 0.0000 -14.8129
#
#
#
# Elastic Compliance Matrix: (Units=1/GPa)
#
#
# Indices 1 2 3 4 5 6 
#
# 1 0.006007 0.001954 -0.004961 0.000000 0.000000 0.000000
# 2 0.001954 0.032851 0.002392 0.000000 0.000000 0.000000
# 3 -0.004961 0.002392 0.046577 0.000000 0.000000 0.000000
# 4 0.000000 0.000000 0.000000 0.119311 0.000000 0.000000
# 5 0.000000 0.000000 0.000000 0.000000 0.046439 0.000000
# 6 0.000000 0.000000 0.000000 0.000000 0.000000 -0.067509
#
#
# Mechanical properties :
#
#
# Convention : Reuss Voigt Hill
#
# Bulk Modulus (GPa) = 11.87581 28.09867 19.98724
# Shear Modulus (GPa) = 23.47699 18.87713 21.17706
#
# Velocity S-wave (km/s) = 3.23750 2.90307 3.07483
# Velocity P-wave (km/s) = 4.39059 4.87666 4.64000
#
# Compressibility (1/GPa) = 0.08420477
#
# Stress axis : x y z
#
# Youngs Moduli (GPa) = 166.47042 30.44013 21.47001
#
# Poissons Ratio (x) = -0.05948 0.10652
# Poissons Ratio (y) = -0.32526 -0.05136
# Poissons Ratio (z) = 0.82592 -0.07282
#
# Static dielectric constant tensor:
#      x y z
#    x 1.936120 0.000000 0.000000 
#    y 0.000000 1.892600 0.000000 
#    z 0.000000 0.000000 1.762880 
# 
# From -- ./inp_files/8167.got.cif
#   From: 2010.05.17/outbox.cif.g08.bks.cpg/sg55_5_cif.got.tgz:8167.got - 2010.06.03 13:27:54.
