data_PCOD9425823
_publ_section_title
;
Structure prediction by ZEFSAII (Michael W. Deem and Ramdas Pophale) SiO2 
 PCOD9425823
Probable space group: P B A M
;
_chemical_formula_sum "Si O2"
_cell_formula_units_Z 64
_cell_length_a 23.745309
_cell_length_b 16.838623
_cell_length_c 7.819871
_cell_angle_alpha 90.000000
_cell_angle_beta 90.000000
_cell_angle_gamma 90.000000
_cell_volume 3126.683976
_symmetry_space_group_name_H-M "P B A M"
_symmetry_group_IT_number 55
_symmetry_cell_setting 'orthorhombic'
loop_
_space_group_symop_operation_xyz
x,y,z
-x,-y,z
1/2+x,1/2-y,-z
1/2-x,1/2+y,-z
-x,-y,-z
x,y,-z
1/2-x,1/2+y,z
1/2+x,1/2-y,z
loop_
_atom_site_type_symbol
_atom_site_label
_atom_site_fract_x
_atom_site_fract_y
_atom_site_fract_z
Si Si1 0.552963 0.447154 0.291230
Si Si2 0.160429 0.610094 0.803462
Si Si3 0.129172 0.344434 0.308314
Si Si4 0.031262 0.231915 0.706782
Si Si5 0.353571 0.433043 0.706220
Si Si6 0.936722 0.511907 0.198091
Si Si7 0.598872 0.739898 0.203758
Si Si8 0.773505 0.548236 0.705098
O O1 0.500000 0.500000 0.239769
O O2 0.553995 0.445099 0.500000
O O3 0.542815 0.357732 0.234198
O O4 0.608519 0.493258 0.233010
O O5 0.099534 0.567460 0.799412
O O6 0.144717 0.696000 0.725126
O O7 0.201792 0.540658 0.735411
O O8 0.178260 0.621781 0.000000
O O9 0.143184 0.314882 0.500000
O O10 0.084171 0.283963 0.227820
O O11 0.092773 0.424526 0.315665
O O12 0.185669 0.381324 0.225168
O O13 0.034061 0.235436 0.500000
O O14 0.966769 0.255064 0.749320
O O15 0.351658 0.437902 0.500000
O O16 0.383084 0.349317 0.747663
O O17 0.289729 0.440510 0.769976
O O18 0.000000 0.500000 0.251020
O O19 0.936072 0.540585 0.000000
O O20 0.601582 0.747192 0.000000
O O21 0.773698 0.558310 0.500000
#
# Coordination Sequence:
#
# PCOD9425823 Si02
#       8
#     8   8   8   8   8   8   8   8
#     4   9  16  31  55  77 100 134 175 214 262 325
#     4   9  19  34  51  73 104 142 177 214 261 318
#     4   9  18  31  48  74 106 135 166 214 266 309
#     4  10  19  33  54  78 107 141 175 218 273 326
#     4  10  20  37  58  79 105 142 183 224 273 325
#     4   9  16  28  47  69  97 135 174 207 248 306
#     4  11  22  35  54  81 110 139 177 224 272 322
#     4   9  19  36  55  79 108 139 183 227 263 316
#
# _framework density 20.468969000000001
#
# number of rings (size 3 to 8) (size 9 to 14) (size 15 to 20)
#    0.000    2.500    1.250    1.125    0.000    3.250 
#    2.250    3.750    0.000    0.000    0.000    0.000 
#    0.000    0.000    0.000    0.000    0.000    0.000 
#
# Total GULP energy -356423.965493 kJ/mol
# GULP energy per Si atom -5569.124461 kJ/mol
# Density = 2.042238 g / cm^3
# Si number density = 20.468969 Si / 1000 Ang^3
#
#
#
# Elastic Constant Matrix: (Units=GPa)
#
#
# Indices 1 2 3 4 5 6 
#
# 1 145.4619 37.6235 7.4914 0.0000 0.0000 0.0000
# 2 37.6235 98.2793 1.0455 0.0000 0.0000 0.0000
# 3 7.4914 1.0455 25.2025 0.0000 0.0000 0.0000
# 4 0.0000 0.0000 0.0000 7.4049 0.0000 0.0000
# 5 0.0000 0.0000 0.0000 0.0000 -4.2511 0.0000
# 6 0.0000 0.0000 0.0000 0.0000 0.0000 26.9283
#
#
#
# Elastic Compliance Matrix: (Units=1/GPa)
#
#
# Indices 1 2 3 4 5 6 
#
# 1 0.007748 -0.002943 -0.002181 0.000000 0.000000 0.000000
# 2 -0.002943 0.011297 0.000406 0.000000 0.000000 0.000000
# 3 -0.002181 0.000406 0.040310 0.000000 0.000000 0.000000
# 4 0.000000 0.000000 0.000000 0.135045 0.000000 0.000000
# 5 0.000000 0.000000 0.000000 0.000000 -0.235233 0.000000
# 6 0.000000 0.000000 0.000000 0.000000 0.000000 0.037136
#
#
# Mechanical properties :
#
#
# Convention : Reuss Voigt Hill
#
# Bulk Modulus (GPa) = 20.03208 40.14052 30.08630
# Shear Modulus (GPa) = 223.42602 20.86865 122.14733
#
# Velocity S-wave (km/s) = 10.45899 3.19647 7.73330
# Velocity P-wave (km/s) = 12.47645 5.76855 9.71952
#
# Compressibility (1/GPa) = 0.04991992
#
# Stress axis : x y z
#
# Youngs Moduli (GPa) = 129.06267 88.51594 24.80765
#
# Poissons Ratio (x) = 0.26050 0.05411
# Poissons Ratio (y) = 0.37983 -0.01008
# Poissons Ratio (z) = 0.28149 -0.03595
#
# Static dielectric constant tensor:
#      x y z
#    x 1.714020 0.000000 0.000000 
#    y 0.000000 1.730770 0.000000 
#    z 0.000000 0.000000 1.779750 
# 
# From -- ./inp_files/9797.got.cif
#   From: 2010.05.17/outbox.cif.g08.bks.cpg/sg55_5_cif.got.tgz:9797.got - 2010.06.03 13:27:54.
