data_PCOD9425162
_publ_section_title
;
Structure prediction by ZEFSAII (Michael W. Deem and Ramdas Pophale) SiO2 
 PCOD9425162
Probable space group: P B A M
;
_chemical_formula_sum "Si O2"
_cell_formula_units_Z 64
_cell_length_a 11.228121
_cell_length_b 31.207266
_cell_length_c 8.514673
_cell_angle_alpha 90.000000
_cell_angle_beta 90.000000
_cell_angle_gamma 90.000000
_cell_volume 2983.532553
_symmetry_space_group_name_H-M "P B A M"
_symmetry_group_IT_number 55
_symmetry_cell_setting 'orthorhombic'
loop_
_space_group_symop_operation_xyz
x,y,z
-x,-y,z
1/2+x,1/2-y,-z
1/2-x,1/2+y,-z
-x,-y,-z
x,y,-z
1/2-x,1/2+y,z
1/2+x,1/2-y,z
loop_
_atom_site_type_symbol
_atom_site_label
_atom_site_fract_x
_atom_site_fract_y
_atom_site_fract_z
Si Si1 0.818416 0.377510 0.819797
Si Si2 0.054002 0.853460 0.819116
Si Si3 0.414803 0.726830 0.685428
Si Si4 0.858459 0.999316 0.175281
Si Si5 0.490554 0.950999 0.813259
Si Si6 0.609595 0.413987 0.671789
Si Si7 0.248003 0.410591 0.191828
Si Si8 0.358749 0.220022 0.183789
O O1 0.897916 0.419663 0.801286
O O2 0.717274 0.381260 0.690431
O O3 0.877354 0.331286 0.803214
O O4 0.769316 0.378466 0.000000
O O5 0.976782 0.818662 0.728715
O O6 0.183311 0.867816 0.754945
O O7 0.982321 0.898167 0.802875
O O8 0.061939 0.840091 0.000000
O O9 0.401601 0.731173 0.500000
O O10 0.278299 0.729940 0.755272
O O11 0.522906 0.758283 0.742301
O O12 0.814160 0.045005 0.231711
O O13 0.836366 0.960121 0.289958
O O14 0.807183 0.991346 0.000000
O O15 0.000000 0.000000 0.162904
O O16 0.383220 0.921575 0.750167
O O17 0.500000 0.000000 0.751116
O O18 0.466137 0.956195 0.000000
O O19 0.554399 0.413082 0.500000
O O20 0.249741 0.407112 0.000000
O O21 0.357511 0.231764 0.000000
#
# Coordination Sequence:
#
# PCOD9425162 Si02
#       8
#     8   8   8   8   8   8   8   8
#     4  10  21  38  64  91 118 160 216 263 309 378
#     4  11  21  38  62  89 122 162 210 261 319 393
#     4  12  26  45  69 102 141 176 218 282 358 416
#     4  10  18  32  53  79 112 156 205 253 307 369
#     4   9  17  32  57  90 124 159 206 267 324 374
#     4  12  23  34  54  84 120 158 201 254 315 372
#     4   9  18  32  55  87 120 157 206 267 323 376
#     4  11  24  44  71 100 132 178 231 278 333 412
#
# _framework density 21.451082
#
# number of rings (size 3 to 8) (size 9 to 14) (size 15 to 20)
#    0.000    1.500    2.500    3.750    0.000    3.750 
#    0.000    2.500    0.000    4.875    0.000    0.000 
#    0.000    0.000    0.000    0.000    0.000    0.000 
#
# Total GULP energy -356495.114591 kJ/mol
# GULP energy per Si atom -5570.236165 kJ/mol
# Density = 2.140226 g / cm^3
# Si number density = 21.451082 Si / 1000 Ang^3
#
#
#
# Elastic Constant Matrix: (Units=GPa)
#
#
# Indices 1 2 3 4 5 6 
#
# 1 78.4743 16.5375 27.6560 0.0000 0.0000 0.0000
# 2 16.5375 77.6302 29.6328 0.0000 0.0000 0.0000
# 3 27.6560 29.6328 64.4184 0.0000 0.0000 0.0000
# 4 0.0000 0.0000 0.0000 -208.9212 0.0000 0.0000
# 5 0.0000 0.0000 0.0000 0.0000 13.5870 0.0000
# 6 0.0000 0.0000 0.0000 0.0000 0.0000 30.8605
#
#
#
# Elastic Compliance Matrix: (Units=1/GPa)
#
#
# Indices 1 2 3 4 5 6 
#
# 1 0.015066 -0.000898 -0.006055 0.000000 0.000000 0.000000
# 2 -0.000898 0.015679 -0.006827 0.000000 0.000000 0.000000
# 3 -0.006055 -0.006827 0.021263 0.000000 0.000000 0.000000
# 4 0.000000 0.000000 0.000000 -0.004786 0.000000 0.000000
# 5 0.000000 0.000000 0.000000 0.000000 0.073600 0.000000
# 6 0.000000 0.000000 0.000000 0.000000 0.000000 0.032404
#
#
# Mechanical properties :
#
#
# Convention : Reuss Voigt Hill
#
# Bulk Modulus (GPa) = 40.90234 40.90840 40.90537
# Shear Modulus (GPa) = 26.46408 -23.11500 1.67454
#
# Velocity S-wave (km/s) = 3.51621 -3.28619 0.88449
# Velocity P-wave (km/s) = 5.96608 2.17099 4.48928
#
# Compressibility (1/GPa) = 0.02444848
#
# Stress axis : x y z
#
# Youngs Moduli (GPa) = 66.37360 63.78028 47.02922
#
# Poissons Ratio (x) = 0.05729 0.28476
# Poissons Ratio (y) = 0.05962 0.32106
# Poissons Ratio (z) = 0.40189 0.43541
#
# Static dielectric constant tensor:
#      x y z
#    x 1.910520 0.000000 0.000000 
#    y 0.000000 1.802100 0.000000 
#    z 0.000000 0.000000 1.764690 
# 
# From -- ./inp_files/4651.got.cif
#   From: 2010.05.17/outbox.cif.g08.bks.cpg/sg55_3_cif.got.tgz:4651.got - 2010.06.03 13:27:54.
