data_PCOD9425553
_publ_section_title
;
Structure prediction by ZEFSAII (Michael W. Deem and Ramdas Pophale) SiO2 
 PCOD9425553
Probable space group: P B A M
;
_chemical_formula_sum "Si O2"
_cell_formula_units_Z 64
_cell_length_a 19.813428
_cell_length_b 21.146149
_cell_length_c 8.566366
_cell_angle_alpha 90.000000
_cell_angle_beta 90.000000
_cell_angle_gamma 90.000000
_cell_volume 3589.116330
_symmetry_space_group_name_H-M "P B A M"
_symmetry_group_IT_number 55
_symmetry_cell_setting 'orthorhombic'
loop_
_space_group_symop_operation_xyz
x,y,z
-x,-y,z
1/2+x,1/2-y,-z
1/2-x,1/2+y,-z
-x,-y,-z
x,y,-z
1/2-x,1/2+y,z
1/2+x,1/2-y,z
loop_
_atom_site_type_symbol
_atom_site_label
_atom_site_fract_x
_atom_site_fract_y
_atom_site_fract_z
Si Si1 0.038186 0.813821 0.813607
Si Si2 0.674806 0.135954 0.686492
Si Si3 0.329317 0.509525 0.186834
Si Si4 0.328226 0.367680 0.313110
Si Si5 0.960229 0.687881 0.811245
Si Si6 0.461655 0.564581 0.313986
Si Si7 0.039637 0.563246 0.809949
Si Si8 0.323653 0.005743 0.811539
O O1 0.112499 0.821723 0.741428
O O2 0.997996 0.751510 0.760518
O O3 0.995791 0.875612 0.766302
O O4 0.044922 0.811299 0.000000
O O5 0.671226 0.136516 0.500000
O O6 0.752064 0.152202 0.732413
O O7 0.616258 0.179987 0.753737
O O8 0.662720 0.064334 0.746089
O O9 0.341007 0.436944 0.239411
O O10 0.384405 0.553894 0.265966
O O11 0.252184 0.524806 0.232830
O O12 0.335658 0.513418 0.000000
O O13 0.330556 0.374566 0.500000
O O14 0.002438 0.626435 0.756314
O O15 0.959156 0.687215 0.000000
O O16 0.500000 0.500000 0.266954
O O17 0.468306 0.571368 0.500000
O O18 0.117229 0.553213 0.762399
O O19 0.000000 0.500000 0.761428
O O20 0.038048 0.564715 0.000000
O O21 0.325522 0.000658 0.000000
#
# Coordination Sequence:
#
# PCOD9425553 Si02
#       8
#     8   8   8   8   8   8   8   8
#     4  11  23  37  56  82 110 142 183 231 275 321
#     4  10  20  33  53  80 110 144 181 223 267 319
#     4  10  19  31  53  83 111 138 180 231 274 317
#     4  10  20  35  54  78 109 144 182 220 269 329
#     4  10  21  37  56  81 110 143 183 224 270 323
#     4  11  22  36  56  79 107 143 179 219 276 333
#     4   9  15  29  56  81 106 139 176 216 264 320
#     4   9  17  31  53  81 110 143 179 223 274 320
#
# _framework density 17.831688
#
# number of rings (size 3 to 8) (size 9 to 14) (size 15 to 20)
#    0.000    2.000    2.500    1.875    0.000    3.500 
#    0.000    2.500    0.000    3.000    0.000    0.000 
#    0.000    0.000    0.000    0.000    0.000    0.000 
#
# Total GULP energy -357165.457001 kJ/mol
# GULP energy per Si atom -5580.710266 kJ/mol
# Density = 1.779110 g / cm^3
# Si number density = 17.831688 Si / 1000 Ang^3
#
#
#
# Elastic Constant Matrix: (Units=GPa)
#
#
# Indices 1 2 3 4 5 6 
#
# 1 144.9925 60.7864 14.0267 0.0000 0.0000 0.0000
# 2 60.7864 90.6345 11.5047 0.0000 0.0000 0.0000
# 3 14.0267 11.5047 11.5133 0.0000 0.0000 0.0000
# 4 0.0000 0.0000 0.0000 -11.7092 0.0000 0.0000
# 5 0.0000 0.0000 0.0000 0.0000 23.0667 0.0000
# 6 0.0000 0.0000 0.0000 0.0000 0.0000 30.0936
#
#
#
# Elastic Compliance Matrix: (Units=1/GPa)
#
#
# Indices 1 2 3 4 5 6 
#
# 1 0.009974 -0.005894 -0.006261 0.000000 0.000000 0.000000
# 2 -0.005894 0.016120 -0.008926 0.000000 0.000000 0.000000
# 3 -0.006261 -0.008926 0.103404 0.000000 0.000000 0.000000
# 4 0.000000 0.000000 0.000000 -0.085403 0.000000 0.000000
# 5 0.000000 0.000000 0.000000 0.000000 0.043353 0.000000
# 6 0.000000 0.000000 0.000000 0.000000 0.000000 0.033230
#
#
# Mechanical properties :
#
#
# Convention : Reuss Voigt Hill
#
# Bulk Modulus (GPa) = 11.45035 46.64178 29.04607
# Shear Modulus (GPa) = 26.04820 19.01172 22.52996
#
# Velocity S-wave (km/s) = 3.82616 3.26878 3.55840
# Velocity P-wave (km/s) = 5.09457 6.36082 5.76258
#
# Compressibility (1/GPa) = 0.08733356
#
# Stress axis : x y z
#
# Youngs Moduli (GPa) = 100.26292 62.03606 9.67079
#
# Poissons Ratio (x) = 0.36567 0.06055
# Poissons Ratio (y) = 0.59099 0.08633
# Poissons Ratio (z) = 0.62775 0.55376
#
# Static dielectric constant tensor:
#      x y z
#    x 1.636640 0.000000 0.000000 
#    y 0.000000 1.576970 0.000000 
#    z 0.000000 0.000000 1.603750 
# 
# From -- ./inp_files/9000.got.cif
#   From: 2010.05.17/outbox.cif.g08.bks.cpg/sg55_5_cif.got.tgz:9000.got - 2010.06.03 13:27:54.
