data_PCOD9425900
_publ_section_title
;
Structure prediction by ZEFSAII (Michael W. Deem and Ramdas Pophale) SiO2 
 PCOD9425900
Probable space group: P B A M
;
_chemical_formula_sum "Si O2"
_cell_formula_units_Z 64
_cell_length_a 13.988832
_cell_length_b 23.848268
_cell_length_c 9.866826
_cell_angle_alpha 90.000000
_cell_angle_beta 90.000000
_cell_angle_gamma 90.000000
_cell_volume 3291.666045
_symmetry_space_group_name_H-M "P B A M"
_symmetry_group_IT_number 55
_symmetry_cell_setting 'orthorhombic'
loop_
_space_group_symop_operation_xyz
x,y,z
-x,-y,z
1/2+x,1/2-y,-z
1/2-x,1/2+y,-z
-x,-y,-z
x,y,-z
1/2-x,1/2+y,z
1/2+x,1/2-y,z
loop_
_atom_site_type_symbol
_atom_site_label
_atom_site_fract_x
_atom_site_fract_y
_atom_site_fract_z
Si Si1 0.544326 0.655347 0.845548
Si Si2 0.242717 0.504446 0.655675
Si Si3 0.168149 0.658425 0.852329
Si Si4 0.244990 0.395845 0.843747
Si Si5 0.900712 0.646491 0.649582
Si Si6 0.049469 0.556640 0.748855
Si Si7 0.354924 0.586319 0.844760
Si Si8 0.936332 0.261174 0.344731
O O1 0.646694 0.625240 0.840376
O O2 0.458927 0.611654 0.820296
O O3 0.544524 0.705142 0.738345
O O4 0.530443 0.676659 0.000000
O O5 0.266744 0.492457 0.500000
O O6 0.234825 0.450134 0.749783
O O7 0.139780 0.535449 0.661591
O O8 0.320566 0.542890 0.731773
O O9 0.098958 0.603551 0.843884
O O10 0.275400 0.635412 0.840753
O O11 0.140919 0.701022 0.734461
O O12 0.154767 0.685112 0.000000
O O13 0.174413 0.352219 0.771037
O O14 0.217600 0.406468 0.000000
O O15 0.855548 0.642987 0.500000
O O16 0.969281 0.700075 0.654532
O O17 0.969329 0.592127 0.669501
O O18 0.000000 0.500000 0.806588
O O19 0.351249 0.562878 0.000000
O O20 0.908455 0.250355 0.500000
#
# Coordination Sequence:
#
# PCOD9425900 Si02
#       8
#     8   8   8   8   8   8   8   8
#     4  10  23  43  63  80 107 152 200 244 288 335
#     4  11  22  37  59  87 120 155 188 232 288 345
#     4   9  19  35  57  87 117 146 184 232 281 336
#     4  11  24  39  57  85 117 152 195 238 283 337
#     4  10  21  38  58  86 121 155 188 227 284 346
#     4  10  19  33  55  88 119 155 188 221 274 338
#     4   9  20  40  62  84 111 148 195 241 285 338
#     4  10  22  39  60  87 118 150 186 234 289 346
#
# _framework density 19.443042999999999
#
# number of rings (size 3 to 8) (size 9 to 14) (size 15 to 20)
#    0.000    2.000    1.250    1.500    0.000    9.750 
#    0.000    6.250    0.000    0.000    0.000    0.000 
#    0.000    0.000    0.000    0.000    0.000    0.000 
#
# Total GULP energy -357137.794633 kJ/mol
# GULP energy per Si atom -5580.278041 kJ/mol
# Density = 1.939879 g / cm^3
# Si number density = 19.443043 Si / 1000 Ang^3
#
#
#
# Elastic Constant Matrix: (Units=GPa)
#
#
# Indices 1 2 3 4 5 6 
#
# 1 66.8776 8.8350 39.2768 0.0000 0.0000 0.0000
# 2 8.8350 33.0312 34.1034 0.0000 0.0000 0.0000
# 3 39.2768 34.1034 157.4091 0.0000 0.0000 0.0000
# 4 0.0000 0.0000 0.0000 14.0403 0.0000 0.0000
# 5 0.0000 0.0000 0.0000 0.0000 14.8460 0.0000
# 6 0.0000 0.0000 0.0000 0.0000 0.0000 10.1530
#
#
#
# Elastic Compliance Matrix: (Units=1/GPa)
#
#
# Indices 1 2 3 4 5 6 
#
# 1 0.017521 -0.000222 -0.004324 0.000000 0.000000 0.000000
# 2 -0.000222 0.039000 -0.008394 0.000000 0.000000 0.000000
# 3 -0.004324 -0.008394 0.009250 0.000000 0.000000 0.000000
# 4 0.000000 0.000000 0.000000 0.071223 0.000000 0.000000
# 5 0.000000 0.000000 0.000000 0.000000 0.067358 0.000000
# 6 0.000000 0.000000 0.000000 0.000000 0.000000 0.098493
#
#
# Mechanical properties :
#
#
# Convention : Reuss Voigt Hill
#
# Bulk Modulus (GPa) = 25.06794 46.86091 35.96443
# Shear Modulus (GPa) = 14.61882 19.48138 17.05010
#
# Velocity S-wave (km/s) = 2.74502 3.16883 2.96451
# Velocity P-wave (km/s) = 4.79248 6.12720 5.50047
#
# Compressibility (1/GPa) = 0.03989159
#
# Stress axis : x y z
#
# Youngs Moduli (GPa) = 57.07306 25.64073 108.10391
#
# Poissons Ratio (x) = 0.00570 0.46741
# Poissons Ratio (y) = 0.01270 0.90744
# Poissons Ratio (z) = 0.24677 0.21523
#
# Static dielectric constant tensor:
#      x y z
#    x 1.674430 0.000000 0.000000 
#    y 0.000000 1.684850 0.000000 
#    z 0.000000 0.000000 1.680950 
# 
# From -- ./inp_files/6541.got.cif
#   From: 2010.05.17/outbox.cif.g08.bks.cpg/sg55_4_cif.got.tgz:6541.got - 2010.06.03 13:27:54.
