data_PCOD9425721
_publ_section_title
;
Structure prediction by ZEFSAII (Michael W. Deem and Ramdas Pophale) SiO2 
 PCOD9425721
Probable space group: P B A M
;
_chemical_formula_sum "Si O2"
_cell_formula_units_Z 56
_cell_length_a 14.889055
_cell_length_b 22.811235
_cell_length_c 8.222576
_cell_angle_alpha 90.000000
_cell_angle_beta 90.000000
_cell_angle_gamma 90.000000
_cell_volume 2792.697068
_symmetry_space_group_name_H-M "P B A M"
_symmetry_group_IT_number 55
_symmetry_cell_setting 'orthorhombic'
loop_
_space_group_symop_operation_xyz
x,y,z
-x,-y,z
1/2+x,1/2-y,-z
1/2-x,1/2+y,-z
-x,-y,-z
x,y,-z
1/2-x,1/2+y,z
1/2+x,1/2-y,z
loop_
_atom_site_type_symbol
_atom_site_label
_atom_site_fract_x
_atom_site_fract_y
_atom_site_fract_z
Si Si1 0.096764 0.354561 0.695964
Si Si2 0.412791 0.720024 0.307879
Si Si3 0.206887 0.116891 0.191717
Si Si4 0.606506 0.723470 0.808386
Si Si5 0.784597 0.111909 0.804647
Si Si6 0.603526 0.499498 0.801035
Si Si7 0.396195 0.144104 0.308308
O O1 0.097340 0.356507 0.500000
O O2 0.109908 0.286313 0.745491
O O3 0.180379 0.391064 0.759715
O O4 0.996479 0.371927 0.750712
O O5 0.432348 0.721998 0.500000
O O6 0.333994 0.674586 0.274442
O O7 0.504224 0.701786 0.217167
O O8 0.312742 0.113252 0.223570
O O9 0.154316 0.059460 0.250820
O O10 0.190978 0.122979 0.000000
O O11 0.673065 0.673319 0.745094
O O12 0.613550 0.785910 0.720673
O O13 0.622943 0.733336 0.000000
O O14 0.842614 0.056917 0.745459
O O15 0.792585 0.113116 0.000000
O O16 0.500000 0.500000 0.749000
O O17 0.604062 0.499968 0.000000
O O18 0.391233 0.132617 0.500000
#
# Coordination Sequence:
#
# PCOD9425721 Si02
#       7
#     8   8   8   8   8   8   8
#     4   9  20  36  53  75 105 142 176 212 263 322
#     4  10  20  34  53  79 113 148 178 215 271 327
#     4  11  21  34  56  81 105 140 185 227 267 317
#     4  10  19  32  54  84 112 140 180 223 266 321
#     4  10  20  34  55  80 105 138 177 221 271 317
#     4   9  19  37  57  78 107 139 172 217 272 321
#     4  10  21  37  54  76 111 147 177 217 274 328
#
# _framework density 20.052302000000001
#
# number of rings (size 3 to 8) (size 9 to 14) (size 15 to 20)
#    0.000    2.143    0.000    4.286    0.000    9.143 
#    0.000    2.143    0.000    7.286    0.000    0.000 
#    0.000    0.000    0.000    0.000    0.000    0.000 
#
# Total GULP energy -312766.834938 kJ/mol
# GULP energy per Si atom -5585.122052 kJ/mol
# Density = 2.000666 g / cm^3
# Si number density = 20.052302 Si / 1000 Ang^3
#
#
#
# Elastic Constant Matrix: (Units=GPa)
#
#
# Indices 1 2 3 4 5 6 
#
# 1 156.5163 60.7859 -6.4486 0.0000 0.0000 0.0000
# 2 60.7859 46.7905 0.6745 0.0000 0.0000 0.0000
# 3 -6.4486 0.6745 12.0408 0.0000 0.0000 0.0000
# 4 0.0000 0.0000 0.0000 -177.0337 0.0000 0.0000
# 5 0.0000 0.0000 0.0000 0.0000 -45.1898 0.0000
# 6 0.0000 0.0000 0.0000 0.0000 0.0000 35.1275
#
#
#
# Elastic Compliance Matrix: (Units=1/GPa)
#
#
# Indices 1 2 3 4 5 6 
#
# 1 0.013682 -0.017894 0.008330 0.000000 0.000000 0.000000
# 2 -0.017894 0.044793 -0.012093 0.000000 0.000000 0.000000
# 3 0.008330 -0.012093 0.088189 0.000000 0.000000 0.000000
# 4 0.000000 0.000000 0.000000 -0.005649 0.000000 0.000000
# 5 0.000000 0.000000 0.000000 0.000000 -0.022129 0.000000
# 6 0.000000 0.000000 0.000000 0.000000 0.000000 0.028468
#
#
# Mechanical properties :
#
#
# Convention : Reuss Voigt Hill
#
# Bulk Modulus (GPa) = 9.67590 36.15237 22.91413
# Shear Modulus (GPa) = 22.21055 -26.73016 -2.25980
#
# Velocity S-wave (km/s) = 3.33172 -3.65502 -1.06273
# Velocity P-wave (km/s) = 4.43128 0.50593 3.15375
#
# Compressibility (1/GPa) = 0.10334959
#
# Stress axis : x y z
#
# Youngs Moduli (GPa) = 73.08938 22.32500 11.33926
#
# Poissons Ratio (x) = 0.39949 -0.09445
# Poissons Ratio (y) = 1.30788 0.13712
# Poissons Ratio (z) = -0.60883 0.26997
#
# Static dielectric constant tensor:
#      x y z
#    x 1.714750 0.000000 0.000000 
#    y 0.000000 1.690920 0.000000 
#    z 0.000000 0.000000 1.697640 
# 
# From -- ./inp_files/6091.got.cif
#   From: 2010.05.17/outbox.cif.g08.bks.cpg/sg55_4_cif.got.tgz:6091.got - 2010.06.03 13:27:54.
