data_PCOD9425667
_publ_section_title
;
Structure prediction by ZEFSAII (Michael W. Deem and Ramdas Pophale) SiO2 
 PCOD9425667
Probable space group: P B A M
;
_chemical_formula_sum "Si O2"
_cell_formula_units_Z 48
_cell_length_a 14.995625
_cell_length_b 5.117055
_cell_length_c 30.755681
_cell_angle_alpha 90.000000
_cell_angle_beta 90.000000
_cell_angle_gamma 90.000000
_cell_volume 2359.989138
_symmetry_space_group_name_H-M "P B A M"
_symmetry_group_IT_number 55
_symmetry_cell_setting 'orthorhombic'
loop_
_space_group_symop_operation_xyz
x,y,z
-x,-y,z
1/2+x,1/2-y,-z
1/2-x,1/2+y,-z
-x,-y,-z
x,y,-z
1/2-x,1/2+y,z
1/2+x,1/2-y,z
loop_
_atom_site_type_symbol
_atom_site_label
_atom_site_fract_x
_atom_site_fract_y
_atom_site_fract_z
Si Si1 0.936141 0.751075 0.905688
Si Si2 0.690003 0.956376 0.591678
Si Si3 0.392961 0.010640 0.315778
Si Si4 0.306665 0.598057 0.172121
Si Si5 0.391925 0.513120 0.264602
Si Si6 0.564632 0.248618 0.000000
Si Si7 0.811692 0.338606 0.500000
O O1 0.871243 0.804621 0.865899
O O2 0.000000 0.500000 0.899768
O O3 0.887846 0.737147 0.953095
O O4 0.000000 0.000000 0.907680
O O5 0.728843 0.248730 0.591596
O O6 0.641051 0.896743 0.545871
O O7 0.636758 0.918104 0.635932
O O8 0.362239 0.228443 0.281094
O O9 0.500000 0.000000 0.314710
O O10 0.363393 0.724426 0.300655
O O11 0.275927 0.297768 0.168677
O O12 0.353666 0.609776 0.218952
O O13 0.500000 0.500000 0.261392
O O14 0.500000 0.500000 0.000000
O O15 0.500000 0.000000 0.000000
O O16 0.770941 0.047371 0.500000
#
# Coordination Sequence:
#
# PCOD9425667 Si02
#       7
#     8   8   8   8   8   4   4
#     4  10  20  38  62  84 111 150 190 225 269 329
#     4  10  19  32  53  76 102 135 172 210 258 315
#     4  10  21  36  54  78 104 133 175 224 268 315
#     4  12  25  38  55  85 117 143 181 234 280 322
#     4  10  22  39  56  73 103 146 183 216 266 329
#     4   8  16  32  58  86 106 138 192 232 254 312
#     4   8  16  30  47  72 101 132 168 206 248 312
#
# _framework density 20.339079000000002
#
# number of rings (size 3 to 8) (size 9 to 14) (size 15 to 20)
#    0.000    2.000    0.000    3.500    0.000    6.000 
#    0.000    1.250    0.000    0.000    0.000   10.500 
#    0.000    0.000    0.000    0.000    0.000    0.000 
#
# Total GULP energy -267775.302747 kJ/mol
# GULP energy per Si atom -5578.652141 kJ/mol
# Density = 2.029279 g / cm^3
# Si number density = 20.339079 Si / 1000 Ang^3
#
#
#
# Elastic Constant Matrix: (Units=GPa)
#
#
# Indices 1 2 3 4 5 6 
#
# 1 22.2469 5.0413 27.3689 0.0000 0.0000 0.0000
# 2 5.0413 111.2293 15.7858 0.0000 0.0000 0.0000
# 3 27.3689 15.7858 178.9525 0.0000 0.0000 0.0000
# 4 0.0000 0.0000 0.0000 31.0937 0.0000 0.0000
# 5 0.0000 0.0000 0.0000 0.0000 21.1759 0.0000
# 6 0.0000 0.0000 0.0000 0.0000 0.0000 16.8113
#
#
#
# Elastic Compliance Matrix: (Units=1/GPa)
#
#
# Indices 1 2 3 4 5 6 
#
# 1 0.055561 -0.001329 -0.008380 0.000000 0.000000 0.000000
# 2 -0.001329 0.009136 -0.000603 0.000000 0.000000 0.000000
# 3 -0.008380 -0.000603 0.006923 0.000000 0.000000 0.000000
# 4 0.000000 0.000000 0.000000 0.032161 0.000000 0.000000
# 5 0.000000 0.000000 0.000000 0.000000 0.047223 0.000000
# 6 0.000000 0.000000 0.000000 0.000000 0.000000 0.059484
#
#
# Mechanical properties :
#
#
# Convention : Reuss Voigt Hill
#
# Bulk Modulus (GPa) = 19.60921 45.42451 32.51686
# Shear Modulus (GPa) = 20.15231 31.43170 25.79201
#
# Velocity S-wave (km/s) = 3.15114 3.93540 3.56490
# Velocity P-wave (km/s) = 4.78557 6.55988 5.74167
#
# Compressibility (1/GPa) = 0.05099645
#
# Stress axis : x y z
#
# Youngs Moduli (GPa) = 17.99825 109.45472 144.44781
#
# Poissons Ratio (x) = 0.14545 1.21051
# Poissons Ratio (y) = 0.02392 0.08706
# Poissons Ratio (z) = 0.15083 0.06597
#
# Static dielectric constant tensor:
#      x y z
#    x 1.710190 0.000000 0.000000 
#    y 0.000000 1.704250 0.000000 
#    z 0.000000 0.000000 1.781540 
# 
# From -- ./inp_files/23992.got.cif
#   From: 2010.05.17/outbox.cif.g08.bks.cpg/sg55_12_cif.got.tgz:23992.got - 2010.06.03 13:27:54.
