data_PCOD9425060
_publ_section_title
;
Structure prediction by ZEFSAII (Michael W. Deem and Ramdas Pophale) SiO2 
 PCOD9425060
Probable space group: P B A M
;
_chemical_formula_sum "Si O2"
_cell_formula_units_Z 64
_cell_length_a 17.135960
_cell_length_b 20.870265
_cell_length_c 7.482381
_cell_angle_alpha 90.000000
_cell_angle_beta 90.000000
_cell_angle_gamma 90.000000
_cell_volume 2675.939078
_symmetry_space_group_name_H-M "P B A M"
_symmetry_group_IT_number 55
_symmetry_cell_setting 'orthorhombic'
loop_
_space_group_symop_operation_xyz
x,y,z
-x,-y,z
1/2+x,1/2-y,-z
1/2-x,1/2+y,-z
-x,-y,-z
x,y,-z
1/2-x,1/2+y,z
1/2+x,1/2-y,z
loop_
_atom_site_type_symbol
_atom_site_label
_atom_site_fract_x
_atom_site_fract_y
_atom_site_fract_z
Si Si1 0.145052 0.973246 0.784562
Si Si2 0.615912 0.871779 0.797236
Si Si3 0.834672 0.230647 0.712189
Si Si4 0.779584 0.622231 0.787166
Si Si5 0.445905 0.844482 0.780519
Si Si6 0.030137 0.868269 0.290953
Si Si7 0.886114 0.791757 0.201930
Si Si8 0.280094 0.602451 0.220548
O O1 0.215978 0.927854 0.717015
O O2 0.064770 0.938905 0.733721
O O3 0.164395 0.044475 0.723279
O O4 0.147068 0.973529 0.000000
O O5 0.645815 0.798037 0.800565
O O6 0.529547 0.869431 0.715862
O O7 0.690983 0.907857 0.719420
O O8 0.606868 0.895855 0.000000
O O9 0.841000 0.239658 0.500000
O O10 0.754244 0.193356 0.750538
O O11 0.901225 0.179947 0.770667
O O12 0.868655 0.616878 0.725723
O O13 0.781282 0.613994 0.000000
O O14 0.427091 0.771446 0.721401
O O15 0.450784 0.843692 0.000000
O O16 0.016788 0.857561 0.500000
O O17 0.952250 0.846684 0.195073
O O18 0.813820 0.829597 0.285973
O O19 0.863240 0.773944 0.000000
O O20 0.279507 0.604433 0.000000
#
# Coordination Sequence:
#
# PCOD9425060 Si02
#       8
#     8   8   8   8   8   8   8   8
#     4   9  18  34  53  72  99 137 176 207 245 293
#     4  10  18  32  53  73 100 132 166 205 253 303
#     4  10  19  31  48  73 102 129 162 204 255 306
#     4   9  17  31  52  74  98 131 172 209 244 297
#     4   9  17  29  50  79 101 126 165 207 251 302
#     4  10  20  33  50  74 102 130 163 207 253 296
#     4  10  18  31  50  73 101 130 165 204 251 307
#     4   9  19  33  51  75 101 133 172 213 247 293
#
# _framework density 23.916837000000001
#
# number of rings (size 3 to 8) (size 9 to 14) (size 15 to 20)
#    0.000    2.500    1.250    1.500    0.000    3.500 
#    0.000    7.500    0.000    3.750    0.000    0.000 
#    0.000    5.000    0.000    0.000    0.000    0.000 
#
# Total GULP energy -357423.618473 kJ/mol
# GULP energy per Si atom -5584.744039 kJ/mol
# Density = 2.386240 g / cm^3
# Si number density = 23.916837 Si / 1000 Ang^3
#
#
#
# Elastic Constant Matrix: (Units=GPa)
#
#
# Indices 1 2 3 4 5 6 
#
# 1 84.2020 -26.5281 0.2785 0.0000 0.0000 0.0000
# 2 -26.5281 35.7166 -4.1264 0.0000 0.0000 0.0000
# 3 0.2785 -4.1264 76.7842 0.0000 0.0000 0.0000
# 4 0.0000 0.0000 0.0000 -14.7812 0.0000 0.0000
# 5 0.0000 0.0000 0.0000 0.0000 -58.7945 0.0000
# 6 0.0000 0.0000 0.0000 0.0000 0.0000 33.6320
#
#
#
# Elastic Compliance Matrix: (Units=1/GPa)
#
#
# Indices 1 2 3 4 5 6 
#
# 1 0.015529 0.011599 0.000567 0.000000 0.000000 0.000000
# 2 0.011599 0.036837 0.001938 0.000000 0.000000 0.000000
# 3 0.000567 0.001938 0.013126 0.000000 0.000000 0.000000
# 4 0.000000 0.000000 0.000000 -0.067654 0.000000 0.000000
# 5 0.000000 0.000000 0.000000 0.000000 -0.017008 0.000000
# 6 0.000000 0.000000 0.000000 0.000000 0.000000 0.029734
#
#
# Mechanical properties :
#
#
# Convention : Reuss Voigt Hill
#
# Bulk Modulus (GPa) = 10.67244 15.10566 12.88905
# Shear Modulus (GPa) = 367.95982 7.14985 187.55483
#
# Velocity S-wave (km/s) = 12.41707 1.73088 8.86509
# Velocity P-wave (km/s) = 14.49311 3.21313 10.49701
#
# Compressibility (1/GPa) = 0.09369928
#
# Stress axis : x y z
#
# Youngs Moduli (GPa) = 64.39689 27.14641 76.18710
#
# Poissons Ratio (x) = -0.31488 -0.04320
# Poissons Ratio (y) = -0.74696 -0.14762
# Poissons Ratio (z) = -0.03651 -0.05260
#
# Static dielectric constant tensor:
#      x y z
#    x 1.949010 0.000000 0.000000 
#    y 0.000000 1.900930 0.000000 
#    z 0.000000 0.000000 1.949080 
# 
# From -- ./inp_files/7984.got.cif
#   From: 2010.05.17/outbox.cif.g08.bks.cpg/sg55_4_cif.got.tgz:7984.got - 2010.06.03 13:27:54.
