data_PCOD9425290
_publ_section_title
;
Structure prediction by ZEFSAII (Michael W. Deem and Ramdas Pophale) SiO2 
 PCOD9425290
Probable space group: P B A M
;
_chemical_formula_sum "Si O2"
_cell_formula_units_Z 64
_cell_length_a 20.253083
_cell_length_b 19.496243
_cell_length_c 7.491626
_cell_angle_alpha 90.000000
_cell_angle_beta 90.000000
_cell_angle_gamma 90.000000
_cell_volume 2958.136158
_symmetry_space_group_name_H-M "P B A M"
_symmetry_group_IT_number 55
_symmetry_cell_setting 'orthorhombic'
loop_
_space_group_symop_operation_xyz
x,y,z
-x,-y,z
1/2+x,1/2-y,-z
1/2-x,1/2+y,-z
-x,-y,-z
x,y,-z
1/2-x,1/2+y,z
1/2+x,1/2-y,z
loop_
_atom_site_type_symbol
_atom_site_label
_atom_site_fract_x
_atom_site_fract_y
_atom_site_fract_z
Si Si1 0.697354 0.460287 0.784040
Si Si2 0.843927 0.701072 0.791810
Si Si3 0.183304 0.450979 0.781770
Si Si4 0.258382 0.185564 0.781548
Si Si5 0.469048 0.712684 0.707404
Si Si6 0.046286 0.059508 0.708407
Si Si7 0.409433 0.197393 0.784237
Si Si8 0.062043 0.544990 0.217892
O O1 0.744550 0.522634 0.727976
O O2 0.731964 0.389099 0.727054
O O3 0.622523 0.461915 0.719940
O O4 0.695163 0.459910 0.000000
O O5 0.836280 0.624631 0.717685
O O6 0.792528 0.756638 0.717906
O O7 0.916874 0.732944 0.784117
O O8 0.826641 0.694539 0.000000
O O9 0.128883 0.506771 0.726973
O O10 0.181708 0.451149 0.000000
O O11 0.333318 0.200386 0.725912
O O12 0.258248 0.184600 0.000000
O O13 0.451106 0.708613 0.500000
O O14 0.461315 0.636282 0.785697
O O15 0.542493 0.742061 0.725557
O O16 0.027148 0.065988 0.500000
O O17 0.000000 0.000000 0.786584
O O18 0.438264 0.123821 0.724532
O O19 0.409482 0.197811 0.000000
O O20 0.000000 0.500000 0.276517
O O21 0.061103 0.545937 0.000000
#
# Coordination Sequence:
#
# PCOD9425290 Si02
#       8
#     8   8   8   8   8   8   8   8
#     4  10  18  34  59  86 114 140 177 232 282 330
#     4  10  19  34  57  83 110 145 184 225 281 339
#     4   9  17  29  51  84 113 138 177 226 274 327
#     4   9  17  31  54  82 110 139 176 225 277 328
#     4  11  23  38  55  79 112 148 190 235 275 326
#     4  10  23  42  60  78 107 150 193 231 279 335
#     4  10  19  33  55  80 110 146 180 221 277 335
#     4   9  15  25  45  74 104 138 178 213 252 315
#
# _framework density 21.635245000000001
#
# number of rings (size 3 to 8) (size 9 to 14) (size 15 to 20)
#    0.000    2.250    2.500    1.125    0.000    3.750 
#    0.000    3.125    0.000    3.375    0.000    0.000 
#    0.000    0.000    0.000    0.000    0.000    0.000 
#
# Total GULP energy -357502.725785 kJ/mol
# GULP energy per Si atom -5585.980090 kJ/mol
# Density = 2.158600 g / cm^3
# Si number density = 21.635245 Si / 1000 Ang^3
#
#
#
# Elastic Constant Matrix: (Units=GPa)
#
#
# Indices 1 2 3 4 5 6 
#
# 1 137.4217 57.1208 -15.5760 0.0000 0.0000 0.0000
# 2 57.1208 130.8402 2.3167 0.0000 0.0000 0.0000
# 3 -15.5760 2.3167 54.6905 0.0000 0.0000 0.0000
# 4 0.0000 0.0000 0.0000 -4.7243 0.0000 0.0000
# 5 0.0000 0.0000 0.0000 0.0000 31.8297 0.0000
# 6 0.0000 0.0000 0.0000 0.0000 0.0000 43.5369
#
#
#
# Elastic Compliance Matrix: (Units=1/GPa)
#
#
# Indices 1 2 3 4 5 6 
#
# 1 0.009307 -0.004113 0.002825 0.000000 0.000000 0.000000
# 2 -0.004113 0.009466 -0.001572 0.000000 0.000000 0.000000
# 3 0.002825 -0.001572 0.019156 0.000000 0.000000 0.000000
# 4 0.000000 0.000000 0.000000 -0.211672 0.000000 0.000000
# 5 0.000000 0.000000 0.000000 0.000000 0.031417 0.000000
# 6 0.000000 0.000000 0.000000 0.000000 0.000000 0.022969
#
#
# Mechanical properties :
#
#
# Convention : Reuss Voigt Hill
#
# Bulk Modulus (GPa) = 31.04852 45.63058 38.33955
# Shear Modulus (GPa) = -48.59113 32.73453 -7.92830
#
# Velocity S-wave (km/s) = -4.74426 3.89397 -1.91637
# Velocity P-wave (km/s) = 3.95330 6.43071 3.58646
#
# Compressibility (1/GPa) = 0.03220765
#
# Stress axis : x y z
#
# Youngs Moduli (GPa) = 107.44984 105.63712 52.20338
#
# Poissons Ratio (x) = 0.43449 -0.14746
# Poissons Ratio (y) = 0.44194 0.08208
# Poissons Ratio (z) = -0.30352 0.16610
#
# Static dielectric constant tensor:
#      x y z
#    x 1.733410 0.000000 0.000000 
#    y 0.000000 1.780630 0.000000 
#    z 0.000000 0.000000 1.860940 
# 
# From -- ./inp_files/8026.got.cif
#   From: 2010.05.17/outbox.cif.g08.bks.cpg/sg55_5_cif.got.tgz:8026.got - 2010.06.03 13:27:54.
