data_PCOD9425588
_publ_section_title
;
Structure prediction by ZEFSAII (Michael W. Deem and Ramdas Pophale) SiO2 
 PCOD9425588
Probable space group: P B A M
;
_chemical_formula_sum "Si O2"
_cell_formula_units_Z 64
_cell_length_a 19.580851
_cell_length_b 23.729410
_cell_length_c 8.704196
_cell_angle_alpha 90.000000
_cell_angle_beta 90.000000
_cell_angle_gamma 90.000000
_cell_volume 4044.335399
_symmetry_space_group_name_H-M "P B A M"
_symmetry_group_IT_number 55
_symmetry_cell_setting 'orthorhombic'
loop_
_space_group_symop_operation_xyz
x,y,z
-x,-y,z
1/2+x,1/2-y,-z
1/2-x,1/2+y,-z
-x,-y,-z
x,y,-z
1/2-x,1/2+y,z
1/2+x,1/2-y,z
loop_
_atom_site_type_symbol
_atom_site_label
_atom_site_fract_x
_atom_site_fract_y
_atom_site_fract_z
Si Si1 0.508086 0.384142 0.816169
Si Si2 0.863185 0.059191 0.815602
Si Si3 0.143261 0.722375 0.316463
Si Si4 0.504435 0.258411 0.684884
Si Si5 0.220528 0.830427 0.816271
Si Si6 0.733018 0.338376 0.817392
Si Si7 0.844240 0.729718 0.316043
Si Si8 0.853424 0.936170 0.317919
O O1 0.438574 0.417217 0.776706
O O2 0.501882 0.319547 0.763221
O O3 0.573566 0.412257 0.738206
O O4 0.516693 0.386149 0.000000
O O5 0.809404 0.108496 0.778005
O O6 0.848762 0.000890 0.732216
O O7 0.861775 0.050154 0.000000
O O8 0.150345 0.717389 0.500000
O O9 0.174424 0.782408 0.263424
O O10 0.190319 0.675728 0.236414
O O11 0.063486 0.723691 0.275217
O O12 0.503942 0.267144 0.500000
O O13 0.575962 0.228934 0.724511
O O14 0.297095 0.817705 0.760705
O O15 0.215815 0.822778 0.000000
O O16 0.686379 0.289417 0.741200
O O17 0.704098 0.397670 0.761057
O O18 0.727666 0.333535 0.000000
O O19 0.837054 0.726915 0.500000
O O20 0.848405 0.930153 0.500000
#
# Coordination Sequence:
#
# PCOD9425588 Si02
#       8
#     8   8   8   8   8   8   8   8
#     4  11  21  34  51  71 101 139 174 210 246 292
#     4  10  22  37  51  71 100 135 175 212 250 296
#     4  10  19  32  51  74 101 132 166 208 253 298
#     4  10  20  32  50  75 105 137 169 205 249 299
#     4  10  19  33  50  72  99 131 168 209 251 297
#     4  11  21  34  51  72  98 132 169 210 254 298
#     4  10  19  32  50  74 102 132 166 207 250 299
#     4  12  24  36  51  72  99 134 175 214 252 299
#
# _framework density 15.824602000000001
#
# number of rings (size 3 to 8) (size 9 to 14) (size 15 to 20)
#    0.000    1.500    2.500    5.625    0.000    4.500 
#    0.000    0.000    0.000    0.000    0.000    0.875 
#    0.000    7.000    0.000    0.000    0.000    0.000 
#
# Total GULP energy -357422.586663 kJ/mol
# GULP energy per Si atom -5584.727917 kJ/mol
# Density = 1.578858 g / cm^3
# Si number density = 15.824602 Si / 1000 Ang^3
#
#
#
# Elastic Constant Matrix: (Units=GPa)
#
#
# Indices 1 2 3 4 5 6 
#
# 1 103.0850 36.3310 25.4154 0.0000 0.0000 0.0000
# 2 36.3310 62.4378 21.8877 0.0000 0.0000 0.0000
# 3 25.4154 21.8877 44.2093 0.0000 0.0000 0.0000
# 4 0.0000 0.0000 0.0000 30.5102 0.0000 0.0000
# 5 0.0000 0.0000 0.0000 0.0000 16.2834 0.0000
# 6 0.0000 0.0000 0.0000 0.0000 0.0000 15.6611
#
#
#
# Elastic Compliance Matrix: (Units=1/GPa)
#
#
# Indices 1 2 3 4 5 6 
#
# 1 0.012896 -0.005935 -0.004475 0.000000 0.000000 0.000000
# 2 -0.005935 0.022111 -0.007535 0.000000 0.000000 0.000000
# 3 -0.004475 -0.007535 0.028923 0.000000 0.000000 0.000000
# 4 0.000000 0.000000 0.000000 0.032776 0.000000 0.000000
# 5 0.000000 0.000000 0.000000 0.000000 0.061412 0.000000
# 6 0.000000 0.000000 0.000000 0.000000 0.000000 0.063853
#
#
# Mechanical properties :
#
#
# Convention : Reuss Voigt Hill
#
# Bulk Modulus (GPa) = 35.66441 41.88893 38.77667
# Shear Modulus (GPa) = 18.71209 20.89747 19.80478
#
# Velocity S-wave (km/s) = 3.44243 3.63790 3.54152
# Velocity P-wave (km/s) = 6.19570 6.64635 6.42498
#
# Compressibility (1/GPa) = 0.02803915
#
# Stress axis : x y z
#
# Youngs Moduli (GPa) = 77.54472 45.22691 34.57454
#
# Poissons Ratio (x) = 0.26842 0.15473
# Poissons Ratio (y) = 0.46022 0.26052
# Poissons Ratio (z) = 0.34704 0.34078
#
# Static dielectric constant tensor:
#      x y z
#    x 1.542940 0.000000 0.000000 
#    y 0.000000 1.497600 0.000000 
#    z 0.000000 0.000000 1.530910 
# 
# From -- ./inp_files/9113.got.cif
#   From: 2010.05.17/outbox.cif.g08.bks.cpg/sg55_5_cif.got.tgz:9113.got - 2010.06.03 13:27:54.
