data_PCOD9425326
_publ_section_title
;
Structure prediction by ZEFSAII (Michael W. Deem and Ramdas Pophale) SiO2 
 PCOD9425326
Probable space group: P B A M
;
_chemical_formula_sum "Si O2"
_cell_formula_units_Z 26
_cell_length_a 33.689534
_cell_length_b 5.137817
_cell_length_c 7.212398
_cell_angle_alpha 90.000000
_cell_angle_beta 90.000000
_cell_angle_gamma 90.000000
_cell_volume 1248.398734
_symmetry_space_group_name_H-M "P B A M"
_symmetry_group_IT_number 55
_symmetry_cell_setting 'orthorhombic'
loop_
_space_group_symop_operation_xyz
x,y,z
-x,-y,z
1/2+x,1/2-y,-z
1/2-x,1/2+y,-z
-x,-y,-z
x,y,-z
1/2-x,1/2+y,z
1/2+x,1/2-y,z
loop_
_atom_site_type_symbol
_atom_site_label
_atom_site_fract_x
_atom_site_fract_y
_atom_site_fract_z
Si Si1 0.500000 0.500000 0.000000
Si Si2 0.844404 0.938706 0.000000
Si Si3 0.458601 0.840341 0.284811
Si Si4 0.275339 0.452077 0.720738
Si Si5 0.602546 0.937581 0.000000
O O1 0.468103 0.588670 0.162154
O O2 0.862588 0.651773 0.000000
O O3 0.815804 0.987580 0.825364
O O4 0.878964 0.152870 0.000000
O O5 0.450031 0.790955 0.500000
O O6 0.424943 0.002424 0.178517
O O7 0.500000 0.000000 0.268866
O O8 0.281390 0.462046 0.500000
O O9 0.243015 0.672703 0.769463
#
# Coordination Sequence:
#
# PCOD9425326 Si02
#       5
#     2   4   8   8   4
#     4  10  18  36  64  90 110 144 212 268 306 360
#     4  12  24  40  61  92 129 167 196 258 320 377
#     4  10  23  41  64  88 119 168 218 267 318 376
#     4  10  21  39  65  91 119 160 210 255 300 369
#     4  11  26  39  61  91 132 165 206 260 319 385
#
# _framework density 20.826681000000001
#
# number of rings (size 3 to 8) (size 9 to 14) (size 15 to 20)
#    0.000    1.538    0.000    5.077    8.615    2.462 
#    0.000    0.000    0.000    0.000    0.000    0.000 
#    0.000    0.000    0.000    0.000    0.000    0.000 
#
# Total GULP energy -144894.775367 kJ/mol
# GULP energy per Si atom -5572.875976 kJ/mol
# Density = 2.077928 g / cm^3
# Si number density = 20.826681 Si / 1000 Ang^3
#
#
#
# Elastic Constant Matrix: (Units=GPa)
#
#
# Indices 1 2 3 4 5 6 
#
# 1 65.2873 -7.2864 37.7170 0.0000 0.0000 0.0000
# 2 -7.2864 41.4361 -5.1989 0.0000 0.0000 0.0000
# 3 37.7170 -5.1989 148.6085 0.0000 0.0000 0.0000
# 4 0.0000 0.0000 0.0000 1.9708 0.0000 0.0000
# 5 0.0000 0.0000 0.0000 0.0000 -16.5743 0.0000
# 6 0.0000 0.0000 0.0000 0.0000 0.0000 45.0177
#
#
#
# Elastic Compliance Matrix: (Units=1/GPa)
#
#
# Indices 1 2 3 4 5 6 
#
# 1 0.018231 0.002637 -0.004535 0.000000 0.000000 0.000000
# 2 0.002637 0.024621 0.000192 0.000000 0.000000 0.000000
# 3 -0.004535 0.000192 0.007887 0.000000 0.000000 0.000000
# 4 0.000000 0.000000 0.000000 0.507410 0.000000 0.000000
# 5 0.000000 0.000000 0.000000 0.000000 -0.060334 0.000000
# 6 0.000000 0.000000 0.000000 0.000000 0.000000 0.022213
#
#
# Mechanical properties :
#
#
# Convention : Reuss Voigt Hill
#
# Bulk Modulus (GPa) = 21.12937 33.97725 27.55331
# Shear Modulus (GPa) = 9.27272 21.42285 15.34779
#
# Velocity S-wave (km/s) = 2.11234 3.21070 2.71759
# Velocity P-wave (km/s) = 4.01456 5.48584 4.80683
#
# Compressibility (1/GPa) = 0.04732749
#
# Stress axis : x y z
#
# Youngs Moduli (GPa) = 54.85164 40.61516 126.79497
#
# Poissons Ratio (x) = -0.10710 0.57499
# Poissons Ratio (y) = -0.14464 -0.02436
# Poissons Ratio (z) = 0.24874 -0.00780
#
# Static dielectric constant tensor:
#      x y z
#    x 1.713580 0.000000 0.000000 
#    y 0.000000 1.793070 0.000000 
#    z 0.000000 0.000000 1.729670 
# 
# From -- ./inp_files/10326.got.cif
#   From: 2010.05.17/outbox.cif.g08.bks.cpg/sg55_6_cif.got.tgz:10326.got - 2010.06.03 13:27:54.
