data_PCOD9425316
_publ_section_title
;
Structure prediction by ZEFSAII (Michael W. Deem and Ramdas Pophale) SiO2 
 PCOD9425316
Probable space group: P B A M
;
_chemical_formula_sum "Si O2"
_cell_formula_units_Z 48
_cell_length_a 19.574076
_cell_length_b 15.655761
_cell_length_c 8.231339
_cell_angle_alpha 90.000000
_cell_angle_beta 90.000000
_cell_angle_gamma 90.000000
_cell_volume 2522.469601
_symmetry_space_group_name_H-M "P B A M"
_symmetry_group_IT_number 55
_symmetry_cell_setting 'orthorhombic'
loop_
_space_group_symop_operation_xyz
x,y,z
-x,-y,z
1/2+x,1/2-y,-z
1/2-x,1/2+y,-z
-x,-y,-z
x,y,-z
1/2-x,1/2+y,z
1/2+x,1/2-y,z
loop_
_atom_site_type_symbol
_atom_site_label
_atom_site_fract_x
_atom_site_fract_y
_atom_site_fract_z
Si Si1 0.171679 0.375229 0.695927
Si Si2 0.924146 0.277003 0.303702
Si Si3 0.672704 0.625178 0.192230
Si Si4 0.923600 0.779367 0.698554
Si Si5 0.576145 0.970771 0.301532
Si Si6 0.076083 0.027196 0.696330
O O1 0.167633 0.375242 0.500000
O O2 0.250344 0.375002 0.743154
O O3 0.130921 0.291056 0.753156
O O4 0.131301 0.459631 0.753309
O O5 0.924792 0.277458 0.500000
O O6 0.868602 0.208582 0.249615
O O7 0.910632 0.373824 0.248101
O O8 0.999990 0.247835 0.251189
O O9 0.630956 0.542192 0.250141
O O10 0.674650 0.624930 0.000000
O O11 0.923299 0.779080 0.500000
O O12 0.909100 0.876161 0.751214
O O13 0.576837 0.970525 0.500000
O O14 0.500000 0.000000 0.253590
O O15 0.075036 0.027300 0.500000
O O16 0.000000 0.000000 0.751089
#
# Coordination Sequence:
#
# PCOD9425316 Si02
#       6
#     8   8   8   8   8   8
#     4  10  20  37  60  88 119 149 184 233 288 342
#     4  10  18  35  62  90 115 144 186 239 288 338
#     4  12  26  40  53  79 120 161 195 233 280 335
#     4   9  17  32  61  92 113 139 184 237 288 339
#     4   9  16  30  61  96 117 137 180 239 291 337
#     4  10  19  36  63  89 111 143 189 242 291 338
#
# _framework density 19.028970000000001
#
# number of rings (size 3 to 8) (size 9 to 14) (size 15 to 20)
#    0.000    2.000    3.333    1.500    0.000    1.667 
#    0.000    9.167    0.000    1.000    0.000    0.000 
#    0.000    0.000    0.000    0.000    0.000    0.000 
#
# Total GULP energy -268017.958448 kJ/mol
# GULP energy per Si atom -5583.707468 kJ/mol
# Density = 1.898566 g / cm^3
# Si number density = 19.028970 Si / 1000 Ang^3
#
#
#
# Elastic Constant Matrix: (Units=GPa)
#
#
# Indices 1 2 3 4 5 6 
#
# 1 189.9516 126.7097 11.1211 0.0000 0.0000 0.0000
# 2 126.7097 239.7595 21.6388 0.0000 0.0000 0.0000
# 3 11.1211 21.6388 9.8439 0.0000 0.0000 0.0000
# 4 0.0000 0.0000 0.0000 -10.9948 0.0000 0.0000
# 5 0.0000 0.0000 0.0000 0.0000 -29.1444 0.0000
# 6 0.0000 0.0000 0.0000 0.0000 0.0000 35.6175
#
#
#
# Elastic Compliance Matrix: (Units=1/GPa)
#
#
# Indices 1 2 3 4 5 6 
#
# 1 0.008132 -0.004327 0.000324 0.000000 0.000000 0.000000
# 2 -0.004327 0.007505 -0.011610 0.000000 0.000000 0.000000
# 3 0.000324 -0.011610 0.126740 0.000000 0.000000 0.000000
# 4 0.000000 0.000000 0.000000 -0.090952 0.000000 0.000000
# 5 0.000000 0.000000 0.000000 0.000000 -0.034312 0.000000
# 6 0.000000 0.000000 0.000000 0.000000 0.000000 0.028076
#
#
# Mechanical properties :
#
#
# Convention : Reuss Voigt Hill
#
# Bulk Modulus (GPa) = 8.99667 84.27713 46.63690
# Shear Modulus (GPa) = 44.06668 17.76802 30.91735
#
# Velocity S-wave (km/s) = 4.81746 3.05902 4.03519
# Velocity P-wave (km/s) = 5.97345 7.54068 6.80235
#
# Compressibility (1/GPa) = 0.11115219
#
# Stress axis : x y z
#
# Youngs Moduli (GPa) = 122.97463 133.23885 7.89017
#
# Poissons Ratio (x) = 0.57650 -0.00256
# Poissons Ratio (y) = 0.53209 0.09160
# Poissons Ratio (z) = -0.03988 1.54689
#
# Static dielectric constant tensor:
#      x y z
#    x 1.633740 0.000000 0.000000 
#    y 0.000000 1.665650 0.000000 
#    z 0.000000 0.000000 1.653940 
# 
# From -- ./inp_files/5622.got.cif
#   From: 2010.05.17/outbox.cif.g08.bks.cpg/sg55_3_cif.got.tgz:5622.got - 2010.06.03 13:27:54.
