data_PCOD9425616
_publ_section_title
;
Structure prediction by ZEFSAII (Michael W. Deem and Ramdas Pophale) SiO2 
 PCOD9425616
Probable space group: P B A M
;
_chemical_formula_sum "Si O2"
_cell_formula_units_Z 48
_cell_length_a 10.820769
_cell_length_b 18.899666
_cell_length_c 12.180464
_cell_angle_alpha 90.000000
_cell_angle_beta 90.000000
_cell_angle_gamma 90.000000
_cell_volume 2491.013537
_symmetry_space_group_name_H-M "P B A M"
_symmetry_group_IT_number 55
_symmetry_cell_setting 'orthorhombic'
loop_
_space_group_symop_operation_xyz
x,y,z
-x,-y,z
1/2+x,1/2-y,-z
1/2-x,1/2+y,-z
-x,-y,-z
x,y,-z
1/2-x,1/2+y,z
1/2+x,1/2-y,z
loop_
_atom_site_type_symbol
_atom_site_label
_atom_site_fract_x
_atom_site_fract_y
_atom_site_fract_z
Si Si1 0.597564 0.950389 0.375981
Si Si2 0.080246 0.775580 0.126461
Si Si3 0.506394 0.580246 0.777324
Si Si4 0.202581 0.145450 0.629431
Si Si5 0.256952 0.413210 0.624104
Si Si6 0.156610 0.284835 0.252017
O O1 0.547583 0.935944 0.500000
O O2 0.708648 0.006833 0.382845
O O3 0.500000 0.000000 0.314189
O O4 0.657795 0.877711 0.338760
O O5 0.036361 0.857637 0.137191
O O6 0.218562 0.773227 0.178503
O O7 0.971304 0.732076 0.189005
O O8 0.085680 0.753727 0.000000
O O9 0.500000 0.500000 0.819834
O O10 0.384598 0.601783 0.710775
O O11 0.614668 0.585578 0.687261
O O12 0.186587 0.129605 0.500000
O O13 0.171972 0.226502 0.652702
O O14 0.269987 0.386132 0.500000
O O15 0.166515 0.362006 0.693076
#
# Coordination Sequence:
#
# PCOD9425616 Si02
#       6
#     8   8   8   8   8   8
#     4   9  18  29  45  69 102 146 177 199 241 297
#     4  10  22  40  59  77 101 136 182 237 282 312
#     4  10  19  33  54  81 106 138 179 216 264 320
#     4  10  19  32  51  78 113 144 172 208 253 316
#     4  10  19  32  51  78 113 144 172 208 253 316
#     4  10  22  36  56  82 104 138 180 220 268 322
#
# _framework density 19.269265000000001
#
# number of rings (size 3 to 8) (size 9 to 14) (size 15 to 20)
#    0.000    2.167    1.667    1.500    2.333    1.000 
#    0.000    1.667    0.000    0.000    0.000    1.167 
#    0.000    0.000    0.000    0.000    0.000    0.000 
#
# Total GULP energy -267273.311372 kJ/mol
# GULP energy per Si atom -5568.193987 kJ/mol
# Density = 1.922541 g / cm^3
# Si number density = 19.269265 Si / 1000 Ang^3
#
#
#
# Elastic Constant Matrix: (Units=GPa)
#
#
# Indices 1 2 3 4 5 6 
#
# 1 53.6703 -12.4143 8.9287 0.0000 0.0000 0.0000
# 2 -12.4143 59.4594 -1.9272 0.0000 0.0000 0.0000
# 3 8.9287 -1.9272 48.3731 0.0000 0.0000 0.0000
# 4 0.0000 0.0000 0.0000 12.3851 0.0000 0.0000
# 5 0.0000 0.0000 0.0000 0.0000 14.9461 0.0000
# 6 0.0000 0.0000 0.0000 0.0000 0.0000 30.2392
#
#
#
# Elastic Compliance Matrix: (Units=1/GPa)
#
#
# Indices 1 2 3 4 5 6 
#
# 1 0.020172 0.004096 -0.003560 0.000000 0.000000 0.000000
# 2 0.004096 0.017672 -0.000052 0.000000 0.000000 0.000000
# 3 -0.003560 -0.000052 0.021328 0.000000 0.000000 0.000000
# 4 0.000000 0.000000 0.000000 0.080742 0.000000 0.000000
# 5 0.000000 0.000000 0.000000 0.000000 0.066907 0.000000
# 6 0.000000 0.000000 0.000000 0.000000 0.000000 0.033070
#
#
# Mechanical properties :
#
#
# Convention : Reuss Voigt Hill
#
# Bulk Modulus (GPa) = 16.62797 16.74190 16.68494
# Shear Modulus (GPa) = 19.30735 22.64179 20.97457
#
# Velocity S-wave (km/s) = 3.16884 3.43158 3.30282
# Velocity P-wave (km/s) = 4.69433 4.94047 4.81897
#
# Compressibility (1/GPa) = 0.06013964
#
# Stress axis : x y z
#
# Youngs Moduli (GPa) = 49.57353 56.58751 46.88742
#
# Poissons Ratio (x) = -0.23180 0.16693
# Poissons Ratio (y) = -0.20307 0.00244
# Poissons Ratio (z) = 0.17649 0.00294
#
# Static dielectric constant tensor:
#      x y z
#    x 1.730300 0.000000 0.000000 
#    y 0.000000 1.676710 0.000000 
#    z 0.000000 0.000000 1.631070 
# 
# From -- ./inp_files/13191.got.cif
#   From: 2010.05.17/outbox.cif.g08.bks.cpg/sg55_7_cif.got.tgz:13191.got - 2010.06.03 13:27:54.
