data_PCOD9425099
_publ_section_title
;
Structure prediction by ZEFSAII (Michael W. Deem and Ramdas Pophale) SiO2 
 PCOD9425099
Probable space group: P B A M
;
_chemical_formula_sum "Si O2"
_cell_formula_units_Z 32
_cell_length_a 14.490384
_cell_length_b 9.595810
_cell_length_c 9.856024
_cell_angle_alpha 90.000000
_cell_angle_beta 90.000000
_cell_angle_gamma 90.000000
_cell_volume 1370.450290
_symmetry_space_group_name_H-M "P B A M"
_symmetry_group_IT_number 55
_symmetry_cell_setting 'orthorhombic'
loop_
_space_group_symop_operation_xyz
x,y,z
-x,-y,z
1/2+x,1/2-y,-z
1/2-x,1/2+y,-z
-x,-y,-z
x,y,-z
1/2-x,1/2+y,z
1/2+x,1/2-y,z
loop_
_atom_site_type_symbol
_atom_site_label
_atom_site_fract_x
_atom_site_fract_y
_atom_site_fract_z
Si Si1 0.129935 0.728195 0.149893
Si Si2 0.598407 0.479295 0.252211
Si Si3 0.261601 0.861802 0.652977
Si Si4 0.577056 0.166167 0.156965
O O1 0.102605 0.893043 0.145766
O O2 0.206387 0.738527 0.266779
O O3 0.033104 0.651493 0.180388
O O4 0.163833 0.686635 0.000000
O O5 0.500000 0.500000 0.325223
O O6 0.685264 0.516057 0.344742
O O7 0.598362 0.329491 0.184571
O O8 0.287294 0.825638 0.500000
O O9 0.350077 0.904048 0.742163
O O10 0.595149 0.132360 0.000000
#
# Coordination Sequence:
#
# PCOD9425099 Si02
#       4
#     8   8   8   8
#     4   8  16  32  51  73  98 128 170 211 247 290
#     4   8  17  33  53  76  98 131 173 213 253 290
#     4  10  21  31  46  78 110 137 165 205 258 310
#     4  10  18  31  54  77 101 134 170 216 257 296
#
# _framework density 23.349989000000001
#
# number of rings (size 3 to 8) (size 9 to 14) (size 15 to 20)
#    1.500    1.500    0.000    1.500    0.000    5.500 
#    0.000    0.000    0.000    1.500    0.000    8.750 
#    0.000    0.000    0.000    0.000    0.000    0.000 
#
# Total GULP energy -178260.771342 kJ/mol
# GULP energy per Si atom -5570.649104 kJ/mol
# Density = 2.329684 g / cm^3
# Si number density = 23.349989 Si / 1000 Ang^3
#
#
#
# Elastic Constant Matrix: (Units=GPa)
#
#
# Indices 1 2 3 4 5 6 
#
# 1 152.4668 21.7051 106.0501 0.0000 0.0000 0.0000
# 2 21.7051 71.1095 4.9182 0.0000 0.0000 0.0000
# 3 106.0501 4.9182 173.9990 0.0000 0.0000 0.0000
# 4 0.0000 0.0000 0.0000 7.7445 0.0000 0.0000
# 5 0.0000 0.0000 0.0000 0.0000 -10.0826 0.0000
# 6 0.0000 0.0000 0.0000 0.0000 0.0000 46.5168
#
#
#
# Elastic Compliance Matrix: (Units=1/GPa)
#
#
# Indices 1 2 3 4 5 6 
#
# 1 0.012063 -0.003180 -0.007262 0.000000 0.000000 0.000000
# 2 -0.003180 0.014929 0.001516 0.000000 0.000000 0.000000
# 3 -0.007262 0.001516 0.010131 0.000000 0.000000 0.000000
# 4 0.000000 0.000000 0.000000 0.129125 0.000000 0.000000
# 5 0.000000 0.000000 0.000000 0.000000 -0.099181 0.000000
# 6 0.000000 0.000000 0.000000 0.000000 0.000000 0.021498
#
#
# Mechanical properties :
#
#
# Convention : Reuss Voigt Hill
#
# Bulk Modulus (GPa) = 51.89406 73.65801 62.77603
# Shear Modulus (GPa) = 44.31122 26.49587 35.40355
#
# Velocity S-wave (km/s) = 4.36098 3.37223 3.89808
# Velocity P-wave (km/s) = 6.90147 6.83931 6.87046
#
# Compressibility (1/GPa) = 0.01927003
#
# Stress axis : x y z
#
# Youngs Moduli (GPa) = 82.89947 66.98586 98.71131
#
# Poissons Ratio (x) = 0.21300 0.71687
# Poissons Ratio (y) = 0.26360 -0.14965
# Poissons Ratio (z) = 0.60204 -0.10155
#
# Static dielectric constant tensor:
#      x y z
#    x 1.921970 0.000000 0.000000 
#    y 0.000000 1.985230 0.000000 
#    z 0.000000 0.000000 1.818300 
# 
# From -- ./inp_files/5008.got.cif
#   From: 2010.05.17/outbox.cif.g08.bks.cpg/sg55_3_cif.got.tgz:5008.got - 2010.06.03 13:27:54.
