data_PCOD9425890
_publ_section_title
;
Structure prediction by ZEFSAII (Michael W. Deem and Ramdas Pophale) SiO2 
 PCOD9425890
Probable space group: P B A M
;
_chemical_formula_sum "Si O2"
_cell_formula_units_Z 52
_cell_length_a 17.605610
_cell_length_b 5.064377
_cell_length_c 27.313233
_cell_angle_alpha 90.000000
_cell_angle_beta 90.000000
_cell_angle_gamma 90.000000
_cell_volume 2435.287359
_symmetry_space_group_name_H-M "P B A M"
_symmetry_group_IT_number 55
_symmetry_cell_setting 'orthorhombic'
loop_
_space_group_symop_operation_xyz
x,y,z
-x,-y,z
1/2+x,1/2-y,-z
1/2-x,1/2+y,-z
-x,-y,-z
x,y,-z
1/2-x,1/2+y,z
1/2+x,1/2-y,z
loop_
_atom_site_type_symbol
_atom_site_label
_atom_site_fract_x
_atom_site_fract_y
_atom_site_fract_z
Si Si1 0.195619 0.657334 0.841093
Si Si2 0.303622 0.259411 0.556374
Si Si3 0.802393 0.441998 0.946927
Si Si4 0.591937 0.988016 0.750762
Si Si5 0.591590 0.481417 0.691734
Si Si6 0.586954 0.093766 0.604678
Si Si7 0.946563 0.752645 0.500000
O O1 0.237254 0.938800 0.837365
O O2 0.158817 0.618480 0.895180
O O3 0.134509 0.606466 0.799055
O O4 0.333569 0.250147 0.500000
O O5 0.242203 0.026212 0.561748
O O6 0.366699 0.174858 0.595368
O O7 0.731362 0.237125 0.946129
O O8 0.840961 0.401699 0.000000
O O9 0.614490 0.284150 0.735741
O O10 0.500000 0.000000 0.755487
O O11 0.613539 0.777715 0.707635
O O12 0.500000 0.500000 0.688088
O O13 0.613507 0.302603 0.644945
O O14 0.594147 0.237457 0.551872
O O15 0.500000 0.000000 0.613720
O O16 0.000000 0.500000 0.500000
O O17 0.000000 0.000000 0.500000
#
# Coordination Sequence:
#
# PCOD9425890 Si02
#       7
#     8   8   8   8   8   8   4
#     4  10  19  33  55  83 112 144 187 239 278 315
#     4  10  23  42  59  81 116 152 175 206 266 337
#     4   8  14  25  44  73 108 143 179 222 276 328
#     4  10  21  38  56  77 107 150 186 222 276 337
#     4  10  21  37  58  81 109 141 181 227 279 330
#     4  11  22  41  64  91 112 141 186 237 274 325
#     4  10  22  34  54  88 112 126 163 226 277 310
#
# _framework density 21.352715
#
# number of rings (size 3 to 8) (size 9 to 14) (size 15 to 20)
#    0.000    2.154    0.769    2.769    0.000    6.154 
#    0.000    4.615    0.000    0.462    0.000    0.000 
#    0.000   16.000    0.000    0.000    0.000    2.923 
#
# Total GULP energy -290305.424368 kJ/mol
# GULP energy per Si atom -5582.796622 kJ/mol
# Density = 2.130411 g / cm^3
# Si number density = 21.352715 Si / 1000 Ang^3
#
#
#
# Elastic Constant Matrix: (Units=GPa)
#
#
# Indices 1 2 3 4 5 6 
#
# 1 50.4091 15.7800 21.6547 0.0000 0.0000 0.0000
# 2 15.7800 116.2244 5.2737 0.0000 0.0000 0.0000
# 3 21.6547 5.2737 142.3661 0.0000 0.0000 0.0000
# 4 0.0000 0.0000 0.0000 28.0675 0.0000 0.0000
# 5 0.0000 0.0000 0.0000 0.0000 18.9846 0.0000
# 6 0.0000 0.0000 0.0000 0.0000 0.0000 23.5636
#
#
#
# Elastic Compliance Matrix: (Units=1/GPa)
#
#
# Indices 1 2 3 4 5 6 
#
# 1 0.022133 -0.002857 -0.003261 0.000000 0.000000 0.000000
# 2 -0.002857 0.008987 0.000102 0.000000 0.000000 0.000000
# 3 -0.003261 0.000102 0.007516 0.000000 0.000000 0.000000
# 4 0.000000 0.000000 0.000000 0.035628 0.000000 0.000000
# 5 0.000000 0.000000 0.000000 0.000000 0.052674 0.000000
# 6 0.000000 0.000000 0.000000 0.000000 0.000000 0.042438
#
#
# Mechanical properties :
#
#
# Convention : Reuss Voigt Hill
#
# Bulk Modulus (GPa) = 37.58793 43.82405 40.70599
# Shear Modulus (GPa) = 26.27739 31.87589 29.07664
#
# Velocity S-wave (km/s) = 3.51185 3.86790 3.69417
# Velocity P-wave (km/s) = 5.83829 6.36522 6.10744
#
# Compressibility (1/GPa) = 0.02660429
#
# Stress axis : x y z
#
# Youngs Moduli (GPa) = 45.18182 111.26761 133.04328
#
# Poissons Ratio (x) = 0.31790 0.43381
# Poissons Ratio (y) = 0.12909 -0.01352
# Poissons Ratio (z) = 0.14732 -0.01131
#
# Static dielectric constant tensor:
#      x y z
#    x 1.764950 0.000000 0.000000 
#    y 0.000000 1.804660 0.000000 
#    z 0.000000 0.000000 1.891390 
# 
# From -- ./inp_files/24002.got.cif
#   From: 2010.05.17/outbox.cif.g08.bks.cpg/sg55_13_cif.got.tgz:24002.got - 2010.06.03 13:27:54.
