data_PCOD9425422
_publ_section_title
;
Structure prediction by ZEFSAII (Michael W. Deem and Ramdas Pophale) SiO2 
 PCOD9425422
Probable space group: P B A M
;
_chemical_formula_sum "Si O2"
_cell_formula_units_Z 64
_cell_length_a 15.090709
_cell_length_b 18.355231
_cell_length_c 12.647218
_cell_angle_alpha 90.000000
_cell_angle_beta 90.000000
_cell_angle_gamma 90.000000
_cell_volume 3503.196542
_symmetry_space_group_name_H-M "P B A M"
_symmetry_group_IT_number 55
_symmetry_cell_setting 'orthorhombic'
loop_
_space_group_symop_operation_xyz
x,y,z
-x,-y,z
1/2+x,1/2-y,-z
1/2-x,1/2+y,-z
-x,-y,-z
x,y,-z
1/2-x,1/2+y,z
1/2+x,1/2-y,z
loop_
_atom_site_type_symbol
_atom_site_label
_atom_site_fract_x
_atom_site_fract_y
_atom_site_fract_z
Si Si1 0.617593 0.408537 0.122537
Si Si2 0.288875 0.032867 0.779388
Si Si3 0.984971 0.284560 0.734475
Si Si4 0.435260 0.351313 0.122097
Si Si5 0.268551 0.884098 0.123285
Si Si6 0.038684 0.578346 0.877713
Si Si7 0.682499 0.844308 0.623364
Si Si8 0.828211 0.763640 0.232935
O O1 0.686660 0.453041 0.192288
O O2 0.513290 0.408511 0.148126
O O3 0.644765 0.325020 0.147584
O O4 0.630050 0.427882 0.000000
O O5 0.355205 0.074340 0.860191
O O6 0.311649 0.073184 0.669933
O O7 0.304580 0.948184 0.801891
O O8 0.082573 0.257394 0.703132
O O9 0.943026 0.218346 0.802188
O O10 0.996395 0.354306 0.810778
O O11 0.914362 0.310727 0.647855
O O12 0.338190 0.384797 0.126539
O O13 0.451433 0.328208 0.000000
O O14 0.296233 0.806508 0.169176
O O15 0.295523 0.894560 0.000000
O O16 0.000000 0.500000 0.843228
O O17 0.017464 0.588136 0.000000
O O18 0.702033 0.842234 0.500000
O O19 0.753214 0.797806 0.691902
#
# Coordination Sequence:
#
# PCOD9425422 Si02
#       8
#     8   8   8   8   8   8   8   8
#     4   9  17  31  49  76 110 150 186 213 261 330
#     4  10  21  34  51  75 107 148 187 227 268 322
#     4  10  19  34  55  79 107 140 178 227 276 325
#     4   9  18  30  49  79 113 145 177 216 267 326
#     4  11  20  32  53  85 120 148 175 213 267 332
#     4  10  19  30  48  77 114 151 181 210 260 332
#     4  10  22  41  59  76 101 140 190 239 280 317
#     4  10  20  34  56  83 110 141 178 227 276 329
#
# _framework density 18.269030000000001
#
# number of rings (size 3 to 8) (size 9 to 14) (size 15 to 20)
#    0.000    2.125    1.250    2.625    0.000    3.500 
#    0.000    2.500    0.000   12.750    0.000    2.625 
#    0.000    0.000    0.000    0.000    0.000    0.000 
#
# Total GULP energy -356938.121746 kJ/mol
# GULP energy per Si atom -5577.158152 kJ/mol
# Density = 1.822745 g / cm^3
# Si number density = 18.269030 Si / 1000 Ang^3
#
#
#
# Elastic Constant Matrix: (Units=GPa)
#
#
# Indices 1 2 3 4 5 6 
#
# 1 79.3419 -2.6875 11.7217 0.0000 0.0000 0.0000
# 2 -2.6875 74.5789 16.1806 0.0000 0.0000 0.0000
# 3 11.7217 16.1806 52.8848 0.0000 0.0000 0.0000
# 4 0.0000 0.0000 0.0000 13.8359 0.0000 0.0000
# 5 0.0000 0.0000 0.0000 0.0000 8.2875 0.0000
# 6 0.0000 0.0000 0.0000 0.0000 0.0000 19.2308
#
#
#
# Elastic Compliance Matrix: (Units=1/GPa)
#
#
# Indices 1 2 3 4 5 6 
#
# 1 0.013127 0.001183 -0.003271 0.000000 0.000000 0.000000
# 2 0.001183 0.014469 -0.004689 0.000000 0.000000 0.000000
# 3 -0.003271 -0.004689 0.021069 0.000000 0.000000 0.000000
# 4 0.000000 0.000000 0.000000 0.072276 0.000000 0.000000
# 5 0.000000 0.000000 0.000000 0.000000 0.120663 0.000000
# 6 0.000000 0.000000 0.000000 0.000000 0.000000 0.052000
#
#
# Mechanical properties :
#
#
# Convention : Reuss Voigt Hill
#
# Bulk Modulus (GPa) = 28.48258 28.58170 28.53214
# Shear Modulus (GPa) = 15.68079 20.37690 18.02885
#
# Velocity S-wave (km/s) = 2.93290 3.34335 3.14483
# Velocity P-wave (km/s) = 5.20516 5.53018 5.37013
#
# Compressibility (1/GPa) = 0.03510918
#
# Stress axis : x y z
#
# Youngs Moduli (GPa) = 76.17850 69.11533 47.46357
#
# Poissons Ratio (x) = -0.08175 0.15528
# Poissons Ratio (y) = -0.09011 0.22256
# Poissons Ratio (z) = 0.24922 0.32408
#
# Static dielectric constant tensor:
#      x y z
#    x 1.697780 0.000000 0.000000 
#    y 0.000000 1.645350 0.000000 
#    z 0.000000 0.000000 1.573330 
# 
# From -- ./inp_files/14409.got.cif
#   From: 2010.05.17/outbox.cif.g08.bks.cpg/sg55_8_cif.got.tgz:14409.got - 2010.06.03 13:27:54.
