data_PCOD9425474
_publ_section_title
;
Structure prediction by ZEFSAII (Michael W. Deem and Ramdas Pophale) SiO2 
 PCOD9425474
Probable space group: P B A M
;
_chemical_formula_sum "Si O2"
_cell_formula_units_Z 64
_cell_length_a 18.748345
_cell_length_b 22.767266
_cell_length_c 7.650617
_cell_angle_alpha 90.000000
_cell_angle_beta 90.000000
_cell_angle_gamma 90.000000
_cell_volume 3265.654832
_symmetry_space_group_name_H-M "P B A M"
_symmetry_group_IT_number 55
_symmetry_cell_setting 'orthorhombic'
loop_
_space_group_symop_operation_xyz
x,y,z
-x,-y,z
1/2+x,1/2-y,-z
1/2-x,1/2+y,-z
-x,-y,-z
x,y,-z
1/2-x,1/2+y,z
1/2+x,1/2-y,z
loop_
_atom_site_type_symbol
_atom_site_label
_atom_site_fract_x
_atom_site_fract_y
_atom_site_fract_z
Si Si1 0.131449 0.234595 0.298143
Si Si2 0.420300 0.983491 0.288566
Si Si3 0.314805 0.088649 0.794470
Si Si4 0.076067 0.352307 0.711635
Si Si5 0.584377 0.809609 0.208965
Si Si6 0.026624 0.809937 0.213874
Si Si7 0.009758 0.064525 0.797685
Si Si8 0.161476 0.111778 0.295865
O O1 0.153761 0.240936 0.500000
O O2 0.126364 0.299689 0.220118
O O3 0.049425 0.212557 0.285060
O O4 0.172317 0.178313 0.223078
O O5 0.420850 0.983236 0.500000
O O6 0.365061 0.032674 0.231734
O O7 0.500000 0.000000 0.229635
O O8 0.404441 0.917340 0.228348
O O9 0.356061 0.145976 0.720041
O O10 0.236500 0.079858 0.718149
O O11 0.304977 0.097552 0.000000
O O12 0.079744 0.351096 0.500000
O O13 0.993794 0.337555 0.756267
O O14 0.581342 0.741477 0.268348
O O15 0.592857 0.807937 0.000000
O O16 0.031956 0.877772 0.272348
O O17 0.022699 0.809832 0.000000
O O18 0.093484 0.081451 0.791186
O O19 0.987028 0.059850 0.000000
O O20 0.000000 0.000000 0.716614
O O21 0.142187 0.117075 0.500000
#
# Coordination Sequence:
#
# PCOD9425474 Si02
#       8
#     8   8   8   8   8   8   8   8
#     4   8  15  28  47  70  91 117 153 197 241 283
#     4  10  19  31  48  73 102 135 171 204 246 297
#     4  11  22  33  48  69  98 135 172 210 252 298
#     4   9  16  28  48  71  96 124 158 201 242 287
#     4   9  17  28  44  68  95 125 159 200 243 283
#     4   8  14  26  45  70  96 120 150 191 238 287
#     4   9  17  31  54  80 102 129 162 203 253 304
#     4  10  20  34  52  73  98 129 167 209 254 303
#
# _framework density 19.597908
#
# number of rings (size 3 to 8) (size 9 to 14) (size 15 to 20)
#    0.000    2.750    1.250    0.750    0.000    2.000 
#    0.000    0.000    2.750    0.000    0.000    0.000 
#    0.000    0.000    0.000    0.000    0.000    0.000 
#
# Total GULP energy -356375.151192 kJ/mol
# GULP energy per Si atom -5568.361737 kJ/mol
# Density = 1.955330 g / cm^3
# Si number density = 19.597908 Si / 1000 Ang^3
#
#
#
# Elastic Constant Matrix: (Units=GPa)
#
#
# Indices 1 2 3 4 5 6 
#
# 1 42.2052 31.0650 -4.9022 0.0000 0.0000 0.0000
# 2 31.0650 170.0555 5.3636 0.0000 0.0000 0.0000
# 3 -4.9022 5.3636 42.5090 0.0000 0.0000 0.0000
# 4 0.0000 0.0000 0.0000 -13.0405 0.0000 0.0000
# 5 0.0000 0.0000 0.0000 0.0000 13.6734 0.0000
# 6 0.0000 0.0000 0.0000 0.0000 0.0000 24.8904
#
#
#
# Elastic Compliance Matrix: (Units=1/GPa)
#
#
# Indices 1 2 3 4 5 6 
#
# 1 0.028001 -0.005238 0.003890 0.000000 0.000000 0.000000
# 2 -0.005238 0.006884 -0.001473 0.000000 0.000000 0.000000
# 3 0.003890 -0.001473 0.024159 0.000000 0.000000 0.000000
# 4 0.000000 0.000000 0.000000 -0.076684 0.000000 0.000000
# 5 0.000000 0.000000 0.000000 0.000000 0.073135 0.000000
# 6 0.000000 0.000000 0.000000 0.000000 0.000000 0.040176
#
#
# Mechanical properties :
#
#
# Convention : Reuss Voigt Hill
#
# Bulk Modulus (GPa) = 18.72571 35.31365 27.01968
# Shear Modulus (GPa) = 41.97745 19.98755 30.98250
#
# Velocity S-wave (km/s) = 4.63313 3.19702 3.98038
# Velocity P-wave (km/s) = 6.18036 5.62905 5.91113
#
# Compressibility (1/GPa) = 0.05340253
#
# Stress axis : x y z
#
# Youngs Moduli (GPa) = 35.71327 145.27090 41.39276
#
# Poissons Ratio (x) = 0.76089 -0.16102
# Poissons Ratio (y) = 0.18706 0.06095
# Poissons Ratio (z) = -0.13892 0.21392
#
# Static dielectric constant tensor:
#      x y z
#    x 1.652280 0.000000 0.000000 
#    y 0.000000 1.784240 0.000000 
#    z 0.000000 0.000000 1.744540 
# 
# From -- ./inp_files/9168.got.cif
#   From: 2010.05.17/outbox.cif.g08.bks.cpg/sg55_5_cif.got.tgz:9168.got - 2010.06.03 13:27:54.
