data_PCOD9425500
_publ_section_title
;
Structure prediction by ZEFSAII (Michael W. Deem and Ramdas Pophale) SiO2 
 PCOD9425500
Probable space group: P B A M
;
_chemical_formula_sum "Si O2"
_cell_formula_units_Z 48
_cell_length_a 24.452197
_cell_length_b 14.107598
_cell_length_c 8.787174
_cell_angle_alpha 90.000000
_cell_angle_beta 90.000000
_cell_angle_gamma 90.000000
_cell_volume 3031.239057
_symmetry_space_group_name_H-M "P B A M"
_symmetry_group_IT_number 55
_symmetry_cell_setting 'orthorhombic'
loop_
_space_group_symop_operation_xyz
x,y,z
-x,-y,z
1/2+x,1/2-y,-z
1/2-x,1/2+y,-z
-x,-y,-z
x,y,-z
1/2-x,1/2+y,z
1/2+x,1/2-y,z
loop_
_atom_site_type_symbol
_atom_site_label
_atom_site_fract_x
_atom_site_fract_y
_atom_site_fract_z
Si Si1 0.725188 0.393506 0.318204
Si Si2 0.166035 0.723972 0.683435
Si Si3 0.164848 0.281581 0.817946
Si Si4 0.226773 0.898316 0.818038
Si Si5 0.436900 0.889570 0.684067
Si Si6 0.061386 0.608492 0.315123
O O1 0.720419 0.396296 0.500000
O O2 0.784813 0.349237 0.280118
O O3 0.681509 0.319709 0.250849
O O4 0.720057 0.498093 0.251496
O O5 0.164837 0.734591 0.500000
O O6 0.182294 0.823566 0.757064
O O7 0.108821 0.679165 0.736020
O O8 0.214171 0.353610 0.774281
O O9 0.108344 0.322351 0.755421
O O10 0.163623 0.275316 0.000000
O O11 0.224319 0.903127 0.000000
O O12 0.433619 0.884569 0.500000
O O13 0.499406 0.866747 0.730058
O O14 0.426914 0.999494 0.729135
O O15 0.061985 0.608898 0.500000
#
# Coordination Sequence:
#
# PCOD9425500 Si02
#       6
#     8   8   8   8   8   8
#     4  10  19  31  50  72  92 120 158 195 229 272
#     4   9  17  30  48  70  94 121 155 190 227 274
#     4  10  20  32  46  68  99 129 154 186 231 278
#     4  10  20  32  46  67  96 126 153 187 233 277
#     4   9  16  29  49  71  95 124 158 192 229 272
#     4   8  15  28  48  72  96 122 153 194 235 269
#
# _framework density 15.835107000000001
#
# number of rings (size 3 to 8) (size 9 to 14) (size 15 to 20)
#    0.000    2.667    0.000    3.500    0.000    4.000 
#    0.000    3.333    0.000    1.000    0.000    7.000 
#    0.000    0.000    0.000    0.000    0.000    0.000 
#
# Total GULP energy -267655.022535 kJ/mol
# GULP energy per Si atom -5576.146303 kJ/mol
# Density = 1.579907 g / cm^3
# Si number density = 15.835107 Si / 1000 Ang^3
#
#
#
# Elastic Constant Matrix: (Units=GPa)
#
#
# Indices 1 2 3 4 5 6 
#
# 1 121.3279 91.1396 37.5861 0.0000 0.0000 0.0000
# 2 91.1396 158.4998 47.3213 0.0000 0.0000 0.0000
# 3 37.5861 47.3213 30.5304 0.0000 0.0000 0.0000
# 4 0.0000 0.0000 0.0000 15.9229 0.0000 0.0000
# 5 0.0000 0.0000 0.0000 0.0000 17.1915 0.0000
# 6 0.0000 0.0000 0.0000 0.0000 0.0000 25.6975
#
#
#
# Elastic Compliance Matrix: (Units=1/GPa)
#
#
# Indices 1 2 3 4 5 6 
#
# 1 0.016036 -0.006193 -0.010144 0.000000 0.000000 0.000000
# 2 -0.006193 0.014135 -0.014285 0.000000 0.000000 0.000000
# 3 -0.010144 -0.014285 0.067384 0.000000 0.000000 0.000000
# 4 0.000000 0.000000 0.000000 0.062803 0.000000 0.000000
# 5 0.000000 0.000000 0.000000 0.000000 0.058168 0.000000
# 6 0.000000 0.000000 0.000000 0.000000 0.000000 0.038914
#
#
# Mechanical properties :
#
#
# Convention : Reuss Voigt Hill
#
# Bulk Modulus (GPa) = 27.53914 73.60578 50.57246
# Shear Modulus (GPa) = 15.11541 20.71645 17.91593
#
# Velocity S-wave (km/s) = 3.09293 3.62091 3.36729
# Velocity P-wave (km/s) = 5.49399 8.00406 6.86472
#
# Compressibility (1/GPa) = 0.03631195
#
# Stress axis : x y z
#
# Youngs Moduli (GPa) = 62.35789 70.74715 14.84028
#
# Poissons Ratio (x) = 0.43811 0.15054
# Poissons Ratio (y) = 0.38615 0.21199
# Poissons Ratio (z) = 0.63257 1.01062
#
# Static dielectric constant tensor:
#      x y z
#    x 1.525370 0.000000 0.000000 
#    y 0.000000 1.500500 0.000000 
#    z 0.000000 0.000000 1.526930 
# 
# From -- ./inp_files/4027.got.cif
#   From: 2010.05.17/outbox.cif.g08.bks.cpg/sg55_3_cif.got.tgz:4027.got - 2010.06.03 13:27:54.
