data_PCOD9425076
_publ_section_title
;
Structure prediction by ZEFSAII (Michael W. Deem and Ramdas Pophale) SiO2 
 PCOD9425076
Probable space group: P B A M
;
_chemical_formula_sum "Si O2"
_cell_formula_units_Z 64
_cell_length_a 11.748723
_cell_length_b 30.435744
_cell_length_c 7.333005
_cell_angle_alpha 90.000000
_cell_angle_beta 90.000000
_cell_angle_gamma 90.000000
_cell_volume 2622.144182
_symmetry_space_group_name_H-M "P B A M"
_symmetry_group_IT_number 55
_symmetry_cell_setting 'orthorhombic'
loop_
_space_group_symop_operation_xyz
x,y,z
-x,-y,z
1/2+x,1/2-y,-z
1/2-x,1/2+y,-z
-x,-y,-z
x,y,-z
1/2-x,1/2+y,z
1/2+x,1/2-y,z
loop_
_atom_site_type_symbol
_atom_site_label
_atom_site_fract_x
_atom_site_fract_y
_atom_site_fract_z
Si Si1 0.347907 0.760079 0.222887
Si Si2 0.629560 0.866339 0.721265
Si Si3 0.302151 0.858837 0.789223
Si Si4 0.959909 0.562400 0.296202
Si Si5 0.597714 0.767566 0.791691
Si Si6 0.659170 0.414690 0.277929
Si Si7 0.402674 0.412011 0.280440
Si Si8 0.241665 0.491855 0.277410
O O1 0.331789 0.810914 0.277064
O O2 0.226698 0.739049 0.284368
O O3 0.477666 0.747922 0.283704
O O4 0.350892 0.756997 0.000000
O O5 0.619704 0.865449 0.500000
O O6 0.562547 0.909829 0.786909
O O7 0.582621 0.820405 0.790271
O O8 0.759990 0.874458 0.773662
O O9 0.366146 0.898430 0.690988
O O10 0.169158 0.869519 0.773785
O O11 0.335636 0.862031 0.000000
O O12 0.997502 0.549729 0.500000
O O13 0.884531 0.522943 0.216113
O O14 0.604782 0.751509 0.000000
O O15 0.657621 0.415581 0.500000
O O16 0.530814 0.411543 0.213732
O O17 0.715379 0.460675 0.221353
O O18 0.405509 0.413906 0.500000
O O19 0.332616 0.454990 0.218811
O O20 0.238161 0.490944 0.500000
#
# Coordination Sequence:
#
# PCOD9425076 Si02
#       8
#     8   8   8   8   8   8   8   8
#     4   9  19  34  56  79  99 127 170 212 251 304
#     4  10  20  33  50  76 106 135 166 208 257 305
#     4  10  18  31  52  77  98 126 168 209 253 305
#     4   9  17  30  50  74 100 130 169 209 248 297
#     4  10  20  38  58  77 101 135 172 213 259 310
#     4   9  17  29  47  72 105 137 170 211 253 298
#     4   9  17  30  49  74 102 136 172 210 254 303
#     4   8  14  26  47  73  97 132 176 213 248 292
#
# _framework density 24.407505
#
# number of rings (size 3 to 8) (size 9 to 14) (size 15 to 20)
#    0.000    2.750    1.250    1.500    0.000    3.000 
#    0.000    6.250    0.000    9.000    0.000    4.375 
#    0.000    0.000    0.000    0.000    0.000    0.000 
#
# Total GULP energy -357211.404074 kJ/mol
# GULP energy per Si atom -5581.428189 kJ/mol
# Density = 2.435195 g / cm^3
# Si number density = 24.407505 Si / 1000 Ang^3
#
#
#
# Elastic Constant Matrix: (Units=GPa)
#
#
# Indices 1 2 3 4 5 6 
#
# 1 222.9544 38.3389 1.2231 0.0000 0.0000 0.0000
# 2 38.3389 36.1988 -3.9989 0.0000 0.0000 0.0000
# 3 1.2231 -3.9989 97.7263 0.0000 0.0000 0.0000
# 4 0.0000 0.0000 0.0000 11.5122 0.0000 0.0000
# 5 0.0000 0.0000 0.0000 0.0000 -3.2832 0.0000
# 6 0.0000 0.0000 0.0000 0.0000 0.0000 32.9156
#
#
#
# Elastic Compliance Matrix: (Units=1/GPa)
#
#
# Indices 1 2 3 4 5 6 
#
# 1 0.005493 -0.005852 -0.000308 0.000000 0.000000 0.000000
# 2 -0.005852 0.033985 0.001464 0.000000 0.000000 0.000000
# 3 -0.000308 0.001464 0.010296 0.000000 0.000000 0.000000
# 4 0.000000 0.000000 0.000000 0.086864 0.000000 0.000000
# 5 0.000000 0.000000 0.000000 0.000000 -0.304579 0.000000
# 6 0.000000 0.000000 0.000000 0.000000 0.000000 0.030381
#
#
# Mechanical properties :
#
#
# Convention : Reuss Voigt Hill
#
# Bulk Modulus (GPa) = 24.76362 47.55618 36.15990
# Shear Modulus (GPa) = -43.58937 29.65002 -6.96968
#
# Velocity S-wave (km/s) = -4.23058 3.48917 -1.69167
# Velocity P-wave (km/s) = 3.70078 5.97988 3.32138
#
# Compressibility (1/GPa) = 0.04038182
#
# Stress axis : x y z
#
# Youngs Moduli (GPa) = 182.04265 29.42484 97.12120
#
# Poissons Ratio (x) = 0.17219 0.02993
# Poissons Ratio (y) = 1.06532 -0.14217
# Poissons Ratio (z) = 0.05611 -0.04307
#
# Static dielectric constant tensor:
#      x y z
#    x 1.998450 0.000000 0.000000 
#    y 0.000000 1.881300 0.000000 
#    z 0.000000 0.000000 1.974550 
# 
# From -- ./inp_files/4549.got.cif
#   From: 2010.05.17/outbox.cif.g08.bks.cpg/sg55_3_cif.got.tgz:4549.got - 2010.06.03 13:27:54.
