data_PCOD9425718
_publ_section_title
;
Structure prediction by ZEFSAII (Michael W. Deem and Ramdas Pophale) SiO2 
 PCOD9425718
Probable space group: P B A M
;
_chemical_formula_sum "Si O2"
_cell_formula_units_Z 64
_cell_length_a 20.015966
_cell_length_b 20.830306
_cell_length_c 9.053375
_cell_angle_alpha 90.000000
_cell_angle_beta 90.000000
_cell_angle_gamma 90.000000
_cell_volume 3774.702373
_symmetry_space_group_name_H-M "P B A M"
_symmetry_group_IT_number 55
_symmetry_cell_setting 'orthorhombic'
loop_
_space_group_symop_operation_xyz
x,y,z
-x,-y,z
1/2+x,1/2-y,-z
1/2-x,1/2+y,-z
-x,-y,-z
x,y,-z
1/2-x,1/2+y,z
1/2+x,1/2-y,z
loop_
_atom_site_type_symbol
_atom_site_label
_atom_site_fract_x
_atom_site_fract_y
_atom_site_fract_z
Si Si1 0.940555 0.230534 0.824793
Si Si2 0.297240 0.080362 0.676542
Si Si3 0.433709 0.115466 0.174176
Si Si4 0.216634 0.435382 0.322886
Si Si5 0.428045 0.885776 0.325453
Si Si6 0.214236 0.194677 0.822886
Si Si7 0.578724 0.268339 0.326420
Si Si8 0.297686 0.322326 0.177675
O O1 0.928778 0.307057 0.804877
O O2 0.873800 0.193288 0.778708
O O3 0.006615 0.212010 0.736040
O O4 0.951467 0.220713 0.000000
O O5 0.297857 0.088968 0.500000
O O6 0.372572 0.084962 0.737692
O O7 0.253839 0.135532 0.752580
O O8 0.269435 0.009531 0.710411
O O9 0.505897 0.095361 0.236222
O O10 0.428228 0.102371 0.000000
O O11 0.219048 0.426418 0.500000
O O12 0.140346 0.419369 0.277056
O O13 0.266471 0.385430 0.248480
O O14 0.438815 0.898158 0.500000
O O15 0.417643 0.809082 0.306989
O O16 0.139489 0.200179 0.761453
O O17 0.252684 0.260570 0.781839
O O18 0.214809 0.189415 0.000000
O O19 0.584481 0.282021 0.500000
O O20 0.296082 0.327601 0.000000
#
# Coordination Sequence:
#
# PCOD9425718 Si02
#       8
#     8   8   8   8   8   8   8   8
#     4   9  18  34  53  79 111 141 176 222 271 321
#     4  11  23  37  54  77 109 148 185 224 271 322
#     4  10  19  33  52  76 109 145 184 225 265 317
#     4  10  22  38  54  77 110 146 183 225 272 321
#     4   9  18  33  51  75 108 145 184 221 263 320
#     4  11  21  36  57  82 110 143 181 226 273 319
#     4  10  19  32  54  84 110 140 180 222 270 322
#     4  10  20  35  57  82 107 140 181 224 272 321
#
# _framework density 16.954979000000002
#
# number of rings (size 3 to 8) (size 9 to 14) (size 15 to 20)
#    0.000    2.000    2.500    1.500    0.000    4.000 
#    0.000    2.500    0.000    0.750    0.000    5.250 
#    0.000    0.000    0.000    0.000    0.000    0.000 
#
# Total GULP energy -357331.912834 kJ/mol
# GULP energy per Si atom -5583.311138 kJ/mol
# Density = 1.691639 g / cm^3
# Si number density = 16.954979 Si / 1000 Ang^3
#
#
#
# Elastic Constant Matrix: (Units=GPa)
#
#
# Indices 1 2 3 4 5 6 
#
# 1 81.1558 16.8687 25.7629 0.0000 0.0000 0.0000
# 2 16.8687 40.0324 25.0908 0.0000 0.0000 0.0000
# 3 25.7629 25.0908 40.9415 0.0000 0.0000 0.0000
# 4 0.0000 0.0000 0.0000 21.8118 0.0000 0.0000
# 5 0.0000 0.0000 0.0000 0.0000 33.6050 0.0000
# 6 0.0000 0.0000 0.0000 0.0000 0.0000 17.8621
#
#
#
# Elastic Compliance Matrix: (Units=1/GPa)
#
#
# Indices 1 2 3 4 5 6 
#
# 1 0.015409 -0.000675 -0.009283 0.000000 0.000000 0.000000
# 2 -0.000675 0.040588 -0.024450 0.000000 0.000000 0.000000
# 3 -0.009283 -0.024450 0.045250 0.000000 0.000000 0.000000
# 4 0.000000 0.000000 0.000000 0.045847 0.000000 0.000000
# 5 0.000000 0.000000 0.000000 0.000000 0.029757 0.000000
# 6 0.000000 0.000000 0.000000 0.000000 0.000000 0.055985
#
#
# Mechanical properties :
#
#
# Convention : Reuss Voigt Hill
#
# Bulk Modulus (GPa) = 30.83281 33.06384 31.94832
# Shear Modulus (GPa) = 16.00195 20.94958 18.47577
#
# Velocity S-wave (km/s) = 3.07545 3.51892 3.30464
# Velocity P-wave (km/s) = 5.55300 6.00448 5.78314
#
# Compressibility (1/GPa) = 0.03243299
#
# Stress axis : x y z
#
# Youngs Moduli (GPa) = 64.89692 24.63764 22.09940
#
# Poissons Ratio (x) = 0.01663 0.20514
# Poissons Ratio (y) = 0.04380 0.54032
# Poissons Ratio (z) = 0.60242 0.60238
#
# Static dielectric constant tensor:
#      x y z
#    x 1.556150 0.000000 0.000000 
#    y 0.000000 1.560620 0.000000 
#    z 0.000000 0.000000 1.565420 
# 
# From -- ./inp_files/7991.got.cif
#   From: 2010.05.17/outbox.cif.g08.bks.cpg/sg55_4_cif.got.tgz:7991.got - 2010.06.03 13:27:54.
