data_PCOD9425714
_publ_section_title
;
Structure prediction by ZEFSAII (Michael W. Deem and Ramdas Pophale) SiO2 
 PCOD9425714
Probable space group: P B A M
;
_chemical_formula_sum "Si O2"
_cell_formula_units_Z 56
_cell_length_a 14.990439
_cell_length_b 22.731819
_cell_length_c 7.610540
_cell_angle_alpha 90.000000
_cell_angle_beta 90.000000
_cell_angle_gamma 90.000000
_cell_volume 2593.367200
_symmetry_space_group_name_H-M "P B A M"
_symmetry_group_IT_number 55
_symmetry_cell_setting 'orthorhombic'
loop_
_space_group_symop_operation_xyz
x,y,z
-x,-y,z
1/2+x,1/2-y,-z
1/2-x,1/2+y,-z
-x,-y,-z
x,y,-z
1/2-x,1/2+y,z
1/2+x,1/2-y,z
loop_
_atom_site_type_symbol
_atom_site_label
_atom_site_fract_x
_atom_site_fract_y
_atom_site_fract_z
Si Si1 0.309763 0.782684 0.297288
Si Si2 0.311335 0.390239 0.205273
Si Si3 0.025298 0.362683 0.787172
Si Si4 0.848818 0.845278 0.703438
Si Si5 0.854122 0.531873 0.786077
Si Si6 0.503427 0.433383 0.703835
Si Si7 0.661714 0.898134 0.213681
O O1 0.283936 0.774628 0.500000
O O2 0.233836 0.825825 0.220896
O O3 0.403671 0.816856 0.285166
O O4 0.328181 0.718754 0.215943
O O5 0.235892 0.435289 0.274058
O O6 0.406539 0.403026 0.289769
O O7 0.324098 0.402454 0.000000
O O8 0.063493 0.426825 0.736478
O O9 0.922700 0.358336 0.733849
O O10 0.029434 0.358719 0.000000
O O11 0.875721 0.833999 0.500000
O O12 0.755156 0.878433 0.710786
O O13 0.924241 0.888037 0.782437
O O14 0.857553 0.464931 0.730880
O O15 0.852583 0.531941 0.000000
O O16 0.500000 0.500000 0.779378
O O17 0.530920 0.441294 0.500000
O O18 0.667361 0.896848 0.000000
#
# Coordination Sequence:
#
# PCOD9425714 Si02
#       7
#     8   8   8   8   8   8   8
#     4  10  21  38  56  74 103 143 183 220 267 325
#     4  10  20  35  58  84 109 140 181 227 272 321
#     4   9  18  33  54  80 108 136 171 214 258 310
#     4  10  23  39  53  74 106 143 181 224 270 319
#     4   8  15  30  52  79 110 138 164 202 256 316
#     4  10  21  38  59  83 113 149 188 230 279 333
#     4  10  19  32  54  81 107 137 170 209 262 316
#
# _framework density 21.593547999999998
#
# number of rings (size 3 to 8) (size 9 to 14) (size 15 to 20)
#    0.000    2.429    0.000    3.000    0.000    5.429 
#    0.000    7.143    0.000    4.286    0.000    0.000 
#    0.000    0.000    0.000    0.000    0.000    0.000 
#
# Total GULP energy -312498.480530 kJ/mol
# GULP energy per Si atom -5580.330009 kJ/mol
# Density = 2.154440 g / cm^3
# Si number density = 21.593548 Si / 1000 Ang^3
#
#
#
# Elastic Constant Matrix: (Units=GPa)
#
#
# Indices 1 2 3 4 5 6 
#
# 1 137.2015 44.8325 -11.1686 0.0000 0.0000 0.0000
# 2 44.8325 115.0786 -2.7978 0.0000 0.0000 0.0000
# 3 -11.1686 -2.7978 43.5398 0.0000 0.0000 0.0000
# 4 0.0000 0.0000 0.0000 -67.8117 0.0000 0.0000
# 5 0.0000 0.0000 0.0000 0.0000 13.4470 0.0000
# 6 0.0000 0.0000 0.0000 0.0000 0.0000 12.6121
#
#
#
# Elastic Compliance Matrix: (Units=1/GPa)
#
#
# Indices 1 2 3 4 5 6 
#
# 1 0.008518 -0.003270 0.001975 0.000000 0.000000 0.000000
# 2 -0.003270 0.009959 -0.000199 0.000000 0.000000 0.000000
# 3 0.001975 -0.000199 0.023461 0.000000 0.000000 0.000000
# 4 0.000000 0.000000 0.000000 -0.014747 0.000000 0.000000
# 5 0.000000 0.000000 0.000000 0.000000 0.074366 0.000000
# 6 0.000000 0.000000 0.000000 0.000000 0.000000 0.079289
#
#
# Mechanical properties :
#
#
# Convention : Reuss Voigt Hill
#
# Bulk Modulus (GPa) = 25.67451 39.72800 32.70126
# Shear Modulus (GPa) = 25.40415 9.31308 17.35862
#
# Velocity S-wave (km/s) = 3.43369 2.07901 2.83835
# Velocity P-wave (km/s) = 5.25700 4.91946 5.09103
#
# Compressibility (1/GPa) = 0.03894913
#
# Stress axis : x y z
#
# Youngs Moduli (GPa) = 117.39895 100.41199 42.62338
#
# Poissons Ratio (x) = 0.32839 -0.08417
# Poissons Ratio (y) = 0.38394 0.00848
# Poissons Ratio (z) = -0.23184 0.01998
#
# Static dielectric constant tensor:
#      x y z
#    x 1.747450 0.000000 0.000000 
#    y 0.000000 1.796370 0.000000 
#    z 0.000000 0.000000 1.521030 
# 
# From -- ./inp_files/6018.got.cif
#   From: 2010.05.17/outbox.cif.g08.bks.cpg/sg55_4_cif.got.tgz:6018.got - 2010.06.03 13:27:54.
