data_PCOD9425279
_publ_section_title
;
Structure prediction by ZEFSAII (Michael W. Deem and Ramdas Pophale) SiO2 
 PCOD9425279
Probable space group: P B A M
;
_chemical_formula_sum "Si O2"
_cell_formula_units_Z 64
_cell_length_a 23.561429
_cell_length_b 15.057601
_cell_length_c 7.375381
_cell_angle_alpha 90.000000
_cell_angle_beta 90.000000
_cell_angle_gamma 90.000000
_cell_volume 2616.627323
_symmetry_space_group_name_H-M "P B A M"
_symmetry_group_IT_number 55
_symmetry_cell_setting 'orthorhombic'
loop_
_space_group_symop_operation_xyz
x,y,z
-x,-y,z
1/2+x,1/2-y,-z
1/2-x,1/2+y,-z
-x,-y,-z
x,y,-z
1/2-x,1/2+y,z
1/2+x,1/2-y,z
loop_
_atom_site_type_symbol
_atom_site_label
_atom_site_fract_x
_atom_site_fract_y
_atom_site_fract_z
Si Si1 0.657452 0.878344 0.704020
Si Si2 0.540796 0.923576 0.717193
Si Si3 0.124424 0.815651 0.218970
Si Si4 0.550366 0.223205 0.215669
Si Si5 0.224427 0.948504 0.221345
Si Si6 0.284494 0.640053 0.797183
Si Si7 0.327890 0.831783 0.778637
Si Si8 0.995680 0.101034 0.220981
O O1 0.670690 0.908172 0.500000
O O2 0.605002 0.931998 0.787578
O O3 0.631022 0.780308 0.697251
O O4 0.716254 0.867319 0.805732
O O5 0.546058 0.932241 0.500000
O O6 0.506655 0.832886 0.752011
O O7 0.500000 0.000000 0.787815
O O8 0.178402 0.874787 0.268224
O O9 0.066213 0.862556 0.269694
O O10 0.124511 0.804901 0.000000
O O11 0.606686 0.172537 0.283056
O O12 0.540863 0.324156 0.282166
O O13 0.557442 0.229226 0.000000
O O14 0.286235 0.911726 0.279445
O O15 0.202817 0.044337 0.288369
O O16 0.226022 0.955142 0.000000
O O17 0.301642 0.735768 0.721009
O O18 0.309617 0.639919 0.000000
O O19 0.326206 0.834725 0.000000
O O20 0.999107 0.099142 0.000000
O O21 0.000000 0.000000 0.283822
#
# Coordination Sequence:
#
# PCOD9425279 Si02
#       8
#     8   8   8   8   8   8   8   8
#     4  11  22  37  57  79 106 141 187 234 272 318
#     4  10  23  41  57  75 106 147 185 224 278 332
#     4  10  18  34  58  81 108 142 182 223 271 326
#     4  10  20  34  55  83 112 141 179 226 268 316
#     4   9  18  31  52  81 106 136 176 217 265 321
#     4  10  20  35  57  81 110 145 177 217 271 324
#     4   9  18  32  50  79 113 137 169 218 265 313
#     4   9  18  30  50  83 114 140 175 220 270 322
#
# _framework density 24.458964999999999
#
# number of rings (size 3 to 8) (size 9 to 14) (size 15 to 20)
#    0.000    2.250    2.500    0.375    3.500    0.750 
#    0.000    1.250    0.000    1.500    0.000    0.000 
#    0.000    0.000    0.000    0.000    0.000    0.000 
#
# Total GULP energy -357562.205615 kJ/mol
# GULP energy per Si atom -5586.909463 kJ/mol
# Density = 2.440330 g / cm^3
# Si number density = 24.458965 Si / 1000 Ang^3
#
#
#
# Elastic Constant Matrix: (Units=GPa)
#
#
# Indices 1 2 3 4 5 6 
#
# 1 58.3764 -22.9672 0.5665 0.0000 0.0000 0.0000
# 2 -22.9672 68.7840 -3.2264 0.0000 0.0000 0.0000
# 3 0.5665 -3.2264 89.8687 0.0000 0.0000 0.0000
# 4 0.0000 0.0000 0.0000 -112.4440 0.0000 0.0000
# 5 0.0000 0.0000 0.0000 0.0000 -15.8396 0.0000
# 6 0.0000 0.0000 0.0000 0.0000 0.0000 38.4529
#
#
#
# Elastic Compliance Matrix: (Units=1/GPa)
#
#
# Indices 1 2 3 4 5 6 
#
# 1 0.019722 0.006591 0.000112 0.000000 0.000000 0.000000
# 2 0.006591 0.016765 0.000560 0.000000 0.000000 0.000000
# 3 0.000112 0.000560 0.011147 0.000000 0.000000 0.000000
# 4 0.000000 0.000000 0.000000 -0.008893 0.000000 0.000000
# 5 0.000000 0.000000 0.000000 0.000000 -0.063133 0.000000
# 6 0.000000 0.000000 0.000000 0.000000 0.000000 0.026006
#
#
# Mechanical properties :
#
#
# Convention : Reuss Voigt Hill
#
# Bulk Modulus (GPa) = 16.08747 18.41945 17.25346
# Shear Modulus (GPa) = 640.42671 -1.78905 319.31883
#
# Velocity S-wave (km/s) = 16.19894 -0.85618 11.43837
# Velocity P-wave (km/s) = 18.88030 2.56315 13.47285
#
# Compressibility (1/GPa) = 0.06216017
#
# Stress axis : x y z
#
# Youngs Moduli (GPa) = 50.70473 59.64763 89.71224
#
# Poissons Ratio (x) = -0.39311 -0.01007
# Poissons Ratio (y) = -0.33417 -0.05027
# Poissons Ratio (z) = -0.00569 -0.03342
#
# Static dielectric constant tensor:
#      x y z
#    x 1.928400 0.000000 0.000000 
#    y 0.000000 1.945310 0.000000 
#    z 0.000000 0.000000 1.999390 
# 
# From -- ./inp_files/9819.got.cif
#   From: 2010.05.17/outbox.cif.g08.bks.cpg/sg55_5_cif.got.tgz:9819.got - 2010.06.03 13:27:54.
