data_PCOD9425069
_publ_section_title
;
Structure prediction by ZEFSAII (Michael W. Deem and Ramdas Pophale) SiO2 
 PCOD9425069
Probable space group: P B A M
;
_chemical_formula_sum "Si O2"
_cell_formula_units_Z 64
_cell_length_a 23.793306
_cell_length_b 19.658039
_cell_length_c 8.527932
_cell_angle_alpha 90.000000
_cell_angle_beta 90.000000
_cell_angle_gamma 90.000000
_cell_volume 3988.767394
_symmetry_space_group_name_H-M "P B A M"
_symmetry_group_IT_number 55
_symmetry_cell_setting 'orthorhombic'
loop_
_space_group_symop_operation_xyz
x,y,z
-x,-y,z
1/2+x,1/2-y,-z
1/2-x,1/2+y,-z
-x,-y,-z
x,y,-z
1/2-x,1/2+y,z
1/2+x,1/2-y,z
loop_
_atom_site_type_symbol
_atom_site_label
_atom_site_fract_x
_atom_site_fract_y
_atom_site_fract_z
Si Si1 0.728638 0.343955 0.687101
Si Si2 0.162996 0.732348 0.184384
Si Si3 0.671009 0.216388 0.186740
Si Si4 0.060284 0.364156 0.187163
Si Si5 0.220095 0.859742 0.313013
Si Si6 0.245517 0.505936 0.308996
Si Si7 0.114750 0.501877 0.689618
Si Si8 0.063506 0.648434 0.686731
O O1 0.720963 0.341579 0.500000
O O2 0.789969 0.312699 0.726427
O O3 0.684037 0.293919 0.767087
O O4 0.728859 0.422088 0.741222
O O5 0.175456 0.809918 0.232858
O O6 0.102424 0.704537 0.231887
O O7 0.172480 0.724486 0.000000
O O8 0.609936 0.188387 0.230434
O O9 0.718856 0.171912 0.272201
O O10 0.678339 0.207997 0.000000
O O11 0.081748 0.438585 0.238408
O O12 0.001333 0.347506 0.266917
O O13 0.053261 0.362716 0.000000
O O14 0.212315 0.857115 0.500000
O O15 0.221961 0.938002 0.259795
O O16 0.244971 0.506405 0.500000
O O17 0.180103 0.501237 0.260679
O O18 0.112828 0.495929 0.500000
O O19 0.086952 0.573786 0.732974
O O20 0.070157 0.654566 0.500000
#
# Coordination Sequence:
#
# PCOD9425069 Si02
#       8
#     8   8   8   8   8   8   8   8
#     4  10  18  32  52  73  97 128 166 205 245 291
#     4  11  21  33  48  71 101 129 161 204 250 292
#     4  10  20  33  46  69 100 130 163 203 246 290
#     4  11  23  35  48  70 102 134 169 208 248 291
#     4  10  18  31  52  72  95 128 164 201 242 291
#     4   9  17  30  50  75 100 127 164 204 243 285
#     4  10  19  34  50  69  98 133 172 207 238 282
#     4  11  22  36  53  70  94 132 176 210 242 289
#
# _framework density 16.045055999999999
#
# number of rings (size 3 to 8) (size 9 to 14) (size 15 to 20)
#    0.000    1.750    2.500    4.875    0.000    4.000 
#    0.000    2.500    0.000    0.000    0.000    0.875 
#    0.000    7.000    0.000    0.000    0.000    0.000 
#
# Total GULP energy -357270.229596 kJ/mol
# GULP energy per Si atom -5582.347337 kJ/mol
# Density = 1.600854 g / cm^3
# Si number density = 16.045056 Si / 1000 Ang^3
#
#
#
# Elastic Constant Matrix: (Units=GPa)
#
#
# Indices 1 2 3 4 5 6 
#
# 1 63.7074 34.4215 6.9323 0.0000 0.0000 0.0000
# 2 34.4215 101.5373 3.6643 0.0000 0.0000 0.0000
# 3 6.9323 3.6643 21.3903 0.0000 0.0000 0.0000
# 4 0.0000 0.0000 0.0000 -2.7501 0.0000 0.0000
# 5 0.0000 0.0000 0.0000 0.0000 22.7840 0.0000
# 6 0.0000 0.0000 0.0000 0.0000 0.0000 18.4505
#
#
#
# Elastic Compliance Matrix: (Units=1/GPa)
#
#
# Indices 1 2 3 4 5 6 
#
# 1 0.019796 -0.006520 -0.005299 0.000000 0.000000 0.000000
# 2 -0.006520 0.012057 0.000047 0.000000 0.000000 0.000000
# 3 -0.005299 0.000047 0.048459 0.000000 0.000000 0.000000
# 4 0.000000 0.000000 0.000000 -0.363626 0.000000 0.000000
# 5 0.000000 0.000000 0.000000 0.000000 0.043890 0.000000
# 6 0.000000 0.000000 0.000000 0.000000 0.000000 0.054199
#
#
# Mechanical properties :
#
#
# Convention : Reuss Voigt Hill
#
# Bulk Modulus (GPa) = 17.61478 30.74125 24.17801
# Shear Modulus (GPa) = -35.02409 17.13800 -8.94304
#
# Velocity S-wave (km/s) = -4.67718 3.27175 -2.36343
# Velocity P-wave (km/s) = 4.26214 5.78562 2.76655
#
# Compressibility (1/GPa) = 0.05677052
#
# Stress axis : x y z
#
# Youngs Moduli (GPa) = 50.51536 82.93888 20.63584
#
# Poissons Ratio (x) = 0.54073 0.10934
# Poissons Ratio (y) = 0.32934 -0.00098
# Poissons Ratio (z) = 0.26767 -0.00394
#
# Static dielectric constant tensor:
#      x y z
#    x 1.511210 0.000000 0.000000 
#    y 0.000000 1.548690 0.000000 
#    z 0.000000 0.000000 1.541350 
# 
# From -- ./inp_files/9149.got.cif
#   From: 2010.05.17/outbox.cif.g08.bks.cpg/sg55_5_cif.got.tgz:9149.got - 2010.06.03 13:27:54.
