data_PCOD9425262
_publ_section_title
;
Structure prediction by ZEFSAII (Michael W. Deem and Ramdas Pophale) SiO2 
 PCOD9425262
Probable space group: P B A M
;
_chemical_formula_sum "Si O2"
_cell_formula_units_Z 52
_cell_length_a 27.838787
_cell_length_b 7.570050
_cell_length_c 9.496701
_cell_angle_alpha 90.000000
_cell_angle_beta 90.000000
_cell_angle_gamma 90.000000
_cell_volume 2001.344356
_symmetry_space_group_name_H-M "P B A M"
_symmetry_group_IT_number 55
_symmetry_cell_setting 'orthorhombic'
loop_
_space_group_symop_operation_xyz
x,y,z
-x,-y,z
1/2+x,1/2-y,-z
1/2-x,1/2+y,-z
-x,-y,-z
x,y,-z
1/2-x,1/2+y,z
1/2+x,1/2-y,z
loop_
_atom_site_type_symbol
_atom_site_label
_atom_site_fract_x
_atom_site_fract_y
_atom_site_fract_z
Si Si1 0.698355 0.317166 0.218555
Si Si2 0.674438 0.847602 0.500000
Si Si3 0.446604 0.864481 0.334415
Si Si4 0.257770 0.841679 0.500000
Si Si5 0.713634 0.847709 0.000000
Si Si6 0.889456 0.009717 0.336049
Si Si7 0.028955 0.812797 0.163485
Si Si8 0.138990 0.527216 0.205677
O O1 0.719056 0.234701 0.359965
O O2 0.743194 0.366901 0.120969
O O3 0.661192 0.469011 0.261105
O O4 0.666670 0.154011 0.158744
O O5 0.724184 0.957961 0.500000
O O6 0.647543 0.913871 0.635053
O O7 0.700685 0.661457 0.500000
O O8 0.449250 0.924058 0.500000
O O9 0.415475 0.682189 0.341048
O O10 0.497515 0.809064 0.268000
O O11 0.417102 0.977875 0.216759
O O12 0.670698 0.836814 0.881549
O O13 0.889704 0.072331 0.500000
O O14 0.921095 0.137174 0.238629
O O15 0.033614 0.754548 0.000000
O O16 0.000000 0.000000 0.158514
#
# Coordination Sequence:
#
# PCOD9425262 Si02
#       8
#     8   4   8   4   4   8   8   8
#     4  10  20  32  47  66  91 126 167 206 250 300
#     4  10  18  34  52  69  93 129 175 218 254 299
#     4   9  16  28  44  61  84 121 163 200 236 290
#     4  10  18  34  52  69  93 129 175 218 254 299
#     4  12  22  30  44  64  94 122 160 204 262 300
#     4   9  16  28  44  61  84 121 163 200 236 290
#     4   9  17  25  37  61  91 119 152 193 240 293
#     4  10  20  32  47  66  91 126 167 206 250 300
#
# _framework density 25.982534000000001
#
# number of rings (size 3 to 8) (size 9 to 14) (size 15 to 20)
#    0.000    2.308    3.077    0.923    2.154    1.846 
#    0.000    0.000    0.000    0.000    0.000    0.000 
#    0.000    0.000    0.000   19.385    0.000    7.077 
#
# Total GULP energy -289731.260149 kJ/mol
# GULP energy per Si atom -5571.755003 kJ/mol
# Density = 2.592340 g / cm^3
# Si number density = 25.982534 Si / 1000 Ang^3
#
#
#
# Elastic Constant Matrix: (Units=GPa)
#
#
# Indices 1 2 3 4 5 6 
#
# 1 177.9953 31.6633 62.8794 0.0000 0.0000 0.0000
# 2 31.6633 54.5982 24.7965 0.0000 0.0000 0.0000
# 3 62.8794 24.7965 200.8790 0.0000 0.0000 0.0000
# 4 0.0000 0.0000 0.0000 -152.0663 0.0000 0.0000
# 5 0.0000 0.0000 0.0000 0.0000 -165.8025 0.0000
# 6 0.0000 0.0000 0.0000 0.0000 0.0000 44.9694
#
#
#
# Elastic Compliance Matrix: (Units=1/GPa)
#
#
# Indices 1 2 3 4 5 6 
#
# 1 0.006792 -0.003150 -0.001737 0.000000 0.000000 0.000000
# 2 -0.003150 0.020864 -0.001589 0.000000 0.000000 0.000000
# 3 -0.001737 -0.001589 0.005718 0.000000 0.000000 0.000000
# 4 0.000000 0.000000 0.000000 -0.006576 0.000000 0.000000
# 5 0.000000 0.000000 0.000000 0.000000 -0.006031 0.000000
# 6 0.000000 0.000000 0.000000 0.000000 0.000000 0.022237
#
#
# Mechanical properties :
#
#
# Convention : Reuss Voigt Hill
#
# Bulk Modulus (GPa) = 48.96888 74.68342 61.82615
# Shear Modulus (GPa) = 79.66205 -33.63765 23.01220
#
# Velocity S-wave (km/s) = 5.54314 -3.60199 2.97927
# Velocity P-wave (km/s) = 7.73669 3.39219 5.97341
#
# Compressibility (1/GPa) = 0.02042113
#
# Stress axis : x y z
#
# Youngs Moduli (GPa) = 147.22797 47.92876 174.88253
#
# Poissons Ratio (x) = 0.15098 0.30382
# Poissons Ratio (y) = 0.46377 0.27797
# Poissons Ratio (z) = 0.25577 0.07618
#
# Static dielectric constant tensor:
#      x y z
#    x 2.044680 0.000000 0.000000 
#    y 0.000000 2.345470 0.000000 
#    z 0.000000 0.000000 1.915290 
# 
# From -- ./inp_files/4425.got.cif
#   From: 2010.05.17/outbox.cif.g08.bks.cpg/sg55_3_cif.got.tgz:4425.got - 2010.06.03 13:27:54.
