data_PCOD9425793
_publ_section_title
;
Structure prediction by ZEFSAII (Michael W. Deem and Ramdas Pophale) SiO2 
 PCOD9425793
Probable space group: P B A M
;
_chemical_formula_sum "Si O2"
_cell_formula_units_Z 58
_cell_length_a 12.232919
_cell_length_b 27.242546
_cell_length_c 9.219123
_cell_angle_alpha 90.000000
_cell_angle_beta 90.000000
_cell_angle_gamma 90.000000
_cell_volume 3072.326751
_symmetry_space_group_name_H-M "P B A M"
_symmetry_group_IT_number 55
_symmetry_cell_setting 'orthorhombic'
loop_
_space_group_symop_operation_xyz
x,y,z
-x,-y,z
1/2+x,1/2-y,-z
1/2-x,1/2+y,-z
-x,-y,-z
x,y,-z
1/2-x,1/2+y,z
1/2+x,1/2-y,z
loop_
_atom_site_type_symbol
_atom_site_label
_atom_site_fract_x
_atom_site_fract_y
_atom_site_fract_z
Si Si1 0.127152 0.081206 0.673578
Si Si2 0.591731 0.217363 0.668101
Si Si3 0.731089 0.994722 0.838835
Si Si4 0.604613 0.780768 0.834939
Si Si5 0.151535 0.183044 0.167134
Si Si6 0.381432 0.429692 0.673395
Si Si7 0.668933 0.682690 0.668927
Si Si8 0.000000 0.500000 0.000000
O O1 0.138370 0.083452 0.500000
O O2 0.123789 0.135413 0.740937
O O3 0.008050 0.057274 0.705004
O O4 0.226512 0.051237 0.744779
O O5 0.576248 0.228943 0.500000
O O6 0.485436 0.193278 0.736684
O O7 0.609222 0.267568 0.756814
O O8 0.700007 0.185176 0.682213
O O9 0.789727 0.040767 0.761083
O O10 0.781174 0.989203 0.000000
O O11 0.600941 0.998755 0.874420
O O12 0.717773 0.809703 0.833160
O O13 0.626181 0.726811 0.768115
O O14 0.566582 0.776812 0.000000
O O15 0.114629 0.179180 0.000000
O O16 0.364323 0.436874 0.500000
O O17 0.370585 0.371539 0.704323
O O18 0.641165 0.693198 0.500000
#
# Coordination Sequence:
#
# PCOD9425793 Si02
#       8
#     8   8   8   8   8   8   8   2
#     4  11  22  37  62  95 124 153 193 247 305 362
#     4  10  19  33  53  77 111 156 203 246 292 351
#     4  10  22  43  65  85 119 154 193 238 291 355
#     4  10  20  34  52  77 111 155 201 247 294 348
#     4  10  21  36  54  82 119 155 199 246 299 354
#     4  10  21  38  61  93 123 149 190 247 303 358
#     4   9  19  35  54  79 114 150 191 242 296 347
#     4   8  24  48  64  84 120 156 202 238 292 348
#
# _framework density 18.8782
#
# number of rings (size 3 to 8) (size 9 to 14) (size 15 to 20)
#    0.414    1.655    0.000    3.310    0.000    6.621 
#    2.483    1.379    0.000    0.000    0.000    0.000 
#    0.000    0.000    0.000    0.000    0.000    0.000 
#
# Total GULP energy -322879.014295 kJ/mol
# GULP energy per Si atom -5566.879557 kJ/mol
# Density = 1.883523 g / cm^3
# Si number density = 18.878200 Si / 1000 Ang^3
#
#
#
# Elastic Constant Matrix: (Units=GPa)
#
#
# Indices 1 2 3 4 5 6 
#
# 1 125.1010 19.5662 51.4043 0.0000 0.0000 0.0000
# 2 19.5662 57.6679 27.6271 0.0000 0.0000 0.0000
# 3 51.4043 27.6271 101.9301 0.0000 0.0000 0.0000
# 4 0.0000 0.0000 0.0000 -111.2838 0.0000 0.0000
# 5 0.0000 0.0000 0.0000 0.0000 36.7545 0.0000
# 6 0.0000 0.0000 0.0000 0.0000 0.0000 -31.1972
#
#
#
# Elastic Compliance Matrix: (Units=1/GPa)
#
#
# Indices 1 2 3 4 5 6 
#
# 1 0.010148 -0.001139 -0.004809 0.000000 0.000000 0.000000
# 2 -0.001139 0.020056 -0.004862 0.000000 0.000000 0.000000
# 3 -0.004809 -0.004862 0.013553 0.000000 0.000000 0.000000
# 4 0.000000 0.000000 0.000000 -0.008986 0.000000 0.000000
# 5 0.000000 0.000000 0.000000 0.000000 0.027208 0.000000
# 6 0.000000 0.000000 0.000000 0.000000 0.000000 -0.032054
#
#
# Mechanical properties :
#
#
# Convention : Reuss Voigt Hill
#
# Bulk Modulus (GPa) = 45.17071 53.54379 49.35725
# Shear Modulus (GPa) = 84.85637 -8.73853 38.05892
#
# Velocity S-wave (km/s) = 6.71170 -2.15382 4.49489
# Velocity P-wave (km/s) = 9.16744 4.71583 7.28976
#
# Compressibility (1/GPa) = 0.02213824
#
# Stress axis : x y z
#
# Youngs Moduli (GPa) = 98.54486 49.85986 73.78214
#
# Poissons Ratio (x) = 0.05680 0.35480
# Poissons Ratio (y) = 0.11227 0.35869
# Poissons Ratio (z) = 0.47388 0.24239
#
# Static dielectric constant tensor:
#      x y z
#    x 1.695720 0.000000 0.000000 
#    y 0.000000 1.649730 0.000000 
#    z 0.000000 0.000000 1.645110 
# 
# From -- ./inp_files/4293.got.cif
#   From: 2010.05.17/outbox.cif.g08.bks.cpg/sg55_3_cif.got.tgz:4293.got - 2010.06.03 13:27:54.
