data_PCOD9425392
_publ_section_title
;
Structure prediction by ZEFSAII (Michael W. Deem and Ramdas Pophale) SiO2 
 PCOD9425392
Probable space group: P B A M
;
_chemical_formula_sum "Si O2"
_cell_formula_units_Z 42
_cell_length_a 19.709785
_cell_length_b 6.926555
_cell_length_c 13.367401
_cell_angle_alpha 90.000000
_cell_angle_beta 90.000000
_cell_angle_gamma 90.000000
_cell_volume 1824.929747
_symmetry_space_group_name_H-M "P B A M"
_symmetry_group_IT_number 55
_symmetry_cell_setting 'orthorhombic'
loop_
_space_group_symop_operation_xyz
x,y,z
-x,-y,z
1/2+x,1/2-y,-z
1/2-x,1/2+y,-z
-x,-y,-z
x,y,-z
1/2-x,1/2+y,z
1/2+x,1/2-y,z
loop_
_atom_site_type_symbol
_atom_site_label
_atom_site_fract_x
_atom_site_fract_y
_atom_site_fract_z
Si Si1 0.114195 0.815429 0.000000
Si Si2 0.156370 0.401708 0.000000
Si Si3 0.500000 0.000000 0.000000
Si Si4 0.944441 0.218087 0.387600
Si Si5 0.097364 0.327878 0.387379
Si Si6 0.348178 0.359938 0.214265
Si Si7 0.805949 0.585561 0.785312
O O1 0.167908 0.635623 0.000000
O O2 0.042029 0.706401 0.000000
O O3 0.125578 0.921533 0.104872
O O4 0.074677 0.389253 0.000000
O O5 0.186625 0.327434 0.103700
O O6 0.931842 0.145129 0.500000
O O7 0.921238 0.443055 0.387904
O O8 0.901739 0.113117 0.302618
O O9 0.024998 0.225678 0.369489
O O10 0.121878 0.282129 0.500000
O O11 0.152128 0.303790 0.300062
O O12 0.273107 0.433584 0.238235
O O13 0.339408 0.126298 0.208858
#
# Coordination Sequence:
#
# PCOD9425392 Si02
#       7
#     4   4   2   8   8   8   8
#     4   8  17  27  45  71  93 109 148 190 229 252
#     4   8  17  27  45  71  93 109 148 190 229 252
#     4   8  16  28  48  76  88 112 150 208 222 250
#     4   8  15  27  45  68  90 114 151 198 233 257
#     4   8  15  27  45  68  90 114 151 198 233 257
#     4  10  19  30  46  68  96 123 149 184 227 276
#     4  10  19  30  46  68  96 123 149 184 227 276
#
# _framework density 23.014583999999999
#
# number of rings (size 3 to 8) (size 9 to 14) (size 15 to 20)
#    0.571    2.667    0.000    1.714    2.667    0.762 
#    0.000    0.000    0.000    1.143    0.000    4.000 
#    0.000    0.000    0.000    0.000    0.000    0.000 
#
# Total GULP energy -233996.973752 kJ/mol
# GULP energy per Si atom -5571.356518 kJ/mol
# Density = 2.296220 g / cm^3
# Si number density = 23.014584 Si / 1000 Ang^3
#
#
#
# Elastic Constant Matrix: (Units=GPa)
#
#
# Indices 1 2 3 4 5 6 
#
# 1 123.1870 10.2530 118.1886 0.0000 0.0000 0.0000
# 2 10.2530 73.4548 19.8290 0.0000 0.0000 0.0000
# 3 118.1886 19.8290 229.8068 0.0000 0.0000 0.0000
# 4 0.0000 0.0000 0.0000 -5.8746 0.0000 0.0000
# 5 0.0000 0.0000 0.0000 0.0000 22.5828 0.0000
# 6 0.0000 0.0000 0.0000 0.0000 0.0000 20.8307
#
#
#
# Elastic Compliance Matrix: (Units=1/GPa)
#
#
# Indices 1 2 3 4 5 6 
#
# 1 0.016025 -0.000012 -0.008240 0.000000 0.000000 0.000000
# 2 -0.000012 0.013938 -0.001196 0.000000 0.000000 0.000000
# 3 -0.008240 -0.001196 0.008693 0.000000 0.000000 0.000000
# 4 0.000000 0.000000 0.000000 -0.170225 0.000000 0.000000
# 5 0.000000 0.000000 0.000000 0.000000 0.044282 0.000000
# 6 0.000000 0.000000 0.000000 0.000000 0.000000 0.048006
#
#
# Mechanical properties :
#
#
# Convention : Reuss Voigt Hill
#
# Bulk Modulus (GPa) = 50.61279 80.33219 65.47249
# Shear Modulus (GPa) = -362.39511 26.05300 -168.17105
#
# Velocity S-wave (km/s) = -12.56205 3.36820 -8.55746
# Velocity P-wave (km/s) = 13.72470 7.07863 8.31446
#
# Compressibility (1/GPa) = 0.01975785
#
# Stress axis : x y z
#
# Youngs Moduli (GPa) = 62.40311 71.74385 115.03866
#
# Poissons Ratio (x) = 0.00088 0.94797
# Poissons Ratio (y) = 0.00077 0.13763
# Poissons Ratio (z) = 0.51423 0.08583
#
# Static dielectric constant tensor:
#      x y z
#    x 1.775810 0.000000 0.000000 
#    y 0.000000 1.957580 0.000000 
#    z 0.000000 0.000000 1.871030 
# 
# From -- ./inp_files/15261.got.cif
#   From: 2010.05.17/outbox.cif.g08.bks.cpg/sg55_8_cif.got.tgz:15261.got - 2010.06.03 13:27:54.
