data_PCOD9425154
_publ_section_title
;
Structure prediction by ZEFSAII (Michael W. Deem and Ramdas Pophale) SiO2 
 PCOD9425154
Probable space group: P B A M
;
_chemical_formula_sum "Si O2"
_cell_formula_units_Z 64
_cell_length_a 19.909140
_cell_length_b 21.699438
_cell_length_c 7.762441
_cell_angle_alpha 90.000000
_cell_angle_beta 90.000000
_cell_angle_gamma 90.000000
_cell_volume 3353.507631
_symmetry_space_group_name_H-M "P B A M"
_symmetry_group_IT_number 55
_symmetry_cell_setting 'orthorhombic'
loop_
_space_group_symop_operation_xyz
x,y,z
-x,-y,z
1/2+x,1/2-y,-z
1/2-x,1/2+y,-z
-x,-y,-z
x,y,-z
1/2-x,1/2+y,z
1/2+x,1/2-y,z
loop_
_atom_site_type_symbol
_atom_site_label
_atom_site_fract_x
_atom_site_fract_y
_atom_site_fract_z
Si Si1 0.920690 0.235529 0.292305
Si Si2 0.089758 0.623124 0.299148
Si Si3 0.070255 0.241864 0.707145
Si Si4 0.210446 0.188736 0.204802
Si Si5 0.060296 0.384851 0.797463
Si Si6 0.223790 0.565523 0.198770
Si Si7 0.781162 0.187990 0.204644
Si Si8 0.298174 0.932121 0.212431
O O1 0.920489 0.236879 0.500000
O O2 0.907227 0.306070 0.233555
O O3 0.860580 0.192362 0.233260
O O4 0.996303 0.219496 0.236792
O O5 0.107936 0.623085 0.500000
O O6 0.144935 0.582779 0.204319
O O7 0.012437 0.602854 0.282825
O O8 0.071522 0.243847 0.500000
O O9 0.131925 0.201097 0.769655
O O10 0.077101 0.312372 0.770654
O O11 0.237408 0.124096 0.277090
O O12 0.248735 0.248953 0.277096
O O13 0.224900 0.187333 0.000000
O O14 0.124573 0.422323 0.732435
O O15 0.053250 0.396249 0.000000
O O16 0.230328 0.497358 0.274148
O O17 0.245837 0.560849 0.000000
O O18 0.745276 0.126545 0.270511
O O19 0.768368 0.188385 0.000000
O O20 0.298713 0.932685 0.000000
#
# Coordination Sequence:
#
# PCOD9425154 Si02
#       8
#     8   8   8   8   8   8   8   8
#     4   9  19  33  49  74 103 131 164 204 252 301
#     4  10  20  33  48  73 107 138 172 212 251 298
#     4  10  20  33  51  77 107 135 166 209 261 304
#     4  10  19  32  53  79 100 127 174 214 247 298
#     4  10  18  32  52  73 102 139 176 210 248 301
#     4  10  20  35  53  73 100 137 173 208 254 305
#     4  10  18  32  53  78 100 126 168 214 252 293
#     4   9  19  34  51  73 103 133 166 211 258 301
#
# _framework density 19.084495
#
# number of rings (size 3 to 8) (size 9 to 14) (size 15 to 20)
#    0.000    2.250    2.500    1.875    0.000    4.000 
#    0.000    4.375    0.000    0.750    0.000    5.250 
#    0.000    0.000    0.000    0.000    0.000    0.000 
#
# Total GULP energy -357116.011080 kJ/mol
# GULP energy per Si atom -5579.937673 kJ/mol
# Density = 1.904106 g / cm^3
# Si number density = 19.084495 Si / 1000 Ang^3
#
#
#
# Elastic Constant Matrix: (Units=GPa)
#
#
# Indices 1 2 3 4 5 6 
#
# 1 88.0415 50.6544 -13.6794 0.0000 0.0000 0.0000
# 2 50.6544 93.7658 0.1820 0.0000 0.0000 0.0000
# 3 -13.6794 0.1820 25.6516 0.0000 0.0000 0.0000
# 4 0.0000 0.0000 0.0000 1.4818 0.0000 0.0000
# 5 0.0000 0.0000 0.0000 0.0000 38.8536 0.0000
# 6 0.0000 0.0000 0.0000 0.0000 0.0000 20.6211
#
#
#
# Elastic Compliance Matrix: (Units=1/GPa)
#
#
# Indices 1 2 3 4 5 6 
#
# 1 0.018770 -0.010160 0.010082 0.000000 0.000000 0.000000
# 2 -0.010160 0.016164 -0.005533 0.000000 0.000000 0.000000
# 3 0.010082 -0.005533 0.044400 0.000000 0.000000 0.000000
# 4 0.000000 0.000000 0.000000 0.674869 0.000000 0.000000
# 5 0.000000 0.000000 0.000000 0.000000 0.025738 0.000000
# 6 0.000000 0.000000 0.000000 0.000000 0.000000 0.048494
#
#
# Mechanical properties :
#
#
# Convention : Reuss Voigt Hill
#
# Bulk Modulus (GPa) = 14.68153 31.30811 22.99482
# Shear Modulus (GPa) = 5.79805 23.54474 14.67140
#
# Velocity S-wave (km/s) = 1.74490 3.51623 2.77566
# Velocity P-wave (km/s) = 3.43063 5.73810 4.72731
#
# Compressibility (1/GPa) = 0.06811278
#
# Stress axis : x y z
#
# Youngs Moduli (GPa) = 53.27652 61.86570 22.52273
#
# Poissons Ratio (x) = 0.62853 -0.22707
# Poissons Ratio (y) = 0.54127 0.12461
# Poissons Ratio (z) = -0.53712 0.34228
#
# Static dielectric constant tensor:
#      x y z
#    x 1.668890 0.000000 0.000000 
#    y 0.000000 1.672290 0.000000 
#    z 0.000000 0.000000 1.717470 
# 
# From -- ./inp_files/9117.got.cif
#   From: 2010.05.17/outbox.cif.g08.bks.cpg/sg55_5_cif.got.tgz:9117.got - 2010.06.03 13:27:54.
