data_PCOD9425946
_publ_section_title
;
Structure prediction by ZEFSAII (Michael W. Deem and Ramdas Pophale) SiO2 
 PCOD9425946
Probable space group: P B A M
;
_chemical_formula_sum "Si O2"
_cell_formula_units_Z 64
_cell_length_a 15.119891
_cell_length_b 25.351510
_cell_length_c 7.534947
_cell_angle_alpha 90.000000
_cell_angle_beta 90.000000
_cell_angle_gamma 90.000000
_cell_volume 2888.236116
_symmetry_space_group_name_H-M "P B A M"
_symmetry_group_IT_number 55
_symmetry_cell_setting 'orthorhombic'
loop_
_space_group_symop_operation_xyz
x,y,z
-x,-y,z
1/2+x,1/2-y,-z
1/2-x,1/2+y,-z
-x,-y,-z
x,y,-z
1/2-x,1/2+y,z
1/2+x,1/2-y,z
loop_
_atom_site_type_symbol
_atom_site_label
_atom_site_fract_x
_atom_site_fract_y
_atom_site_fract_z
Si Si1 0.256214 0.938637 0.292902
Si Si2 0.355171 0.737146 0.217486
Si Si3 0.452575 0.948897 0.204054
Si Si4 0.098447 0.017617 0.214552
Si Si5 0.448407 0.629903 0.214130
Si Si6 0.641364 0.654651 0.706826
Si Si7 0.656827 0.771974 0.797720
Si Si8 0.517393 0.169536 0.218194
O O1 0.275318 0.930810 0.500000
O O2 0.347088 0.956183 0.206013
O O3 0.218199 0.883101 0.220656
O O4 0.177537 0.980834 0.277752
O O5 0.410609 0.685916 0.273068
O O6 0.254966 0.729165 0.281557
O O7 0.404039 0.790752 0.273979
O O8 0.353240 0.738465 0.000000
O O9 0.470904 0.890528 0.279132
O O10 0.500000 0.000000 0.285742
O O11 0.484199 0.945991 0.000000
O O12 0.107267 0.078793 0.268413
O O13 0.099546 0.014553 0.000000
O O14 0.000000 0.000000 0.271700
O O15 0.548958 0.624207 0.276232
O O16 0.450237 0.630425 0.000000
O O17 0.658376 0.665009 0.500000
O O18 0.629888 0.710568 0.799440
O O19 0.576065 0.805570 0.721514
O O20 0.667028 0.791120 0.000000
O O21 0.518530 0.170271 0.000000
#
# Coordination Sequence:
#
# PCOD9425946 Si02
#       8
#     8   8   8   8   8   8   8   8
#     4  11  24  39  58  83 116 159 198 234 287 356
#     4   9  17  30  53  85 111 140 182 226 276 337
#     4  10  22  40  63  89 115 146 195 254 296 334
#     4  10  20  34  57  88 116 146 189 239 287 337
#     4  10  19  34  56  82 113 146 184 233 287 339
#     4  11  22  35  53  81 114 149 190 232 280 337
#     4  10  19  33  57  81 109 148 188 232 282 342
#     4   9  17  32  56  86 114 144 184 231 289 341
#
# _framework density 22.158854000000002
#
# number of rings (size 3 to 8) (size 9 to 14) (size 15 to 20)
#    0.000    2.000    2.500    1.500    0.000    4.500 
#    0.000    5.000    0.000    1.500    0.000    0.000 
#    0.000    0.000    0.000    0.000    0.000    0.000 
#
# Total GULP energy -357487.340214 kJ/mol
# GULP energy per Si atom -5585.739691 kJ/mol
# Density = 2.210842 g / cm^3
# Si number density = 22.158854 Si / 1000 Ang^3
#
#
#
# Elastic Constant Matrix: (Units=GPa)
#
#
# Indices 1 2 3 4 5 6 
#
# 1 148.3898 69.8841 -3.1985 0.0000 0.0000 0.0000
# 2 69.8841 150.8353 3.4577 0.0000 0.0000 0.0000
# 3 -3.1985 3.4577 56.6489 0.0000 0.0000 0.0000
# 4 0.0000 0.0000 0.0000 16.8984 0.0000 0.0000
# 5 0.0000 0.0000 0.0000 0.0000 4.4272 0.0000
# 6 0.0000 0.0000 0.0000 0.0000 0.0000 38.1347
#
#
#
# Elastic Compliance Matrix: (Units=1/GPa)
#
#
# Indices 1 2 3 4 5 6 
#
# 1 0.008650 -0.004025 0.000734 0.000000 0.000000 0.000000
# 2 -0.004025 0.008512 -0.000747 0.000000 0.000000 0.000000
# 3 0.000734 -0.000747 0.017740 0.000000 0.000000 0.000000
# 4 0.000000 0.000000 0.000000 0.059177 0.000000 0.000000
# 5 0.000000 0.000000 0.000000 0.000000 0.225878 0.000000
# 6 0.000000 0.000000 0.000000 0.000000 0.000000 0.026223
#
#
# Mechanical properties :
#
#
# Convention : Reuss Voigt Hill
#
# Bulk Modulus (GPa) = 37.27622 55.12895 46.20258
# Shear Modulus (GPa) = 13.76667 30.94077 22.35372
#
# Velocity S-wave (km/s) = 2.49524 3.74079 3.17960
# Velocity P-wave (km/s) = 5.01601 6.60234 5.86308
#
# Compressibility (1/GPa) = 0.02682676
#
# Stress axis : x y z
#
# Youngs Moduli (GPa) = 115.60413 117.48794 56.37103
#
# Poissons Ratio (x) = 0.47284 -0.04138
# Poissons Ratio (y) = 0.46526 0.04210
# Poissons Ratio (z) = -0.08486 0.08774
#
# Static dielectric constant tensor:
#      x y z
#    x 1.801070 0.000000 0.000000 
#    y 0.000000 1.817190 0.000000 
#    z 0.000000 0.000000 1.850500 
# 
# From -- ./inp_files/6623.got.cif
#   From: 2010.05.17/outbox.cif.g08.bks.cpg/sg55_4_cif.got.tgz:6623.got - 2010.06.03 13:27:54.
