data_PCOD9425690
_publ_section_title
;
Structure prediction by ZEFSAII (Michael W. Deem and Ramdas Pophale) SiO2 
 PCOD9425690
Probable space group: P B A M
;
_chemical_formula_sum "Si O2"
_cell_formula_units_Z 40
_cell_length_a 9.504418
_cell_length_b 29.805653
_cell_length_c 7.703285
_cell_angle_alpha 90.000000
_cell_angle_beta 90.000000
_cell_angle_gamma 90.000000
_cell_volume 2182.228056
_symmetry_space_group_name_H-M "P B A M"
_symmetry_group_IT_number 55
_symmetry_cell_setting 'orthorhombic'
loop_
_space_group_symop_operation_xyz
x,y,z
-x,-y,z
1/2+x,1/2-y,-z
1/2-x,1/2+y,-z
-x,-y,-z
x,y,-z
1/2-x,1/2+y,z
1/2+x,1/2-y,z
loop_
_atom_site_type_symbol
_atom_site_label
_atom_site_fract_x
_atom_site_fract_y
_atom_site_fract_z
Si Si1 0.909707 0.795678 0.000000
Si Si2 0.405299 0.959459 0.705847
Si Si3 0.393952 0.119918 0.197401
Si Si4 0.419974 0.633255 0.301140
Si Si5 0.585723 0.543819 0.287819
Si Si6 0.424655 0.203586 0.000000
O O1 0.942347 0.825954 0.831263
O O2 0.742089 0.787511 0.000000
O O3 0.989903 0.748879 0.000000
O O4 0.390653 0.967652 0.500000
O O5 0.490653 0.913548 0.730354
O O6 0.246693 0.957399 0.774851
O O7 0.500000 0.000000 0.778124
O O8 0.246373 0.121163 0.295763
O O9 0.358892 0.104908 0.000000
O O10 0.450805 0.170472 0.164645
O O11 0.458769 0.644004 0.500000
O O12 0.506923 0.589718 0.241080
O O13 0.500000 0.500000 0.230365
O O14 0.586097 0.543081 0.500000
#
# Coordination Sequence:
#
# PCOD9425690 Si02
#       6
#     4   8   8   8   8   4
#     4  10  20  40  57  82 111 140 185 226 278 342
#     4  10  19  32  53  80 112 150 189 232 277 326
#     4   9  19  36  54  80 107 144 187 224 275 331
#     4  10  19  36  60  81 110 147 183 230 275 327
#     4   9  18  32  51  79 111 147 188 225 273 330
#     4   8  20  36  57  74 107 142 169 230 280 318
#
# _framework density 18.329889999999999
#
# number of rings (size 3 to 8) (size 9 to 14) (size 15 to 20)
#    0.600    2.000    1.000    1.800    0.000    5.200 
#    1.800    5.500    0.000    0.000    0.000    0.000 
#    0.000    0.000    0.000    0.000    0.000    0.000 
#
# Total GULP energy -222887.017177 kJ/mol
# GULP energy per Si atom -5572.175429 kJ/mol
# Density = 1.828817 g / cm^3
# Si number density = 18.329890 Si / 1000 Ang^3
#
#
#
# Elastic Constant Matrix: (Units=GPa)
#
#
# Indices 1 2 3 4 5 6 
#
# 1 118.3551 106.9379 11.1824 0.0000 0.0000 0.0000
# 2 106.9379 161.9530 8.1520 0.0000 0.0000 0.0000
# 3 11.1824 8.1520 36.4689 0.0000 0.0000 0.0000
# 4 0.0000 0.0000 0.0000 21.9531 0.0000 0.0000
# 5 0.0000 0.0000 0.0000 0.0000 24.2577 0.0000
# 6 0.0000 0.0000 0.0000 0.0000 0.0000 38.2350
#
#
#
# Elastic Compliance Matrix: (Units=1/GPa)
#
#
# Indices 1 2 3 4 5 6 
#
# 1 0.021363 -0.013933 -0.003436 0.000000 0.000000 0.000000
# 2 -0.013933 0.015332 0.000845 0.000000 0.000000 0.000000
# 3 -0.003436 0.000845 0.028285 0.000000 0.000000 0.000000
# 4 0.000000 0.000000 0.000000 0.045552 0.000000 0.000000
# 5 0.000000 0.000000 0.000000 0.000000 0.041224 0.000000
# 6 0.000000 0.000000 0.000000 0.000000 0.000000 0.026154
#
#
# Mechanical properties :
#
#
# Convention : Reuss Voigt Hill
#
# Bulk Modulus (GPa) = 31.31620 63.25796 47.28708
# Shear Modulus (GPa) = 22.56308 29.58947 26.07628
#
# Velocity S-wave (km/s) = 3.51229 4.02216 3.77584
# Velocity P-wave (km/s) = 5.79397 7.49374 6.69799
#
# Compressibility (1/GPa) = 0.03193235
#
# Stress axis : x y z
#
# Youngs Moduli (GPa) = 46.81096 65.22332 35.35407
#
# Poissons Ratio (x) = 0.90874 0.12147
# Poissons Ratio (y) = 0.65221 -0.02987
# Poissons Ratio (z) = 0.16084 -0.05511
#
# Static dielectric constant tensor:
#      x y z
#    x 1.615160 0.000000 0.000000 
#    y 0.000000 1.611610 0.000000 
#    z 0.000000 0.000000 1.666060 
# 
# From -- ./inp_files/2636.got.cif
#   From: 2010.05.17/outbox.cif.g08.bks.cpg/sg55_2_cif.got.tgz:2636.got - 2010.06.03 13:27:54.
