data_PCOD9425743
_publ_section_title
;
Structure prediction by ZEFSAII (Michael W. Deem and Ramdas Pophale) SiO2 
 PCOD9425743
Probable space group: P B A M
;
_chemical_formula_sum "Si O2"
_cell_formula_units_Z 48
_cell_length_a 18.666205
_cell_length_b 14.233276
_cell_length_c 8.924977
_cell_angle_alpha 90.000000
_cell_angle_beta 90.000000
_cell_angle_gamma 90.000000
_cell_volume 2371.199024
_symmetry_space_group_name_H-M "P B A M"
_symmetry_group_IT_number 55
_symmetry_cell_setting 'orthorhombic'
loop_
_space_group_symop_operation_xyz
x,y,z
-x,-y,z
1/2+x,1/2-y,-z
1/2-x,1/2+y,-z
-x,-y,-z
x,y,-z
1/2-x,1/2+y,z
1/2+x,1/2-y,z
loop_
_atom_site_type_symbol
_atom_site_label
_atom_site_fract_x
_atom_site_fract_y
_atom_site_fract_z
Si Si1 0.039813 0.371025 0.322410
Si Si2 0.849272 0.134499 0.820777
Si Si3 0.853370 0.938532 0.678719
Si Si4 0.766096 0.321608 0.179266
Si Si5 0.102639 0.539741 0.821408
Si Si6 0.504460 0.341975 0.678222
O O1 0.042296 0.388615 0.500000
O O2 0.099851 0.433977 0.241716
O O3 0.040529 0.259919 0.297714
O O4 0.964204 0.407760 0.256365
O O5 0.798923 0.221398 0.774952
O O6 0.930139 0.153459 0.765219
O O7 0.827338 0.035054 0.751926
O O8 0.848214 0.129379 0.000000
O O9 0.850085 0.944681 0.500000
O O10 0.804570 0.853687 0.736152
O O11 0.936022 0.918483 0.720927
O O12 0.826442 0.400869 0.209852
O O13 0.753764 0.320014 0.000000
O O14 0.091518 0.538384 0.000000
O O15 0.489363 0.351639 0.500000
#
# Coordination Sequence:
#
# PCOD9425743 Si02
#       6
#     8   8   8   8   8   8
#     4  10  19  32  55  87 119 153 197 245 297 356
#     4  11  23  42  67  92 121 160 206 253 306 366
#     4  11  25  42  62  91 125 161 204 253 307 366
#     4  10  23  42  62  88 122 161 206 254 307 368
#     4  10  19  34  55  83 119 155 197 246 300 357
#     4  10  22  40  61  89 125 161 204 254 303 363
#
# _framework density 20.242923000000001
#
# number of rings (size 3 to 8) (size 9 to 14) (size 15 to 20)
#    0.000    1.667    1.667    3.500    0.000    8.000 
#    0.000    3.333    0.000    0.000    0.000    0.000 
#    0.000    0.000    0.000    0.000    0.000    0.000 
#
# Total GULP energy -268300.021475 kJ/mol
# GULP energy per Si atom -5589.583781 kJ/mol
# Density = 2.019685 g / cm^3
# Si number density = 20.242923 Si / 1000 Ang^3
#
#
#
# Elastic Constant Matrix: (Units=GPa)
#
#
# Indices 1 2 3 4 5 6 
#
# 1 79.1983 50.5628 33.0888 0.0000 0.0000 0.0000
# 2 50.5628 100.8317 40.6268 0.0000 0.0000 0.0000
# 3 33.0888 40.6268 51.0172 0.0000 0.0000 0.0000
# 4 0.0000 0.0000 0.0000 31.8091 0.0000 0.0000
# 5 0.0000 0.0000 0.0000 0.0000 30.1925 0.0000
# 6 0.0000 0.0000 0.0000 0.0000 0.0000 24.9196
#
#
#
# Elastic Compliance Matrix: (Units=1/GPa)
#
#
# Indices 1 2 3 4 5 6 
#
# 1 0.020335 -0.007190 -0.007463 0.000000 0.000000 0.000000
# 2 -0.007190 0.017145 -0.008990 0.000000 0.000000 0.000000
# 3 -0.007463 -0.008990 0.031601 0.000000 0.000000 0.000000
# 4 0.000000 0.000000 0.000000 0.031438 0.000000 0.000000
# 5 0.000000 0.000000 0.000000 0.000000 0.033121 0.000000
# 6 0.000000 0.000000 0.000000 0.000000 0.000000 0.040129
#
#
# Mechanical properties :
#
#
# Convention : Reuss Voigt Hill
#
# Bulk Modulus (GPa) = 45.88320 53.28931 49.58625
# Shear Modulus (GPa) = 21.89911 24.50216 23.20063
#
# Velocity S-wave (km/s) = 3.29266 3.48286 3.38910
# Velocity P-wave (km/s) = 6.09680 6.52348 6.31375
#
# Compressibility (1/GPa) = 0.02179447
#
# Stress axis : x y z
#
# Youngs Moduli (GPa) = 49.17626 58.32514 31.64486
#
# Poissons Ratio (x) = 0.41936 0.23617
# Poissons Ratio (y) = 0.35358 0.28449
# Poissons Ratio (z) = 0.36701 0.52434
#
# Static dielectric constant tensor:
#      x y z
#    x 1.706920 0.000000 0.000000 
#    y 0.000000 1.746220 0.000000 
#    z 0.000000 0.000000 1.670330 
# 
# From -- ./inp_files/7429.got.cif
#   From: 2010.05.17/outbox.cif.g08.bks.cpg/sg55_4_cif.got.tgz:7429.got - 2010.06.03 13:27:54.
