data_PCOD9425683
_publ_section_title
;
Structure prediction by ZEFSAII (Michael W. Deem and Ramdas Pophale) SiO2 
 PCOD9425683
Probable space group: P B A M
;
_chemical_formula_sum "Si O2"
_cell_formula_units_Z 48
_cell_length_a 17.852444
_cell_length_b 8.666453
_cell_length_c 15.639399
_cell_angle_alpha 90.000000
_cell_angle_beta 90.000000
_cell_angle_gamma 90.000000
_cell_volume 2419.686633
_symmetry_space_group_name_H-M "P B A M"
_symmetry_group_IT_number 55
_symmetry_cell_setting 'orthorhombic'
loop_
_space_group_symop_operation_xyz
x,y,z
-x,-y,z
1/2+x,1/2-y,-z
1/2-x,1/2+y,-z
-x,-y,-z
x,y,-z
1/2-x,1/2+y,z
1/2+x,1/2-y,z
loop_
_atom_site_type_symbol
_atom_site_label
_atom_site_fract_x
_atom_site_fract_y
_atom_site_fract_z
Si Si1 0.076937 0.062259 0.760331
Si Si2 0.646211 0.570552 0.594485
Si Si3 0.423779 0.929319 0.268746
Si Si4 0.780035 0.841198 0.840163
Si Si5 0.354309 0.972234 0.094997
Si Si6 0.211460 0.615314 0.656253
O O1 0.072395 0.244542 0.738524
O O2 0.149904 0.045135 0.820641
O O3 0.091908 0.970949 0.672603
O O4 0.000000 0.000000 0.799127
O O5 0.614768 0.545608 0.500000
O O6 0.719299 0.463048 0.608387
O O7 0.673718 0.745590 0.605911
O O8 0.411543 0.996353 0.172752
O O9 0.500000 0.000000 0.304883
O O10 0.351097 0.987948 0.319995
O O11 0.815288 0.690554 0.881842
O O12 0.743964 0.816788 0.745929
O O13 0.713680 0.908102 0.896445
O O14 0.386183 0.972110 0.000000
#
# Coordination Sequence:
#
# PCOD9425683 Si02
#       6
#     8   8   8   8   8   8
#     4  10  20  36  56  76 103 139 179 217 257 310
#     4  11  21  34  56  82 108 134 168 218 265 306
#     4  10  21  36  55  76 103 141 180 214 254 312
#     4   9  18  33  53  76 101 136 174 208 252 310
#     4  10  19  32  53  79 106 132 167 217 263 304
#     4  10  19  35  55  78 105 139 178 210 253 312
#
# _framework density 19.837278999999999
#
# number of rings (size 3 to 8) (size 9 to 14) (size 15 to 20)
#    0.000    2.000    0.000    7.000    0.000    2.000 
#    0.000    0.833    0.000   18.000    0.000    0.000 
#    0.000    0.000    0.000    0.000    0.000    0.000 
#
# Total GULP energy -267972.611030 kJ/mol
# GULP energy per Si atom -5582.762730 kJ/mol
# Density = 1.979213 g / cm^3
# Si number density = 19.837279 Si / 1000 Ang^3
#
#
#
# Elastic Constant Matrix: (Units=GPa)
#
#
# Indices 1 2 3 4 5 6 
#
# 1 60.1994 -8.5663 -17.6589 0.0000 0.0000 0.0000
# 2 -8.5663 43.1232 -17.7551 0.0000 0.0000 0.0000
# 3 -17.6589 -17.7551 42.2295 0.0000 0.0000 0.0000
# 4 0.0000 0.0000 0.0000 145.2179 0.0000 0.0000
# 5 0.0000 0.0000 0.0000 0.0000 5.3464 0.0000
# 6 0.0000 0.0000 0.0000 0.0000 0.0000 24.2868
#
#
#
# Elastic Compliance Matrix: (Units=1/GPa)
#
#
# Indices 1 2 3 4 5 6 
#
# 1 0.021909 0.009825 0.013292 0.000000 0.000000 0.000000
# 2 0.009825 0.032450 0.017752 0.000000 0.000000 0.000000
# 3 0.013292 0.017752 0.036702 0.000000 0.000000 0.000000
# 4 0.000000 0.000000 0.000000 0.006886 0.000000 0.000000
# 5 0.000000 0.000000 0.000000 0.000000 0.187042 0.000000
# 6 0.000000 0.000000 0.000000 0.000000 0.000000 0.041175
#
#
# Mechanical properties :
#
#
# Convention : Reuss Voigt Hill
#
# Bulk Modulus (GPa) = 5.78708 6.39906 6.09307
# Shear Modulus (GPa) = 16.55488 47.60571 32.08030
#
# Velocity S-wave (km/s) = 2.89196 4.90410 4.02577
# Velocity P-wave (km/s) = 3.75165 5.94136 4.96863
#
# Compressibility (1/GPa) = 0.17279858
#
# Stress axis : x y z
#
# Youngs Moduli (GPa) = 45.64401 30.81669 27.24640
#
# Poissons Ratio (x) = -0.30277 -0.36217
# Poissons Ratio (y) = -0.44845 -0.48367
# Poissons Ratio (z) = -0.60671 -0.54705
#
# Static dielectric constant tensor:
#      x y z
#    x 1.694540 0.000000 0.000000 
#    y 0.000000 1.703000 0.000000 
#    z 0.000000 0.000000 1.738230 
# 
# From -- ./inp_files/17377.got.cif
#   From: 2010.05.17/outbox.cif.g08.bks.cpg/sg55_9_cif.got.tgz:17377.got - 2010.06.03 13:27:54.
