data_PCOD9425706
_publ_section_title
;
Structure prediction by ZEFSAII (Michael W. Deem and Ramdas Pophale) SiO2 
 PCOD9425706
Probable space group: P B A M
;
_chemical_formula_sum "Si O2"
_cell_formula_units_Z 56
_cell_length_a 22.520168
_cell_length_b 8.913324
_cell_length_c 14.127684
_cell_angle_alpha 90.000000
_cell_angle_beta 90.000000
_cell_angle_gamma 90.000000
_cell_volume 2835.843707
_symmetry_space_group_name_H-M "P B A M"
_symmetry_group_IT_number 55
_symmetry_cell_setting 'orthorhombic'
loop_
_space_group_symop_operation_xyz
x,y,z
-x,-y,z
1/2+x,1/2-y,-z
1/2-x,1/2+y,-z
-x,-y,-z
x,y,-z
1/2-x,1/2+y,z
1/2+x,1/2-y,z
loop_
_atom_site_type_symbol
_atom_site_label
_atom_site_fract_x
_atom_site_fract_y
_atom_site_fract_z
Si Si1 0.780301 0.938343 0.889708
Si Si2 0.670070 0.682050 0.613335
Si Si3 0.858822 0.493510 0.110139
Si Si4 0.933653 0.015047 0.290900
Si Si5 0.391000 0.347360 0.107820
Si Si6 0.713819 0.012550 0.614202
Si Si7 0.854200 0.735217 0.748407
O O1 0.805969 0.819484 0.815202
O O2 0.712218 0.980387 0.871354
O O3 0.824964 0.079920 0.882341
O O4 0.783359 0.884229 0.000000
O O5 0.666591 0.684797 0.500000
O O6 0.607471 0.634997 0.655504
O O7 0.718549 0.555241 0.639792
O O8 0.693773 0.845845 0.643444
O O9 0.885628 0.329186 0.125194
O O10 0.884408 0.616904 0.180221
O O11 0.866409 0.534187 0.000000
O O12 0.932505 0.071765 0.182686
O O13 0.899344 0.857369 0.291454
O O14 0.000000 0.000000 0.327482
O O15 0.409618 0.373142 0.000000
O O16 0.708828 0.022909 0.500000
O O17 0.675026 0.138715 0.665231
#
# Coordination Sequence:
#
# PCOD9425706 Si02
#       7
#     8   8   8   8   8   8   8
#     4   9  18  31  50  83 122 157 189 229 287 356
#     4  10  22  42  65  90 120 153 190 240 298 356
#     4  10  19  32  53  85 120 152 192 242 298 360
#     4  11  25  42  59  83 115 160 211 249 288 344
#     4   9  19  35  54  78 113 157 199 240 289 344
#     4  10  22  39  64  97 127 151 185 236 300 369
#     4  11  22  33  59  86 120 160 192 241 296 351
#
# _framework density 19.747209999999999
#
# number of rings (size 3 to 8) (size 9 to 14) (size 15 to 20)
#    0.000    2.000    0.000    3.000    8.000    5.143 
#    0.000    2.857    0.000    3.429    0.000    0.000 
#    0.000    0.000    0.000    0.000    0.000    0.000 
#
# Total GULP energy -313052.633093 kJ/mol
# GULP energy per Si atom -5590.225591 kJ/mol
# Density = 1.970226 g / cm^3
# Si number density = 19.747210 Si / 1000 Ang^3
#
#
#
# Elastic Constant Matrix: (Units=GPa)
#
#
# Indices 1 2 3 4 5 6 
#
# 1 81.4641 39.2252 26.5691 0.0000 0.0000 0.0000
# 2 39.2252 99.8341 38.1633 0.0000 0.0000 0.0000
# 3 26.5691 38.1633 49.2074 0.0000 0.0000 0.0000
# 4 0.0000 0.0000 0.0000 35.9013 0.0000 0.0000
# 5 0.0000 0.0000 0.0000 0.0000 8.6495 0.0000
# 6 0.0000 0.0000 0.0000 0.0000 0.0000 10.7468
#
#
#
# Elastic Compliance Matrix: (Units=1/GPa)
#
#
# Indices 1 2 3 4 5 6 
#
# 1 0.016082 -0.004263 -0.005377 0.000000 0.000000 0.000000
# 2 -0.004263 0.015368 -0.009617 0.000000 0.000000 0.000000
# 3 -0.005377 -0.009617 0.030684 0.000000 0.000000 0.000000
# 4 0.000000 0.000000 0.000000 0.027854 0.000000 0.000000
# 5 0.000000 0.000000 0.000000 0.000000 0.115614 0.000000
# 6 0.000000 0.000000 0.000000 0.000000 0.000000 0.093051
#
#
# Mechanical properties :
#
#
# Convention : Reuss Voigt Hill
#
# Bulk Modulus (GPa) = 42.33767 48.71344 45.52556
# Shear Modulus (GPa) = 14.49113 19.49605 16.99359
#
# Velocity S-wave (km/s) = 2.71187 3.14551 2.93671
# Velocity P-wave (km/s) = 5.59393 6.15747 5.88245
#
# Compressibility (1/GPa) = 0.02361963
#
# Stress axis : x y z
#
# Youngs Moduli (GPa) = 62.18248 65.07095 32.59056
#
# Poissons Ratio (x) = 0.27741 0.17523
# Poissons Ratio (y) = 0.26510 0.31342
# Poissons Ratio (z) = 0.33434 0.62578
#
# Static dielectric constant tensor:
#      x y z
#    x 1.665720 0.000000 0.000000 
#    y 0.000000 1.708070 0.000000 
#    z 0.000000 0.000000 1.729150 
# 
# From -- ./inp_files/19756.got.cif
#   From: 2010.05.17/outbox.cif.g08.bks.cpg/sg55_10_cif.got.tgz:19756.got - 2010.06.03 13:27:54.
