data_PCOD9425487
_publ_section_title
;
Structure prediction by ZEFSAII (Michael W. Deem and Ramdas Pophale) SiO2 
 PCOD9425487
Probable space group: P B A M
;
_chemical_formula_sum "Si O2"
_cell_formula_units_Z 56
_cell_length_a 17.978970
_cell_length_b 19.970669
_cell_length_c 7.642630
_cell_angle_alpha 90.000000
_cell_angle_beta 90.000000
_cell_angle_gamma 90.000000
_cell_volume 2744.102036
_symmetry_space_group_name_H-M "P B A M"
_symmetry_group_IT_number 55
_symmetry_cell_setting 'orthorhombic'
loop_
_space_group_symop_operation_xyz
x,y,z
-x,-y,z
1/2+x,1/2-y,-z
1/2-x,1/2+y,-z
-x,-y,-z
x,y,-z
1/2-x,1/2+y,z
1/2+x,1/2-y,z
loop_
_atom_site_type_symbol
_atom_site_label
_atom_site_fract_x
_atom_site_fract_y
_atom_site_fract_z
Si Si1 0.477571 0.289125 0.800392
Si Si2 0.452216 0.146288 0.785321
Si Si3 0.028506 0.072311 0.212666
Si Si4 0.158730 0.533020 0.798166
Si Si5 0.644131 0.256444 0.705955
Si Si6 0.301750 0.607079 0.295143
Si Si7 0.121596 0.387084 0.789019
O O1 0.439799 0.222727 0.722058
O O2 0.480104 0.363825 0.722871
O O3 0.565246 0.268475 0.800684
O O4 0.450863 0.295494 0.000000
O O5 0.393534 0.091404 0.722476
O O6 0.535359 0.123005 0.736383
O O7 0.450166 0.149310 0.000000
O O8 0.113700 0.083569 0.267117
O O9 0.026451 0.074219 0.000000
O O10 0.000000 0.000000 0.270428
O O11 0.242266 0.559816 0.794585
O O12 0.149916 0.458681 0.722797
O O13 0.133955 0.526601 0.000000
O O14 0.630204 0.268142 0.500000
O O15 0.699365 0.315189 0.765347
O O16 0.665171 0.179390 0.730138
O O17 0.284024 0.604989 0.500000
O O18 0.124559 0.386145 0.000000
#
# Coordination Sequence:
#
# PCOD9425487 Si02
#       7
#     8   8   8   8   8   8   8
#     4   8  14  27  48  71  93 118 151 192 238 286
#     4   8  14  27  48  72  96 123 157 196 238 286
#     4   9  17  31  53  77  98 122 159 209 253 289
#     4  10  19  31  49  72  99 130 162 200 246 294
#     4   9  17  30  48  67  89 121 159 195 232 281
#     4  10  21  35  49  68  98 134 167 198 240 294
#     4   9  17  30  50  74  96 122 160 203 246 291
#
# _framework density 20.407406000000002
#
# number of rings (size 3 to 8) (size 9 to 14) (size 15 to 20)
#    0.000    3.000    0.000    2.143    0.000    4.286 
#    0.000    4.286    0.000    7.714    0.000    0.000 
#    0.000    0.000    0.000    0.000    0.000    0.000 
#
# Total GULP energy -311956.353986 kJ/mol
# GULP energy per Si atom -5570.649178 kJ/mol
# Density = 2.036096 g / cm^3
# Si number density = 20.407406 Si / 1000 Ang^3
#
#
#
# Elastic Constant Matrix: (Units=GPa)
#
#
# Indices 1 2 3 4 5 6 
#
# 1 34.6883 52.4165 -5.3332 0.0000 0.0000 0.0000
# 2 52.4165 233.3805 3.9610 0.0000 0.0000 0.0000
# 3 -5.3332 3.9610 45.0840 0.0000 0.0000 0.0000
# 4 0.0000 0.0000 0.0000 1.0154 0.0000 0.0000
# 5 0.0000 0.0000 0.0000 0.0000 -312.5829 0.0000
# 6 0.0000 0.0000 0.0000 0.0000 0.0000 18.1932
#
#
#
# Elastic Compliance Matrix: (Units=1/GPa)
#
#
# Indices 1 2 3 4 5 6 
#
# 1 0.045340 -0.010290 0.006268 0.000000 0.000000 0.000000
# 2 -0.010290 0.006626 -0.001799 0.000000 0.000000 0.000000
# 3 0.006268 -0.001799 0.023080 0.000000 0.000000 0.000000
# 4 0.000000 0.000000 0.000000 0.984808 0.000000 0.000000
# 5 0.000000 0.000000 0.000000 0.000000 -0.003199 0.000000
# 6 0.000000 0.000000 0.000000 0.000000 0.000000 0.054966
#
#
# Mechanical properties :
#
#
# Convention : Reuss Voigt Hill
#
# Bulk Modulus (GPa) = 15.77190 46.13793 30.95491
# Shear Modulus (GPa) = 4.36911 -41.20094 -18.41592
#
# Velocity S-wave (km/s) = 1.46478 -4.49812 -3.00728
# Velocity P-wave (km/s) = 3.25670 2.07843 1.77288
#
# Compressibility (1/GPa) = 0.06340392
#
# Stress axis : x y z
#
# Youngs Moduli (GPa) = 22.05551 150.91150 43.32696
#
# Poissons Ratio (x) = 1.55282 -0.27155
# Poissons Ratio (y) = 0.22694 0.07796
# Poissons Ratio (z) = -0.13823 0.27155
#
# Static dielectric constant tensor:
#      x y z
#    x 1.671010 0.000000 0.000000 
#    y 0.000000 1.798010 0.000000 
#    z 0.000000 0.000000 1.758090 
# 
# From -- ./inp_files/6074.got.cif
#   From: 2010.05.17/outbox.cif.g08.bks.cpg/sg55_4_cif.got.tgz:6074.got - 2010.06.03 13:27:54.
