data_PCOD9425436
_publ_section_title
;
Structure prediction by ZEFSAII (Michael W. Deem and Ramdas Pophale) SiO2 
 PCOD9425436
Probable space group: P B A M
;
_chemical_formula_sum "Si O2"
_cell_formula_units_Z 58
_cell_length_a 19.405402
_cell_length_b 15.312113
_cell_length_c 7.857261
_cell_angle_alpha 90.000000
_cell_angle_beta 90.000000
_cell_angle_gamma 90.000000
_cell_volume 2334.688527
_symmetry_space_group_name_H-M "P B A M"
_symmetry_group_IT_number 55
_symmetry_cell_setting 'orthorhombic'
loop_
_space_group_symop_operation_xyz
x,y,z
-x,-y,z
1/2+x,1/2-y,-z
1/2-x,1/2+y,-z
-x,-y,-z
x,y,-z
1/2-x,1/2+y,z
1/2+x,1/2-y,z
loop_
_atom_site_type_symbol
_atom_site_label
_atom_site_fract_x
_atom_site_fract_y
_atom_site_fract_z
Si Si1 0.339152 0.451172 0.804686
Si Si2 0.500000 0.000000 0.500000
Si Si3 0.356870 0.882192 0.805597
Si Si4 0.212670 0.215811 0.297917
Si Si5 0.435351 0.312037 0.202795
Si Si6 0.014322 0.622187 0.794902
Si Si7 0.420300 0.605128 0.700852
Si Si8 0.208621 0.555087 0.695884
O O1 0.367044 0.360156 0.732221
O O2 0.405107 0.515677 0.798370
O O3 0.282004 0.503916 0.702831
O O4 0.314471 0.441678 0.000000
O O5 0.461460 0.054897 0.346348
O O6 0.297670 0.818499 0.734208
O O7 0.433827 0.864457 0.736733
O O8 0.338191 0.983896 0.789902
O O9 0.361479 0.857525 0.000000
O O10 0.217193 0.205199 0.500000
O O11 0.139377 0.173131 0.242404
O O12 0.272869 0.151301 0.229397
O O13 0.442722 0.209747 0.229890
O O14 0.504999 0.355121 0.271184
O O15 0.434602 0.326430 0.000000
O O16 0.015552 0.600163 0.000000
O O17 0.412132 0.588488 0.500000
O O18 0.187508 0.561487 0.500000
#
# Coordination Sequence:
#
# PCOD9425436 Si02
#       8
#     8   2   8   8   8   8   8   8
#     4  10  20  34  53  81 124 169 200 238 312 378
#     4  12  26  44  72  94 118 168 198 260 334 368
#     4  11  22  38  66  94 122 161 208 264 319 378
#     4   9  19  35  57  86 119 155 201 256 308 371
#     4  10  20  35  56  85 122 161 203 255 308 373
#     4  10  24  44  67  99 128 160 216 274 322 381
#     4  10  19  30  51  85 123 157 197 245 299 365
#     4  10  22  39  59  87 125 164 207 262 316 380
#
# _framework density 24.842713
#
# number of rings (size 3 to 8) (size 9 to 14) (size 15 to 20)
#    0.000    1.931    1.379    3.103    2.897    5.517 
#    0.000    1.379    0.000    1.655    0.000    0.000 
#    0.000    0.000    0.000    0.000    0.000    0.000 
#
# Total GULP energy -323517.769355 kJ/mol
# GULP energy per Si atom -5577.892575 kJ/mol
# Density = 2.478617 g / cm^3
# Si number density = 24.842713 Si / 1000 Ang^3
#
#
#
# Elastic Constant Matrix: (Units=GPa)
#
#
# Indices 1 2 3 4 5 6 
#
# 1 85.9380 31.0278 10.4664 0.0000 0.0000 0.0000
# 2 31.0278 108.5791 22.2845 0.0000 0.0000 0.0000
# 3 10.4664 22.2845 60.6728 0.0000 0.0000 0.0000
# 4 0.0000 0.0000 0.0000 37.5193 0.0000 0.0000
# 5 0.0000 0.0000 0.0000 0.0000 15.9950 0.0000
# 6 0.0000 0.0000 0.0000 0.0000 0.0000 30.8376
#
#
#
# Elastic Compliance Matrix: (Units=1/GPa)
#
#
# Indices 1 2 3 4 5 6 
#
# 1 0.013026 -0.003527 -0.000952 0.000000 0.000000 0.000000
# 2 -0.003527 0.010916 -0.003401 0.000000 0.000000 0.000000
# 3 -0.000952 -0.003401 0.017895 0.000000 0.000000 0.000000
# 4 0.000000 0.000000 0.000000 0.026653 0.000000 0.000000
# 5 0.000000 0.000000 0.000000 0.000000 0.062520 0.000000
# 6 0.000000 0.000000 0.000000 0.000000 0.000000 0.032428
#
#
# Mechanical properties :
#
#
# Convention : Reuss Voigt Hill
#
# Bulk Modulus (GPa) = 38.34688 42.52748 40.43718
# Shear Modulus (GPa) = 26.61160 29.63114 28.12137
#
# Velocity S-wave (km/s) = 3.27647 3.45737 3.36814
# Velocity P-wave (km/s) = 5.45739 5.75271 5.60700
#
# Compressibility (1/GPa) = 0.02607774
#
# Stress axis : x y z
#
# Youngs Moduli (GPa) = 76.77201 91.61113 55.88125
#
# Poissons Ratio (x) = 0.32310 0.05318
# Poissons Ratio (y) = 0.27077 0.19004
# Poissons Ratio (z) = 0.07306 0.31155
#
# Static dielectric constant tensor:
#      x y z
#    x 2.214890 0.000000 0.000000 
#    y 0.000000 2.071240 0.000000 
#    z 0.000000 0.000000 1.883060 
# 
# From -- ./inp_files/9618.got.cif
#   From: 2010.05.17/outbox.cif.g08.bks.cpg/sg55_5_cif.got.tgz:9618.got - 2010.06.03 13:27:54.
