data_PCOD9425055
_publ_section_title
;
Structure prediction by ZEFSAII (Michael W. Deem and Ramdas Pophale) SiO2 
 PCOD9425055
Probable space group: P B A M
;
_chemical_formula_sum "Si O2"
_cell_formula_units_Z 64
_cell_length_a 23.894369
_cell_length_b 14.552796
_cell_length_c 7.587425
_cell_angle_alpha 90.000000
_cell_angle_beta 90.000000
_cell_angle_gamma 90.000000
_cell_volume 2638.374367
_symmetry_space_group_name_H-M "P B A M"
_symmetry_group_IT_number 55
_symmetry_cell_setting 'orthorhombic'
loop_
_space_group_symop_operation_xyz
x,y,z
-x,-y,z
1/2+x,1/2-y,-z
1/2-x,1/2+y,-z
-x,-y,-z
x,y,-z
1/2-x,1/2+y,z
1/2+x,1/2-y,z
loop_
_atom_site_type_symbol
_atom_site_label
_atom_site_fract_x
_atom_site_fract_y
_atom_site_fract_z
Si Si1 0.270956 0.573301 0.296753
Si Si2 0.676549 0.045352 0.288784
Si Si3 0.843668 0.100154 0.798727
Si Si4 0.943771 0.959451 0.201456
Si Si5 0.952750 0.768683 0.306511
Si Si6 0.939932 0.463618 0.211402
Si Si7 0.580422 0.759491 0.209757
Si Si8 0.834017 0.743359 0.282840
O O1 0.262124 0.599239 0.500000
O O2 0.212230 0.540523 0.215036
O O3 0.303689 0.475203 0.291120
O O4 0.304382 0.661713 0.221268
O O5 0.683249 0.043201 0.500000
O O6 0.695989 0.147680 0.232996
O O7 0.611682 0.029287 0.249951
O O8 0.869098 0.194755 0.719682
O O9 0.899810 0.039398 0.807182
O O10 0.823511 0.114865 0.000000
O O11 0.929272 0.872426 0.314582
O O12 0.953269 0.926712 0.000000
O O13 0.000000 0.000000 0.275365
O O14 0.958715 0.726956 0.500000
O O15 0.897882 0.727926 0.214837
O O16 0.015576 0.773671 0.232642
O O17 0.922596 0.362980 0.280053
O O18 0.000000 0.500000 0.277218
O O19 0.945908 0.453966 0.000000
O O20 0.590192 0.760026 0.000000
O O21 0.837158 0.745982 0.500000
#
# Coordination Sequence:
#
# PCOD9425055 Si02
#       8
#     8   8   8   8   8   8   8   8
#     4  10  21  38  59  83 115 152 190 237 283 330
#     4  10  22  40  63  85 112 150 186 230 285 340
#     4  10  20  34  53  79 112 152 190 227 279 338
#     4  10  18  31  49  72 109 152 190 229 279 339
#     4  11  20  30  51  81 114 150 191 239 281 328
#     4  10  22  41  64  88 114 146 186 238 288 335
#     4  10  21  37  55  80 119 156 187 232 290 345
#     4   9  19  36  55  81 114 147 186 232 285 336
#
# _framework density 24.257361
#
# number of rings (size 3 to 8) (size 9 to 14) (size 15 to 20)
#    0.000    2.000    2.500    1.125    0.000    3.000 
#    0.000    2.500    0.000    0.000    0.000    0.000 
#    0.000    0.000    0.000    0.000    0.000    0.000 
#
# Total GULP energy -356594.355635 kJ/mol
# GULP energy per Si atom -5571.786807 kJ/mol
# Density = 2.420215 g / cm^3
# Si number density = 24.257361 Si / 1000 Ang^3
#
#
#
# Elastic Constant Matrix: (Units=GPa)
#
#
# Indices 1 2 3 4 5 6 
#
# 1 87.6858 36.9393 -8.4869 0.0000 0.0000 0.0000
# 2 36.9393 154.0123 2.9023 0.0000 0.0000 0.0000
# 3 -8.4869 2.9023 53.2985 0.0000 0.0000 0.0000
# 4 0.0000 0.0000 0.0000 6.8802 0.0000 0.0000
# 5 0.0000 0.0000 0.0000 0.0000 350.7243 0.0000
# 6 0.0000 0.0000 0.0000 0.0000 0.0000 32.7688
#
#
#
# Elastic Compliance Matrix: (Units=1/GPa)
#
#
# Indices 1 2 3 4 5 6 
#
# 1 0.012946 -0.003147 0.002233 0.000000 0.000000 0.000000
# 2 -0.003147 0.007265 -0.000897 0.000000 0.000000 0.000000
# 3 0.002233 -0.000897 0.019167 0.000000 0.000000 0.000000
# 4 0.000000 0.000000 0.000000 0.145344 0.000000 0.000000
# 5 0.000000 0.000000 0.000000 0.000000 0.002851 0.000000
# 6 0.000000 0.000000 0.000000 0.000000 0.000000 0.030517
#
#
# Mechanical properties :
#
#
# Convention : Reuss Voigt Hill
#
# Bulk Modulus (GPa) = 27.96770 39.74510 33.85640
# Shear Modulus (GPa) = 21.40131 95.65080 58.52606
#
# Velocity S-wave (km/s) = 2.97351 6.28628 4.91727
# Velocity P-wave (km/s) = 4.83152 8.31324 6.79903
#
# Compressibility (1/GPa) = 0.03575553
#
# Stress axis : x y z
#
# Youngs Moduli (GPa) = 77.24228 137.65137 52.17397
#
# Poissons Ratio (x) = 0.43322 -0.11650
# Poissons Ratio (y) = 0.24310 0.04679
# Poissons Ratio (z) = -0.17247 0.12344
#
# Static dielectric constant tensor:
#      x y z
#    x 2.015710 0.000000 0.000000 
#    y 0.000000 2.008000 0.000000 
#    z 0.000000 0.000000 1.971160 
# 
# From -- ./inp_files/9676.got.cif
#   From: 2010.05.17/outbox.cif.g08.bks.cpg/sg55_5_cif.got.tgz:9676.got - 2010.06.03 13:27:54.
