data_PCOD9425158
_publ_section_title
;
Structure prediction by ZEFSAII (Michael W. Deem and Ramdas Pophale) SiO2 
 PCOD9425158
Probable space group: P B A M
;
_chemical_formula_sum "Si O2"
_cell_formula_units_Z 48
_cell_length_a 10.686497
_cell_length_b 29.902032
_cell_length_c 7.668540
_cell_angle_alpha 90.000000
_cell_angle_beta 90.000000
_cell_angle_gamma 90.000000
_cell_volume 2450.466430
_symmetry_space_group_name_H-M "P B A M"
_symmetry_group_IT_number 55
_symmetry_cell_setting 'orthorhombic'
loop_
_space_group_symop_operation_xyz
x,y,z
-x,-y,z
1/2+x,1/2-y,-z
1/2-x,1/2+y,-z
-x,-y,-z
x,y,-z
1/2-x,1/2+y,z
1/2+x,1/2-y,z
loop_
_atom_site_type_symbol
_atom_site_label
_atom_site_fract_x
_atom_site_fract_y
_atom_site_fract_z
Si Si1 0.508836 0.282150 0.286214
Si Si2 0.280460 0.882687 0.798613
Si Si3 0.128011 0.476550 0.785958
Si Si4 0.122201 0.026264 0.790861
Si Si5 0.497384 0.616417 0.292795
Si Si6 0.772256 0.718850 0.703324
O O1 0.505221 0.280422 0.500000
O O2 0.538858 0.333457 0.237785
O O3 0.613945 0.247858 0.222777
O O4 0.367087 0.272895 0.223409
O O5 0.355306 0.925234 0.727459
O O6 0.132772 0.894692 0.788349
O O7 0.296368 0.834290 0.713406
O O8 0.314762 0.876807 0.000000
O O9 0.249153 0.504628 0.727538
O O10 0.000000 0.500000 0.731546
O O11 0.129335 0.475668 0.000000
O O12 0.101419 0.078200 0.750164
O O13 0.122505 0.021424 0.000000
O O14 0.000000 0.000000 0.722714
O O15 0.517214 0.617372 0.500000
O O16 0.765084 0.731140 0.500000
#
# Coordination Sequence:
#
# PCOD9425158 Si02
#       6
#     8   8   8   8   8   8
#     4   8  16  31  51  70  95 127 163 197 241 298
#     4  10  18  32  53  75  99 131 169 207 247 296
#     4   9  18  33  51  70  99 137 169 198 247 310
#     4  10  18  32  53  76  98 130 170 207 250 298
#     4  10  19  32  52  78 102 131 170 210 251 297
#     4   9  17  33  53  73  95 131 167 201 247 300
#
# _framework density 19.588107999999998
#
# number of rings (size 3 to 8) (size 9 to 14) (size 15 to 20)
#    0.000    2.667    1.667    2.000    0.000    0.333 
#    3.000    4.167    0.000    3.500    0.000    0.000 
#    0.000    0.000    0.000    0.000    0.000    0.000 
#
# Total GULP energy -267707.616626 kJ/mol
# GULP energy per Si atom -5577.242013 kJ/mol
# Density = 1.954352 g / cm^3
# Si number density = 19.588108 Si / 1000 Ang^3
#
#
#
# Elastic Constant Matrix: (Units=GPa)
#
#
# Indices 1 2 3 4 5 6 
#
# 1 150.5632 108.3979 6.1417 0.0000 0.0000 0.0000
# 2 108.3979 133.9082 -5.7273 0.0000 0.0000 0.0000
# 3 6.1417 -5.7273 33.5091 0.0000 0.0000 0.0000
# 4 0.0000 0.0000 0.0000 22.8523 0.0000 0.0000
# 5 0.0000 0.0000 0.0000 0.0000 6.1321 0.0000
# 6 0.0000 0.0000 0.0000 0.0000 0.0000 40.4683
#
#
#
# Elastic Compliance Matrix: (Units=1/GPa)
#
#
# Indices 1 2 3 4 5 6 
#
# 1 0.016857 -0.013879 -0.005462 0.000000 0.000000 0.000000
# 2 -0.013879 0.018950 0.005783 0.000000 0.000000 0.000000
# 3 -0.005462 0.005783 0.031832 0.000000 0.000000 0.000000
# 4 0.000000 0.000000 0.000000 0.043759 0.000000 0.000000
# 5 0.000000 0.000000 0.000000 0.000000 0.163077 0.000000
# 6 0.000000 0.000000 0.000000 0.000000 0.000000 0.024711
#
#
# Mechanical properties :
#
#
# Convention : Reuss Voigt Hill
#
# Bulk Modulus (GPa) = 24.67749 59.51168 42.09458
# Shear Modulus (GPa) = 14.71411 27.83509 21.27460
#
# Velocity S-wave (km/s) = 2.74373 3.77373 3.29918
# Velocity P-wave (km/s) = 4.76056 7.03104 6.00410
#
# Compressibility (1/GPa) = 0.04052277
#
# Stress axis : x y z
#
# Youngs Moduli (GPa) = 59.32355 52.77013 31.41491
#
# Poissons Ratio (x) = 0.73240 0.17158
# Poissons Ratio (y) = 0.82335 -0.18166
# Poissons Ratio (z) = 0.32401 -0.30515
#
# Static dielectric constant tensor:
#      x y z
#    x 1.673800 0.000000 0.000000 
#    y 0.000000 1.679670 0.000000 
#    z 0.000000 0.000000 1.732880 
# 
# From -- ./inp_files/4025.got.cif
#   From: 2010.05.17/outbox.cif.g08.bks.cpg/sg55_3_cif.got.tgz:4025.got - 2010.06.03 13:27:54.
