data_PCOD9425841
_publ_section_title
;
Structure prediction by ZEFSAII (Michael W. Deem and Ramdas Pophale) SiO2 
 PCOD9425841
Probable space group: P B A M
;
_chemical_formula_sum "Si O2"
_cell_formula_units_Z 60
_cell_length_a 26.375697
_cell_length_b 4.997628
_cell_length_c 24.265076
_cell_angle_alpha 90.000000
_cell_angle_beta 90.000000
_cell_angle_gamma 90.000000
_cell_volume 3198.523362
_symmetry_space_group_name_H-M "P B A M"
_symmetry_group_IT_number 55
_symmetry_cell_setting 'orthorhombic'
loop_
_space_group_symop_operation_xyz
x,y,z
-x,-y,z
1/2+x,1/2-y,-z
1/2-x,1/2+y,-z
-x,-y,-z
x,y,-z
1/2-x,1/2+y,z
1/2+x,1/2-y,z
loop_
_atom_site_type_symbol
_atom_site_label
_atom_site_fract_x
_atom_site_fract_y
_atom_site_fract_z
Si Si1 0.713222 0.537455 0.120923
Si Si2 0.464914 0.259055 0.560940
Si Si3 0.442749 0.066742 0.773453
Si Si4 0.594950 0.004563 0.344635
Si Si5 0.783324 0.930843 0.000000
Si Si6 0.782629 0.865229 0.439458
Si Si7 0.127915 0.072354 0.789086
Si Si8 0.652594 0.510786 0.333365
O O1 0.741716 0.819531 0.127217
O O2 0.668317 0.490526 0.163803
O O3 0.692209 0.502114 0.058431
O O4 0.500000 0.500000 0.582361
O O5 0.446274 0.340022 0.500000
O O6 0.422745 0.148313 0.601261
O O7 0.500000 0.000000 0.555504
O O8 0.441898 0.041421 0.706775
O O9 0.417332 0.352534 0.786145
O O10 0.500000 0.000000 0.792341
O O11 0.401797 0.850948 0.794702
O O12 0.644624 0.829552 0.330251
O O13 0.604908 0.318192 0.349742
O O14 0.766888 0.621200 0.000000
O O15 0.807773 0.917322 0.500000
O O16 0.766750 0.555920 0.439126
O O17 0.810281 0.940719 0.383089
O O18 0.158322 0.072425 0.730594
#
# Coordination Sequence:
#
# PCOD9425841 Si02
#       8
#     8   8   8   8   4   8   8   8
#     4  10  19  33  54  81 115 147 173 212 259 309
#     4  10  20  32  46  66  90 115 146 185 235 299
#     4  10  20  35  53  73 102 139 178 223 264 305
#     4  10  20  33  50  70  92 120 156 199 251 305
#     4   8  16  30  50  78 109 144 181 206 246 312
#     4  10  21  36  52  68  89 123 164 201 245 306
#     4  10  21  34  51  81 107 134 180 216 262 321
#     4  10  21  34  49  71  96 119 156 208 248 295
#
# _framework density 18.758654
#
# number of rings (size 3 to 8) (size 9 to 14) (size 15 to 20)
#    0.000    2.133    0.000    3.200    0.000    4.267 
#    0.000    0.000    0.000    0.000    0.000    2.800 
#    0.000    0.000    0.000    0.000    0.000    0.000 
#
# Total GULP energy -334037.025325 kJ/mol
# GULP energy per Si atom -5567.283755 kJ/mol
# Density = 1.871596 g / cm^3
# Si number density = 18.758654 Si / 1000 Ang^3
#
#
#
# Elastic Constant Matrix: (Units=GPa)
#
#
# Indices 1 2 3 4 5 6 
#
# 1 35.6090 -9.1879 42.4084 0.0000 0.0000 0.0000
# 2 -9.1879 73.7647 -6.5299 0.0000 0.0000 0.0000
# 3 42.4084 -6.5299 103.9537 0.0000 0.0000 0.0000
# 4 0.0000 0.0000 0.0000 15.6002 0.0000 0.0000
# 5 0.0000 0.0000 0.0000 0.0000 19.4637 0.0000
# 6 0.0000 0.0000 0.0000 0.0000 0.0000 18.2291
#
#
#
# Elastic Compliance Matrix: (Units=1/GPa)
#
#
# Indices 1 2 3 4 5 6 
#
# 1 0.056408 0.005017 -0.022697 0.000000 0.000000 0.000000
# 2 0.005017 0.014079 -0.001162 0.000000 0.000000 0.000000
# 3 -0.022697 -0.001162 0.018806 0.000000 0.000000 0.000000
# 4 0.000000 0.000000 0.000000 0.064102 0.000000 0.000000
# 5 0.000000 0.000000 0.000000 0.000000 0.051378 0.000000
# 6 0.000000 0.000000 0.000000 0.000000 0.000000 0.054857
#
#
# Mechanical properties :
#
#
# Convention : Reuss Voigt Hill
#
# Bulk Modulus (GPa) = 19.37687 29.63429 24.50558
# Shear Modulus (GPa) = 15.89745 23.10105 19.49925
#
# Velocity S-wave (km/s) = 2.91430 3.51306 3.22759
# Velocity P-wave (km/s) = 4.65577 5.68220 5.19440
#
# Compressibility (1/GPa) = 0.05160792
#
# Stress axis : x y z
#
# Youngs Moduli (GPa) = 17.72809 71.02977 53.17499
#
# Poissons Ratio (x) = -0.35634 1.20689
# Poissons Ratio (y) = -0.08894 0.06180
# Poissons Ratio (z) = 0.40237 0.08256
#
# Static dielectric constant tensor:
#      x y z
#    x 1.642560 0.000000 0.000000 
#    y 0.000000 1.632670 0.000000 
#    z 0.000000 0.000000 1.699610 
# 
# From -- ./inp_files/22410.got.cif
#   From: 2010.05.17/outbox.cif.g08.bks.cpg/sg55_12_cif.got.tgz:22410.got - 2010.06.03 13:27:54.
