data_PCOD9425599
_publ_section_title
;
Structure prediction by ZEFSAII (Michael W. Deem and Ramdas Pophale) SiO2 
 PCOD9425599
Probable space group: P B A M
;
_chemical_formula_sum "Si O2"
_cell_formula_units_Z 56
_cell_length_a 19.686476
_cell_length_b 18.614380
_cell_length_c 8.521580
_cell_angle_alpha 90.000000
_cell_angle_beta 90.000000
_cell_angle_gamma 90.000000
_cell_volume 3122.746158
_symmetry_space_group_name_H-M "P B A M"
_symmetry_group_IT_number 55
_symmetry_cell_setting 'orthorhombic'
loop_
_space_group_symop_operation_xyz
x,y,z
-x,-y,z
1/2+x,1/2-y,-z
1/2-x,1/2+y,-z
-x,-y,-z
x,y,-z
1/2-x,1/2+y,z
1/2+x,1/2-y,z
loop_
_atom_site_type_symbol
_atom_site_label
_atom_site_fract_x
_atom_site_fract_y
_atom_site_fract_z
Si Si1 0.640462 0.045839 0.688720
Si Si2 0.387684 0.690987 0.310273
Si Si3 0.214426 0.986393 0.681702
Si Si4 0.257629 0.155055 0.318658
Si Si5 0.427510 0.530328 0.692377
Si Si6 0.459165 0.831564 0.812261
Si Si7 0.604908 0.888867 0.186466
O O1 0.641991 0.050582 0.500000
O O2 0.591747 0.106309 0.755886
O O3 0.718646 0.051525 0.749442
O O4 0.613626 0.966857 0.734600
O O5 0.385584 0.691076 0.500000
O O6 0.308738 0.696531 0.257528
O O7 0.416669 0.613301 0.261219
O O8 0.432727 0.756173 0.252333
O O9 0.209372 0.963115 0.500000
O O10 0.234172 0.071191 0.681353
O O11 0.138378 0.985173 0.749003
O O12 0.270067 0.175005 0.500000
O O13 0.328037 0.156994 0.227116
O O14 0.500000 0.500000 0.742454
O O15 0.425578 0.528713 0.500000
O O16 0.535445 0.851548 0.759929
O O17 0.459027 0.829278 0.000000
O O18 0.601552 0.899990 0.000000
#
# Coordination Sequence:
#
# PCOD9425599 Si02
#       7
#     8   8   8   8   8   8   8
#     4  10  19  32  51  72  97 131 170 213 255 296
#     4   9  18  33  52  74  99 129 168 209 250 300
#     4   7  12  24  43  69  96 117 145 190 239 284
#     4   8  15  30  51  71  91 120 161 205 243 287
#     4   8  13  25  49  77 100 122 153 199 250 293
#     4  11  23  35  47  69 104 138 166 204 255 309
#     4  10  20  33  50  73 100 131 168 208 251 302
#
# _framework density 17.932933999999999
#
# number of rings (size 3 to 8) (size 9 to 14) (size 15 to 20)
#    0.000    3.000    0.000    4.286    0.000    4.571 
#    0.000    1.429    0.000    3.857    0.000    0.000 
#    0.000    0.000    0.000    0.000    0.000    0.000 
#
# Total GULP energy -311876.963798 kJ/mol
# GULP energy per Si atom -5569.231496 kJ/mol
# Density = 1.789212 g / cm^3
# Si number density = 17.932934 Si / 1000 Ang^3
#
#
#
# Elastic Constant Matrix: (Units=GPa)
#
#
# Indices 1 2 3 4 5 6 
#
# 1 196.7411 67.9811 19.4859 0.0000 0.0000 0.0000
# 2 67.9811 59.2747 9.5511 0.0000 0.0000 0.0000
# 3 19.4859 9.5511 10.2911 0.0000 0.0000 0.0000
# 4 0.0000 0.0000 0.0000 0.2470 0.0000 0.0000
# 5 0.0000 0.0000 0.0000 0.0000 0.4698 0.0000
# 6 0.0000 0.0000 0.0000 0.0000 0.0000 17.9695
#
#
#
# Elastic Compliance Matrix: (Units=1/GPa)
#
#
# Indices 1 2 3 4 5 6 
#
# 1 0.009053 -0.008961 -0.008826 0.000000 0.000000 0.000000
# 2 -0.008961 0.028707 -0.009675 0.000000 0.000000 0.000000
# 3 -0.008826 -0.009675 0.122861 0.000000 0.000000 0.000000
# 4 0.000000 0.000000 0.000000 4.048228 0.000000 0.000000
# 5 0.000000 0.000000 0.000000 0.000000 2.128370 0.000000
# 6 0.000000 0.000000 0.000000 0.000000 0.000000 0.055650
#
#
# Mechanical properties :
#
#
# Convention : Reuss Voigt Hill
#
# Bulk Modulus (GPa) = 9.46090 51.14923 30.30506
# Shear Modulus (GPa) = 0.77124 15.02320 7.89722
#
# Velocity S-wave (km/s) = 0.65651 2.89752 2.10079
# Velocity P-wave (km/s) = 2.42112 6.30703 4.77705
#
# Compressibility (1/GPa) = 0.10569816
#
# Stress axis : x y z
#
# Youngs Moduli (GPa) = 110.45743 34.83504 8.13926
#
# Poissons Ratio (x) = 0.31216 0.07183
# Poissons Ratio (y) = 0.98980 0.07875
# Poissons Ratio (z) = 0.97484 0.33703
#
# Static dielectric constant tensor:
#      x y z
#    x 1.658530 0.000000 0.000000 
#    y 0.000000 1.584020 0.000000 
#    z 0.000000 0.000000 1.610900 
# 
# From -- ./inp_files/7858.got.cif
#   From: 2010.05.17/outbox.cif.g08.bks.cpg/sg55_4_cif.got.tgz:7858.got - 2010.06.03 13:27:54.
