data_PCOD9425752
_publ_section_title
;
Structure prediction by ZEFSAII (Michael W. Deem and Ramdas Pophale) SiO2 
 PCOD9425752
Probable space group: P B A M
;
_chemical_formula_sum "Si O2"
_cell_formula_units_Z 48
_cell_length_a 11.308876
_cell_length_b 16.212777
_cell_length_c 12.722665
_cell_angle_alpha 90.000000
_cell_angle_beta 90.000000
_cell_angle_gamma 90.000000
_cell_volume 2332.678805
_symmetry_space_group_name_H-M "P B A M"
_symmetry_group_IT_number 55
_symmetry_cell_setting 'orthorhombic'
loop_
_space_group_symop_operation_xyz
x,y,z
-x,-y,z
1/2+x,1/2-y,-z
1/2-x,1/2+y,-z
-x,-y,-z
x,y,-z
1/2-x,1/2+y,z
1/2+x,1/2-y,z
loop_
_atom_site_type_symbol
_atom_site_label
_atom_site_fract_x
_atom_site_fract_y
_atom_site_fract_z
Si Si1 0.281768 0.626399 0.732970
Si Si2 0.532933 0.810042 0.202472
Si Si3 0.388019 0.941129 0.108775
Si Si4 0.664954 0.201946 0.623125
Si Si5 0.010068 0.869526 0.873989
Si Si6 0.694702 0.552445 0.281475
O O1 0.294881 0.707220 0.660218
O O2 0.376480 0.630645 0.828506
O O3 0.311390 0.540389 0.672687
O O4 0.150281 0.637042 0.779223
O O5 0.443223 0.851088 0.120334
O O6 0.455400 0.810627 0.309500
O O7 0.561954 0.720473 0.157044
O O8 0.305199 0.957149 0.204413
O O9 0.500000 0.000000 0.109834
O O10 0.320556 0.950893 0.000000
O O11 0.641353 0.199288 0.500000
O O12 0.764439 0.131603 0.649760
O O13 0.086139 0.927918 0.796422
O O14 0.016207 0.884949 0.000000
#
# Coordination Sequence:
#
# PCOD9425752 Si02
#       6
#     8   8   8   8   8   8
#     4  11  23  42  64  91 130 169 208 263 314 382
#     4  10  21  42  60  89 125 166 211 266 312 370
#     4  10  19  32  57  89 123 165 210 256 307 365
#     4  10  24  44  68  94 121 161 212 271 329 376
#     4  11  24  40  62  94 134 178 214 249 307 380
#     4  11  22  41  64  93 133 164 210 264 316 374
#
# _framework density 20.577200000000001
#
# number of rings (size 3 to 8) (size 9 to 14) (size 15 to 20)
#    0.000    1.500    3.333    1.500    0.000    4.667 
#    0.000    0.833    0.000    3.000    0.000    0.000 
#    0.000    0.000    0.000    0.000    0.000    0.000 
#
# Total GULP energy -267498.373016 kJ/mol
# GULP energy per Si atom -5572.882771 kJ/mol
# Density = 2.053037 g / cm^3
# Si number density = 20.577200 Si / 1000 Ang^3
#
#
#
# Elastic Constant Matrix: (Units=GPa)
#
#
# Indices 1 2 3 4 5 6 
#
# 1 75.4541 21.1615 24.7552 0.0000 0.0000 0.0000
# 2 21.1615 147.7590 23.6303 0.0000 0.0000 0.0000
# 3 24.7552 23.6303 114.1027 0.0000 0.0000 0.0000
# 4 0.0000 0.0000 0.0000 5.1197 0.0000 0.0000
# 5 0.0000 0.0000 0.0000 0.0000 -9.6314 0.0000
# 6 0.0000 0.0000 0.0000 0.0000 0.0000 30.2341
#
#
#
# Elastic Compliance Matrix: (Units=1/GPa)
#
#
# Indices 1 2 3 4 5 6 
#
# 1 0.014645 -0.001644 -0.002837 0.000000 0.000000 0.000000
# 2 -0.001644 0.007184 -0.001131 0.000000 0.000000 0.000000
# 3 -0.002837 -0.001131 0.009614 0.000000 0.000000 0.000000
# 4 0.000000 0.000000 0.000000 0.195324 0.000000 0.000000
# 5 0.000000 0.000000 0.000000 0.000000 -0.103827 0.000000
# 6 0.000000 0.000000 0.000000 0.000000 0.000000 0.033075
#
#
# Mechanical properties :
#
#
# Convention : Reuss Voigt Hill
#
# Bulk Modulus (GPa) = 49.45804 52.93443 51.19624
# Shear Modulus (GPa) = 28.73915 22.99572 25.86743
#
# Velocity S-wave (km/s) = 3.74123 3.34658 3.54940
# Velocity P-wave (km/s) = 6.53835 6.38071 6.46001
#
# Compressibility (1/GPa) = 0.02021916
#
# Stress axis : x y z
#
# Youngs Moduli (GPa) = 68.28361 139.19657 104.01737
#
# Poissons Ratio (x) = 0.22880 0.29508
# Poissons Ratio (y) = 0.11224 0.11766
# Poissons Ratio (z) = 0.19371 0.15746
#
# Static dielectric constant tensor:
#      x y z
#    x 1.739460 0.000000 0.000000 
#    y 0.000000 1.895340 0.000000 
#    z 0.000000 0.000000 1.685390 
# 
# From -- ./inp_files/13208.got.cif
#   From: 2010.05.17/outbox.cif.g08.bks.cpg/sg55_7_cif.got.tgz:13208.got - 2010.06.03 13:27:54.
