data_PCOD9425407
_publ_section_title
;
Structure prediction by ZEFSAII (Michael W. Deem and Ramdas Pophale) SiO2 
 PCOD9425407
Probable space group: P B A M
;
_chemical_formula_sum "Si O2"
_cell_formula_units_Z 40
_cell_length_a 14.606180
_cell_length_b 5.051979
_cell_length_c 25.587817
_cell_angle_alpha 90.000000
_cell_angle_beta 90.000000
_cell_angle_gamma 90.000000
_cell_volume 1888.127950
_symmetry_space_group_name_H-M "P B A M"
_symmetry_group_IT_number 55
_symmetry_cell_setting 'orthorhombic'
loop_
_space_group_symop_operation_xyz
x,y,z
-x,-y,z
1/2+x,1/2-y,-z
1/2-x,1/2+y,-z
-x,-y,-z
x,y,-z
1/2-x,1/2+y,z
1/2+x,1/2-y,z
loop_
_atom_site_type_symbol
_atom_site_label
_atom_site_fract_x
_atom_site_fract_y
_atom_site_fract_z
Si Si1 0.109874 0.996146 0.330144
Si Si2 0.805842 0.680453 0.500000
Si Si3 0.185911 0.955971 0.890112
Si Si4 0.689291 0.669580 0.779810
Si Si5 0.610342 0.003899 0.391103
Si Si6 0.685496 0.665672 0.000000
O O1 0.141685 0.286022 0.347227
O O2 0.137863 0.902322 0.272980
O O3 0.142479 0.784832 0.373361
O O4 0.000000 0.000000 0.331912
O O5 0.783490 0.990884 0.500000
O O6 0.857665 0.598615 0.552560
O O7 0.272294 0.750174 0.890412
O O8 0.139064 0.896356 0.834610
O O9 0.136622 0.893744 0.944929
O O10 0.776855 0.471264 0.780147
O O11 0.500000 0.000000 0.391419
O O12 0.771545 0.458731 0.000000
#
# Coordination Sequence:
#
# PCOD9425407 Si02
#       6
#     8   4   8   8   8   4
#     4  10  21  36  54  74  97 130 166 195 231 283
#     4  12  25  38  57  84 106 124 156 200 241 280
#     4   8  14  23  36  58  86 117 151 188 233 278
#     4  10  19  30  47  71  98 125 156 199 246 284
#     4  10  22  40  57  73  99 133 163 191 231 285
#     4   8  12  20  34  52  81 116 149 186 226 274
#
# _framework density 21.185006999999999
#
# number of rings (size 3 to 8) (size 9 to 14) (size 15 to 20)
#    0.000    2.400    0.000    2.700    0.000    4.800 
#    0.000    4.000    0.000    0.000    0.000    0.700 
#    0.000    0.000    0.000   53.800    0.000    2.000 
#
# Total GULP energy -223179.587751 kJ/mol
# GULP energy per Si atom -5579.489694 kJ/mol
# Density = 2.113679 g / cm^3
# Si number density = 21.185007 Si / 1000 Ang^3
#
#
#
# Elastic Constant Matrix: (Units=GPa)
#
#
# Indices 1 2 3 4 5 6 
#
# 1 21.5350 -2.6988 -0.8238 0.0000 0.0000 0.0000
# 2 -2.6988 83.9071 -3.1382 0.0000 0.0000 0.0000
# 3 -0.8238 -3.1382 139.5561 0.0000 0.0000 0.0000
# 4 0.0000 0.0000 0.0000 33.1709 0.0000 0.0000
# 5 0.0000 0.0000 0.0000 0.0000 -16.8310 0.0000
# 6 0.0000 0.0000 0.0000 0.0000 0.0000 784.0575
#
#
#
# Elastic Compliance Matrix: (Units=1/GPa)
#
#
# Indices 1 2 3 4 5 6 
#
# 1 0.046637 0.001512 0.000309 0.000000 0.000000 0.000000
# 2 0.001512 0.011977 0.000278 0.000000 0.000000 0.000000
# 3 0.000309 0.000278 0.007174 0.000000 0.000000 0.000000
# 4 0.000000 0.000000 0.000000 0.030147 0.000000 0.000000
# 5 0.000000 0.000000 0.000000 0.000000 -0.059414 0.000000
# 6 0.000000 0.000000 0.000000 0.000000 0.000000 0.001275
#
#
# Mechanical properties :
#
#
# Convention : Reuss Voigt Hill
#
# Bulk Modulus (GPa) = 14.28851 25.74184 20.01517
# Shear Modulus (GPa) = 87.83254 176.85676 132.34465
#
# Velocity S-wave (km/s) = 6.44591 9.14676 7.91243
# Velocity P-wave (km/s) = 7.88410 11.12333 9.64073
#
# Compressibility (1/GPa) = 0.06998632
#
# Stress axis : x y z
#
# Youngs Moduli (GPa) = 21.44203 83.49356 139.39888
#
# Poissons Ratio (x) = -0.12621 -0.04311
# Poissons Ratio (y) = -0.03241 -0.03879
# Poissons Ratio (z) = -0.00663 -0.02323
#
# Static dielectric constant tensor:
#      x y z
#    x 1.738550 0.000000 0.000000 
#    y 0.000000 1.747530 0.000000 
#    z 0.000000 0.000000 1.827870 
# 
# From -- ./inp_files/23034.got.cif
#   From: 2010.05.17/outbox.cif.g08.bks.cpg/sg55_12_cif.got.tgz:23034.got - 2010.06.03 13:27:54.
