data_PCOD9425402
_publ_section_title
;
Structure prediction by ZEFSAII (Michael W. Deem and Ramdas Pophale) SiO2 
 PCOD9425402
Probable space group: P B A M
;
_chemical_formula_sum "Si O2"
_cell_formula_units_Z 48
_cell_length_a 14.643282
_cell_length_b 16.180672
_cell_length_c 9.679598
_cell_angle_alpha 90.000000
_cell_angle_beta 90.000000
_cell_angle_gamma 90.000000
_cell_volume 2293.465976
_symmetry_space_group_name_H-M "P B A M"
_symmetry_group_IT_number 55
_symmetry_cell_setting 'orthorhombic'
loop_
_space_group_symop_operation_xyz
x,y,z
-x,-y,z
1/2+x,1/2-y,-z
1/2-x,1/2+y,-z
-x,-y,-z
x,y,-z
1/2-x,1/2+y,z
1/2+x,1/2-y,z
loop_
_atom_site_type_symbol
_atom_site_label
_atom_site_fract_x
_atom_site_fract_y
_atom_site_fract_z
Si Si1 0.773150 0.070531 0.155698
Si Si2 0.241599 0.778215 0.658868
Si Si3 0.519057 0.735415 0.340860
Si Si4 0.487187 0.410274 0.154547
Si Si5 0.249542 0.590161 0.658790
Si Si6 0.970210 0.414422 0.339986
O O1 0.729646 0.145146 0.245059
O O2 0.878496 0.097700 0.141135
O O3 0.775375 0.983905 0.238559
O O4 0.735498 0.061306 0.000000
O O5 0.269438 0.793700 0.500000
O O6 0.130030 0.773634 0.657897
O O7 0.272290 0.685199 0.698299
O O8 0.489804 0.728982 0.500000
O O9 0.479187 0.663072 0.248906
O O10 0.498170 0.826434 0.282912
O O11 0.500000 0.500000 0.219675
O O12 0.528119 0.410582 0.000000
O O13 0.281307 0.575538 0.500000
O O14 0.139140 0.587082 0.655825
O O15 0.003043 0.415232 0.500000
O O16 0.000000 0.500000 0.272126
#
# Coordination Sequence:
#
# PCOD9425402 Si02
#       6
#     8   8   8   8   8   8
#     4  10  19  30  47  69  91 118 151 188 228 268
#     4   8  15  29  47  65  87 118 154 186 218 263
#     4   8  14  26  46  69  88 111 148 187 217 254
#     4   9  18  32  47  63  87 120 152 182 223 270
#     4   9  17  30  49  70  92 120 151 185 225 267
#     4   8  14  27  48  71  93 117 146 181 221 264
#
# _framework density 20.929022
#
# number of rings (size 3 to 8) (size 9 to 14) (size 15 to 20)
#    0.000    3.333    0.000    2.500    0.000    1.667 
#    0.000    4.167    0.000    8.000    0.000    0.000 
#    0.000    0.000    0.000    0.000    0.000    0.000 
#
# Total GULP energy -267424.965758 kJ/mol
# GULP energy per Si atom -5571.353453 kJ/mol
# Density = 2.088139 g / cm^3
# Si number density = 20.929022 Si / 1000 Ang^3
#
#
#
# Elastic Constant Matrix: (Units=GPa)
#
#
# Indices 1 2 3 4 5 6 
#
# 1 33.0995 -0.8956 5.4514 0.0000 0.0000 0.0000
# 2 -0.8956 193.3792 99.5186 0.0000 0.0000 0.0000
# 3 5.4514 99.5186 97.3780 0.0000 0.0000 0.0000
# 4 0.0000 0.0000 0.0000 46.8307 0.0000 0.0000
# 5 0.0000 0.0000 0.0000 0.0000 -16.5589 0.0000
# 6 0.0000 0.0000 0.0000 0.0000 0.0000 21.1053
#
#
#
# Elastic Compliance Matrix: (Units=1/GPa)
#
#
# Indices 1 2 3 4 5 6 
#
# 1 0.030923 0.002181 -0.003960 0.000000 0.000000 0.000000
# 2 0.002181 0.011062 -0.011428 0.000000 0.000000 0.000000
# 3 -0.003960 -0.011428 0.022170 0.000000 0.000000 0.000000
# 4 0.000000 0.000000 0.000000 0.021354 0.000000 0.000000
# 5 0.000000 0.000000 0.000000 0.000000 -0.060390 0.000000
# 6 0.000000 0.000000 0.000000 0.000000 0.000000 0.047382
#
#
# Mechanical properties :
#
#
# Convention : Reuss Voigt Hill
#
# Bulk Modulus (GPa) = 26.49573 59.11172 42.80373
# Shear Modulus (GPa) = 44.84556 24.92755 34.88656
#
# Velocity S-wave (km/s) = 4.63400 3.45491 4.08720
# Velocity P-wave (km/s) = 6.42800 6.64984 6.53986
#
# Compressibility (1/GPa) = 0.03774193
#
# Stress axis : x y z
#
# Youngs Moduli (GPa) = 32.33818 90.39765 45.10658
#
# Poissons Ratio (x) = -0.19719 0.17864
# Poissons Ratio (y) = -0.07054 0.51546
# Poissons Ratio (z) = 0.12807 1.03302
#
# Static dielectric constant tensor:
#      x y z
#    x 1.819120 0.000000 0.000000 
#    y 0.000000 1.771970 0.000000 
#    z 0.000000 0.000000 1.752410 
# 
# From -- ./inp_files/6284.got.cif
#   From: 2010.05.17/outbox.cif.g08.bks.cpg/sg55_4_cif.got.tgz:6284.got - 2010.06.03 13:27:54.
