data_PCOD9425211
_publ_section_title
;
Structure prediction by ZEFSAII (Michael W. Deem and Ramdas Pophale) SiO2 
 PCOD9425211
Probable space group: P B A M
;
_chemical_formula_sum "Si O2"
_cell_formula_units_Z 64
_cell_length_a 16.848094
_cell_length_b 20.745170
_cell_length_c 8.814177
_cell_angle_alpha 90.000000
_cell_angle_beta 90.000000
_cell_angle_gamma 90.000000
_cell_volume 3080.700949
_symmetry_space_group_name_H-M "P B A M"
_symmetry_group_IT_number 55
_symmetry_cell_setting 'orthorhombic'
loop_
_space_group_symop_operation_xyz
x,y,z
-x,-y,z
1/2+x,1/2-y,-z
1/2-x,1/2+y,-z
-x,-y,-z
x,y,-z
1/2-x,1/2+y,z
1/2+x,1/2-y,z
loop_
_atom_site_type_symbol
_atom_site_label
_atom_site_fract_x
_atom_site_fract_y
_atom_site_fract_z
Si Si1 0.615804 0.856069 0.822049
Si Si2 0.048843 0.873108 0.824329
Si Si3 0.219062 0.387821 0.320341
Si Si4 0.552593 0.164353 0.681037
Si Si5 0.228466 0.107776 0.322341
Si Si6 0.341675 0.485829 0.822709
Si Si7 0.110781 0.201475 0.823468
Si Si8 0.664831 0.724532 0.675530
O O1 0.531104 0.861577 0.740585
O O2 0.815134 0.827291 0.733091
O O3 0.646548 0.784086 0.782897
O O4 0.606034 0.864491 0.000000
O O5 0.957846 0.853167 0.815272
O O6 0.096469 0.827676 0.709644
O O7 0.077499 0.945762 0.795134
O O8 0.074171 0.859258 0.000000
O O9 0.230229 0.403096 0.500000
O O10 0.126168 0.383248 0.285973
O O11 0.326999 0.548298 0.276883
O O12 0.270851 0.436193 0.220503
O O13 0.549215 0.173870 0.500000
O O14 0.573503 0.232978 0.757828
O O15 0.241114 0.110581 0.500000
O O16 0.313326 0.099932 0.240973
O O17 0.338504 0.503485 0.000000
O O18 0.255257 0.316070 0.702478
O O19 0.131651 0.210832 0.000000
O O20 0.662359 0.745624 0.500000
#
# Coordination Sequence:
#
# PCOD9425211 Si02
#       8
#     8   8   8   8   8   8   8   8
#     4  12  24  39  59  85 119 156 199 249 306 362
#     4   9  19  35  58  88 122 160 196 239 293 351
#     4   9  20  37  59  87 118 154 196 242 293 351
#     4  11  22  38  61  92 127 160 197 245 301 359
#     4  12  26  43  61  84 117 159 205 252 304 358
#     4  10  21  40  63  87 118 157 204 249 295 351
#     4  11  22  38  61  92 128 161 199 246 299 358
#     4  10  18  32  57  87 119 154 194 238 292 354
#
# _framework density 20.774491999999999
#
# number of rings (size 3 to 8) (size 9 to 14) (size 15 to 20)
#    0.000    1.500    1.250    4.500    0.000    4.000 
#    0.000    3.125    0.000    3.750    0.000    0.000 
#    0.000    0.000    0.000    0.000    0.000    0.000 
#
# Total GULP energy -357761.204679 kJ/mol
# GULP energy per Si atom -5590.018823 kJ/mol
# Density = 2.072721 g / cm^3
# Si number density = 20.774492 Si / 1000 Ang^3
#
#
#
# Elastic Constant Matrix: (Units=GPa)
#
#
# Indices 1 2 3 4 5 6 
#
# 1 53.8932 -13.7978 9.6459 0.0000 0.0000 0.0000
# 2 -13.7978 31.6015 7.2540 0.0000 0.0000 0.0000
# 3 9.6459 7.2540 74.1502 0.0000 0.0000 0.0000
# 4 0.0000 0.0000 0.0000 -165.8981 0.0000 0.0000
# 5 0.0000 0.0000 0.0000 0.0000 27.6729 0.0000
# 6 0.0000 0.0000 0.0000 0.0000 0.0000 23.5688
#
#
#
# Elastic Compliance Matrix: (Units=1/GPa)
#
#
# Indices 1 2 3 4 5 6 
#
# 1 0.021928 0.010464 -0.003876 0.000000 0.000000 0.000000
# 2 0.010464 0.037364 -0.005017 0.000000 0.000000 0.000000
# 3 -0.003876 -0.005017 0.014481 0.000000 0.000000 0.000000
# 4 0.000000 0.000000 0.000000 -0.006028 0.000000 0.000000
# 5 0.000000 0.000000 0.000000 0.000000 0.036136 0.000000
# 6 0.000000 0.000000 0.000000 0.000000 0.000000 0.042429
#
#
# Mechanical properties :
#
#
# Convention : Reuss Voigt Hill
#
# Bulk Modulus (GPa) = 13.00122 18.42768 15.71445
# Shear Modulus (GPa) = 29.61957 -12.49510 8.56223
#
# Velocity S-wave (km/s) = 3.78003 -2.45514 2.03235
# Velocity P-wave (km/s) = 5.03223 0.92340 3.61773
#
# Compressibility (1/GPa) = 0.07691588
#
# Stress axis : x y z
#
# Youngs Moduli (GPa) = 45.60387 26.76346 69.05531
#
# Poissons Ratio (x) = -0.28005 0.26767
# Poissons Ratio (y) = -0.47720 0.34642
# Poissons Ratio (z) = 0.17677 0.13426
#
# Static dielectric constant tensor:
#      x y z
#    x 1.762250 0.000000 0.000000 
#    y 0.000000 1.752530 0.000000 
#    z 0.000000 0.000000 1.695050 
# 
# From -- ./inp_files/8240.got.cif
#   From: 2010.05.17/outbox.cif.g08.bks.cpg/sg55_5_cif.got.tgz:8240.got - 2010.06.03 13:27:54.
