data_PCOD9425210
_publ_section_title
;
Structure prediction by ZEFSAII (Michael W. Deem and Ramdas Pophale) SiO2 
 PCOD9425210
Probable space group: P B A M
;
_chemical_formula_sum "Si O2"
_cell_formula_units_Z 40
_cell_length_a 14.258729
_cell_length_b 7.720455
_cell_length_c 13.735293
_cell_angle_alpha 90.000000
_cell_angle_beta 90.000000
_cell_angle_gamma 90.000000
_cell_volume 1512.034286
_symmetry_space_group_name_H-M "P B A M"
_symmetry_group_IT_number 55
_symmetry_cell_setting 'orthorhombic'
loop_
_space_group_symop_operation_xyz
x,y,z
-x,-y,z
1/2+x,1/2-y,-z
1/2-x,1/2+y,-z
-x,-y,-z
x,y,-z
1/2-x,1/2+y,z
1/2+x,1/2-y,z
loop_
_atom_site_type_symbol
_atom_site_label
_atom_site_fract_x
_atom_site_fract_y
_atom_site_fract_z
Si Si1 0.064622 0.666917 0.821475
Si Si2 0.868722 0.395934 0.392110
Si Si3 0.894538 0.881773 0.188413
Si Si4 0.779231 0.565566 0.888648
Si Si5 0.647636 0.311291 0.606377
O O1 0.082594 0.672529 0.705263
O O2 0.160678 0.611382 0.873492
O O3 0.000000 0.500000 0.842175
O O4 0.996516 0.825100 0.849475
O O5 0.904563 0.344134 0.500000
O O6 0.872228 0.605589 0.388248
O O7 0.759942 0.339590 0.386668
O O8 0.827003 0.022379 0.140063
O O9 0.830957 0.706564 0.177254
O O10 0.897581 0.909948 0.303690
O O11 0.787440 0.620650 0.000000
O O12 0.618842 0.375558 0.500000
#
# Coordination Sequence:
#
# PCOD9425210 Si02
#       5
#     8   8   8   8   8
#     4  10  20  35  58  87 114 147 191 237 282 342
#     4  10  19  33  57  88 120 154 193 232 283 342
#     4  11  21  39  61  85 115 152 191 237 293 343
#     4  11  23  39  60  84 114 151 195 244 291 337
#     4  10  18  32  57  86 119 155 190 230 282 346
#
# _framework density 26.454426000000002
#
# number of rings (size 3 to 8) (size 9 to 14) (size 15 to 20)
#    0.000    1.600    6.000    0.600    0.000    5.600 
#    0.000    1.000    0.000    2.400    0.000    8.400 
#    0.000    0.000    0.000    0.000    0.000    0.000 
#
# Total GULP energy -224108.369347 kJ/mol
# GULP energy per Si atom -5602.709234 kJ/mol
# Density = 2.639421 g / cm^3
# Si number density = 26.454426 Si / 1000 Ang^3
#
#
#
# Elastic Constant Matrix: (Units=GPa)
#
#
# Indices 1 2 3 4 5 6 
#
# 1 164.2992 2.3488 7.5942 0.0000 0.0000 0.0000
# 2 2.3488 94.7062 -8.8559 0.0000 0.0000 0.0000
# 3 7.5942 -8.8559 108.0752 0.0000 0.0000 0.0000
# 4 0.0000 0.0000 0.0000 7.1920 0.0000 0.0000
# 5 0.0000 0.0000 0.0000 0.0000 -18.3115 0.0000
# 6 0.0000 0.0000 0.0000 0.0000 0.0000 43.8931
#
#
#
# Elastic Compliance Matrix: (Units=1/GPa)
#
#
# Indices 1 2 3 4 5 6 
#
# 1 0.006110 -0.000193 -0.000445 0.000000 0.000000 0.000000
# 2 -0.000193 0.010647 0.000886 0.000000 0.000000 0.000000
# 3 -0.000445 0.000886 0.009357 0.000000 0.000000 0.000000
# 4 0.000000 0.000000 0.000000 0.139044 0.000000 0.000000
# 5 0.000000 0.000000 0.000000 0.000000 -0.054611 0.000000
# 6 0.000000 0.000000 0.000000 0.000000 0.000000 0.022783
#
#
# Mechanical properties :
#
#
# Convention : Reuss Voigt Hill
#
# Bulk Modulus (GPa) = 37.58204 41.02831 39.30517
# Shear Modulus (GPa) = 35.28498 30.95429 33.11964
#
# Velocity S-wave (km/s) = 3.65609 3.42438 3.54213
# Velocity P-wave (km/s) = 5.66214 5.58372 5.62307
#
# Compressibility (1/GPa) = 0.02660846
#
# Stress axis : x y z
#
# Youngs Moduli (GPa) = 163.67169 93.92659 106.87538
#
# Poissons Ratio (x) = 0.01814 0.04758
# Poissons Ratio (y) = 0.03161 -0.09469
# Poissons Ratio (z) = 0.07286 -0.08322
#
# Static dielectric constant tensor:
#      x y z
#    x 2.076170 0.000000 0.000000 
#    y 0.000000 2.264380 0.000000 
#    z 0.000000 0.000000 1.977650 
# 
# From -- ./inp_files/17045.got.cif
#   From: 2010.05.17/outbox.cif.g08.bks.cpg/sg55_9_cif.got.tgz:17045.got - 2010.06.03 13:27:54.
