data_PCOD9425822
_publ_section_title
;
Structure prediction by ZEFSAII (Michael W. Deem and Ramdas Pophale) SiO2 
 PCOD9425822
Probable space group: P B A M
;
_chemical_formula_sum "Si O2"
_cell_formula_units_Z 64
_cell_length_a 17.477116
_cell_length_b 22.456919
_cell_length_c 8.261440
_cell_angle_alpha 90.000000
_cell_angle_beta 90.000000
_cell_angle_gamma 90.000000
_cell_volume 3242.467968
_symmetry_space_group_name_H-M "P B A M"
_symmetry_group_IT_number 55
_symmetry_cell_setting 'orthorhombic'
loop_
_space_group_symop_operation_xyz
x,y,z
-x,-y,z
1/2+x,1/2-y,-z
1/2-x,1/2+y,-z
-x,-y,-z
x,y,-z
1/2-x,1/2+y,z
1/2+x,1/2-y,z
loop_
_atom_site_type_symbol
_atom_site_label
_atom_site_fract_x
_atom_site_fract_y
_atom_site_fract_z
Si Si1 0.940359 0.578330 0.686018
Si Si2 0.336793 0.468442 0.304066
Si Si3 0.161935 0.780481 0.804559
Si Si4 0.131716 0.103753 0.304217
Si Si5 0.212234 0.651672 0.195107
Si Si6 0.786105 0.622628 0.192609
Si Si7 0.901409 0.449296 0.810711
Si Si8 0.460873 0.370455 0.694937
O O1 0.961985 0.585491 0.500000
O O2 0.869771 0.620300 0.730947
O O3 0.910197 0.511004 0.716329
O O4 0.016824 0.583712 0.792040
O O5 0.332236 0.467362 0.500000
O O6 0.349776 0.536067 0.251442
O O7 0.261125 0.437166 0.235716
O O8 0.408248 0.426639 0.254242
O O9 0.175532 0.713456 0.747060
O O10 0.231771 0.823371 0.750319
O O11 0.083966 0.811716 0.749453
O O12 0.162797 0.780634 0.000000
O O13 0.130973 0.103716 0.500000
O O14 0.200092 0.145272 0.245331
O O15 0.047624 0.122982 0.246880
O O16 0.164652 0.594093 0.251870
O O17 0.207327 0.651241 0.000000
O O18 0.794233 0.626170 0.000000
O O19 0.888745 0.463443 0.000000
O O20 0.462402 0.371304 0.500000
#
# Coordination Sequence:
#
# PCOD9425822 Si02
#       8
#     8   8   8   8   8   8   8   8
#     4  11  21  34  54  82 112 138 174 218 268 325
#     4   9  17  31  53  80 112 145 173 209 262 318
#     4   9  20  39  57  74 101 140 183 222 263 309
#     4  10  20  33  53  82 112 140 172 212 262 320
#     4  10  22  39  56  76 104 141 182 222 266 314
#     4  10  19  33  54  78 106 140 180 222 262 309
#     4  10  20  36  57  79 107 140 176 220 271 320
#     4   9  18  34  55  80 109 141 176 214 260 313
#
# _framework density 19.738050999999999
#
# number of rings (size 3 to 8) (size 9 to 14) (size 15 to 20)
#    0.000    2.250    0.000    3.750    0.000    6.500 
#    2.250    0.000    0.000    3.750    0.000    0.000 
#    0.000    0.000    0.000    0.000    0.000    0.000 
#
# Total GULP energy -357374.639058 kJ/mol
# GULP energy per Si atom -5583.978735 kJ/mol
# Density = 1.969313 g / cm^3
# Si number density = 19.738051 Si / 1000 Ang^3
#
#
#
# Elastic Constant Matrix: (Units=GPa)
#
#
# Indices 1 2 3 4 5 6 
#
# 1 77.4170 7.7124 -9.9225 0.0000 0.0000 0.0000
# 2 7.7124 51.2787 -0.8921 0.0000 0.0000 0.0000
# 3 -9.9225 -0.8921 12.2248 0.0000 0.0000 0.0000
# 4 0.0000 0.0000 0.0000 25.3246 0.0000 0.0000
# 5 0.0000 0.0000 0.0000 0.0000 28.6047 0.0000
# 6 0.0000 0.0000 0.0000 0.0000 0.0000 11.5262
#
#
#
# Elastic Compliance Matrix: (Units=1/GPa)
#
#
# Indices 1 2 3 4 5 6 
#
# 1 0.014618 -0.001995 0.011719 0.000000 0.000000 0.000000
# 2 -0.001995 0.019798 -0.000174 0.000000 0.000000 0.000000
# 3 0.011719 -0.000174 0.091301 0.000000 0.000000 0.000000
# 4 0.000000 0.000000 0.000000 0.039487 0.000000 0.000000
# 5 0.000000 0.000000 0.000000 0.000000 0.034959 0.000000
# 6 0.000000 0.000000 0.000000 0.000000 0.000000 0.086759
#
#
# Mechanical properties :
#
#
# Convention : Reuss Voigt Hill
#
# Bulk Modulus (GPa) = 6.90525 14.96847 10.93686
# Shear Modulus (GPa) = 15.81808 22.69260 19.25534
#
# Velocity S-wave (km/s) = 2.83397 3.39438 3.12676
# Velocity P-wave (km/s) = 3.77022 4.79192 4.31144
#
# Compressibility (1/GPa) = 0.14481745
#
# Stress axis : x y z
#
# Youngs Moduli (GPa) = 68.40966 50.50955 10.95284
#
# Poissons Ratio (x) = 0.10075 -0.12836
# Poissons Ratio (y) = 0.13645 0.00191
# Poissons Ratio (z) = -0.80171 0.00880
#
# Static dielectric constant tensor:
#      x y z
#    x 1.690510 0.000000 0.000000 
#    y 0.000000 1.690480 0.000000 
#    z 0.000000 0.000000 1.681450 
# 
# From -- ./inp_files/8076.got.cif
#   From: 2010.05.17/outbox.cif.g08.bks.cpg/sg55_5_cif.got.tgz:8076.got - 2010.06.03 13:27:54.
