data_PCOD9425869
_publ_section_title
;
Structure prediction by ZEFSAII (Michael W. Deem and Ramdas Pophale) SiO2 
 PCOD9425869
Probable space group: P B A M
;
_chemical_formula_sum "Si O2"
_cell_formula_units_Z 48
_cell_length_a 7.788535
_cell_length_b 20.945628
_cell_length_c 13.246885
_cell_angle_alpha 90.000000
_cell_angle_beta 90.000000
_cell_angle_gamma 90.000000
_cell_volume 2161.040609
_symmetry_space_group_name_H-M "P B A M"
_symmetry_group_IT_number 55
_symmetry_cell_setting 'orthorhombic'
loop_
_space_group_symop_operation_xyz
x,y,z
-x,-y,z
1/2+x,1/2-y,-z
1/2-x,1/2+y,-z
-x,-y,-z
x,y,-z
1/2-x,1/2+y,z
1/2+x,1/2-y,z
loop_
_atom_site_type_symbol
_atom_site_label
_atom_site_fract_x
_atom_site_fract_y
_atom_site_fract_z
Si Si1 0.680072 0.960586 0.382462
Si Si2 0.648918 0.229662 0.500000
Si Si3 0.873994 0.075756 0.302035
Si Si4 0.141474 0.717494 0.885428
Si Si5 0.520883 0.156495 0.308121
Si Si6 0.491235 0.352368 0.113740
Si Si7 0.005228 0.855343 0.500000
O O1 0.729657 0.956308 0.500000
O O2 0.630499 0.892530 0.337360
O O3 0.500000 0.000000 0.381815
O O4 0.814447 0.003289 0.320798
O O5 0.553038 0.206015 0.398778
O O6 0.829499 0.192623 0.500000
O O7 0.651924 0.306073 0.500000
O O8 0.694628 0.115493 0.300221
O O9 0.965888 0.095067 0.198906
O O10 0.973995 0.102869 0.399554
O O11 0.027771 0.690091 0.795569
O O12 0.143351 0.794009 0.873577
O O13 0.325867 0.683627 0.877770
O O14 0.075578 0.705696 0.000000
O O15 0.475703 0.377983 0.000000
#
# Coordination Sequence:
#
# PCOD9425869 Si02
#       7
#     8   4   8   8   8   8   4
#     4   9  16  32  56  79 106 142 181 218 259 308
#     4  10  20  31  47  75 107 136 167 210 263 314
#     4  10  19  33  55  80 106 139 178 218 262 313
#     4  10  21  37  56  78 106 140 177 220 269 318
#     4  10  19  33  55  80 106 139 178 218 262 313
#     4  10  21  37  56  78 106 140 177 220 269 318
#     4  10  20  31  47  75 107 136 167 210 263 314
#
# _framework density 22.21152
#
# number of rings (size 3 to 8) (size 9 to 14) (size 15 to 20)
#    0.000    2.167    1.667    2.000    0.000    6.000 
#    0.000    1.667    0.000    6.000    0.000    0.000 
#    0.000    0.000    0.000    0.000    0.000    0.000 
#
# Total GULP energy -268721.504257 kJ/mol
# GULP energy per Si atom -5598.364672 kJ/mol
# Density = 2.216097 g / cm^3
# Si number density = 22.211520 Si / 1000 Ang^3
#
#
#
# Elastic Constant Matrix: (Units=GPa)
#
#
# Indices 1 2 3 4 5 6 
#
# 1 78.3247 16.8960 48.4233 0.0000 0.0000 0.0000
# 2 16.8960 91.3715 71.5687 0.0000 0.0000 0.0000
# 3 48.4233 71.5687 182.3512 0.0000 0.0000 0.0000
# 4 0.0000 0.0000 0.0000 39.6821 0.0000 0.0000
# 5 0.0000 0.0000 0.0000 0.0000 28.9666 0.0000
# 6 0.0000 0.0000 0.0000 0.0000 0.0000 41.0079
#
#
#
# Elastic Compliance Matrix: (Units=1/GPa)
#
#
# Indices 1 2 3 4 5 6 
#
# 1 0.015292 0.000510 -0.004261 0.000000 0.000000 0.000000
# 2 0.000510 0.015819 -0.006344 0.000000 0.000000 0.000000
# 3 -0.004261 -0.006344 0.009105 0.000000 0.000000 0.000000
# 4 0.000000 0.000000 0.000000 0.025200 0.000000 0.000000
# 5 0.000000 0.000000 0.000000 0.000000 0.034523 0.000000
# 6 0.000000 0.000000 0.000000 0.000000 0.000000 0.024386
#
#
# Mechanical properties :
#
#
# Convention : Reuss Voigt Hill
#
# Bulk Modulus (GPa) = 49.93553 69.53593 59.73573
# Shear Modulus (GPa) = 33.07105 36.27528 34.67316
#
# Velocity S-wave (km/s) = 3.86283 4.04564 3.95529
# Velocity P-wave (km/s) = 6.51352 7.29364 6.91459
#
# Compressibility (1/GPa) = 0.02002582
#
# Stress axis : x y z
#
# Youngs Moduli (GPa) = 65.39568 63.21453 109.82724
#
# Poissons Ratio (x) = -0.03222 0.46794
# Poissons Ratio (y) = -0.03333 0.69674
# Poissons Ratio (z) = 0.27863 0.40103
#
# Static dielectric constant tensor:
#      x y z
#    x 1.908610 0.000000 0.000000 
#    y 0.000000 1.791020 0.000000 
#    z 0.000000 0.000000 1.754940 
# 
# From -- ./inp_files/12263.got.cif
#   From: 2010.05.17/outbox.cif.g08.bks.cpg/sg55_7_cif.got.tgz:12263.got - 2010.06.03 13:27:54.
