data_PCOD9425464
_publ_section_title
;
Structure prediction by ZEFSAII (Michael W. Deem and Ramdas Pophale) SiO2 
 PCOD9425464
Probable space group: P B A M
;
_chemical_formula_sum "Si O2"
_cell_formula_units_Z 48
_cell_length_a 13.967113
_cell_length_b 4.980175
_cell_length_c 30.135768
_cell_angle_alpha 90.000000
_cell_angle_beta 90.000000
_cell_angle_gamma 90.000000
_cell_volume 2096.203851
_symmetry_space_group_name_H-M "P B A M"
_symmetry_group_IT_number 55
_symmetry_cell_setting 'orthorhombic'
loop_
_space_group_symop_operation_xyz
x,y,z
-x,-y,z
1/2+x,1/2-y,-z
1/2-x,1/2+y,-z
-x,-y,-z
x,y,-z
1/2-x,1/2+y,z
1/2+x,1/2-y,z
loop_
_atom_site_type_symbol
_atom_site_label
_atom_site_fract_x
_atom_site_fract_y
_atom_site_fract_z
Si Si1 0.382855 0.014501 0.285446
Si Si2 0.813679 0.795387 0.140414
Si Si3 0.885885 0.985744 0.234486
Si Si4 0.186890 0.988447 0.449490
Si Si5 0.435606 0.257090 0.629484
Si Si6 0.681267 0.428273 0.047832
O O1 0.352273 0.216586 0.246476
O O2 0.362847 0.142475 0.333342
O O3 0.500000 0.000000 0.285833
O O4 0.350516 0.719357 0.272384
O O5 0.719805 0.988277 0.139443
O O6 0.868892 0.866858 0.094685
O O7 0.862360 0.873891 0.186226
O O8 0.000000 0.000000 0.237141
O O9 0.151617 0.949528 0.500000
O O10 0.279584 0.794799 0.444449
O O11 0.114258 0.890281 0.412553
O O12 0.500000 0.500000 0.649434
O O13 0.500000 0.000000 0.616685
O O14 0.771383 0.221723 0.048357
O O15 0.631538 0.389472 0.000000
#
# Coordination Sequence:
#
# PCOD9425464 Si02
#       6
#     8   8   8   8   8   8
#     4   9  18  33  52  73  98 131 167 204 247 295
#     4  10  19  31  47  71  99 123 159 210 250 284
#     4  10  19  33  51  69  96 134 167 194 242 308
#     4  10  22  40  58  80 115 150 174 208 269 331
#     4  11  21  36  60  85 106 135 184 232 259 295
#     4   8  14  25  42  63  88 120 155 193 242 295
#
# _framework density 22.898537999999999
#
# number of rings (size 3 to 8) (size 9 to 14) (size 15 to 20)
#    0.000    2.333    0.000    4.500    0.000    0.667 
#    0.000    5.000    0.000    0.500    0.000    0.000 
#    0.000   17.333    0.000    0.000    0.000    3.167 
#
# Total GULP energy -267970.449104 kJ/mol
# GULP energy per Si atom -5582.717690 kJ/mol
# Density = 2.284642 g / cm^3
# Si number density = 22.898538 Si / 1000 Ang^3
#
#
#
# Elastic Constant Matrix: (Units=GPa)
#
#
# Indices 1 2 3 4 5 6 
#
# 1 34.5619 -4.7773 15.3721 0.0000 0.0000 0.0000
# 2 -4.7773 90.7609 2.7472 0.0000 0.0000 0.0000
# 3 15.3721 2.7472 136.1297 0.0000 0.0000 0.0000
# 4 0.0000 0.0000 0.0000 33.6528 0.0000 0.0000
# 5 0.0000 0.0000 0.0000 0.0000 -33.4487 0.0000
# 6 0.0000 0.0000 0.0000 0.0000 0.0000 6.2828
#
#
#
# Elastic Compliance Matrix: (Units=1/GPa)
#
#
# Indices 1 2 3 4 5 6 
#
# 1 0.030731 0.001724 -0.003505 0.000000 0.000000 0.000000
# 2 0.001724 0.011121 -0.000419 0.000000 0.000000 0.000000
# 3 -0.003505 -0.000419 0.007750 0.000000 0.000000 0.000000
# 4 0.000000 0.000000 0.000000 0.029715 0.000000 0.000000
# 5 0.000000 0.000000 0.000000 0.000000 -0.029897 0.000000
# 6 0.000000 0.000000 0.000000 0.000000 0.000000 0.159165
#
#
# Mechanical properties :
#
#
# Convention : Reuss Voigt Hill
#
# Bulk Modulus (GPa) = 22.12319 32.01518 27.06919
# Shear Modulus (GPa) = 21.92462 17.83809 19.88135
#
# Velocity S-wave (km/s) = 3.09765 2.79409 2.94978
# Velocity P-wave (km/s) = 4.74092 4.94176 4.84238
#
# Compressibility (1/GPa) = 0.04520143
#
# Stress axis : x y z
#
# Youngs Moduli (GPa) = 32.54073 89.91698 129.02919
#
# Poissons Ratio (x) = -0.15498 0.45224
# Poissons Ratio (y) = -0.05609 0.05407
# Poissons Ratio (z) = 0.11405 0.03768
#
# Static dielectric constant tensor:
#      x y z
#    x 1.868370 0.000000 0.000000 
#    y 0.000000 1.821250 0.000000 
#    z 0.000000 0.000000 1.927400 
# 
# From -- ./inp_files/23307.got.cif
#   From: 2010.05.17/outbox.cif.g08.bks.cpg/sg55_12_cif.got.tgz:23307.got - 2010.06.03 13:27:54.
