data_PCOD9425429
_publ_section_title
;
Structure prediction by ZEFSAII (Michael W. Deem and Ramdas Pophale) SiO2 
 PCOD9425429
Probable space group: P B A M
;
_chemical_formula_sum "Si O2"
_cell_formula_units_Z 64
_cell_length_a 16.904892
_cell_length_b 23.382590
_cell_length_c 8.530392
_cell_angle_alpha 90.000000
_cell_angle_beta 90.000000
_cell_angle_gamma 90.000000
_cell_volume 3371.894703
_symmetry_space_group_name_H-M "P B A M"
_symmetry_group_IT_number 55
_symmetry_cell_setting 'orthorhombic'
loop_
_space_group_symop_operation_xyz
x,y,z
-x,-y,z
1/2+x,1/2-y,-z
1/2-x,1/2+y,-z
-x,-y,-z
x,y,-z
1/2-x,1/2+y,z
1/2+x,1/2-y,z
loop_
_atom_site_type_symbol
_atom_site_label
_atom_site_fract_x
_atom_site_fract_y
_atom_site_fract_z
Si Si1 0.565354 0.350680 0.312258
Si Si2 0.007082 0.433144 0.674305
Si Si3 0.391476 0.150034 0.811095
Si Si4 0.053431 0.946524 0.309112
Si Si5 0.768484 0.027101 0.687562
Si Si6 0.149871 0.379734 0.820353
Si Si7 0.770140 0.899911 0.187391
Si Si8 0.544321 0.223401 0.188916
O O1 0.564381 0.349261 0.500000
O O2 0.491007 0.389160 0.257804
O O3 0.646473 0.381047 0.259953
O O4 0.557891 0.286853 0.248363
O O5 0.032222 0.412748 0.500000
O O6 0.925580 0.404923 0.722769
O O7 0.000000 0.500000 0.668161
O O8 0.069146 0.415675 0.805883
O O9 0.298347 0.146915 0.772701
O O10 0.456859 0.198475 0.766023
O O11 0.396951 0.144602 0.000000
O O12 0.054508 0.946239 0.500000
O O13 0.143075 0.956150 0.258387
O O14 0.000000 0.000000 0.259507
O O15 0.767300 0.020588 0.500000
O O16 0.712454 0.080303 0.732606
O O17 0.748679 0.964596 0.758319
O O18 0.116144 0.318828 0.758153
O O19 0.175308 0.372669 0.000000
O O20 0.777538 0.900780 0.000000
O O21 0.546598 0.222349 0.000000
#
# Coordination Sequence:
#
# PCOD9425429 Si02
#       8
#     8   8   8   8   8   8   8   8
#     4  11  22  39  63  86 111 151 197 243 296 348
#     4  10  19  30  49  79 112 146 187 232 280 333
#     4   9  20  37  56  78 111 153 190 231 285 342
#     4   9  18  37  60  82 114 150 183 232 298 349
#     4  11  21  36  60  88 121 153 192 244 296 350
#     4  10  21  37  56  80 115 155 192 231 287 349
#     4  11  22  37  59  88 121 154 192 238 294 355
#     4   9  20  41  61  79 112 155 197 239 287 347
#
# _framework density 18.980426999999999
#
# number of rings (size 3 to 8) (size 9 to 14) (size 15 to 20)
#    0.000    2.000    1.250    3.375    0.000    6.500 
#    2.250    3.125    0.000    0.000    0.000    0.000 
#    0.000    0.000    0.000    0.000    0.000    0.000 
#
# Total GULP energy -356595.504979 kJ/mol
# GULP energy per Si atom -5571.804765 kJ/mol
# Density = 1.893723 g / cm^3
# Si number density = 18.980427 Si / 1000 Ang^3
#
#
#
# Elastic Constant Matrix: (Units=GPa)
#
#
# Indices 1 2 3 4 5 6 
#
# 1 91.3138 36.7860 7.8956 0.0000 0.0000 0.0000
# 2 36.7860 122.7102 13.1747 0.0000 0.0000 0.0000
# 3 7.8956 13.1747 13.1838 0.0000 0.0000 0.0000
# 4 0.0000 0.0000 0.0000 31.4257 0.0000 0.0000
# 5 0.0000 0.0000 0.0000 0.0000 23.6957 0.0000
# 6 0.0000 0.0000 0.0000 0.0000 0.0000 24.0654
#
#
#
# Elastic Compliance Matrix: (Units=1/GPa)
#
#
# Indices 1 2 3 4 5 6 
#
# 1 0.012664 -0.003341 -0.004246 0.000000 0.000000 0.000000
# 2 -0.003341 0.010010 -0.008002 0.000000 0.000000 0.000000
# 3 -0.004246 -0.008002 0.086391 0.000000 0.000000 0.000000
# 4 0.000000 0.000000 0.000000 0.031821 0.000000 0.000000
# 5 0.000000 0.000000 0.000000 0.000000 0.042202 0.000000
# 6 0.000000 0.000000 0.000000 0.000000 0.000000 0.041553
#
#
# Mechanical properties :
#
#
# Convention : Reuss Voigt Hill
#
# Bulk Modulus (GPa) = 12.83918 38.10226 25.47072
# Shear Modulus (GPa) = 17.74425 27.12746 22.43586
#
# Velocity S-wave (km/s) = 3.06088 3.78462 3.44183
# Velocity P-wave (km/s) = 4.38989 6.26226 5.40773
#
# Compressibility (1/GPa) = 0.07788658
#
# Stress axis : x y z
#
# Youngs Moduli (GPa) = 78.96305 99.90125 11.57532
#
# Poissons Ratio (x) = 0.33373 0.04915
# Poissons Ratio (y) = 0.26378 0.09263
# Poissons Ratio (z) = 0.33529 0.79944
#
# Static dielectric constant tensor:
#      x y z
#    x 1.652750 0.000000 0.000000 
#    y 0.000000 1.644050 0.000000 
#    z 0.000000 0.000000 1.669240 
# 
# From -- ./inp_files/6667.got.cif
#   From: 2010.05.17/outbox.cif.g08.bks.cpg/sg55_4_cif.got.tgz:6667.got - 2010.06.03 13:27:54.
