data_PCOD9425622
_publ_section_title
;
Structure prediction by ZEFSAII (Michael W. Deem and Ramdas Pophale) SiO2 
 PCOD9425622
Probable space group: P B A M
;
_chemical_formula_sum "Si O2"
_cell_formula_units_Z 56
_cell_length_a 8.188241
_cell_length_b 19.136560
_cell_length_c 18.013278
_cell_angle_alpha 90.000000
_cell_angle_beta 90.000000
_cell_angle_gamma 90.000000
_cell_volume 2822.586367
_symmetry_space_group_name_H-M "P B A M"
_symmetry_group_IT_number 55
_symmetry_cell_setting 'orthorhombic'
loop_
_space_group_symop_operation_xyz
x,y,z
-x,-y,z
1/2+x,1/2-y,-z
1/2-x,1/2+y,-z
-x,-y,-z
x,y,-z
1/2-x,1/2+y,z
1/2+x,1/2-y,z
loop_
_atom_site_type_symbol
_atom_site_label
_atom_site_fract_x
_atom_site_fract_y
_atom_site_fract_z
Si Si1 0.780970 0.865047 0.917175
Si Si2 0.092826 0.764433 0.916122
Si Si3 0.394242 0.928837 0.586381
Si Si4 0.613837 0.583659 0.297766
Si Si5 0.780467 0.957068 0.226489
Si Si6 0.744012 0.719807 0.758694
Si Si7 0.068553 0.651514 0.708554
O O1 0.612988 0.820114 0.910670
O O2 0.807835 0.921621 0.853191
O O3 0.920888 0.804934 0.911176
O O4 0.790117 0.895150 0.000000
O O5 0.189657 0.787661 0.843483
O O6 0.155386 0.780726 0.000000
O O7 0.367993 0.913542 0.500000
O O8 0.221357 0.935952 0.629983
O O9 0.498430 0.868302 0.628008
O O10 0.500000 0.000000 0.591778
O O11 0.705963 0.540371 0.231729
O O12 0.424813 0.565008 0.284653
O O13 0.635175 0.665619 0.287472
O O14 0.615878 0.922458 0.255864
O O15 0.719494 0.796583 0.724125
O O16 0.926293 0.692912 0.750017
#
# Coordination Sequence:
#
# PCOD9425622 Si02
#       7
#     8   8   8   8   8   8   8
#     4  10  20  33  52  81 119 161 205 263 314 358
#     4  10  19  32  51  82 117 154 203 257 311 357
#     4  10  21  42  66  94 122 154 196 248 309 371
#     4  10  22  37  60  87 122 158 201 248 303 367
#     4  11  20  37  56  87 122 158 212 251 293 370
#     4  11  20  35  56  88 116 159 201 252 304 359
#     4  11  22  36  64  89 120 157 204 254 305 366
#
# _framework density 19.839959
#
# number of rings (size 3 to 8) (size 9 to 14) (size 15 to 20)
#    0.000    1.571    4.286    1.714    0.000    0.000 
#    0.000    7.143    0.000    0.000    0.000    3.000 
#    0.000    0.000    0.000    0.000    0.000    0.000 
#
# Total GULP energy -311865.880835 kJ/mol
# GULP energy per Si atom -5569.033586 kJ/mol
# Density = 1.979480 g / cm^3
# Si number density = 19.839959 Si / 1000 Ang^3
#
#
#
# Elastic Constant Matrix: (Units=GPa)
#
#
# Indices 1 2 3 4 5 6 
#
# 1 58.4774 5.3511 36.5360 0.0000 0.0000 0.0000
# 2 5.3511 58.9161 23.8071 0.0000 0.0000 0.0000
# 3 36.5360 23.8071 157.3753 0.0000 0.0000 0.0000
# 4 0.0000 0.0000 0.0000 29.7650 0.0000 0.0000
# 5 0.0000 0.0000 0.0000 0.0000 24.6387 0.0000
# 6 0.0000 0.0000 0.0000 0.0000 0.0000 30.7134
#
#
#
# Elastic Compliance Matrix: (Units=1/GPa)
#
#
# Indices 1 2 3 4 5 6 
#
# 1 0.020002 0.000064 -0.004653 0.000000 0.000000 0.000000
# 2 0.000064 0.018079 -0.002750 0.000000 0.000000 0.000000
# 3 -0.004653 -0.002750 0.007850 0.000000 0.000000 0.000000
# 4 0.000000 0.000000 0.000000 0.033596 0.000000 0.000000
# 5 0.000000 0.000000 0.000000 0.000000 0.040587 0.000000
# 6 0.000000 0.000000 0.000000 0.000000 0.000000 0.032559
#
#
# Mechanical properties :
#
#
# Convention : Reuss Voigt Hill
#
# Bulk Modulus (GPa) = 31.99735 45.12858 38.56297
# Shear Modulus (GPa) = 28.12631 30.96172 29.54402
#
# Velocity S-wave (km/s) = 3.76927 3.95470 3.86309
# Velocity P-wave (km/s) = 5.92502 6.60670 6.27513
#
# Compressibility (1/GPa) = 0.03125258
#
# Stress axis : x y z
#
# Youngs Moduli (GPa) = 49.99474 55.31407 127.38062
#
# Poissons Ratio (x) = -0.00352 0.59274
# Poissons Ratio (y) = -0.00318 0.35025
# Poissons Ratio (z) = 0.23264 0.15209
#
# Static dielectric constant tensor:
#      x y z
#    x 1.807570 0.000000 0.000000 
#    y 0.000000 1.723570 0.000000 
#    z 0.000000 0.000000 1.693860 
# 
# From -- ./inp_files/21039.got.cif
#   From: 2010.05.17/outbox.cif.g08.bks.cpg/sg55_11_cif.got.tgz:21039.got - 2010.06.03 13:27:54.
