data_PCOD9425003
_publ_section_title
;
Structure prediction by ZEFSAII (Michael W. Deem and Ramdas Pophale) SiO2 
 PCOD9425003
Probable space group: P B A M
;
_chemical_formula_sum "Si O2"
_cell_formula_units_Z 48
_cell_length_a 29.188612
_cell_length_b 8.147893
_cell_length_c 7.542390
_cell_angle_alpha 90.000000
_cell_angle_beta 90.000000
_cell_angle_gamma 90.000000
_cell_volume 1793.774086
_symmetry_space_group_name_H-M "P B A M"
_symmetry_group_IT_number 55
_symmetry_cell_setting 'orthorhombic'
loop_
_space_group_symop_operation_xyz
x,y,z
-x,-y,z
1/2+x,1/2-y,-z
1/2-x,1/2+y,-z
-x,-y,-z
x,y,-z
1/2-x,1/2+y,z
1/2+x,1/2-y,z
loop_
_atom_site_type_symbol
_atom_site_label
_atom_site_fract_x
_atom_site_fract_y
_atom_site_fract_z
Si Si1 0.850127 0.160510 0.703180
Si Si2 0.510941 0.762716 0.784484
Si Si3 0.428656 0.562989 0.786785
Si Si4 0.767830 0.954466 0.717189
Si Si5 0.182057 0.367342 0.289172
Si Si6 0.908644 0.469612 0.801420
O O1 0.846841 0.218677 0.500000
O O2 0.878395 0.301076 0.800914
O O3 0.880358 0.992684 0.707775
O O4 0.800086 0.108502 0.765492
O O5 0.459255 0.718522 0.725937
O O6 0.539790 0.596957 0.747393
O O7 0.543371 0.909978 0.716437
O O8 0.509610 0.775752 0.000000
O O9 0.423387 0.573062 0.000000
O O10 0.768338 0.947747 0.500000
O O11 0.715787 0.986385 0.772388
O O12 0.794133 0.795172 0.784317
O O13 0.186543 0.360418 0.500000
O O14 0.128886 0.398692 0.256548
O O15 0.920776 0.516363 0.000000
#
# Coordination Sequence:
#
# PCOD9425003 Si02
#       6
#     8   8   8   8   8   8
#     4  10  18  30  49  75 102 131 163 199 239 287
#     4   7  12  24  43  64  93 129 162 193 236 283
#     4   8  13  25  44  67  94 128 163 200 239 278
#     4   9  19  34  54  74  96 125 160 197 241 293
#     4  10  19  35  55  73  92 123 162 199 238 289
#     4  10  19  32  49  73 101 130 161 200 243 286
#
# _framework density 26.759224
#
# number of rings (size 3 to 8) (size 9 to 14) (size 15 to 20)
#    0.000    3.000    0.000    4.000    0.000    2.667 
#    0.000   13.333    0.000    1.000    0.000    7.000 
#    0.000    0.000    0.000    0.000    0.000    0.000 
#
# Total GULP energy -268229.324891 kJ/mol
# GULP energy per Si atom -5588.110935 kJ/mol
# Density = 2.669832 g / cm^3
# Si number density = 26.759224 Si / 1000 Ang^3
#
#
#
# Elastic Constant Matrix: (Units=GPa)
#
#
# Indices 1 2 3 4 5 6 
#
# 1 197.2449 41.0953 -0.6203 0.0000 0.0000 0.0000
# 2 41.0953 111.3059 0.8621 0.0000 0.0000 0.0000
# 3 -0.6203 0.8621 57.0237 0.0000 0.0000 0.0000
# 4 0.0000 0.0000 0.0000 14.2396 0.0000 0.0000
# 5 0.0000 0.0000 0.0000 0.0000 -2.8930 0.0000
# 6 0.0000 0.0000 0.0000 0.0000 0.0000 51.6753
#
#
#
# Elastic Compliance Matrix: (Units=1/GPa)
#
#
# Indices 1 2 3 4 5 6 
#
# 1 0.005493 -0.002029 0.000090 0.000000 0.000000 0.000000
# 2 -0.002029 0.009735 -0.000169 0.000000 0.000000 0.000000
# 3 0.000090 -0.000169 0.017540 0.000000 0.000000 0.000000
# 4 0.000000 0.000000 0.000000 0.070227 0.000000 0.000000
# 5 0.000000 0.000000 0.000000 0.000000 -0.345665 0.000000
# 6 0.000000 0.000000 0.000000 0.000000 0.000000 0.019352
#
#
# Mechanical properties :
#
#
# Convention : Reuss Voigt Hill
#
# Bulk Modulus (GPa) = 35.02327 49.80542 42.41435
# Shear Modulus (GPa) = -23.85644 34.22022 5.18189
#
# Velocity S-wave (km/s) = -2.98908 3.57994 1.39309
# Velocity P-wave (km/s) = 1.09724 5.97836 4.29795
#
# Compressibility (1/GPa) = 0.02855245
#
# Stress axis : x y z
#
# Youngs Moduli (GPa) = 182.05660 102.72660 57.01221
#
# Poissons Ratio (x) = 0.20840 -0.00515
# Poissons Ratio (y) = 0.36934 0.00965
# Poissons Ratio (z) = -0.01646 0.01738
#
# Static dielectric constant tensor:
#      x y z
#    x 2.094040 0.000000 0.000000 
#    y 0.000000 2.190130 0.000000 
#    z 0.000000 0.000000 2.036000 
# 
# From -- ./inp_files/10489.got.cif
#   From: 2010.05.17/outbox.cif.g08.bks.cpg/sg55_6_cif.got.tgz:10489.got - 2010.06.03 13:27:54.
