data_PCOD9425260
_publ_section_title
;
Structure prediction by ZEFSAII (Michael W. Deem and Ramdas Pophale) SiO2 
 PCOD9425260
Probable space group: P B A M
;
_chemical_formula_sum "Si O2"
_cell_formula_units_Z 40
_cell_length_a 15.957109
_cell_length_b 7.936162
_cell_length_c 11.809623
_cell_angle_alpha 90.000000
_cell_angle_beta 90.000000
_cell_angle_gamma 90.000000
_cell_volume 1495.549424
_symmetry_space_group_name_H-M "P B A M"
_symmetry_group_IT_number 55
_symmetry_cell_setting 'orthorhombic'
loop_
_space_group_symop_operation_xyz
x,y,z
-x,-y,z
1/2+x,1/2-y,-z
1/2-x,1/2+y,-z
-x,-y,-z
x,y,-z
1/2-x,1/2+y,z
1/2+x,1/2-y,z
loop_
_atom_site_type_symbol
_atom_site_label
_atom_site_fract_x
_atom_site_fract_y
_atom_site_fract_z
Si Si1 0.348768 0.436692 0.342289
Si Si2 0.328032 0.067437 0.670193
Si Si3 0.788971 0.935048 0.871763
Si Si4 0.969310 0.804286 0.124596
Si Si5 0.957902 0.732866 0.370746
O O1 0.260933 0.513072 0.382003
O O2 0.334598 0.429095 0.206900
O O3 0.416100 0.579528 0.368889
O O4 0.357535 0.245817 0.377303
O O5 0.296021 0.089290 0.800855
O O6 0.391303 0.918017 0.644792
O O7 0.865805 0.798581 0.870360
O O8 0.773818 0.982574 0.000000
O O9 0.000495 0.729024 0.244480
O O10 0.993469 0.734427 0.000000
O O11 0.000000 0.000000 0.122208
O O12 0.989302 0.713228 0.500000
#
# Coordination Sequence:
#
# PCOD9425260 Si02
#       5
#     8   8   8   8   8
#     4   9  17  33  47  74 111 148 182 224 279 336
#     4  10  18  34  50  79 117 151 184 228 286 346
#     4   8  16  30  51  80 110 143 187 231 280 337
#     4   9  18  37  62  84 111 150 195 240 286 338
#     4  11  23  36  54  84 115 148 191 234 284 342
#
# _framework density 26.746023000000001
#
# number of rings (size 3 to 8) (size 9 to 14) (size 15 to 20)
#    1.200    1.400    2.000    0.000    0.000    3.600 
#    0.000    0.000    0.000    4.800    0.000   19.600 
#    0.000    0.000    0.000    0.000    0.000    0.000 
#
# Total GULP energy -222790.263403 kJ/mol
# GULP energy per Si atom -5569.756585 kJ/mol
# Density = 2.668515 g / cm^3
# Si number density = 26.746023 Si / 1000 Ang^3
#
#
#
# Elastic Constant Matrix: (Units=GPa)
#
#
# Indices 1 2 3 4 5 6 
#
# 1 45.5399 47.7829 59.8965 0.0000 0.0000 0.0000
# 2 47.7829 160.7428 26.3398 0.0000 0.0000 0.0000
# 3 59.8965 26.3398 312.7716 0.0000 0.0000 0.0000
# 4 0.0000 0.0000 0.0000 -3.1462 0.0000 0.0000
# 5 0.0000 0.0000 0.0000 0.0000 36.3540 0.0000
# 6 0.0000 0.0000 0.0000 0.0000 0.0000 13.9206
#
#
#
# Elastic Compliance Matrix: (Units=1/GPa)
#
#
# Indices 1 2 3 4 5 6 
#
# 1 0.044352 -0.011957 -0.007486 0.000000 0.000000 0.000000
# 2 -0.011957 0.009532 0.001487 0.000000 0.000000 0.000000
# 3 -0.007486 0.001487 0.004506 0.000000 0.000000 0.000000
# 4 0.000000 0.000000 0.000000 -0.317847 0.000000 0.000000
# 5 0.000000 0.000000 0.000000 0.000000 0.027507 0.000000
# 6 0.000000 0.000000 0.000000 0.000000 0.000000 0.071836
#
#
# Mechanical properties :
#
#
# Convention : Reuss Voigt Hill
#
# Bulk Modulus (GPa) = 44.49217 87.45476 65.97347
# Shear Modulus (GPa) = -42.84171 35.09469 -3.87351
#
# Velocity S-wave (km/s) = -4.00659 3.62629 -1.20474
# Velocity P-wave (km/s) = 2.17543 7.09242 4.77336
#
# Compressibility (1/GPa) = 0.02247587
#
# Stress axis : x y z
#
# Youngs Moduli (GPa) = 22.54704 104.91058 221.94304
#
# Poissons Ratio (x) = 1.25446 1.66157
# Poissons Ratio (y) = 0.26960 -0.33006
# Poissons Ratio (z) = 0.16880 -0.15602
#
# Static dielectric constant tensor:
#      x y z
#    x 2.209890 0.000000 0.000000 
#    y 0.000000 2.085170 0.000000 
#    z 0.000000 0.000000 2.104270 
# 
# From -- ./inp_files/15205.got.cif
#   From: 2010.05.17/outbox.cif.g08.bks.cpg/sg55_8_cif.got.tgz:15205.got - 2010.06.03 13:27:54.
