data_PCOD9425519
_publ_section_title
;
Structure prediction by ZEFSAII (Michael W. Deem and Ramdas Pophale) SiO2 
 PCOD9425519
Probable space group: P B A M
;
_chemical_formula_sum "Si O2"
_cell_formula_units_Z 48
_cell_length_a 17.252128
_cell_length_b 18.487556
_cell_length_c 7.580485
_cell_angle_alpha 90.000000
_cell_angle_beta 90.000000
_cell_angle_gamma 90.000000
_cell_volume 2417.793284
_symmetry_space_group_name_H-M "P B A M"
_symmetry_group_IT_number 55
_symmetry_cell_setting 'orthorhombic'
loop_
_space_group_symop_operation_xyz
x,y,z
-x,-y,z
1/2+x,1/2-y,-z
1/2-x,1/2+y,-z
-x,-y,-z
x,y,-z
1/2-x,1/2+y,z
1/2+x,1/2-y,z
loop_
_atom_site_type_symbol
_atom_site_label
_atom_site_fract_x
_atom_site_fract_y
_atom_site_fract_z
Si Si1 0.674413 0.898951 0.295340
Si Si2 0.505766 0.916402 0.283657
Si Si3 0.665866 0.334499 0.714395
Si Si4 0.644126 0.171423 0.287898
Si Si5 0.915206 0.981840 0.208544
Si Si6 0.246017 0.955414 0.209564
O O1 0.670412 0.877513 0.500000
O O2 0.589027 0.887334 0.220948
O O3 0.748924 0.858318 0.219233
O O4 0.696185 0.984034 0.287413
O O5 0.506085 0.915544 0.500000
O O6 0.431997 0.870859 0.223342
O O7 0.500000 0.000000 0.230582
O O8 0.667094 0.335134 0.500000
O O9 0.647220 0.253820 0.775146
O O10 0.606985 0.397740 0.768449
O O11 0.639263 0.174041 0.500000
O O12 0.719364 0.123324 0.244736
O O13 0.840577 0.026755 0.278037
O O14 0.918395 0.997947 0.000000
O O15 0.000000 0.000000 0.283031
O O16 0.245767 0.967457 0.000000
#
# Coordination Sequence:
#
# PCOD9425519 Si02
#       6
#     8   8   8   8   8   8
#     4   9  16  31  51  69  93 129 165 197 241 294
#     4   9  15  26  49  72  93 130 165 190 234 298
#     4   9  19  33  51  76 102 128 164 211 253 291
#     4  10  19  33  49  73 106 134 162 201 252 302
#     4   9  19  37  57  73  96 134 175 210 251 304
#     4  10  19  31  51  75  96 127 167 205 245 294
#
# _framework density 19.852813000000001
#
# number of rings (size 3 to 8) (size 9 to 14) (size 15 to 20)
#    0.000    2.667    1.667    0.500    0.000    1.667 
#    3.000    1.667    0.000    0.000    0.000    0.000 
#    0.000    0.000    0.000    0.000    0.000    0.000 
#
# Total GULP energy -267699.702042 kJ/mol
# GULP energy per Si atom -5577.077126 kJ/mol
# Density = 1.980763 g / cm^3
# Si number density = 19.852813 Si / 1000 Ang^3
#
#
#
# Elastic Constant Matrix: (Units=GPa)
#
#
# Indices 1 2 3 4 5 6 
#
# 1 169.7578 90.6369 1.9336 0.0000 0.0000 0.0000
# 2 90.6369 125.4358 -12.8197 0.0000 0.0000 0.0000
# 3 1.9336 -12.8197 43.4095 0.0000 0.0000 0.0000
# 4 0.0000 0.0000 0.0000 16.9924 0.0000 0.0000
# 5 0.0000 0.0000 0.0000 0.0000 6.7891 0.0000
# 6 0.0000 0.0000 0.0000 0.0000 0.0000 23.3890
#
#
#
# Elastic Compliance Matrix: (Units=1/GPa)
#
#
# Indices 1 2 3 4 5 6 
#
# 1 0.009873 -0.007402 -0.002626 0.000000 0.000000 0.000000
# 2 -0.007402 0.013770 0.004396 0.000000 0.000000 0.000000
# 3 -0.002626 0.004396 0.024452 0.000000 0.000000 0.000000
# 4 0.000000 0.000000 0.000000 0.058850 0.000000 0.000000
# 5 0.000000 0.000000 0.000000 0.000000 0.147296 0.000000
# 6 0.000000 0.000000 0.000000 0.000000 0.000000 0.042755
#
#
# Mechanical properties :
#
#
# Convention : Reuss Voigt Hill
#
# Bulk Modulus (GPa) = 27.15075 55.34496 41.24785
# Shear Modulus (GPa) = 15.59888 26.69092 21.14490
#
# Velocity S-wave (km/s) = 2.80612 3.67064 3.26710
# Velocity P-wave (km/s) = 4.91984 6.77517 5.92063
#
# Compressibility (1/GPa) = 0.03683139
#
# Stress axis : x y z
#
# Youngs Moduli (GPa) = 101.28780 72.62057 40.89687
#
# Poissons Ratio (x) = 0.53756 0.10739
# Poissons Ratio (y) = 0.74976 -0.17980
# Poissons Ratio (z) = 0.26596 -0.31927
#
# Static dielectric constant tensor:
#      x y z
#    x 1.723360 0.000000 0.000000 
#    y 0.000000 1.663970 0.000000 
#    z 0.000000 0.000000 1.740120 
# 
# From -- ./inp_files/7537.got.cif
#   From: 2010.05.17/outbox.cif.g08.bks.cpg/sg55_4_cif.got.tgz:7537.got - 2010.06.03 13:27:54.
