data_PCOD9425291
_publ_section_title
;
Structure prediction by ZEFSAII (Michael W. Deem and Ramdas Pophale) SiO2 
 PCOD9425291
Probable space group: P B A M
;
_chemical_formula_sum "Si O2"
_cell_formula_units_Z 64
_cell_length_a 31.670316
_cell_length_b 12.167084
_cell_length_c 7.665478
_cell_angle_alpha 90.000000
_cell_angle_beta 90.000000
_cell_angle_gamma 90.000000
_cell_volume 2953.779994
_symmetry_space_group_name_H-M "P B A M"
_symmetry_group_IT_number 55
_symmetry_cell_setting 'orthorhombic'
loop_
_space_group_symop_operation_xyz
x,y,z
-x,-y,z
1/2+x,1/2-y,-z
1/2-x,1/2+y,-z
-x,-y,-z
x,y,-z
1/2-x,1/2+y,z
1/2+x,1/2-y,z
loop_
_atom_site_type_symbol
_atom_site_label
_atom_site_fract_x
_atom_site_fract_y
_atom_site_fract_z
Si Si1 0.696011 0.749537 0.213407
Si Si2 0.957767 0.772370 0.295852
Si Si3 0.663334 0.512325 0.786789
Si Si4 0.622651 0.915406 0.211806
Si Si5 0.450583 0.245194 0.204029
Si Si6 0.933287 0.009635 0.788851
Si Si7 0.289299 0.699619 0.794625
Si Si8 0.628751 0.169727 0.296760
O O1 0.677620 0.632492 0.270491
O O2 0.664255 0.846842 0.263975
O O3 0.743893 0.765084 0.276093
O O4 0.695873 0.747084 0.000000
O O5 0.958251 0.746846 0.500000
O O6 0.959201 0.904008 0.271582
O O7 0.913326 0.728052 0.221226
O O8 0.000018 0.719391 0.218987
O O9 0.615225 0.489227 0.737294
O O10 0.693365 0.415389 0.722396
O O11 0.663905 0.511923 0.000000
O O12 0.581756 0.845863 0.273364
O O13 0.623871 0.039493 0.277041
O O14 0.621937 0.921149 0.000000
O O15 0.444313 0.368413 0.277158
O O16 0.439428 0.254617 0.000000
O O17 0.936904 0.010184 0.000000
O O18 0.327216 0.786787 0.779379
O O19 0.282249 0.681531 0.000000
O O20 0.630680 0.199273 0.500000
#
# Coordination Sequence:
#
# PCOD9425291 Si02
#       8
#     8   8   8   8   8   8   8   8
#     4   9  18  33  58  93 121 141 182 237 284 333
#     4  11  24  39  56  80 113 153 193 234 280 335
#     4   9  16  30  55  88 120 145 176 228 285 332
#     4  10  21  39  62  87 114 147 189 237 286 340
#     4  10  21  37  60  89 116 144 182 235 291 341
#     4  10  18  34  59  86 117 147 180 228 286 338
#     4  10  20  34  61  91 114 148 189 231 279 334
#     4  11  25  42  56  77 115 157 194 236 282 331
#
# _framework density 21.667152000000002
#
# number of rings (size 3 to 8) (size 9 to 14) (size 15 to 20)
#    0.000    2.000    2.500    1.125    1.750    4.500 
#    0.000    3.125    0.000    1.500    0.000    0.000 
#    0.000    0.000    0.000    0.000    0.000    0.000 
#
# Total GULP energy -357506.671227 kJ/mol
# GULP energy per Si atom -5586.041738 kJ/mol
# Density = 2.161784 g / cm^3
# Si number density = 21.667152 Si / 1000 Ang^3
#
#
#
# Elastic Constant Matrix: (Units=GPa)
#
#
# Indices 1 2 3 4 5 6 
#
# 1 106.0680 29.6768 -10.9628 0.0000 0.0000 0.0000
# 2 29.6768 109.8318 -13.6119 0.0000 0.0000 0.0000
# 3 -10.9628 -13.6119 32.3091 0.0000 0.0000 0.0000
# 4 0.0000 0.0000 0.0000 383.9642 0.0000 0.0000
# 5 0.0000 0.0000 0.0000 0.0000 -58.7163 0.0000
# 6 0.0000 0.0000 0.0000 0.0000 0.0000 18.2656
#
#
#
# Elastic Compliance Matrix: (Units=1/GPa)
#
#
# Indices 1 2 3 4 5 6 
#
# 1 0.010382 -0.002499 0.002470 0.000000 0.000000 0.000000
# 2 -0.002499 0.010208 0.003453 0.000000 0.000000 0.000000
# 3 0.002470 0.003453 0.033244 0.000000 0.000000 0.000000
# 4 0.000000 0.000000 0.000000 0.002604 0.000000 0.000000
# 5 0.000000 0.000000 0.000000 0.000000 -0.017031 0.000000
# 6 0.000000 0.000000 0.000000 0.000000 0.000000 0.054748
#
#
# Mechanical properties :
#
#
# Convention : Reuss Voigt Hill
#
# Bulk Modulus (GPa) = 16.47966 28.71256 22.59611
# Shear Modulus (GPa) = 46.49620 84.90981 65.70301
#
# Velocity S-wave (km/s) = 4.63744 6.26684 5.51268
# Velocity P-wave (km/s) = 6.02469 8.10215 7.13939
#
# Compressibility (1/GPa) = 0.06068087
#
# Stress axis : x y z
#
# Youngs Moduli (GPa) = 96.31619 97.96204 30.08088
#
# Poissons Ratio (x) = 0.24483 -0.07430
# Poissons Ratio (y) = 0.24072 -0.10386
# Poissons Ratio (z) = -0.23789 -0.33823
#
# Static dielectric constant tensor:
#      x y z
#    x 1.793780 0.000000 0.000000 
#    y 0.000000 1.751690 0.000000 
#    z 0.000000 0.000000 1.820960 
# 
# From -- ./inp_files/4534.got.cif
#   From: 2010.05.17/outbox.cif.g08.bks.cpg/sg55_3_cif.got.tgz:4534.got - 2010.06.03 13:27:54.
