data_PCOD9425001
_publ_section_title
;
Structure prediction by ZEFSAII (Michael W. Deem and Ramdas Pophale) SiO2 
 PCOD9425001
Probable space group: P B A M
;
_chemical_formula_sum "Si O2"
_cell_formula_units_Z 64
_cell_length_a 23.825513
_cell_length_b 19.544056
_cell_length_c 9.049275
_cell_angle_alpha 90.000000
_cell_angle_beta 90.000000
_cell_angle_gamma 90.000000
_cell_volume 4213.769207
_symmetry_space_group_name_H-M "P B A M"
_symmetry_group_IT_number 55
_symmetry_cell_setting 'orthorhombic'
loop_
_space_group_symop_operation_xyz
x,y,z
-x,-y,z
1/2+x,1/2-y,-z
1/2-x,1/2+y,-z
-x,-y,-z
x,y,-z
1/2-x,1/2+y,z
1/2+x,1/2-y,z
loop_
_atom_site_type_symbol
_atom_site_label
_atom_site_fract_x
_atom_site_fract_y
_atom_site_fract_z
Si Si1 0.337934 0.238716 0.322716
Si Si2 0.561211 0.136029 0.177382
Si Si3 0.113987 0.497647 0.677186
Si Si4 0.665404 0.228301 0.823019
Si Si5 0.253356 0.999009 0.322034
Si Si6 0.226840 0.151374 0.677147
Si Si7 0.723864 0.640504 0.176532
Si Si8 0.058842 0.644505 0.677696
O O1 0.337191 0.248856 0.500000
O O2 0.287202 0.185913 0.287668
O O3 0.323116 0.309139 0.242175
O O4 0.396236 0.202902 0.281829
O O5 0.583093 0.063819 0.240463
O O6 0.607199 0.193176 0.221220
O O7 0.500329 0.151435 0.242646
O O8 0.559465 0.132901 0.000000
O O9 0.108963 0.487656 0.500000
O O10 0.180113 0.498531 0.713853
O O11 0.086205 0.570654 0.712772
O O12 0.680264 0.300410 0.749570
O O13 0.716423 0.176542 0.784091
O O14 0.665928 0.235997 0.000000
O O15 0.248903 0.993406 0.500000
O O16 0.224494 0.934465 0.246161
O O17 0.228345 0.072392 0.276552
O O18 0.221015 0.153466 0.500000
O O19 0.719984 0.637266 0.000000
O O20 0.051223 0.646577 0.500000
#
# Coordination Sequence:
#
# PCOD9425001 Si02
#       8
#     8   8   8   8   8   8   8   8
#     4   9  17  32  50  69  93 122 158 203 243 278
#     4  11  22  34  46  66  98 132 167 201 234 277
#     4  10  19  32  48  67  95 130 166 199 231 275
#     4   9  19  33  45  64  95 127 158 196 236 277
#     4  10  18  30  49  73  97 125 158 195 239 284
#     4   9  17  30  50  72  92 118 157 199 240 284
#     4  10  19  31  47  69  97 127 159 193 235 288
#     4  10  20  34  50  69  94 127 168 205 239 279
#
# _framework density 15.188302999999999
#
# number of rings (size 3 to 8) (size 9 to 14) (size 15 to 20)
#    0.000    2.250    2.500    1.125    0.000    4.500 
#    0.000    0.000    0.000    0.000    0.000    0.875 
#    0.000    7.000    0.000    0.000    0.000    0.000 
#
# Total GULP energy -356997.462320 kJ/mol
# GULP energy per Si atom -5578.085349 kJ/mol
# Density = 1.515373 g / cm^3
# Si number density = 15.188303 Si / 1000 Ang^3
#
#
#
# Elastic Constant Matrix: (Units=GPa)
#
#
# Indices 1 2 3 4 5 6 
#
# 1 95.0702 67.0756 35.4586 0.0000 0.0000 0.0000
# 2 67.0756 136.9178 44.4492 0.0000 0.0000 0.0000
# 3 35.4586 44.4492 22.7449 0.0000 0.0000 0.0000
# 4 0.0000 0.0000 0.0000 -3.8723 0.0000 0.0000
# 5 0.0000 0.0000 0.0000 0.0000 21.5432 0.0000
# 6 0.0000 0.0000 0.0000 0.0000 0.0000 17.8871
#
#
#
# Elastic Compliance Matrix: (Units=1/GPa)
#
#
# Indices 1 2 3 4 5 6 
#
# 1 0.025193 0.001117 -0.041459 0.000000 0.000000 0.000000
# 2 0.001117 0.020028 -0.040882 0.000000 0.000000 0.000000
# 3 -0.041459 -0.040882 0.188493 0.000000 0.000000 0.000000
# 4 0.000000 0.000000 0.000000 -0.258245 0.000000 0.000000
# 5 0.000000 0.000000 0.000000 0.000000 0.046418 0.000000
# 6 0.000000 0.000000 0.000000 0.000000 0.000000 0.055906
#
#
# Mechanical properties :
#
#
# Convention : Reuss Voigt Hill
#
# Bulk Modulus (GPa) = 14.03171 60.96662 37.49917
# Shear Modulus (GPa) = 18.93951 14.29490 16.61720
#
# Velocity S-wave (km/s) = 3.53509 3.07119 3.31127
# Velocity P-wave (km/s) = 5.09127 7.26663 6.27395
#
# Compressibility (1/GPa) = 0.07126714
#
# Stress axis : x y z
#
# Youngs Moduli (GPa) = 39.69290 49.92903 5.30523
#
# Poissons Ratio (x) = -0.05578 0.21995
# Poissons Ratio (y) = -0.04434 0.21689
# Poissons Ratio (z) = 1.64562 2.04120
#
# Static dielectric constant tensor:
#      x y z
#    x 1.486800 0.000000 0.000000 
#    y 0.000000 1.491770 0.000000 
#    z 0.000000 0.000000 1.503920 
# 
# From -- ./inp_files/8082.got.cif
#   From: 2010.05.17/outbox.cif.g08.bks.cpg/sg55_5_cif.got.tgz:8082.got - 2010.06.03 13:27:54.
