data_PCOD9425119
_publ_section_title
;
Structure prediction by ZEFSAII (Michael W. Deem and Ramdas Pophale) SiO2 
 PCOD9425119
Probable space group: P B A M
;
_chemical_formula_sum "Si O2"
_cell_formula_units_Z 64
_cell_length_a 15.705267
_cell_length_b 25.082004
_cell_length_c 7.506326
_cell_angle_alpha 90.000000
_cell_angle_beta 90.000000
_cell_angle_gamma 90.000000
_cell_volume 2956.888708
_symmetry_space_group_name_H-M "P B A M"
_symmetry_group_IT_number 55
_symmetry_cell_setting 'orthorhombic'
loop_
_space_group_symop_operation_xyz
x,y,z
-x,-y,z
1/2+x,1/2-y,-z
1/2-x,1/2+y,-z
-x,-y,-z
x,y,-z
1/2-x,1/2+y,z
1/2+x,1/2-y,z
loop_
_atom_site_type_symbol
_atom_site_label
_atom_site_fract_x
_atom_site_fract_y
_atom_site_fract_z
Si Si1 0.767292 0.749274 0.216903
Si Si2 0.665808 0.543870 0.783782
Si Si3 0.824057 0.352802 0.785858
Si Si4 0.007576 0.350413 0.216751
Si Si5 0.960138 0.770260 0.217080
Si Si6 0.196853 0.370013 0.782649
Si Si7 0.657826 0.420666 0.700355
Si Si8 0.980071 0.120575 0.798938
O O1 0.699341 0.792967 0.277700
O O2 0.860632 0.771792 0.267297
O O3 0.764903 0.687541 0.274201
O O4 0.763959 0.748064 0.000000
O O5 0.745255 0.580572 0.729077
O O6 0.668610 0.483841 0.717232
O O7 0.581740 0.575865 0.721867
O O8 0.664738 0.539813 0.000000
O O9 0.916544 0.372413 0.722463
O O10 0.745451 0.391183 0.745213
O O11 0.829248 0.349509 0.000000
O O12 0.007448 0.287925 0.266118
O O13 0.098418 0.373258 0.276873
O O14 0.010207 0.353375 0.000000
O O15 0.012535 0.820817 0.284215
O O16 0.961638 0.772672 0.000000
O O17 0.196674 0.369044 0.000000
O O18 0.634590 0.406467 0.500000
O O19 0.576204 0.401060 0.809048
O O20 0.946402 0.129069 0.000000
#
# Coordination Sequence:
#
# PCOD9425119 Si02
#       8
#     8   8   8   8   8   8   8   8
#     4   8  13  23  45  77 111 137 159 202 258 311
#     4  10  21  35  56  80 106 139 180 225 268 317
#     4  10  18  31  55  83 108 139 177 216 262 314
#     4   8  15  26  48  83 118 140 163 208 265 318
#     4   8  13  24  44  78 115 136 157 199 254 312
#     4   8  15  29  48  81 116 137 165 215 270 315
#     4  12  25  39  53  71 104 145 186 228 269 313
#     4  10  19  33  55  83 109 138 174 216 266 323
#
# _framework density 21.644373000000002
#
# number of rings (size 3 to 8) (size 9 to 14) (size 15 to 20)
#    0.000    2.750    1.250    3.000    1.750    2.000 
#    0.000    0.625    0.000    6.000    0.000    0.000 
#    0.000    0.000    0.000    0.000    0.000    0.000 
#
# Total GULP energy -357126.360495 kJ/mol
# GULP energy per Si atom -5580.099383 kJ/mol
# Density = 2.159511 g / cm^3
# Si number density = 21.644373 Si / 1000 Ang^3
#
#
#
# Elastic Constant Matrix: (Units=GPa)
#
#
# Indices 1 2 3 4 5 6 
#
# 1 112.4324 28.3810 -0.9595 0.0000 0.0000 0.0000
# 2 28.3810 38.3601 -12.6092 0.0000 0.0000 0.0000
# 3 -0.9595 -12.6092 59.6023 0.0000 0.0000 0.0000
# 4 0.0000 0.0000 0.0000 120.9863 0.0000 0.0000
# 5 0.0000 0.0000 0.0000 0.0000 -24.6154 0.0000
# 6 0.0000 0.0000 0.0000 0.0000 0.0000 19.8583
#
#
#
# Elastic Compliance Matrix: (Units=1/GPa)
#
#
# Indices 1 2 3 4 5 6 
#
# 1 0.011090 -0.008755 -0.001674 0.000000 0.000000 0.000000
# 2 -0.008755 0.034929 0.007248 0.000000 0.000000 0.000000
# 3 -0.001674 0.007248 0.018284 0.000000 0.000000 0.000000
# 4 0.000000 0.000000 0.000000 0.008265 0.000000 0.000000
# 5 0.000000 0.000000 0.000000 0.000000 -0.040625 0.000000
# 6 0.000000 0.000000 0.000000 0.000000 0.000000 0.050357
#
#
# Mechanical properties :
#
#
# Convention : Reuss Voigt Hill
#
# Bulk Modulus (GPa) = 17.25848 26.66884 21.96366
# Shear Modulus (GPa) = 46.30674 36.28465 41.29569
#
# Velocity S-wave (km/s) = 4.63042 4.09883 4.37271
# Velocity P-wave (km/s) = 6.04803 5.89480 5.97191
#
# Compressibility (1/GPa) = 0.05794252
#
# Stress axis : x y z
#
# Youngs Moduli (GPa) = 90.17134 28.62957 54.69151
#
# Poissons Ratio (x) = 0.25066 0.09154
# Poissons Ratio (y) = 0.78947 -0.39643
# Poissons Ratio (z) = 0.15092 -0.20752
#
# Static dielectric constant tensor:
#      x y z
#    x 1.805290 0.000000 0.000000 
#    y 0.000000 1.749590 0.000000 
#    z 0.000000 0.000000 1.853520 
# 
# From -- ./inp_files/6572.got.cif
#   From: 2010.05.17/outbox.cif.g08.bks.cpg/sg55_4_cif.got.tgz:6572.got - 2010.06.03 13:27:54.
