data_PCOD9425904
_publ_section_title
;
Structure prediction by ZEFSAII (Michael W. Deem and Ramdas Pophale) SiO2 
 PCOD9425904
Probable space group: P B A M
;
_chemical_formula_sum "Si O2"
_cell_formula_units_Z 40
_cell_length_a 14.025726
_cell_length_b 18.587564
_cell_length_c 8.364627
_cell_angle_alpha 90.000000
_cell_angle_beta 90.000000
_cell_angle_gamma 90.000000
_cell_volume 2180.692384
_symmetry_space_group_name_H-M "P B A M"
_symmetry_group_IT_number 55
_symmetry_cell_setting 'orthorhombic'
loop_
_space_group_symop_operation_xyz
x,y,z
-x,-y,z
1/2+x,1/2-y,-z
1/2-x,1/2+y,-z
-x,-y,-z
x,y,-z
1/2-x,1/2+y,z
1/2+x,1/2-y,z
loop_
_atom_site_type_symbol
_atom_site_label
_atom_site_fract_x
_atom_site_fract_y
_atom_site_fract_z
Si Si1 0.412213 0.331075 0.193708
Si Si2 0.399856 0.031732 0.806805
Si Si3 0.301958 0.473182 0.805266
Si Si4 0.823308 0.317542 0.310306
Si Si5 0.376597 0.628040 0.806692
O O1 0.350117 0.399597 0.249202
O O2 0.367953 0.256542 0.250119
O O3 0.521507 0.342277 0.246612
O O4 0.411994 0.331573 0.000000
O O5 0.380736 0.113555 0.756002
O O6 0.500000 0.000000 0.748748
O O7 0.307245 0.986024 0.753849
O O8 0.400781 0.030007 0.000000
O O9 0.360150 0.544804 0.757666
O O10 0.302466 0.471867 0.000000
O O11 0.825797 0.319815 0.500000
O O12 0.714333 0.327672 0.253124
O O13 0.374702 0.629289 0.000000
#
# Coordination Sequence:
#
# PCOD9425904 Si02
#       5
#     8   8   8   8   8
#     4  10  19  33  56  81 104 135 177 223 267 309
#     4   9  18  35  58  80 103 136 180 223 262 310
#     4   8  15  30  54  82 104 125 166 221 266 304
#     4  11  23  36  50  75 113 146 172 209 261 321
#     4   9  18  35  57  77 100 133 176 223 266 310
#
# _framework density 18.342797999999998
#
# number of rings (size 3 to 8) (size 9 to 14) (size 15 to 20)
#    0.000    2.600    0.000    3.600    0.000    5.200 
#    0.000    8.000    0.000    6.000    0.000    0.000 
#    0.000    0.000    0.000    0.000    0.000    0.000 
#
# Total GULP energy -223161.602173 kJ/mol
# GULP energy per Si atom -5579.040054 kJ/mol
# Density = 1.830105 g / cm^3
# Si number density = 18.342798 Si / 1000 Ang^3
#
#
#
# Elastic Constant Matrix: (Units=GPa)
#
#
# Indices 1 2 3 4 5 6 
#
# 1 184.5533 140.8834 23.8158 0.0000 0.0000 0.0000
# 2 140.8834 154.1018 13.2219 0.0000 0.0000 0.0000
# 3 23.8158 13.2219 11.9147 0.0000 0.0000 0.0000
# 4 0.0000 0.0000 0.0000 -12.4628 0.0000 0.0000
# 5 0.0000 0.0000 0.0000 0.0000 0.4127 0.0000
# 6 0.0000 0.0000 0.0000 0.0000 0.0000 23.4143
#
#
#
# Elastic Compliance Matrix: (Units=1/GPa)
#
#
# Indices 1 2 3 4 5 6 
#
# 1 0.023258 -0.019092 -0.025303 0.000000 0.000000 0.000000
# 2 -0.019092 0.022845 0.012812 0.000000 0.000000 0.000000
# 3 -0.025303 0.012812 0.120289 0.000000 0.000000 0.000000
# 4 0.000000 0.000000 0.000000 -0.080239 0.000000 0.000000
# 5 0.000000 0.000000 0.000000 0.000000 2.423068 0.000000
# 6 0.000000 0.000000 0.000000 0.000000 0.000000 0.042709
#
#
# Mechanical properties :
#
#
# Convention : Reuss Voigt Hill
#
# Bulk Modulus (GPa) = 9.68754 78.49022 44.08888
# Shear Modulus (GPa) = 1.88714 13.78276 7.83495
#
# Velocity S-wave (km/s) = 1.01541 2.74414 2.06898
# Velocity P-wave (km/s) = 2.58217 7.27489 5.45856
#
# Compressibility (1/GPa) = 0.10322535
#
# Stress axis : x y z
#
# Youngs Moduli (GPa) = 42.99532 43.77407 8.31328
#
# Poissons Ratio (x) = 0.83575 0.21035
# Poissons Ratio (y) = 0.82088 -0.10651
# Poissons Ratio (z) = 1.08792 -0.56083
#
# Static dielectric constant tensor:
#      x y z
#    x 1.631590 0.000000 0.000000 
#    y 0.000000 1.599130 0.000000 
#    z 0.000000 0.000000 1.622270 
# 
# From -- ./inp_files/3599.got.cif
#   From: 2010.05.17/outbox.cif.g08.bks.cpg/sg55_2_cif.got.tgz:3599.got - 2010.06.03 13:27:54.
