data_PCOD9425443
_publ_section_title
;
Structure prediction by ZEFSAII (Michael W. Deem and Ramdas Pophale) SiO2 
 PCOD9425443
Probable space group: P B A M
;
_chemical_formula_sum "Si O2"
_cell_formula_units_Z 40
_cell_length_a 5.075217
_cell_length_b 13.886092
_cell_length_c 25.991788
_cell_angle_alpha 90.000000
_cell_angle_beta 90.000000
_cell_angle_gamma 90.000000
_cell_volume 1831.769445
_symmetry_space_group_name_H-M "P B A M"
_symmetry_group_IT_number 55
_symmetry_cell_setting 'orthorhombic'
loop_
_space_group_symop_operation_xyz
x,y,z
-x,-y,z
1/2+x,1/2-y,-z
1/2-x,1/2+y,-z
-x,-y,-z
x,y,-z
1/2-x,1/2+y,z
1/2+x,1/2-y,z
loop_
_atom_site_type_symbol
_atom_site_label
_atom_site_fract_x
_atom_site_fract_y
_atom_site_fract_z
Si Si1 0.664658 0.812040 0.271040
Si Si2 0.501335 0.885175 0.618149
Si Si3 0.462923 0.182342 0.836870
Si Si4 0.841581 0.318257 0.944280
Si Si5 0.501461 0.617533 0.442337
O O1 0.968390 0.780507 0.269531
O O2 0.591601 0.859301 0.324813
O O3 0.593741 0.866837 0.217979
O O4 0.212878 0.852909 0.600666
O O5 0.713594 0.852364 0.576066
O O6 0.500000 0.000000 0.615680
O O7 0.254520 0.272310 0.837290
O O8 0.399939 0.128825 0.890438
O O9 0.053833 0.230462 0.943354
O O10 0.873950 0.367703 0.000000
O O11 0.500000 0.500000 0.443539
O O12 0.567281 0.649522 0.500000
#
# Coordination Sequence:
#
# PCOD9425443 Si02
#       5
#     8   8   8   8   8
#     4  10  19  31  46  63  88 119 145 171 209 257
#     4  10  19  31  49  70  88 109 142 179 210 247
#     4   8  14  23  35  52  74 104 137 164 198 245
#     4   8  12  18  29  46  69  96 127 164 201 234
#     4   9  17  30  49  70  88 108 138 176 214 251
#
# _framework density 21.836808000000001
#
# number of rings (size 3 to 8) (size 9 to 14) (size 15 to 20)
#    0.000    3.000    0.000    1.800    0.000    2.400 
#    0.000    0.000    0.000   12.000    0.000    0.000 
#    0.000    0.800    0.000    0.000    0.000  203.200 
#
# Total GULP energy -222905.412088 kJ/mol
# GULP energy per Si atom -5572.635302 kJ/mol
# Density = 2.178711 g / cm^3
# Si number density = 21.836808 Si / 1000 Ang^3
#
#
#
# Elastic Constant Matrix: (Units=GPa)
#
#
# Indices 1 2 3 4 5 6 
#
# 1 91.9445 -12.1834 -2.3832 0.0000 0.0000 0.0000
# 2 -12.1834 36.5618 -5.6646 0.0000 0.0000 0.0000
# 3 -2.3832 -5.6646 158.7221 0.0000 0.0000 0.0000
# 4 0.0000 0.0000 0.0000 -15.9730 0.0000 0.0000
# 5 0.0000 0.0000 0.0000 0.0000 34.6914 0.0000
# 6 0.0000 0.0000 0.0000 0.0000 0.0000 15.6375
#
#
#
# Elastic Compliance Matrix: (Units=1/GPa)
#
#
# Indices 1 2 3 4 5 6 
#
# 1 0.011394 0.003844 0.000308 0.000000 0.000000 0.000000
# 2 0.003844 0.028800 0.001086 0.000000 0.000000 0.000000
# 3 0.000308 0.001086 0.006344 0.000000 0.000000 0.000000
# 4 0.000000 0.000000 0.000000 -0.062606 0.000000 0.000000
# 5 0.000000 0.000000 0.000000 0.000000 0.028826 0.000000
# 6 0.000000 0.000000 0.000000 0.000000 0.000000 0.063949
#
#
# Mechanical properties :
#
#
# Convention : Reuss Voigt Hill
#
# Bulk Modulus (GPa) = 17.53960 27.41845 22.47902
# Shear Modulus (GPa) = 58.66167 27.36848 43.01508
#
# Velocity S-wave (km/s) = 5.18864 3.54406 4.44311
# Velocity P-wave (km/s) = 6.62914 5.41577 6.05294
#
# Compressibility (1/GPa) = 0.05701386
#
# Stress axis : x y z
#
# Youngs Moduli (GPa) = 87.76911 34.72202 157.63694
#
# Poissons Ratio (x) = -0.13349 -0.04860
# Poissons Ratio (y) = -0.33742 -0.17112
# Poissons Ratio (z) = -0.02706 -0.03769
#
# Static dielectric constant tensor:
#      x y z
#    x 1.762350 0.000000 0.000000 
#    y 0.000000 -1.092390 0.000000 
#    z 0.000000 0.000000 1.897340 
# 
# From -- ./inp_files/22296.got.cif
#   From: 2010.05.17/outbox.cif.g08.bks.cpg/sg55_12_cif.got.tgz:22296.got - 2010.06.03 13:27:54.
