data_PCOD9425968
_publ_section_title
;
Structure prediction by ZEFSAII (Michael W. Deem and Ramdas Pophale) SiO2 
 PCOD9425968
Probable space group: P B A M
;
_chemical_formula_sum "Si O2"
_cell_formula_units_Z 64
_cell_length_a 10.839241
_cell_length_b 33.810685
_cell_length_c 7.924852
_cell_angle_alpha 90.000000
_cell_angle_beta 90.000000
_cell_angle_gamma 90.000000
_cell_volume 2904.316903
_symmetry_space_group_name_H-M "P B A M"
_symmetry_group_IT_number 55
_symmetry_cell_setting 'orthorhombic'
loop_
_space_group_symop_operation_xyz
x,y,z
-x,-y,z
1/2+x,1/2-y,-z
1/2-x,1/2+y,-z
-x,-y,-z
x,y,-z
1/2-x,1/2+y,z
1/2+x,1/2-y,z
loop_
_atom_site_type_symbol
_atom_site_label
_atom_site_fract_x
_atom_site_fract_y
_atom_site_fract_z
Si Si1 0.283066 0.779651 0.204053
Si Si2 0.664498 0.860957 0.692184
Si Si3 0.241211 0.869220 0.698685
Si Si4 0.965791 0.580079 0.195115
Si Si5 0.565636 0.777521 0.801672
Si Si6 0.689970 0.430729 0.297762
Si Si7 0.420654 0.440962 0.299293
Si Si8 0.186437 0.491665 0.196860
O O1 0.241122 0.823868 0.249909
O O2 0.176561 0.749836 0.267791
O O3 0.425020 0.773296 0.266810
O O4 0.288253 0.776403 0.000000
O O5 0.691830 0.849152 0.500000
O O6 0.560087 0.894712 0.696334
O O7 0.611623 0.822683 0.783314
O O8 0.776278 0.886929 0.767569
O O9 0.273030 0.872042 0.500000
O O10 0.344338 0.892431 0.802865
O O11 0.118199 0.895115 0.722186
O O12 0.918985 0.537904 0.264636
O O13 0.008540 0.576800 0.000000
O O14 0.556672 0.768145 0.000000
O O15 0.679592 0.426597 0.500000
O O16 0.558425 0.446008 0.233148
O O17 0.790636 0.464572 0.263995
O O18 0.418775 0.449993 0.500000
O O19 0.314969 0.468159 0.222067
O O20 0.160541 0.494769 0.000000
#
# Coordination Sequence:
#
# PCOD9425968 Si02
#       8
#     8   8   8   8   8   8   8   8
#     4  10  21  38  60  86 117 153 190 231 285 348
#     4  11  23  38  58  83 111 147 192 238 283 338
#     4  10  19  33  58  87 110 142 189 232 274 330
#     4  10  20  36  57  80 111 148 185 231 286 339
#     4  10  22  40  61  85 117 155 191 232 289 349
#     4  10  22  38  54  77 114 154 188 231 289 343
#     4   9  19  36  56  79 113 154 189 228 285 345
#     4  10  21  35  55  84 112 144 192 243 286 334
#
# _framework density 22.036162999999998
#
# number of rings (size 3 to 8) (size 9 to 14) (size 15 to 20)
#    0.000    2.000    1.250    1.875    0.000    7.000 
#    0.000    2.500    0.000    0.000    0.000    0.000 
#    0.000    0.000    0.000    0.000    0.000    0.000 
#
# Total GULP energy -357209.599373 kJ/mol
# GULP energy per Si atom -5581.399990 kJ/mol
# Density = 2.198601 g / cm^3
# Si number density = 22.036163 Si / 1000 Ang^3
#
#
#
# Elastic Constant Matrix: (Units=GPa)
#
#
# Indices 1 2 3 4 5 6 
#
# 1 78.2001 59.0899 5.6542 0.0000 0.0000 0.0000
# 2 59.0899 143.2307 0.7724 0.0000 0.0000 0.0000
# 3 5.6542 0.7724 29.7701 0.0000 0.0000 0.0000
# 4 0.0000 0.0000 0.0000 24.4996 0.0000 0.0000
# 5 0.0000 0.0000 0.0000 0.0000 -3.1529 0.0000
# 6 0.0000 0.0000 0.0000 0.0000 0.0000 29.3577
#
#
#
# Elastic Compliance Matrix: (Units=1/GPa)
#
#
# Indices 1 2 3 4 5 6 
#
# 1 0.018916 -0.007785 -0.003391 0.000000 0.000000 0.000000
# 2 -0.007785 0.010187 0.001214 0.000000 0.000000 0.000000
# 3 -0.003391 0.001214 0.034203 0.000000 0.000000 0.000000
# 4 0.000000 0.000000 0.000000 0.040817 0.000000 0.000000
# 5 0.000000 0.000000 0.000000 0.000000 -0.317173 0.000000
# 6 0.000000 0.000000 0.000000 0.000000 0.000000 0.034063
#
#
# Mechanical properties :
#
#
# Convention : Reuss Voigt Hill
#
# Bulk Modulus (GPa) = 23.05067 42.47041 32.76054
# Shear Modulus (GPa) = -34.57736 22.51985 -6.02875
#
# Velocity S-wave (km/s) = -3.96551 3.20026 -1.65583
# Velocity P-wave (km/s) = 3.23789 5.74199 3.35310
#
# Compressibility (1/GPa) = 0.04338269
#
# Stress axis : x y z
#
# Youngs Moduli (GPa) = 52.86607 98.16360 29.23698
#
# Poissons Ratio (x) = 0.76424 0.09913
# Poissons Ratio (y) = 0.41158 -0.03550
# Poissons Ratio (z) = 0.17925 -0.11921
#
# Static dielectric constant tensor:
#      x y z
#    x 1.879240 0.000000 0.000000 
#    y 0.000000 1.787340 0.000000 
#    z 0.000000 0.000000 1.788500 
# 
# From -- ./inp_files/4547.got.cif
#   From: 2010.05.17/outbox.cif.g08.bks.cpg/sg55_3_cif.got.tgz:4547.got - 2010.06.03 13:27:54.
