data_PCOD9425520
_publ_section_title
;
Structure prediction by ZEFSAII (Michael W. Deem and Ramdas Pophale) SiO2 
 PCOD9425520
Probable space group: P B A M
;
_chemical_formula_sum "Si O2"
_cell_formula_units_Z 48
_cell_length_a 15.424050
_cell_length_b 20.679510
_cell_length_c 7.560470
_cell_angle_alpha 90.000000
_cell_angle_beta 90.000000
_cell_angle_gamma 90.000000
_cell_volume 2411.501091
_symmetry_space_group_name_H-M "P B A M"
_symmetry_group_IT_number 55
_symmetry_cell_setting 'orthorhombic'
loop_
_space_group_symop_operation_xyz
x,y,z
-x,-y,z
1/2+x,1/2-y,-z
1/2-x,1/2+y,-z
-x,-y,-z
x,y,-z
1/2-x,1/2+y,z
1/2+x,1/2-y,z
loop_
_atom_site_type_symbol
_atom_site_label
_atom_site_fract_x
_atom_site_fract_y
_atom_site_fract_z
Si Si1 0.931126 0.054001 0.286219
Si Si2 0.928059 0.452899 0.204552
Si Si3 0.308006 0.660765 0.214457
Si Si4 0.495682 0.695294 0.210074
Si Si5 0.882711 0.310402 0.782930
Si Si6 0.237841 0.013930 0.707026
O O1 0.929574 0.050160 0.500000
O O2 0.961581 0.125239 0.236758
O O3 0.835033 0.034835 0.222862
O O4 0.000000 0.000000 0.223922
O O5 0.916663 0.380623 0.278908
O O6 0.832776 0.484732 0.209070
O O7 0.000000 0.500000 0.285404
O O8 0.953380 0.442930 0.000000
O O9 0.397311 0.691749 0.279795
O O10 0.218228 0.694330 0.270071
O O11 0.301429 0.586018 0.271922
O O12 0.309603 0.660209 0.000000
O O13 0.556817 0.752272 0.279548
O O14 0.488690 0.706324 0.000000
O O15 0.882567 0.310881 0.000000
O O16 0.251019 0.001270 0.500000
#
# Coordination Sequence:
#
# PCOD9425520 Si02
#       6
#     8   8   8   8   8   8
#     4  10  20  34  50  72 104 136 165 206 259 303
#     4   9  18  35  57  79 103 133 168 208 253 301
#     4   9  17  31  51  71  97 132 168 205 250 301
#     4  10  19  31  51  75  98 131 171 211 251 299
#     4   8  16  32  49  72 103 129 161 204 251 297
#     4  10  19  32  52  74  99 133 169 207 252 299
#
# _framework density 19.904615
#
# number of rings (size 3 to 8) (size 9 to 14) (size 15 to 20)
#    0.000    2.667    1.667    1.500    0.000    2.000 
#    3.000    3.333    0.000    0.000    0.000    0.000 
#    0.000    0.000    0.000    0.000    0.000    0.000 
#
# Total GULP energy -267728.487351 kJ/mol
# GULP energy per Si atom -5577.676820 kJ/mol
# Density = 1.985931 g / cm^3
# Si number density = 19.904615 Si / 1000 Ang^3
#
#
#
# Elastic Constant Matrix: (Units=GPa)
#
#
# Indices 1 2 3 4 5 6 
#
# 1 180.6137 115.8171 -5.9889 0.0000 0.0000 0.0000
# 2 115.8171 120.2613 -1.6820 0.0000 0.0000 0.0000
# 3 -5.9889 -1.6820 43.4383 0.0000 0.0000 0.0000
# 4 0.0000 0.0000 0.0000 27.5812 0.0000 0.0000
# 5 0.0000 0.0000 0.0000 0.0000 -0.6124 0.0000
# 6 0.0000 0.0000 0.0000 0.0000 0.0000 37.6282
#
#
#
# Elastic Compliance Matrix: (Units=1/GPa)
#
#
# Indices 1 2 3 4 5 6 
#
# 1 0.014569 -0.014011 0.001466 0.000000 0.000000 0.000000
# 2 -0.014011 0.021793 -0.001088 0.000000 0.000000 0.000000
# 3 0.001466 -0.001088 0.023181 0.000000 0.000000 0.000000
# 4 0.000000 0.000000 0.000000 0.036257 0.000000 0.000000
# 5 0.000000 0.000000 0.000000 0.000000 -1.632911 0.000000
# 6 0.000000 0.000000 0.000000 0.000000 0.000000 0.026576
#
#
# Mechanical properties :
#
#
# Convention : Reuss Voigt Hill
#
# Bulk Modulus (GPa) = 30.97973 62.28953 46.63463
# Shear Modulus (GPa) = -3.39556 28.66388 12.63416
#
# Velocity S-wave (km/s) = -1.30752 3.79893 2.52213
# Velocity P-wave (km/s) = 3.64944 7.11368 5.65344
#
# Compressibility (1/GPa) = 0.03227917
#
# Stress axis : x y z
#
# Youngs Moduli (GPa) = 68.63690 45.88677 43.13840
#
# Poissons Ratio (x) = 0.64290 -0.06325
# Poissons Ratio (y) = 0.96164 0.04693
# Poissons Ratio (z) = -0.10064 0.04992
#
# Static dielectric constant tensor:
#      x y z
#    x 1.713380 0.000000 0.000000 
#    y 0.000000 1.666380 0.000000 
#    z 0.000000 0.000000 1.740630 
# 
# From -- ./inp_files/5796.got.cif
#   From: 2010.05.17/outbox.cif.g08.bks.cpg/sg55_3_cif.got.tgz:5796.got - 2010.06.03 13:27:54.
