data_PCOD9425347
_publ_section_title
;
Structure prediction by ZEFSAII (Michael W. Deem and Ramdas Pophale) SiO2 
 PCOD9425347
Probable space group: P B A M
;
_chemical_formula_sum "Si O2"
_cell_formula_units_Z 32
_cell_length_a 17.347396
_cell_length_b 11.432017
_cell_length_c 7.372377
_cell_angle_alpha 90.000000
_cell_angle_beta 90.000000
_cell_angle_gamma 90.000000
_cell_volume 1462.058297
_symmetry_space_group_name_H-M "P B A M"
_symmetry_group_IT_number 55
_symmetry_cell_setting 'orthorhombic'
loop_
_space_group_symop_operation_xyz
x,y,z
-x,-y,z
1/2+x,1/2-y,-z
1/2-x,1/2+y,-z
-x,-y,-z
x,y,-z
1/2-x,1/2+y,z
1/2+x,1/2-y,z
loop_
_atom_site_type_symbol
_atom_site_label
_atom_site_fract_x
_atom_site_fract_y
_atom_site_fract_z
Si Si1 0.616052 0.054207 0.000000
Si Si2 0.591881 0.879225 0.704240
Si Si3 0.277775 0.391890 0.000000
Si Si4 0.944536 0.182928 0.000000
Si Si5 0.884012 0.835737 0.000000
Si Si6 0.265687 0.701029 0.295718
O O1 0.581108 0.995911 0.178481
O O2 0.707086 0.018727 0.000000
O O3 0.607598 0.192852 0.000000
O O4 0.560708 0.879729 0.500000
O O5 0.563558 0.769788 0.826133
O O6 0.684759 0.865508 0.690816
O O7 0.257416 0.314686 0.178210
O O8 0.370004 0.402671 0.000000
O O9 0.028102 0.125130 0.000000
O O10 0.832116 0.861617 0.177596
O O11 0.292200 0.727550 0.500000
#
# Coordination Sequence:
#
# PCOD9425347 Si02
#       6
#     4   8   4   4   4   8
#     4   9  17  28  44  68  87 107 146 184 216 255
#     4   9  17  30  47  64  87 118 147 179 218 258
#     4   8  16  29  46  64  84 111 148 188 210 242
#     4   9  18  32  44  64  94 119 144 172 216 267
#     4  10  19  28  44  68  93 116 142 180 216 260
#     4   8  15  29  46  61  81 115 153 181 209 248
#
# _framework density 21.886952999999998
#
# number of rings (size 3 to 8) (size 9 to 14) (size 15 to 20)
#    0.000    3.500    0.000    2.250    0.000    7.000 
#    0.000    1.250    0.000    3.000    0.000    3.500 
#    0.000    0.000    0.000    0.000    0.000    0.000 
#
# Total GULP energy -178406.462167 kJ/mol
# GULP energy per Si atom -5575.201943 kJ/mol
# Density = 2.183714 g / cm^3
# Si number density = 21.886953 Si / 1000 Ang^3
#
#
#
# Elastic Constant Matrix: (Units=GPa)
#
#
# Indices 1 2 3 4 5 6 
#
# 1 183.5910 7.5639 34.9113 0.0000 0.0000 0.0000
# 2 7.5639 36.5028 19.9840 0.0000 0.0000 0.0000
# 3 34.9113 19.9840 197.1877 0.0000 0.0000 0.0000
# 4 0.0000 0.0000 0.0000 -20.7121 0.0000 0.0000
# 5 0.0000 0.0000 0.0000 0.0000 -338.8025 0.0000
# 6 0.0000 0.0000 0.0000 0.0000 0.0000 21.3777
#
#
#
# Elastic Compliance Matrix: (Units=1/GPa)
#
#
# Indices 1 2 3 4 5 6 
#
# 1 0.005652 -0.000660 -0.000934 0.000000 0.000000 0.000000
# 2 -0.000660 0.029081 -0.002830 0.000000 0.000000 0.000000
# 3 -0.000934 -0.002830 0.005523 0.000000 0.000000 0.000000
# 4 0.000000 0.000000 0.000000 -0.048281 0.000000 0.000000
# 5 0.000000 0.000000 0.000000 0.000000 -0.002952 0.000000
# 6 0.000000 0.000000 0.000000 0.000000 0.000000 0.046778
#
#
# Mechanical properties :
#
#
# Convention : Reuss Voigt Hill
#
# Bulk Modulus (GPa) = 31.83856 60.24443 46.04149
# Shear Modulus (GPa) = 90.71230 -43.97256 23.36987
#
# Velocity S-wave (km/s) = 6.44483 -4.48713 3.27119
# Velocity P-wave (km/s) = 8.36418 0.85976 5.94553
#
# Compressibility (1/GPa) = 0.03140846
#
# Stress axis : x y z
#
# Youngs Moduli (GPa) = 176.93999 34.38614 181.04559
#
# Poissons Ratio (x) = 0.02269 0.16905
# Poissons Ratio (y) = 0.11677 0.51244
# Poissons Ratio (z) = 0.16521 0.09733
#
# Static dielectric constant tensor:
#      x y z
#    x 1.881500 0.000000 0.000000 
#    y 0.000000 1.843700 0.000000 
#    z 0.000000 0.000000 1.807240 
# 
# From -- ./inp_files/7241.got.cif
#   From: 2010.05.17/outbox.cif.g08.bks.cpg/sg55_4_cif.got.tgz:7241.got - 2010.06.03 13:27:54.
