data_PCOD9425791
_publ_section_title
;
Structure prediction by ZEFSAII (Michael W. Deem and Ramdas Pophale) SiO2 
 PCOD9425791
Probable space group: P B A M
;
_chemical_formula_sum "Si O2"
_cell_formula_units_Z 48
_cell_length_a 9.552159
_cell_length_b 31.843841
_cell_length_c 7.627607
_cell_angle_alpha 90.000000
_cell_angle_beta 90.000000
_cell_angle_gamma 90.000000
_cell_volume 2320.145913
_symmetry_space_group_name_H-M "P B A M"
_symmetry_group_IT_number 55
_symmetry_cell_setting 'orthorhombic'
loop_
_space_group_symop_operation_xyz
x,y,z
-x,-y,z
1/2+x,1/2-y,-z
1/2-x,1/2+y,-z
-x,-y,-z
x,y,-z
1/2-x,1/2+y,z
1/2+x,1/2-y,z
loop_
_atom_site_type_symbol
_atom_site_label
_atom_site_fract_x
_atom_site_fract_y
_atom_site_fract_z
Si Si1 0.616986 0.383441 0.206200
Si Si2 0.108229 0.210372 0.288110
Si Si3 0.069932 0.710408 0.714494
Si Si4 0.101564 0.464712 0.202354
Si Si5 0.058454 0.617368 0.703340
Si Si6 0.582418 0.542261 0.785807
O O1 0.562366 0.336038 0.231551
O O2 0.772678 0.386591 0.286139
O O3 0.507337 0.417647 0.274555
O O4 0.637157 0.391053 0.000000
O O5 0.105134 0.210619 0.500000
O O6 0.269025 0.215317 0.232184
O O7 0.018756 0.249849 0.225874
O O8 0.066833 0.709708 0.500000
O O9 0.022255 0.664016 0.771975
O O10 0.257397 0.459739 0.277690
O O11 0.000000 0.500000 0.283654
O O12 0.019804 0.420789 0.205777
O O13 0.124312 0.477940 0.000000
O O14 0.017830 0.615324 0.500000
O O15 0.500000 0.500000 0.738941
O O16 0.586119 0.544752 0.000000
#
# Coordination Sequence:
#
# PCOD9425791 Si02
#       6
#     8   8   8   8   8   8
#     4  10  19  33  53  76 103 135 171 212 258 305
#     4   9  17  32  51  71  98 133 172 210 252 302
#     4   8  16  30  49  70  94 129 167 203 246 298
#     4  10  20  35  56  79 103 135 173 213 262 315
#     4  10  20  35  54  77 105 137 175 216 258 306
#     4   9  18  33  53  76 101 132 170 208 250 308
#
# _framework density 20.688354
#
# number of rings (size 3 to 8) (size 9 to 14) (size 15 to 20)
#    0.000    2.667    0.000    3.000    0.000    4.333 
#    0.000    7.500    0.000    3.500    0.000    0.000 
#    0.000    0.000    0.000    0.000    0.000    0.000 
#
# Total GULP energy -267873.646496 kJ/mol
# GULP energy per Si atom -5580.700969 kJ/mol
# Density = 2.064127 g / cm^3
# Si number density = 20.688354 Si / 1000 Ang^3
#
#
#
# Elastic Constant Matrix: (Units=GPa)
#
#
# Indices 1 2 3 4 5 6 
#
# 1 107.4453 101.0101 -6.9095 0.0000 0.0000 0.0000
# 2 101.0101 184.6709 -11.0490 0.0000 0.0000 0.0000
# 3 -6.9095 -11.0490 41.5885 0.0000 0.0000 0.0000
# 4 0.0000 0.0000 0.0000 20.5825 0.0000 0.0000
# 5 0.0000 0.0000 0.0000 0.0000 10.7638 0.0000
# 6 0.0000 0.0000 0.0000 0.0000 0.0000 40.3342
#
#
#
# Elastic Compliance Matrix: (Units=1/GPa)
#
#
# Indices 1 2 3 4 5 6 
#
# 1 0.019165 -0.010459 0.000406 0.000000 0.000000 0.000000
# 2 -0.010459 0.011210 0.001241 0.000000 0.000000 0.000000
# 3 0.000406 0.001241 0.024442 0.000000 0.000000 0.000000
# 4 0.000000 0.000000 0.000000 0.048585 0.000000 0.000000
# 5 0.000000 0.000000 0.000000 0.000000 0.092904 0.000000
# 6 0.000000 0.000000 0.000000 0.000000 0.000000 0.024793
#
#
# Mechanical properties :
#
#
# Convention : Reuss Voigt Hill
#
# Bulk Modulus (GPa) = 26.88737 55.53421 41.21079
# Shear Modulus (GPa) = 19.91064 31.04631 25.47848
#
# Velocity S-wave (km/s) = 3.10564 3.87805 3.51313
# Velocity P-wave (km/s) = 5.08769 6.85229 6.03483
#
# Compressibility (1/GPa) = 0.03719219
#
# Stress axis : x y z
#
# Youngs Moduli (GPa) = 52.17710 89.20657 40.91307
#
# Poissons Ratio (x) = 0.93299 -0.01659
# Poissons Ratio (y) = 0.54571 -0.05076
# Poissons Ratio (z) = -0.02116 -0.11067
#
# Static dielectric constant tensor:
#      x y z
#    x 1.708890 0.000000 0.000000 
#    y 0.000000 1.722670 0.000000 
#    z 0.000000 0.000000 1.783270 
# 
# From -- ./inp_files/2890.got.cif
#   From: 2010.05.17/outbox.cif.g08.bks.cpg/sg55_2_cif.got.tgz:2890.got - 2010.06.03 13:27:54.
