data_PCOD9425671
_publ_section_title
;
Structure prediction by ZEFSAII (Michael W. Deem and Ramdas Pophale) SiO2 
 PCOD9425671
Probable space group: P B A M
;
_chemical_formula_sum "Si O2"
_cell_formula_units_Z 52
_cell_length_a 5.118916
_cell_length_b 16.018894
_cell_length_c 33.070248
_cell_angle_alpha 90.000000
_cell_angle_beta 90.000000
_cell_angle_gamma 90.000000
_cell_volume 2711.739594
_symmetry_space_group_name_H-M "P B A M"
_symmetry_group_IT_number 55
_symmetry_cell_setting 'orthorhombic'
loop_
_space_group_symop_operation_xyz
x,y,z
-x,-y,z
1/2+x,1/2-y,-z
1/2-x,1/2+y,-z
-x,-y,-z
x,y,-z
1/2-x,1/2+y,z
1/2+x,1/2-y,z
loop_
_atom_site_type_symbol
_atom_site_label
_atom_site_fract_x
_atom_site_fract_y
_atom_site_fract_z
Si Si1 0.996755 0.100099 0.869691
Si Si2 0.635802 0.690497 0.211629
Si Si3 0.636753 0.693405 0.613448
Si Si4 0.002322 0.601199 0.917837
Si Si5 0.139608 0.694724 0.000000
Si Si6 0.254513 0.942072 0.546043
Si Si7 0.222144 0.806362 0.701475
O O1 0.282837 0.127135 0.884334
O O2 0.907695 0.130254 0.825891
O O3 0.781621 0.128579 0.902365
O O4 0.000000 0.000000 0.869789
O O5 0.399311 0.756102 0.209126
O O6 0.652146 0.649087 0.256349
O O7 0.346089 0.730921 0.611189
O O8 0.705076 0.630936 0.577697
O O9 0.673262 0.652598 0.657996
O O10 0.000000 0.500000 0.921021
O O11 0.081717 0.640728 0.960180
O O12 0.433612 0.729029 0.000000
O O13 0.298318 0.910678 0.500000
O O14 0.500000 0.000000 0.557076
O O15 0.000000 0.000000 0.545714
O O16 0.518668 0.772198 0.701846
#
# Coordination Sequence:
#
# PCOD9425671 Si02
#       7
#     8   8   8   8   4   8   8
#     4  10  21  36  55  78 104 135 172 210 247 296
#     4  10  19  32  53  77 103 136 170 207 255 307
#     4  10  19  33  55  78 102 136 182 227 259 310
#     4  10  22  40  57  74 104 143 170 197 252 312
#     4  12  25  38  57  84 108 128 166 220 253 286
#     4  10  21  36  52  74 108 143 173 216 277 331
#     4   8  16  30  48  73 102 132 167 209 259 305
#
# _framework density 19.175882000000001
#
# number of rings (size 3 to 8) (size 9 to 14) (size 15 to 20)
#    0.000    2.154    0.000    3.000    0.000    4.308 
#    0.000    3.846    0.000    2.769    0.000    0.000 
#    0.000    0.000    0.000    0.000    0.000    0.000 
#
# Total GULP energy -290103.756655 kJ/mol
# GULP energy per Si atom -5578.918397 kJ/mol
# Density = 1.913224 g / cm^3
# Si number density = 19.175882 Si / 1000 Ang^3
#
#
#
# Elastic Constant Matrix: (Units=GPa)
#
#
# Indices 1 2 3 4 5 6 
#
# 1 111.4425 6.8407 -1.3439 0.0000 0.0000 0.0000
# 2 6.8407 12.3401 28.9890 0.0000 0.0000 0.0000
# 3 -1.3439 28.9890 129.1872 0.0000 0.0000 0.0000
# 4 0.0000 0.0000 0.0000 170.6787 0.0000 0.0000
# 5 0.0000 0.0000 0.0000 0.0000 24.6618 0.0000
# 6 0.0000 0.0000 0.0000 0.0000 0.0000 18.7989
#
#
#
# Elastic Compliance Matrix: (Units=1/GPa)
#
#
# Indices 1 2 3 4 5 6 
#
# 1 0.009738 -0.011920 0.002776 0.000000 0.000000 0.000000
# 2 -0.011920 0.185967 -0.041854 0.000000 0.000000 0.000000
# 3 0.002776 -0.041854 0.017161 0.000000 0.000000 0.000000
# 4 0.000000 0.000000 0.000000 0.005859 0.000000 0.000000
# 5 0.000000 0.000000 0.000000 0.000000 0.040548 0.000000
# 6 0.000000 0.000000 0.000000 0.000000 0.000000 0.053195
#
#
# Mechanical properties :
#
#
# Convention : Reuss Voigt Hill
#
# Bulk Modulus (GPa) = 9.01952 35.77125 22.39538
# Shear Modulus (GPa) = 11.07613 57.39348 34.23480
#
# Velocity S-wave (km/s) = 2.40595 5.47677 4.22987
# Velocity P-wave (km/s) = 3.52590 7.66082 5.96322
#
# Compressibility (1/GPa) = 0.11087065
#
# Stress axis : x y z
#
# Youngs Moduli (GPa) = 102.68627 5.37731 58.27021
#
# Poissons Ratio (x) = 0.06410 -0.16176
# Poissons Ratio (y) = 1.22402 2.43884
# Poissons Ratio (z) = -0.28507 0.22506
#
# Static dielectric constant tensor:
#      x y z
#    x 1.659460 0.000000 0.000000 
#    y 0.000000 1.628860 0.000000 
#    z 0.000000 0.000000 1.702380 
# 
# From -- ./inp_files/23841.got.cif
#   From: 2010.05.17/outbox.cif.g08.bks.cpg/sg55_12_cif.got.tgz:23841.got - 2010.06.03 13:27:54.
