data_PCOD9425110
_publ_section_title
;
Structure prediction by ZEFSAII (Michael W. Deem and Ramdas Pophale) SiO2 
 PCOD9425110
Probable space group: P B A M
;
_chemical_formula_sum "Si O2"
_cell_formula_units_Z 56
_cell_length_a 15.406024
_cell_length_b 14.362064
_cell_length_c 12.459548
_cell_angle_alpha 90.000000
_cell_angle_beta 90.000000
_cell_angle_gamma 90.000000
_cell_volume 2756.828281
_symmetry_space_group_name_H-M "P B A M"
_symmetry_group_IT_number 55
_symmetry_cell_setting 'orthorhombic'
loop_
_space_group_symop_operation_xyz
x,y,z
-x,-y,z
1/2+x,1/2-y,-z
1/2-x,1/2+y,-z
-x,-y,-z
x,y,-z
1/2-x,1/2+y,z
1/2+x,1/2-y,z
loop_
_atom_site_type_symbol
_atom_site_label
_atom_site_fract_x
_atom_site_fract_y
_atom_site_fract_z
Si Si1 0.253649 0.331484 0.374717
Si Si2 0.434529 0.385836 0.113822
Si Si3 0.135796 0.507686 0.126557
Si Si4 0.135309 0.159943 0.880813
Si Si5 0.693275 0.505033 0.760673
Si Si6 0.386745 0.210820 0.229440
Si Si7 0.081810 0.331798 0.756414
O O1 0.263187 0.314124 0.500000
O O2 0.278071 0.439365 0.344680
O O3 0.316881 0.260433 0.308329
O O4 0.153624 0.324508 0.336462
O O5 0.537256 0.377985 0.114245
O O6 0.396516 0.447188 0.207567
O O7 0.396237 0.283153 0.131315
O O8 0.406277 0.425693 0.000000
O O9 0.233050 0.469851 0.151352
O O10 0.132983 0.608807 0.182979
O O11 0.077116 0.433857 0.191058
O O12 0.117256 0.512103 0.000000
O O13 0.179575 0.103991 0.783121
O O14 0.122092 0.266500 0.849711
O O15 0.175411 0.148370 0.000000
O O16 0.485695 0.203281 0.275134
#
# Coordination Sequence:
#
# PCOD9425110 Si02
#       7
#     8   8   8   8   8   8   8
#     4  10  23  43  62  80 108 147 193 247 298 336
#     4   9  17  30  51  80 115 152 184 223 279 339
#     4  11  21  34  56  87 125 163 190 220 272 340
#     4  10  18  31  54  83 116 152 185 224 282 346
#     4  10  20  33  52  80 113 146 191 239 278 333
#     4  10  21  37  59  86 115 148 191 236 279 336
#     4  10  22  38  57  85 119 152 192 236 278 335
#
# _framework density 20.313199000000001
#
# number of rings (size 3 to 8) (size 9 to 14) (size 15 to 20)
#    0.000    2.000    0.000    3.857    0.000    4.000 
#    0.000   10.714    0.000   15.429    0.000    0.000 
#    0.000    0.000    0.000    0.000    0.000    0.000 
#
# Total GULP energy -311947.405324 kJ/mol
# GULP energy per Si atom -5570.489381 kJ/mol
# Density = 2.026697 g / cm^3
# Si number density = 20.313199 Si / 1000 Ang^3
#
#
#
# Elastic Constant Matrix: (Units=GPa)
#
#
# Indices 1 2 3 4 5 6 
#
# 1 85.1800 24.4680 43.8515 0.0000 0.0000 0.0000
# 2 24.4680 121.4546 25.4759 0.0000 0.0000 0.0000
# 3 43.8515 25.4759 99.0522 0.0000 0.0000 0.0000
# 4 0.0000 0.0000 0.0000 17.1599 0.0000 0.0000
# 5 0.0000 0.0000 0.0000 0.0000 13.3100 0.0000
# 6 0.0000 0.0000 0.0000 0.0000 0.0000 27.9765
#
#
#
# Elastic Compliance Matrix: (Units=1/GPa)
#
#
# Indices 1 2 3 4 5 6 
#
# 1 0.015564 -0.001787 -0.006431 0.000000 0.000000 0.000000
# 2 -0.001787 0.008908 -0.001500 0.000000 0.000000 0.000000
# 3 -0.006431 -0.001500 0.013328 0.000000 0.000000 0.000000
# 4 0.000000 0.000000 0.000000 0.058275 0.000000 0.000000
# 5 0.000000 0.000000 0.000000 0.000000 0.075132 0.000000
# 6 0.000000 0.000000 0.000000 0.000000 0.000000 0.035744
#
#
# Mechanical properties :
#
#
# Convention : Reuss Voigt Hill
#
# Bulk Modulus (GPa) = 54.45046 54.80862 54.62954
# Shear Modulus (GPa) = 21.50462 25.81537 23.65999
#
# Velocity S-wave (km/s) = 3.25722 3.56879 3.41656
# Velocity P-wave (km/s) = 6.40388 6.63491 6.52042
#
# Compressibility (1/GPa) = 0.01836532
#
# Stress axis : x y z
#
# Youngs Moduli (GPa) = 64.25243 112.25715 75.02726
#
# Poissons Ratio (x) = 0.20055 0.48248
# Poissons Ratio (y) = 0.11479 0.11256
# Poissons Ratio (z) = 0.41319 0.16841
#
# Static dielectric constant tensor:
#      x y z
#    x 1.802700 0.000000 0.000000 
#    y 0.000000 1.801690 0.000000 
#    z 0.000000 0.000000 1.670430 
# 
# From -- ./inp_files/14213.got.cif
#   From: 2010.05.17/outbox.cif.g08.bks.cpg/sg55_8_cif.got.tgz:14213.got - 2010.06.03 13:27:54.
