data_PCOD9425620
_publ_section_title
;
Structure prediction by ZEFSAII (Michael W. Deem and Ramdas Pophale) SiO2 
 PCOD9425620
Probable space group: P B A M
;
_chemical_formula_sum "Si O2"
_cell_formula_units_Z 64
_cell_length_a 15.019719
_cell_length_b 21.745189
_cell_length_c 7.413092
_cell_angle_alpha 90.000000
_cell_angle_beta 90.000000
_cell_angle_gamma 90.000000
_cell_volume 2421.164984
_symmetry_space_group_name_H-M "P B A M"
_symmetry_group_IT_number 55
_symmetry_cell_setting 'orthorhombic'
loop_
_space_group_symop_operation_xyz
x,y,z
-x,-y,z
1/2+x,1/2-y,-z
1/2-x,1/2+y,-z
-x,-y,-z
x,y,-z
1/2-x,1/2+y,z
1/2+x,1/2-y,z
loop_
_atom_site_type_symbol
_atom_site_label
_atom_site_fract_x
_atom_site_fract_y
_atom_site_fract_z
Si Si1 0.391808 0.580801 0.784795
Si Si2 0.081137 0.890178 0.794620
Si Si3 0.589556 0.085607 0.791997
Si Si4 0.989619 0.244590 0.719751
Si Si5 0.906525 0.370407 0.704604
Si Si6 0.245672 0.332284 0.222797
Si Si7 0.716089 0.973221 0.714956
Si Si8 0.814945 0.791876 0.206409
O O1 0.493359 0.576598 0.715773
O O2 0.321155 0.526617 0.756875
O O3 0.342920 0.642458 0.710193
O O4 0.401809 0.589802 0.000000
O O5 0.178633 0.879985 0.713139
O O6 0.052033 0.818208 0.792863
O O7 0.092262 0.912788 0.000000
O O8 0.493837 0.086017 0.700741
O O9 0.652660 0.138816 0.716661
O O10 0.652359 0.026413 0.784828
O O11 0.569201 0.098129 0.000000
O O12 0.991247 0.242785 0.500000
O O13 0.938875 0.305742 0.781827
O O14 0.090013 0.242503 0.790576
O O15 0.878913 0.356564 0.500000
O O16 0.827502 0.409829 0.788144
O O17 0.250750 0.260846 0.282238
O O18 0.247864 0.332585 0.000000
O O19 0.707463 0.973910 0.500000
O O20 0.787246 0.802778 0.000000
#
# Coordination Sequence:
#
# PCOD9425620 Si02
#       8
#     8   8   8   8   8   8   8   8
#     4   9  19  35  56  83 111 141 187 235 275 324
#     4   9  19  36  58  82 114 149 181 226 282 333
#     4  11  22  38  61  86 111 140 188 239 279 330
#     4  10  19  32  51  80 115 147 183 221 266 328
#     4  10  22  38  54  78 114 153 185 220 275 337
#     4   9  18  34  58  86 112 143 182 228 283 333
#     4  11  24  40  57  76 110 155 192 229 281 335
#     4   9  17  33  55  81 112 145 181 225 278 330
#
# _framework density 26.433555999999999
#
# number of rings (size 3 to 8) (size 9 to 14) (size 15 to 20)
#    0.000    2.250    1.250    2.250    1.750    5.000 
#    0.000    2.500    0.000    3.750    0.000    0.000 
#    0.000    0.000    0.000    0.000    0.000    0.000 
#
# Total GULP energy -357586.553939 kJ/mol
# GULP energy per Si atom -5587.289905 kJ/mol
# Density = 2.637339 g / cm^3
# Si number density = 26.433556 Si / 1000 Ang^3
#
#
#
# Elastic Constant Matrix: (Units=GPa)
#
#
# Indices 1 2 3 4 5 6 
#
# 1 96.9251 -19.7575 -0.7818 0.0000 0.0000 0.0000
# 2 -19.7575 52.4788 1.9185 0.0000 0.0000 0.0000
# 3 -0.7818 1.9185 117.9946 0.0000 0.0000 0.0000
# 4 0.0000 0.0000 0.0000 -37.8078 0.0000 0.0000
# 5 0.0000 0.0000 0.0000 0.0000 6.1311 0.0000
# 6 0.0000 0.0000 0.0000 0.0000 0.0000 35.2700
#
#
#
# Elastic Compliance Matrix: (Units=1/GPa)
#
#
# Indices 1 2 3 4 5 6 
#
# 1 0.011175 0.004207 0.000006 0.000000 0.000000 0.000000
# 2 0.004207 0.020650 -0.000308 0.000000 0.000000 0.000000
# 3 0.000006 -0.000308 0.008480 0.000000 0.000000 0.000000
# 4 0.000000 0.000000 0.000000 -0.026450 0.000000 0.000000
# 5 0.000000 0.000000 0.000000 0.000000 0.163102 0.000000
# 6 0.000000 0.000000 0.000000 0.000000 0.000000 0.028353
#
#
# Mechanical properties :
#
#
# Convention : Reuss Voigt Hill
#
# Bulk Modulus (GPa) = 20.78368 25.57301 23.17834
# Shear Modulus (GPa) = 23.41492 19.78663 21.60077
#
# Velocity S-wave (km/s) = 2.97947 2.73892 2.86172
# Velocity P-wave (km/s) = 4.44027 4.43821 4.43924
#
# Compressibility (1/GPa) = 0.04811467
#
# Stress axis : x y z
#
# Youngs Moduli (GPa) = 89.48673 48.42515 117.92442
#
# Poissons Ratio (x) = -0.20372 -0.00066
# Poissons Ratio (y) = -0.37647 0.03631
# Poissons Ratio (z) = -0.00050 0.01491
#
# Static dielectric constant tensor:
#      x y z
#    x 2.097990 0.000000 0.000000 
#    y 0.000000 2.119930 0.000000 
#    z 0.000000 0.000000 1.993230 
# 
# From -- ./inp_files/6693.got.cif
#   From: 2010.05.17/outbox.cif.g08.bks.cpg/sg55_4_cif.got.tgz:6693.got - 2010.06.03 13:27:54.
