data_PCOD9425200
_publ_section_title
;
Structure prediction by ZEFSAII (Michael W. Deem and Ramdas Pophale) SiO2 
 PCOD9425200
Probable space group: P B A M
;
_chemical_formula_sum "Si O2"
_cell_formula_units_Z 32
_cell_length_a 9.119956
_cell_length_b 16.590896
_cell_length_c 10.582702
_cell_angle_alpha 90.000000
_cell_angle_beta 90.000000
_cell_angle_gamma 90.000000
_cell_volume 1601.250030
_symmetry_space_group_name_H-M "P B A M"
_symmetry_group_IT_number 55
_symmetry_cell_setting 'orthorhombic'
loop_
_space_group_symop_operation_xyz
x,y,z
-x,-y,z
1/2+x,1/2-y,-z
1/2-x,1/2+y,-z
-x,-y,-z
x,y,-z
1/2-x,1/2+y,z
1/2+x,1/2-y,z
loop_
_atom_site_type_symbol
_atom_site_label
_atom_site_fract_x
_atom_site_fract_y
_atom_site_fract_z
Si Si1 0.077701 0.389149 0.645301
Si Si2 0.624570 0.853832 0.139586
Si Si3 0.098235 0.925150 0.348222
Si Si4 0.075397 0.223190 0.236604
O O1 0.038318 0.406349 0.500000
O O2 0.229827 0.431529 0.681685
O O3 0.110980 0.292645 0.659920
O O4 0.948505 0.404268 0.745937
O O5 0.781392 0.819505 0.181915
O O6 0.515163 0.776704 0.137314
O O7 0.630522 0.891004 0.000000
O O8 0.088650 0.921093 0.500000
O O9 0.030374 0.844254 0.292339
O O10 0.000000 0.000000 0.304176
#
# Coordination Sequence:
#
# PCOD9425200 Si02
#       4
#     8   8   8   8
#     4   9  18  34  56  82 107 141 184 228 269 318
#     4  10  20  33  56  83 109 143 187 231 271 318
#     4  10  20  35  55  83 117 146 178 226 282 330
#     4  10  18  32  56  80 109 142 181 228 266 322
#
# _framework density 19.984387999999999
#
# number of rings (size 3 to 8) (size 9 to 14) (size 15 to 20)
#    1.500    0.750    2.500    1.500    0.000    2.000 
#    0.000    1.250    0.000   12.750    0.000    0.000 
#    0.000    0.000    0.000    0.000    0.000    0.000 
#
# Total GULP energy -178204.753090 kJ/mol
# GULP energy per Si atom -5568.898534 kJ/mol
# Density = 1.993890 g / cm^3
# Si number density = 19.984388 Si / 1000 Ang^3
#
#
#
# Elastic Constant Matrix: (Units=GPa)
#
#
# Indices 1 2 3 4 5 6 
#
# 1 106.7660 10.4064 61.8099 0.0000 0.0000 0.0000
# 2 10.4064 63.8181 16.9740 0.0000 0.0000 0.0000
# 3 61.8099 16.9740 77.1735 0.0000 0.0000 0.0000
# 4 0.0000 0.0000 0.0000 -3.7497 0.0000 0.0000
# 5 0.0000 0.0000 0.0000 0.0000 28.5728 0.0000
# 6 0.0000 0.0000 0.0000 0.0000 0.0000 38.7786
#
#
#
# Elastic Compliance Matrix: (Units=1/GPa)
#
#
# Indices 1 2 3 4 5 6 
#
# 1 0.017516 0.000929 -0.014233 0.000000 0.000000 0.000000
# 2 0.000929 0.016692 -0.004416 0.000000 0.000000 0.000000
# 3 -0.014233 -0.004416 0.025329 0.000000 0.000000 0.000000
# 4 0.000000 0.000000 0.000000 -0.266690 0.000000 0.000000
# 5 0.000000 0.000000 0.000000 0.000000 0.034998 0.000000
# 6 0.000000 0.000000 0.000000 0.000000 0.000000 0.025787
#
#
# Mechanical properties :
#
#
# Convention : Reuss Voigt Hill
#
# Bulk Modulus (GPa) = 41.49755 47.34867 44.42311
# Shear Modulus (GPa) = -48.59285 23.29149 -12.65068
#
# Velocity S-wave (km/s) = -4.93642 3.41762 -2.51873
# Velocity P-wave (km/s) = 3.41773 6.27039 3.71732
#
# Compressibility (1/GPa) = 0.02409781
#
# Stress axis : x y z
#
# Youngs Moduli (GPa) = 57.09188 59.90716 39.48097
#
# Poissons Ratio (x) = -0.05568 0.56194
# Poissons Ratio (y) = -0.05307 0.17434
# Poissons Ratio (z) = 0.81259 0.26454
#
# Static dielectric constant tensor:
#      x y z
#    x 1.691080 0.000000 0.000000 
#    y 0.000000 1.698890 0.000000 
#    z 0.000000 0.000000 1.684440 
# 
# From -- ./inp_files/2006.got.cif
#   From: 2010.05.17/outbox.cif.g08.bks.cpg/sg55_2_cif.got.tgz:2006.got - 2010.06.03 13:27:54.
