data_PCOD9425653
_publ_section_title
;
Structure prediction by ZEFSAII (Michael W. Deem and Ramdas Pophale) SiO2 
 PCOD9425653
Probable space group: P B A M
;
_chemical_formula_sum "Si O2"
_cell_formula_units_Z 32
_cell_length_a 5.414826
_cell_length_b 15.485997
_cell_length_c 16.091432
_cell_angle_alpha 90.000000
_cell_angle_beta 90.000000
_cell_angle_gamma 90.000000
_cell_volume 1349.330604
_symmetry_space_group_name_H-M "P B A M"
_symmetry_group_IT_number 55
_symmetry_cell_setting 'orthorhombic'
loop_
_space_group_symop_operation_xyz
x,y,z
-x,-y,z
1/2+x,1/2-y,-z
1/2-x,1/2+y,-z
-x,-y,-z
x,y,-z
1/2-x,1/2+y,z
1/2+x,1/2-y,z
loop_
_atom_site_type_symbol
_atom_site_label
_atom_site_fract_x
_atom_site_fract_y
_atom_site_fract_z
Si Si1 0.697211 0.345657 0.250288
Si Si2 0.040102 0.595025 0.095265
Si Si3 0.301988 0.853263 0.316888
Si Si4 0.795002 0.196341 0.000000
Si Si5 0.295213 0.305616 0.500000
O O1 0.790223 0.349484 0.155511
O O2 0.674291 0.247547 0.285484
O O3 0.433078 0.388125 0.266903
O O4 0.926369 0.388709 0.299004
O O5 0.000000 0.500000 0.129266
O O6 0.139342 0.585650 0.000000
O O7 0.772988 0.638455 0.079781
O O8 0.237627 0.855366 0.413747
O O9 0.056437 0.240046 0.000000
O O10 0.566007 0.262233 0.500000
#
# Coordination Sequence:
#
# PCOD9425653 Si02
#       5
#     8   8   8   4   4
#     4  10  19  32  52  78 115 143 195 238 288 334
#     4   9  22  42  60  85 124 166 203 245 304 362
#     4  10  20  31  52  88 111 150 186 248 290 356
#     4  10  23  38  61  88 108 152 196 250 295 334
#     4  12  16  32  50  84 126 148 178 242 318 348
#
# _framework density 23.715464000000001
#
# number of rings (size 3 to 8) (size 9 to 14) (size 15 to 20)
#    0.750    1.250    5.000    0.000    7.000    0.000 
#    0.000    6.250    0.000    0.000    0.000    9.625 
#    0.000    0.000    0.000    0.000    0.000    0.000 
#
# Total GULP energy -178561.691676 kJ/mol
# GULP energy per Si atom -5580.052865 kJ/mol
# Density = 2.366149 g / cm^3
# Si number density = 23.715464 Si / 1000 Ang^3
#
#
#
# Elastic Constant Matrix: (Units=GPa)
#
#
# Indices 1 2 3 4 5 6 
#
# 1 115.9981 2.6873 1.2409 0.0000 0.0000 0.0000
# 2 2.6873 55.3544 -0.6173 0.0000 0.0000 0.0000
# 3 1.2409 -0.6173 135.6335 0.0000 0.0000 0.0000
# 4 0.0000 0.0000 0.0000 9.4380 0.0000 0.0000
# 5 0.0000 0.0000 0.0000 0.0000 37.8839 0.0000
# 6 0.0000 0.0000 0.0000 0.0000 0.0000 -4.0775
#
#
#
# Elastic Compliance Matrix: (Units=1/GPa)
#
#
# Indices 1 2 3 4 5 6 
#
# 1 0.008631 -0.000420 -0.000081 0.000000 0.000000 0.000000
# 2 -0.000420 0.018087 0.000086 0.000000 0.000000 0.000000
# 3 -0.000081 0.000086 0.007374 0.000000 0.000000 0.000000
# 4 0.000000 0.000000 0.000000 0.105955 0.000000 0.000000
# 5 0.000000 0.000000 0.000000 0.000000 0.026396 0.000000
# 6 0.000000 0.000000 0.000000 0.000000 0.000000 -0.245251
#
#
# Mechanical properties :
#
#
# Convention : Reuss Voigt Hill
#
# Bulk Modulus (GPa) = 30.06360 34.84531 32.45445
# Shear Modulus (GPa) = -74.74865 28.89390 -22.92738
#
# Velocity S-wave (km/s) = -5.62026 3.49428 -3.11266
# Velocity P-wave (km/s) = 5.42330 5.56821 0.89241
#
# Compressibility (1/GPa) = 0.03326282
#
# Stress axis : x y z
#
# Youngs Moduli (GPa) = 115.85575 55.28904 135.61264
#
# Poissons Ratio (x) = 0.02322 0.01097
# Poissons Ratio (y) = 0.04865 -0.01168
# Poissons Ratio (z) = 0.00937 -0.00476
#
# Static dielectric constant tensor:
#      x y z
#    x 1.967880 0.000000 0.000000 
#    y 0.000000 2.008500 0.000000 
#    z 0.000000 0.000000 1.951870 
# 
# From -- ./inp_files/16420.got.cif
#   From: 2010.05.17/outbox.cif.g08.bks.cpg/sg55_9_cif.got.tgz:16420.got - 2010.06.03 13:27:54.
