data_PCOD9425939
_publ_section_title
;
Structure prediction by ZEFSAII (Michael W. Deem and Ramdas Pophale) SiO2 
 PCOD9425939
Probable space group: P B A M
;
_chemical_formula_sum "Si O2"
_cell_formula_units_Z 64
_cell_length_a 21.052322
_cell_length_b 16.265082
_cell_length_c 9.552174
_cell_angle_alpha 90.000000
_cell_angle_beta 90.000000
_cell_angle_gamma 90.000000
_cell_volume 3270.833868
_symmetry_space_group_name_H-M "P B A M"
_symmetry_group_IT_number 55
_symmetry_cell_setting 'orthorhombic'
loop_
_space_group_symop_operation_xyz
x,y,z
-x,-y,z
1/2+x,1/2-y,-z
1/2-x,1/2+y,-z
-x,-y,-z
x,y,-z
1/2-x,1/2+y,z
1/2+x,1/2-y,z
loop_
_atom_site_type_symbol
_atom_site_label
_atom_site_fract_x
_atom_site_fract_y
_atom_site_fract_z
Si Si1 0.074581 0.998837 0.845805
Si Si2 0.115981 0.831601 0.158568
Si Si3 0.584711 0.348284 0.656525
Si Si4 0.048059 0.576628 0.159198
Si Si5 0.273139 0.717608 0.660855
Si Si6 0.262192 0.880024 0.841566
Si Si7 0.700378 0.930640 0.167609
Si Si8 0.469008 0.227867 0.665609
O O1 0.087399 0.913066 0.772709
O O2 0.092895 0.076791 0.760110
O O3 0.105611 0.998046 0.000000
O O4 0.000000 0.000000 0.863281
O O5 0.188597 0.855188 0.146897
O O6 0.094473 0.758214 0.255583
O O7 0.090698 0.819052 0.000000
O O8 0.567498 0.377215 0.500000
O O9 0.653766 0.309126 0.651516
O O10 0.528491 0.286838 0.701778
O O11 0.123533 0.562765 0.189490
O O12 0.020056 0.638805 0.271894
O O13 0.000000 0.500000 0.159887
O O14 0.046314 0.610860 0.000000
O O15 0.248049 0.723984 0.500000
O O16 0.280585 0.807215 0.734892
O O17 0.233397 0.645890 0.746907
O O18 0.272186 0.976529 0.800548
O O19 0.290360 0.871677 0.000000
O O20 0.710597 0.915878 0.000000
O O21 0.461219 0.227860 0.500000
#
# Coordination Sequence:
#
# PCOD9425939 Si02
#       8
#     8   8   8   8   8   8   8   8
#     4  10  19  33  56  86 115 150 193 236 283 339
#     4  10  20  36  57  86 121 152 192 242 291 345
#     4  10  23  39  55  82 122 161 196 240 292 349
#     4  10  23  42  65  91 118 149 193 249 304 355
#     4  11  24  41  61  88 123 161 204 249 297 355
#     4  10  22  39  63  90 118 157 201 247 298 355
#     4  10  22  43  66  91 123 159 202 251 305 361
#     4  11  23  38  58  86 119 158 199 240 294 354
#
# _framework density 19.566877000000002
#
# number of rings (size 3 to 8) (size 9 to 14) (size 15 to 20)
#    0.000    1.750    1.250    2.250    1.750    8.000 
#    0.000    0.000    0.000    0.000    0.000    0.000 
#    0.000    0.000    0.000    0.000    0.000    0.000 
#
# Total GULP energy -356328.279343 kJ/mol
# GULP energy per Si atom -5567.629365 kJ/mol
# Density = 1.952234 g / cm^3
# Si number density = 19.566877 Si / 1000 Ang^3
#
#
#
# Elastic Constant Matrix: (Units=GPa)
#
#
# Indices 1 2 3 4 5 6 
#
# 1 45.7581 2.6379 10.0517 0.0000 0.0000 0.0000
# 2 2.6379 100.5834 55.9373 0.0000 0.0000 0.0000
# 3 10.0517 55.9373 74.5631 0.0000 0.0000 0.0000
# 4 0.0000 0.0000 0.0000 22.3442 0.0000 0.0000
# 5 0.0000 0.0000 0.0000 0.0000 25.9083 0.0000
# 6 0.0000 0.0000 0.0000 0.0000 0.0000 28.8947
#
#
#
# Elastic Compliance Matrix: (Units=1/GPa)
#
#
# Indices 1 2 3 4 5 6 
#
# 1 0.022731 0.001901 -0.004491 0.000000 0.000000 0.000000
# 2 0.001901 0.017218 -0.013173 0.000000 0.000000 0.000000
# 3 -0.004491 -0.013173 0.023900 0.000000 0.000000 0.000000
# 4 0.000000 0.000000 0.000000 0.044754 0.000000 0.000000
# 5 0.000000 0.000000 0.000000 0.000000 0.038598 0.000000
# 6 0.000000 0.000000 0.000000 0.000000 0.000000 0.034608
#
#
# Mechanical properties :
#
#
# Convention : Reuss Voigt Hill
#
# Bulk Modulus (GPa) = 30.93767 39.79535 35.36651
# Shear Modulus (GPa) = 22.31056 25.58130 23.94593
#
# Velocity S-wave (km/s) = 3.38038 3.61969 3.50208
# Velocity P-wave (km/s) = 5.57508 6.15238 5.87083
#
# Compressibility (1/GPa) = 0.03232306
#
# Stress axis : x y z
#
# Youngs Moduli (GPa) = 43.99301 58.07787 41.84179
#
# Poissons Ratio (x) = -0.11042 0.18789
# Poissons Ratio (y) = -0.08364 0.55120
# Poissons Ratio (z) = 0.19755 0.76509
#
# Static dielectric constant tensor:
#      x y z
#    x 1.718200 0.000000 0.000000 
#    y 0.000000 1.697830 0.000000 
#    z 0.000000 0.000000 1.732400 
# 
# From -- ./inp_files/9685.got.cif
#   From: 2010.05.17/outbox.cif.g08.bks.cpg/sg55_5_cif.got.tgz:9685.got - 2010.06.03 13:27:54.
