data_PCOD9425992
_publ_section_title
;
Structure prediction by ZEFSAII (Michael W. Deem and Ramdas Pophale) SiO2 
 PCOD9425992
Probable space group: P B A M
;
_chemical_formula_sum "Si O2"
_cell_formula_units_Z 48
_cell_length_a 8.320435
_cell_length_b 14.402674
_cell_length_c 21.954146
_cell_angle_alpha 90.000000
_cell_angle_beta 90.000000
_cell_angle_gamma 90.000000
_cell_volume 2630.908299
_symmetry_space_group_name_H-M "P B A M"
_symmetry_group_IT_number 55
_symmetry_cell_setting 'orthorhombic'
loop_
_space_group_symop_operation_xyz
x,y,z
-x,-y,z
1/2+x,1/2-y,-z
1/2-x,1/2+y,-z
-x,-y,-z
x,y,-z
1/2-x,1/2+y,z
1/2+x,1/2-y,z
loop_
_atom_site_type_symbol
_atom_site_label
_atom_site_fract_x
_atom_site_fract_y
_atom_site_fract_z
Si Si1 0.754141 0.879487 0.500000
Si Si2 0.814577 0.158806 0.165727
Si Si3 0.695140 0.510706 0.069124
Si Si4 0.190383 0.472918 0.596908
Si Si5 0.303788 0.633096 0.828087
Si Si6 0.309595 0.983575 0.735777
Si Si7 0.122574 0.325001 0.500000
O O1 0.852305 0.784687 0.500000
O O2 0.566580 0.848831 0.500000
O O3 0.776793 0.946089 0.441595
O O4 0.773717 0.266266 0.169077
O O5 0.005120 0.144658 0.169453
O O6 0.763524 0.106789 0.103315
O O7 0.734530 0.102843 0.221278
O O8 0.500000 0.500000 0.067301
O O9 0.751597 0.429204 0.114337
O O10 0.754074 0.505461 0.000000
O O11 0.244952 0.468024 0.666461
O O12 0.198339 0.377431 0.558674
O O13 0.000000 0.500000 0.597148
O O14 0.264891 0.574023 0.767939
O O15 0.500000 0.000000 0.735541
#
# Coordination Sequence:
#
# PCOD9425992 Si02
#       7
#     4   8   8   8   8   8   4
#     4   9  17  33  52  72  98 127 161 199 242 290
#     4  10  20  34  52  75 103 134 167 205 249 296
#     4   8  16  32  52  73  99 130 165 206 249 293
#     4   8  17  33  52  71  97 131 161 196 245 297
#     4  10  20  34  52  75 103 134 167 205 249 296
#     4  10  19  34  54  75 100 132 169 208 251 295
#     4   9  17  33  52  72  98 127 161 199 242 290
#
# _framework density 18.244648000000002
#
# number of rings (size 3 to 8) (size 9 to 14) (size 15 to 20)
#    0.000    2.833    0.000    3.500    0.000    2.000 
#    0.000    8.333    0.000   17.000    0.000    0.000 
#    0.000    0.000    0.000    0.000    0.000    0.000 
#
# Total GULP energy -267652.737671 kJ/mol
# GULP energy per Si atom -5576.098701 kJ/mol
# Density = 1.820312 g / cm^3
# Si number density = 18.244648 Si / 1000 Ang^3
#
#
#
# Elastic Constant Matrix: (Units=GPa)
#
#
# Indices 1 2 3 4 5 6 
#
# 1 18.3827 -6.9589 4.7960 0.0000 0.0000 0.0000
# 2 -6.9589 54.0114 12.0931 0.0000 0.0000 0.0000
# 3 4.7960 12.0931 135.3543 0.0000 0.0000 0.0000
# 4 0.0000 0.0000 0.0000 8.0177 0.0000 0.0000
# 5 0.0000 0.0000 0.0000 0.0000 18.4576 0.0000
# 6 0.0000 0.0000 0.0000 0.0000 0.0000 25.4256
#
#
#
# Elastic Compliance Matrix: (Units=1/GPa)
#
#
# Indices 1 2 3 4 5 6 
#
# 1 0.058201 0.008123 -0.002788 0.000000 0.000000 0.000000
# 2 0.008123 0.020026 -0.002077 0.000000 0.000000 0.000000
# 3 -0.002788 -0.002077 0.007672 0.000000 0.000000 0.000000
# 4 0.000000 0.000000 0.000000 0.124724 0.000000 0.000000
# 5 0.000000 0.000000 0.000000 0.000000 0.054178 0.000000
# 6 0.000000 0.000000 0.000000 0.000000 0.000000 0.039330
#
#
# Mechanical properties :
#
#
# Convention : Reuss Voigt Hill
#
# Bulk Modulus (GPa) = 10.82067 25.28987 18.05527
# Shear Modulus (GPa) = 15.22434 23.56808 19.39621
#
# Velocity S-wave (km/s) = 2.89183 3.59803 3.26409
# Velocity P-wave (km/s) = 4.13449 5.58146 4.91155
#
# Compressibility (1/GPa) = 0.09241572
#
# Stress axis : x y z
#
# Youngs Moduli (GPa) = 17.18177 49.93454 130.33779
#
# Poissons Ratio (x) = -0.40562 0.36338
# Poissons Ratio (y) = -0.13957 0.27072
# Poissons Ratio (z) = 0.04790 0.10372
#
# Static dielectric constant tensor:
#      x y z
#    x 1.641860 0.000000 0.000000 
#    y 0.000000 1.593420 0.000000 
#    z 0.000000 0.000000 1.626910 
# 
# From -- ./inp_files/22553.got.cif
#   From: 2010.05.17/outbox.cif.g08.bks.cpg/sg55_12_cif.got.tgz:22553.got - 2010.06.03 13:27:54.
