data_PCOD9425680
_publ_section_title
;
Structure prediction by ZEFSAII (Michael W. Deem and Ramdas Pophale) SiO2 
 PCOD9425680
Probable space group: P B A M
;
_chemical_formula_sum "Si O2"
_cell_formula_units_Z 48
_cell_length_a 5.134267
_cell_length_b 14.568952
_cell_length_c 31.041041
_cell_angle_alpha 90.000000
_cell_angle_beta 90.000000
_cell_angle_gamma 90.000000
_cell_volume 2321.897477
_symmetry_space_group_name_H-M "P B A M"
_symmetry_group_IT_number 55
_symmetry_cell_setting 'orthorhombic'
loop_
_space_group_symop_operation_xyz
x,y,z
-x,-y,z
1/2+x,1/2-y,-z
1/2-x,1/2+y,-z
-x,-y,-z
x,y,-z
1/2-x,1/2+y,z
1/2+x,1/2-y,z
loop_
_atom_site_type_symbol
_atom_site_label
_atom_site_fract_x
_atom_site_fract_y
_atom_site_fract_z
Si Si1 0.016347 0.109604 0.597270
Si Si2 0.749543 0.933298 0.046156
Si Si3 0.627623 0.309465 0.220434
Si Si4 0.484965 0.887711 0.548610
Si Si5 0.288296 0.690298 0.685432
Si Si6 0.749338 0.434736 0.139490
O O1 0.731711 0.142898 0.583048
O O2 0.230710 0.143510 0.563245
O O3 0.122556 0.133164 0.644359
O O4 0.000000 0.000000 0.594205
O O5 0.500000 0.000000 0.046061
O O6 0.740019 0.884439 0.092648
O O7 0.750660 0.881789 0.000000
O O8 0.000000 0.000000 0.046082
O O9 0.329346 0.276135 0.218880
O O10 0.669337 0.354069 0.267548
O O11 0.709295 0.370075 0.180125
O O12 0.417646 0.860522 0.500000
O O13 0.500000 0.000000 0.548988
O O14 0.490036 0.776402 0.683975
O O15 0.500000 0.500000 0.138060
O O16 0.000000 0.500000 0.144039
#
# Coordination Sequence:
#
# PCOD9425680 Si02
#       6
#     8   8   8   8   8   8
#     4  10  19  32  53  78  98 123 164 207 239 277
#     4   8  14  25  43  69 100 131 164 205 254 305
#     4  10  21  37  54  73 102 141 175 206 260 324
#     4   9  17  30  50  76 103 128 156 194 242 292
#     4  10  21  37  54  71  98 136 167 196 247 307
#     4  10  19  32  53  80 104 131 174 223 260 294
#
# _framework density 20.672747000000001
#
# number of rings (size 3 to 8) (size 9 to 14) (size 15 to 20)
#    0.000    2.500    0.000    2.500    0.000    2.667 
#    0.000    2.500    0.000   11.000    0.000    0.000 
#    0.000    0.000    0.000    0.000    0.000    0.000 
#
# Total GULP energy -267605.035345 kJ/mol
# GULP energy per Si atom -5575.104903 kJ/mol
# Density = 2.062570 g / cm^3
# Si number density = 20.672747 Si / 1000 Ang^3
#
#
#
# Elastic Constant Matrix: (Units=GPa)
#
#
# Indices 1 2 3 4 5 6 
#
# 1 110.1101 -2.8223 17.3547 0.0000 0.0000 0.0000
# 2 -2.8223 17.2879 13.0450 0.0000 0.0000 0.0000
# 3 17.3547 13.0450 178.0123 0.0000 0.0000 0.0000
# 4 0.0000 0.0000 0.0000 57.8248 0.0000 0.0000
# 5 0.0000 0.0000 0.0000 0.0000 29.3140 0.0000
# 6 0.0000 0.0000 0.0000 0.0000 0.0000 10.8288
#
#
#
# Elastic Compliance Matrix: (Units=1/GPa)
#
#
# Indices 1 2 3 4 5 6 
#
# 1 0.009312 0.002334 -0.001079 0.000000 0.000000 0.000000
# 2 0.002334 0.061815 -0.004757 0.000000 0.000000 0.000000
# 3 -0.001079 -0.004757 0.006071 0.000000 0.000000 0.000000
# 4 0.000000 0.000000 0.000000 0.017294 0.000000 0.000000
# 5 0.000000 0.000000 0.000000 0.000000 0.034113 0.000000
# 6 0.000000 0.000000 0.000000 0.000000 0.000000 0.092346
#
#
# Mechanical properties :
#
#
# Convention : Reuss Voigt Hill
#
# Bulk Modulus (GPa) = 14.24625 40.06279 27.15452
# Shear Modulus (GPa) = 19.89231 38.11573 29.00402
#
# Velocity S-wave (km/s) = 3.10538 4.29857 3.74974
# Velocity P-wave (km/s) = 4.44568 6.63766 5.64901
#
# Compressibility (1/GPa) = 0.07019393
#
# Stress axis : x y z
#
# Youngs Moduli (GPa) = 107.39189 16.17731 164.70651
#
# Poissons Ratio (x) = -0.03776 0.17770
# Poissons Ratio (y) = -0.25068 0.78359
# Poissons Ratio (z) = 0.11586 0.07696
#
# Static dielectric constant tensor:
#      x y z
#    x 1.708120 0.000000 0.000000 
#    y 0.000000 1.735050 0.000000 
#    z 0.000000 0.000000 1.801470 
# 
# From -- ./inp_files/23800.got.cif
#   From: 2010.05.17/outbox.cif.g08.bks.cpg/sg55_12_cif.got.tgz:23800.got - 2010.06.03 13:27:54.
