data_PCOD9425796
_publ_section_title
;
Structure prediction by ZEFSAII (Michael W. Deem and Ramdas Pophale) SiO2 
 PCOD9425796
Probable space group: P B A M
;
_chemical_formula_sum "Si O2"
_cell_formula_units_Z 56
_cell_length_a 15.377246
_cell_length_b 21.899738
_cell_length_c 7.745916
_cell_angle_alpha 90.000000
_cell_angle_beta 90.000000
_cell_angle_gamma 90.000000
_cell_volume 2608.496536
_symmetry_space_group_name_H-M "P B A M"
_symmetry_group_IT_number 55
_symmetry_cell_setting 'orthorhombic'
loop_
_space_group_symop_operation_xyz
x,y,z
-x,-y,z
1/2+x,1/2-y,-z
1/2-x,1/2+y,-z
-x,-y,-z
x,y,-z
1/2-x,1/2+y,z
1/2+x,1/2-y,z
loop_
_atom_site_type_symbol
_atom_site_label
_atom_site_fract_x
_atom_site_fract_y
_atom_site_fract_z
Si Si1 0.784883 0.900333 0.708381
Si Si2 0.732025 0.763783 0.792278
Si Si3 0.640422 0.990577 0.302170
Si Si4 0.015299 0.407721 0.800601
Si Si5 0.478011 0.567758 0.293158
Si Si6 0.581371 0.222165 0.788607
Si Si7 0.566401 0.687313 0.207962
O O1 0.785511 0.903388 0.500000
O O2 0.740690 0.835667 0.753150
O O3 0.724859 0.956513 0.769867
O O4 0.884114 0.907665 0.771998
O O5 0.820981 0.732959 0.728993
O O6 0.649023 0.725931 0.727592
O O7 0.730071 0.759376 0.000000
O O8 0.656710 0.008607 0.500000
O O9 0.562620 0.940819 0.297275
O O10 0.599664 0.048640 0.207375
O O11 0.040208 0.341605 0.732872
O O12 0.987201 0.402480 0.000000
O O13 0.500000 0.500000 0.227324
O O14 0.469987 0.563510 0.500000
O O15 0.553077 0.617024 0.256091
O O16 0.519753 0.277092 0.732292
O O17 0.582596 0.221095 0.000000
O O18 0.568302 0.690045 0.000000
#
# Coordination Sequence:
#
# PCOD9425796 Si02
#       7
#     8   8   8   8   8   8   8
#     4  10  21  37  56  80 109 147 192 230 275 339
#     4  10  20  35  58  83 110 143 180 229 284 332
#     4  10  20  34  51  75 109 142 179 227 273 320
#     4  10  19  33  53  78 108 142 181 220 271 334
#     4  10  22  40  59  80 112 152 190 234 284 332
#     4   9  18  33  52  78 110 137 169 222 273 320
#     4  10  20  36  58  84 111 144 186 230 283 338
#
# _framework density 21.468304
#
# number of rings (size 3 to 8) (size 9 to 14) (size 15 to 20)
#    0.000    2.143    1.429    2.571    0.000    4.286 
#    0.000    2.857    0.000    0.000    0.000    0.000 
#    0.000    0.000    0.000    0.000    0.000    0.000 
#
# Total GULP energy -312703.753097 kJ/mol
# GULP energy per Si atom -5583.995591 kJ/mol
# Density = 2.141944 g / cm^3
# Si number density = 21.468304 Si / 1000 Ang^3
#
#
#
# Elastic Constant Matrix: (Units=GPa)
#
#
# Indices 1 2 3 4 5 6 
#
# 1 104.0685 43.3630 4.1728 0.0000 0.0000 0.0000
# 2 43.3630 131.1874 -5.3295 0.0000 0.0000 0.0000
# 3 4.1728 -5.3295 34.4577 0.0000 0.0000 0.0000
# 4 0.0000 0.0000 0.0000 17.0337 0.0000 0.0000
# 5 0.0000 0.0000 0.0000 0.0000 -17.3375 0.0000
# 6 0.0000 0.0000 0.0000 0.0000 0.0000 23.0360
#
#
#
# Elastic Compliance Matrix: (Units=1/GPa)
#
#
# Indices 1 2 3 4 5 6 
#
# 1 0.011273 -0.003806 -0.001954 0.000000 0.000000 0.000000
# 2 -0.003806 0.008956 0.001846 0.000000 0.000000 0.000000
# 3 -0.001954 0.001846 0.029543 0.000000 0.000000 0.000000
# 4 0.000000 0.000000 0.000000 0.058707 0.000000 0.000000
# 5 0.000000 0.000000 0.000000 0.000000 -0.057678 0.000000
# 6 0.000000 0.000000 0.000000 0.000000 0.000000 0.043410
#
#
# Mechanical properties :
#
#
# Convention : Reuss Voigt Hill
#
# Bulk Modulus (GPa) = 23.84066 39.34735 31.59400
# Shear Modulus (GPa) = 43.09618 19.71359 31.40488
#
# Velocity S-wave (km/s) = 4.48530 3.03358 3.82887
# Velocity P-wave (km/s) = 6.16060 5.53516 5.85624
#
# Compressibility (1/GPa) = 0.04194515
#
# Stress axis : x y z
#
# Youngs Moduli (GPa) = 88.70667 111.66207 33.84873
#
# Poissons Ratio (x) = 0.42494 0.06613
# Poissons Ratio (y) = 0.33758 -0.06248
# Poissons Ratio (z) = 0.17331 -0.20613
#
# Static dielectric constant tensor:
#      x y z
#    x 1.780490 0.000000 0.000000 
#    y 0.000000 1.764850 0.000000 
#    z 0.000000 0.000000 1.779800 
# 
# From -- ./inp_files/5993.got.cif
#   From: 2010.05.17/outbox.cif.g08.bks.cpg/sg55_3_cif.got.tgz:5993.got - 2010.06.03 13:27:54.
