data_PCOD9425054
_publ_section_title
;
Structure prediction by ZEFSAII (Michael W. Deem and Ramdas Pophale) SiO2 
 PCOD9425054
Probable space group: P B A M
;
_chemical_formula_sum "Si O2"
_cell_formula_units_Z 48
_cell_length_a 16.935308
_cell_length_b 18.861576
_cell_length_c 7.468693
_cell_angle_alpha 90.000000
_cell_angle_beta 90.000000
_cell_angle_gamma 90.000000
_cell_volume 2385.699203
_symmetry_space_group_name_H-M "P B A M"
_symmetry_group_IT_number 55
_symmetry_cell_setting 'orthorhombic'
loop_
_space_group_symop_operation_xyz
x,y,z
-x,-y,z
1/2+x,1/2-y,-z
1/2-x,1/2+y,-z
-x,-y,-z
x,y,-z
1/2-x,1/2+y,z
1/2+x,1/2-y,z
loop_
_atom_site_type_symbol
_atom_site_label
_atom_site_fract_x
_atom_site_fract_y
_atom_site_fract_z
Si Si1 0.651316 0.674485 0.292513
Si Si2 0.995581 0.079812 0.206454
Si Si3 0.328856 0.595767 0.284180
Si Si4 0.245259 0.451190 0.281284
Si Si5 0.668249 0.831894 0.281431
Si Si6 0.585886 0.975553 0.718670
O O1 0.673208 0.684582 0.500000
O O2 0.569653 0.631163 0.287992
O O3 0.717848 0.622044 0.215445
O O4 0.645894 0.753632 0.217232
O O5 0.083620 0.110806 0.217923
O O6 0.972070 0.072046 0.000000
O O7 0.000000 0.000000 0.285460
O O8 0.331833 0.596453 0.500000
O O9 0.301520 0.516821 0.228080
O O10 0.257870 0.647626 0.229687
O O11 0.246344 0.450366 0.500000
O O12 0.156780 0.471746 0.227211
O O13 0.665369 0.833613 0.500000
O O14 0.611999 0.896644 0.223889
O O15 0.585008 0.975489 0.500000
O O16 0.500000 0.000000 0.779470
#
# Coordination Sequence:
#
# PCOD9425054 Si02
#       6
#     8   8   8   8   8   8
#     4  10  18  31  49  72 101 128 159 200 250 293
#     4  11  22  33  48  73 101 129 169 207 240 291
#     4   9  16  31  51  70  95 128 162 194 240 294
#     4   8  14  24  43  65  90 125 156 183 230 294
#     4   8  16  29  46  71  98 124 160 204 240 286
#     4   8  13  24  41  64  96 127 154 190 239 288
#
# _framework density 20.119886000000001
#
# number of rings (size 3 to 8) (size 9 to 14) (size 15 to 20)
#    0.000    3.000    1.667    2.500    0.000    0.667 
#    3.000    0.833    0.000    0.000    0.000    0.000 
#    0.000    4.667    0.000    0.000    0.000    0.000 
#
# Total GULP energy -267690.329657 kJ/mol
# GULP energy per Si atom -5576.881868 kJ/mol
# Density = 2.007409 g / cm^3
# Si number density = 20.119886 Si / 1000 Ang^3
#
#
#
# Elastic Constant Matrix: (Units=GPa)
#
#
# Indices 1 2 3 4 5 6 
#
# 1 159.7066 99.2543 -5.5275 0.0000 0.0000 0.0000
# 2 99.2543 169.6597 4.4313 0.0000 0.0000 0.0000
# 3 -5.5275 4.4313 55.9999 0.0000 0.0000 0.0000
# 4 0.0000 0.0000 0.0000 -4.4298 0.0000 0.0000
# 5 0.0000 0.0000 0.0000 0.0000 -56.6476 0.0000
# 6 0.0000 0.0000 0.0000 0.0000 0.0000 21.3694
#
#
#
# Elastic Compliance Matrix: (Units=1/GPa)
#
#
# Indices 1 2 3 4 5 6 
#
# 1 0.009954 -0.005861 0.001446 0.000000 0.000000 0.000000
# 2 -0.005861 0.009357 -0.001319 0.000000 0.000000 0.000000
# 3 0.001446 -0.001319 0.018104 0.000000 0.000000 0.000000
# 4 0.000000 0.000000 0.000000 -0.225746 0.000000 0.000000
# 5 0.000000 0.000000 0.000000 0.000000 -0.017653 0.000000
# 6 0.000000 0.000000 0.000000 0.000000 0.000000 0.046796
#
#
# Mechanical properties :
#
#
# Convention : Reuss Voigt Hill
#
# Bulk Modulus (GPa) = 38.53815 64.63138 51.58477
# Shear Modulus (GPa) = -35.95305 11.20560 -12.37372
#
# Velocity S-wave (km/s) = -4.23181 2.36252 -2.48261
# Velocity P-wave (km/s) = 2.16374 6.29562 4.18050
#
# Compressibility (1/GPa) = 0.02594831
#
# Stress axis : x y z
#
# Youngs Moduli (GPa) = 100.46106 106.86645 55.23543
#
# Poissons Ratio (x) = 0.62636 -0.07989
# Poissons Ratio (y) = 0.58881 0.07285
# Poissons Ratio (z) = -0.14530 0.14096
#
# Static dielectric constant tensor:
#      x y z
#    x 1.685030 0.000000 0.000000 
#    y 0.000000 1.711500 0.000000 
#    z 0.000000 0.000000 1.755450 
# 
# From -- ./inp_files/5576.got.cif
#   From: 2010.05.17/outbox.cif.g08.bks.cpg/sg55_3_cif.got.tgz:5576.got - 2010.06.03 13:27:54.
