data_PCOD9425492
_publ_section_title
;
Structure prediction by ZEFSAII (Michael W. Deem and Ramdas Pophale) SiO2 
 PCOD9425492
Probable space group: P B A M
;
_chemical_formula_sum "Si O2"
_cell_formula_units_Z 56
_cell_length_a 15.101382
_cell_length_b 21.536939
_cell_length_c 8.816448
_cell_angle_alpha 90.000000
_cell_angle_beta 90.000000
_cell_angle_gamma 90.000000
_cell_volume 2867.439885
_symmetry_space_group_name_H-M "P B A M"
_symmetry_group_IT_number 55
_symmetry_cell_setting 'orthorhombic'
loop_
_space_group_symop_operation_xyz
x,y,z
-x,-y,z
1/2+x,1/2-y,-z
1/2-x,1/2+y,-z
-x,-y,-z
x,y,-z
1/2-x,1/2+y,z
1/2+x,1/2-y,z
loop_
_atom_site_type_symbol
_atom_site_label
_atom_site_fract_x
_atom_site_fract_y
_atom_site_fract_z
Si Si1 0.946893 0.631967 0.324756
Si Si2 0.245955 0.396248 0.316973
Si Si3 0.926273 0.451776 0.181292
Si Si4 0.226902 0.023011 0.816709
Si Si5 0.306640 0.256969 0.683160
Si Si6 0.833478 0.841786 0.819060
Si Si7 0.510737 0.270563 0.324502
O O1 0.959805 0.613577 0.500000
O O2 0.856771 0.601693 0.264433
O O3 0.936494 0.705664 0.322070
O O4 0.032991 0.613031 0.232334
O O5 0.246689 0.399659 0.500000
O O6 0.296782 0.455683 0.250647
O O7 0.278330 0.327387 0.274897
O O8 0.827939 0.463938 0.235564
O O9 0.000000 0.500000 0.239614
O O10 0.924209 0.455537 0.000000
O O11 0.176788 0.086056 0.771597
O O12 0.224405 0.018348 0.000000
O O13 0.300535 0.251010 0.500000
O O14 0.242825 0.203806 0.751363
O O15 0.410696 0.255238 0.725354
O O16 0.929829 0.817384 0.770286
O O17 0.823648 0.839472 0.000000
O O18 0.505483 0.291769 0.500000
#
# Coordination Sequence:
#
# PCOD9425492 Si02
#       7
#     8   8   8   8   8   8   8
#     4  10  19  32  52  80 110 140 180 230 283 339
#     4  10  20  35  56  83 112 144 189 239 283 342
#     4  10  19  31  49  74 107 145 182 220 274 343
#     4  10  22  38  53  78 116 155 191 231 287 348
#     4  10  21  40  64  88 117 153 197 245 295 347
#     4  11  23  38  59  87 121 155 193 243 292 351
#     4  10  21  39  62  85 114 151 193 245 294 344
#
# _framework density 19.529616000000001
#
# number of rings (size 3 to 8) (size 9 to 14) (size 15 to 20)
#    0.000    1.857    2.857    1.286    0.000    3.714 
#    0.000    0.714    0.000    4.286    0.000    0.000 
#    0.000    0.000    0.000    0.000    0.000    0.000 
#
# Total GULP energy -312257.856806 kJ/mol
# GULP energy per Si atom -5576.033157 kJ/mol
# Density = 1.948517 g / cm^3
# Si number density = 19.529616 Si / 1000 Ang^3
#
#
#
# Elastic Constant Matrix: (Units=GPa)
#
#
# Indices 1 2 3 4 5 6 
#
# 1 48.6132 13.6625 7.2225 0.0000 0.0000 0.0000
# 2 13.6625 102.3279 17.6193 0.0000 0.0000 0.0000
# 3 7.2225 17.6193 8.3796 0.0000 0.0000 0.0000
# 4 0.0000 0.0000 0.0000 37.1868 0.0000 0.0000
# 5 0.0000 0.0000 0.0000 0.0000 23.4065 0.0000
# 6 0.0000 0.0000 0.0000 0.0000 0.0000 28.7307
#
#
#
# Elastic Compliance Matrix: (Units=1/GPa)
#
#
# Indices 1 2 3 4 5 6 
#
# 1 0.023611 0.000551 -0.021510 0.000000 0.000000 0.000000
# 2 0.000551 0.015331 -0.032711 0.000000 0.000000 0.000000
# 3 -0.021510 -0.032711 0.206658 0.000000 0.000000 0.000000
# 4 0.000000 0.000000 0.000000 0.026891 0.000000 0.000000
# 5 0.000000 0.000000 0.000000 0.000000 0.042723 0.000000
# 6 0.000000 0.000000 0.000000 0.000000 0.000000 0.034806
#
#
# Mechanical properties :
#
#
# Convention : Reuss Voigt Hill
#
# Bulk Modulus (GPa) = 7.23273 26.25882 16.74577
# Shear Modulus (GPa) = 9.93151 25.91922 17.92536
#
# Velocity S-wave (km/s) = 2.25752 3.64699 3.03290
# Velocity P-wave (km/s) = 3.24140 5.58649 4.56703
#
# Compressibility (1/GPa) = 0.13826038
#
# Stress axis : x y z
#
# Youngs Moduli (GPa) = 42.35240 65.22607 4.83891
#
# Poissons Ratio (x) = -0.03595 0.10408
# Poissons Ratio (y) = -0.02334 0.15829
# Poissons Ratio (z) = 0.91100 2.13363
#
# Static dielectric constant tensor:
#      x y z
#    x 1.700930 0.000000 0.000000 
#    y 0.000000 1.743560 0.000000 
#    z 0.000000 0.000000 1.667500 
# 
# From -- ./inp_files/6036.got.cif
#   From: 2010.05.17/outbox.cif.g08.bks.cpg/sg55_4_cif.got.tgz:6036.got - 2010.06.03 13:27:54.
