data_PCOD9425270
_publ_section_title
;
Structure prediction by ZEFSAII (Michael W. Deem and Ramdas Pophale) SiO2 
 PCOD9425270
Probable space group: P B A M
;
_chemical_formula_sum "Si O2"
_cell_formula_units_Z 64
_cell_length_a 19.282105
_cell_length_b 20.331936
_cell_length_c 7.445254
_cell_angle_alpha 90.000000
_cell_angle_beta 90.000000
_cell_angle_gamma 90.000000
_cell_volume 2918.856176
_symmetry_space_group_name_H-M "P B A M"
_symmetry_group_IT_number 55
_symmetry_cell_setting 'orthorhombic'
loop_
_space_group_symop_operation_xyz
x,y,z
-x,-y,z
1/2+x,1/2-y,-z
1/2-x,1/2+y,-z
-x,-y,-z
x,y,-z
1/2-x,1/2+y,z
1/2+x,1/2-y,z
loop_
_atom_site_type_symbol
_atom_site_label
_atom_site_fract_x
_atom_site_fract_y
_atom_site_fract_z
Si Si1 0.710070 0.020718 0.284524
Si Si2 0.191247 0.250756 0.709284
Si Si3 0.698541 0.643000 0.280157
Si Si4 0.456717 0.326535 0.718053
Si Si5 0.801583 0.900347 0.788797
Si Si6 0.054851 0.445348 0.280417
Si Si7 0.446842 0.552753 0.792733
Si Si8 0.540595 0.203611 0.719327
O O1 0.708236 0.025778 0.500000
O O2 0.765302 0.075307 0.221373
O O3 0.632878 0.037620 0.220852
O O4 0.737128 0.948361 0.239547
O O5 0.186823 0.268803 0.500000
O O6 0.252266 0.297041 0.780990
O O7 0.206338 0.173516 0.719575
O O8 0.115024 0.268037 0.781857
O O9 0.696456 0.642783 0.500000
O O10 0.619658 0.652731 0.221002
O O11 0.458030 0.329150 0.500000
O O12 0.513715 0.378029 0.784693
O O13 0.480391 0.253761 0.774063
O O14 0.870700 0.935884 0.712185
O O15 0.813548 0.892562 0.000000
O O16 0.055384 0.445551 0.500000
O O17 0.034566 0.371794 0.223999
O O18 0.000000 0.500000 0.222486
O O19 0.500000 0.500000 0.710034
O O20 0.436206 0.531779 0.000000
O O21 0.540402 0.203976 0.500000
#
# Coordination Sequence:
#
# PCOD9425270 Si02
#       8
#     8   8   8   8   8   8   8   8
#     4  10  19  34  55  79 109 146 182 222 275 326
#     4  10  18  34  57  77 104 142 177 217 274 326
#     4   9  18  32  54  83 109 136 177 226 271 321
#     4  10  19  31  52  81 107 133 175 224 266 315
#     4  11  23  36  52  78 110 142 182 225 265 320
#     4   9  17  30  53  83 111 141 180 224 271 326
#     4  10  21  36  51  70 103 144 179 215 264 318
#     4   9  16  29  50  75 105 136 170 217 269 317
#
# _framework density 21.926394999999999
#
# number of rings (size 3 to 8) (size 9 to 14) (size 15 to 20)
#    0.000    2.250    2.500    1.125    0.000    1.750 
#    0.000    5.000    0.000    1.125    0.000    0.000 
#    0.000    0.000    0.000    0.000    0.000    0.000 
#
# Total GULP energy -357554.807240 kJ/mol
# GULP energy per Si atom -5586.793863 kJ/mol
# Density = 2.187649 g / cm^3
# Si number density = 21.926395 Si / 1000 Ang^3
#
#
#
# Elastic Constant Matrix: (Units=GPa)
#
#
# Indices 1 2 3 4 5 6 
#
# 1 93.2479 39.4762 -6.1447 0.0000 0.0000 0.0000
# 2 39.4762 140.5939 -19.2599 0.0000 0.0000 0.0000
# 3 -6.1447 -19.2599 63.4410 0.0000 0.0000 0.0000
# 4 0.0000 0.0000 0.0000 39.1597 0.0000 0.0000
# 5 0.0000 0.0000 0.0000 0.0000 -20.0514 0.0000
# 6 0.0000 0.0000 0.0000 0.0000 0.0000 46.3243
#
#
#
# Elastic Compliance Matrix: (Units=1/GPa)
#
#
# Indices 1 2 3 4 5 6 
#
# 1 0.012172 -0.003398 0.000148 0.000000 0.000000 0.000000
# 2 -0.003398 0.008370 0.002212 0.000000 0.000000 0.000000
# 3 0.000148 0.002212 0.016448 0.000000 0.000000 0.000000
# 4 0.000000 0.000000 0.000000 0.025536 0.000000 0.000000
# 5 0.000000 0.000000 0.000000 0.000000 -0.049872 0.000000
# 6 0.000000 0.000000 0.000000 0.000000 0.000000 0.021587
#
#
# Mechanical properties :
#
#
# Convention : Reuss Voigt Hill
#
# Bulk Modulus (GPa) = 28.64187 36.15846 32.40017
# Shear Modulus (GPa) = 104.26218 31.96727 68.11473
#
# Velocity S-wave (km/s) = 6.90320 3.82243 5.57966
# Velocity P-wave (km/s) = 8.75386 6.00067 7.50460
#
# Compressibility (1/GPa) = 0.03491392
#
# Stress axis : x y z
#
# Youngs Moduli (GPa) = 82.15472 119.47940 60.79602
#
# Poissons Ratio (x) = 0.40593 -0.00897
# Poissons Ratio (y) = 0.27912 -0.13447
# Poissons Ratio (z) = -0.01212 -0.26427
#
# Static dielectric constant tensor:
#      x y z
#    x 1.779560 0.000000 0.000000 
#    y 0.000000 1.762460 0.000000 
#    z 0.000000 0.000000 1.835690 
# 
# From -- ./inp_files/8024.got.cif
#   From: 2010.05.17/outbox.cif.g08.bks.cpg/sg55_5_cif.got.tgz:8024.got - 2010.06.03 13:27:54.
