data_PCOD9425477
_publ_section_title
;
Structure prediction by ZEFSAII (Michael W. Deem and Ramdas Pophale) SiO2 
 PCOD9425477
Probable space group: P B A M
;
_chemical_formula_sum "Si O2"
_cell_formula_units_Z 64
_cell_length_a 23.329638
_cell_length_b 15.324371
_cell_length_c 7.477288
_cell_angle_alpha 90.000000
_cell_angle_beta 90.000000
_cell_angle_gamma 90.000000
_cell_volume 2673.220397
_symmetry_space_group_name_H-M "P B A M"
_symmetry_group_IT_number 55
_symmetry_cell_setting 'orthorhombic'
loop_
_space_group_symop_operation_xyz
x,y,z
-x,-y,z
1/2+x,1/2-y,-z
1/2-x,1/2+y,-z
-x,-y,-z
x,y,-z
1/2-x,1/2+y,z
1/2+x,1/2-y,z
loop_
_atom_site_type_symbol
_atom_site_label
_atom_site_fract_x
_atom_site_fract_y
_atom_site_fract_z
Si Si1 0.329147 0.851449 0.718801
Si Si2 0.487989 0.619058 0.206471
Si Si3 0.614811 0.658236 0.301801
Si Si4 0.186013 0.540812 0.718640
Si Si5 0.281553 0.668866 0.704618
Si Si6 0.083294 0.654594 0.281603
Si Si7 0.955629 0.689711 0.716705
Si Si8 0.123488 0.032428 0.207825
O O1 0.328521 0.848669 0.500000
O O2 0.300097 0.761866 0.782637
O O3 0.396159 0.853430 0.771602
O O4 0.301428 0.942414 0.776320
O O5 0.546728 0.637285 0.307338
O O6 0.454881 0.710885 0.217086
O O7 0.441857 0.548872 0.272218
O O8 0.504263 0.600783 0.000000
O O9 0.639536 0.666391 0.500000
O O10 0.613470 0.754853 0.218427
O O11 0.640184 0.569029 0.223885
O O12 0.189233 0.540379 0.500000
O O13 0.230230 0.613066 0.786702
O O14 0.122545 0.573332 0.767011
O O15 0.264557 0.687736 0.500000
O O16 0.334257 0.600756 0.702131
O O17 0.082682 0.660211 0.500000
O O18 0.017012 0.651215 0.224381
O O19 0.956312 0.690948 0.500000
O O20 0.122615 0.055810 0.000000
#
# Coordination Sequence:
#
# PCOD9425477 Si02
#       8
#     8   8   8   8   8   8   8   8
#     4   9  17  30  51  79 106 136 176 221 271 324
#     4  10  19  31  48  74 108 144 179 217 264 319
#     4  10  20  32  51  79 110 144 178 218 269 324
#     4   9  18  32  52  80 109 136 174 224 275 323
#     4  10  20  34  54  77 104 137 177 225 268 318
#     4   8  16  30  48  76 110 140 171 217 272 322
#     4   9  16  29  51  77 107 139 177 222 271 323
#     4  11  22  34  50  74 105 142 183 222 265 317
#
# _framework density 23.941161999999998
#
# number of rings (size 3 to 8) (size 9 to 14) (size 15 to 20)
#    0.000    2.500    1.250    2.250    0.000    4.500 
#    0.000    6.250    0.000    6.750    0.000    3.500 
#    0.000    0.000    0.000    0.000    0.000    0.000 
#
# Total GULP energy -357307.149036 kJ/mol
# GULP energy per Si atom -5582.924204 kJ/mol
# Density = 2.388667 g / cm^3
# Si number density = 23.941162 Si / 1000 Ang^3
#
#
#
# Elastic Constant Matrix: (Units=GPa)
#
#
# Indices 1 2 3 4 5 6 
#
# 1 74.5276 70.0790 1.3112 0.0000 0.0000 0.0000
# 2 70.0790 164.3938 2.1325 0.0000 0.0000 0.0000
# 3 1.3112 2.1325 67.5125 0.0000 0.0000 0.0000
# 4 0.0000 0.0000 0.0000 -2.8883 0.0000 0.0000
# 5 0.0000 0.0000 0.0000 0.0000 -10.5795 0.0000
# 6 0.0000 0.0000 0.0000 0.0000 0.0000 21.9372
#
#
#
# Elastic Compliance Matrix: (Units=1/GPa)
#
#
# Indices 1 2 3 4 5 6 
#
# 1 0.022396 -0.009545 -0.000133 0.000000 0.000000 0.000000
# 2 -0.009545 0.010154 -0.000135 0.000000 0.000000 0.000000
# 3 -0.000133 -0.000135 0.014819 0.000000 0.000000 0.000000
# 4 0.000000 0.000000 0.000000 -0.346226 0.000000 0.000000
# 5 0.000000 0.000000 0.000000 0.000000 -0.094522 0.000000
# 6 0.000000 0.000000 0.000000 0.000000 0.000000 0.045585
#
#
# Mechanical properties :
#
#
# Convention : Reuss Voigt Hill
#
# Bulk Modulus (GPa) = 36.04869 50.38660 43.21764
# Shear Modulus (GPa) = -15.67792 17.22128 0.77168
#
# Velocity S-wave (km/s) = -2.56178 2.68492 0.56835
# Velocity P-wave (km/s) = 2.51785 5.54107 4.30366
#
# Compressibility (1/GPa) = 0.02774026
#
# Stress axis : x y z
#
# Youngs Moduli (GPa) = 44.65139 98.48582 67.48122
#
# Poissons Ratio (x) = 0.94008 0.00900
# Poissons Ratio (y) = 0.42621 0.00913
# Poissons Ratio (z) = 0.00596 0.01333
#
# Static dielectric constant tensor:
#      x y z
#    x 1.917020 0.000000 0.000000 
#    y 0.000000 1.901010 0.000000 
#    z 0.000000 0.000000 1.883250 
# 
# From -- ./inp_files/9682.got.cif
#   From: 2010.05.17/outbox.cif.g08.bks.cpg/sg55_5_cif.got.tgz:9682.got - 2010.06.03 13:27:54.
