data_PCOD9425763
_publ_section_title
;
Structure prediction by ZEFSAII (Michael W. Deem and Ramdas Pophale) SiO2 
 PCOD9425763
Probable space group: P B A M
;
_chemical_formula_sum "Si O2"
_cell_formula_units_Z 40
_cell_length_a 7.880850
_cell_length_b 24.001638
_cell_length_c 7.796239
_cell_angle_alpha 90.000000
_cell_angle_beta 90.000000
_cell_angle_gamma 90.000000
_cell_volume 1474.684403
_symmetry_space_group_name_H-M "P B A M"
_symmetry_group_IT_number 55
_symmetry_cell_setting 'orthorhombic'
loop_
_space_group_symop_operation_xyz
x,y,z
-x,-y,z
1/2+x,1/2-y,-z
1/2-x,1/2+y,-z
-x,-y,-z
x,y,-z
1/2-x,1/2+y,z
1/2+x,1/2-y,z
loop_
_atom_site_type_symbol
_atom_site_label
_atom_site_fract_x
_atom_site_fract_y
_atom_site_fract_z
Si Si1 0.728221 0.769240 0.690072
Si Si2 0.835904 0.036418 0.209688
Si Si3 0.119120 0.562110 0.795056
Si Si4 0.958927 0.862412 0.202402
Si Si5 0.416897 0.835506 0.195539
O O1 0.659169 0.776326 0.500000
O O2 0.589127 0.797910 0.809246
O O3 0.899263 0.806329 0.707007
O O4 0.780172 0.706095 0.725054
O O5 0.883876 0.099210 0.262347
O O6 0.673923 0.999745 0.265863
O O7 0.832506 0.036776 0.000000
O O8 0.000000 0.000000 0.260460
O O9 0.294969 0.596953 0.779649
O O10 0.979853 0.605786 0.725662
O O11 0.085368 0.557553 0.000000
O O12 0.977322 0.850445 0.000000
O O13 0.365884 0.846264 0.000000
#
# Coordination Sequence:
#
# PCOD9425763 Si02
#       5
#     8   8   8   8   8
#     4  11  21  32  46  68  98 126 154 192 236 274
#     4   7   9  16  34  60  85 108 139 181 224 261
#     4   7  11  20  38  63  86 109 143 188 227 260
#     4   8  13  23  40  61  86 117 150 181 218 269
#     4  10  19  33  51  69  91 123 162 195 227 274
#
# _framework density 27.124448000000001
#
# number of rings (size 3 to 8) (size 9 to 14) (size 15 to 20)
#    0.000    3.400    0.000    6.000    0.000    0.000 
#    0.000    0.000    0.000   16.200    0.000    1.400 
#    0.000   11.200    0.000    0.000    0.000    0.000 
#
# Total GULP energy -223662.642318 kJ/mol
# GULP energy per Si atom -5591.566058 kJ/mol
# Density = 2.706271 g / cm^3
# Si number density = 27.124448 Si / 1000 Ang^3
#
#
#
# Elastic Constant Matrix: (Units=GPa)
#
#
# Indices 1 2 3 4 5 6 
#
# 1 130.7936 27.6459 -2.2237 0.0000 0.0000 0.0000
# 2 27.6459 230.3375 15.6655 0.0000 0.0000 0.0000
# 3 -2.2237 15.6655 52.6335 0.0000 0.0000 0.0000
# 4 0.0000 0.0000 0.0000 82.4193 0.0000 0.0000
# 5 0.0000 0.0000 0.0000 0.0000 3.5585 0.0000
# 6 0.0000 0.0000 0.0000 0.0000 0.0000 65.2743
#
#
#
# Elastic Compliance Matrix: (Units=1/GPa)
#
#
# Indices 1 2 3 4 5 6 
#
# 1 0.007865 -0.000987 0.000626 0.000000 0.000000 0.000000
# 2 -0.000987 0.004555 -0.001397 0.000000 0.000000 0.000000
# 3 0.000626 -0.001397 0.019442 0.000000 0.000000 0.000000
# 4 0.000000 0.000000 0.000000 0.012133 0.000000 0.000000
# 5 0.000000 0.000000 0.000000 0.000000 0.281018 0.000000
# 6 0.000000 0.000000 0.000000 0.000000 0.000000 0.015320
#
#
# Mechanical properties :
#
#
# Convention : Reuss Voigt Hill
#
# Bulk Modulus (GPa) = 35.27913 55.10446 45.19180
# Shear Modulus (GPa) = 14.15242 55.09554 34.62398
#
# Velocity S-wave (km/s) = 2.28668 4.51179 3.57667
# Velocity P-wave (km/s) = 4.47286 6.89211 5.80981
#
# Compressibility (1/GPa) = 0.02834537
#
# Stress axis : x y z
#
# Youngs Moduli (GPa) = 127.14883 219.54385 51.43592
#
# Poissons Ratio (x) = 0.21659 -0.03219
# Poissons Ratio (y) = 0.12544 0.07188
# Poissons Ratio (z) = -0.07958 0.30679
#
# Static dielectric constant tensor:
#      x y z
#    x 2.226190 0.000000 0.000000 
#    y 0.000000 2.168170 0.000000 
#    z 0.000000 0.000000 1.984350 
# 
# From -- ./inp_files/2509.got.cif
#   From: 2010.05.17/outbox.cif.g08.bks.cpg/sg55_2_cif.got.tgz:2509.got - 2010.06.03 13:27:54.
