data_PCOD9425058
_publ_section_title
;
Structure prediction by ZEFSAII (Michael W. Deem and Ramdas Pophale) SiO2 
 PCOD9425058
Probable space group: P B A M
;
_chemical_formula_sum "Si O2"
_cell_formula_units_Z 48
_cell_length_a 32.773717
_cell_length_b 4.884897
_cell_length_c 14.931925
_cell_angle_alpha 90.000000
_cell_angle_beta 90.000000
_cell_angle_gamma 90.000000
_cell_volume 2390.544927
_symmetry_space_group_name_H-M "P B A M"
_symmetry_group_IT_number 55
_symmetry_cell_setting 'orthorhombic'
loop_
_space_group_symop_operation_xyz
x,y,z
-x,-y,z
1/2+x,1/2-y,-z
1/2-x,1/2+y,-z
-x,-y,-z
x,y,-z
1/2-x,1/2+y,z
1/2+x,1/2-y,z
loop_
_atom_site_type_symbol
_atom_site_label
_atom_site_fract_x
_atom_site_fract_y
_atom_site_fract_z
Si Si1 0.278017 0.543262 0.601841
Si Si2 0.114838 0.482215 0.703367
Si Si3 0.341295 0.480488 0.240706
Si Si4 0.723337 0.740938 0.106896
Si Si5 0.473094 0.729806 0.671608
Si Si6 0.885427 0.585780 0.500000
Si Si7 0.563190 0.572872 0.500000
O O1 0.293168 0.506739 0.500000
O O2 0.261538 0.850002 0.612363
O O3 0.310714 0.466277 0.675268
O O4 0.120071 0.789600 0.736461
O O5 0.130783 0.472085 0.599532
O O6 0.069356 0.358966 0.706959
O O7 0.143419 0.289674 0.763104
O O8 0.316197 0.365914 0.157504
O O9 0.761326 0.542541 0.131199
O O10 0.717648 0.725012 0.000000
O O11 0.500000 0.500000 0.724581
O O12 0.541117 0.453629 0.586672
O O13 0.500000 0.000000 0.651004
O O14 0.926690 0.393138 0.500000
O O15 0.894191 0.909144 0.500000
#
# Coordination Sequence:
#
# PCOD9425058 Si02
#       7
#     8   8   8   8   8   4   4
#     4  10  21  35  51  71  98 140 187 216 248 303
#     4  11  24  34  51  78 108 147 188 228 276 329
#     4  12  22  36  56  79 114 142 178 229 278 327
#     4  10  21  39  64  90 113 141 178 221 279 343
#     4  11  20  34  51  70 102 142 191 239 281 323
#     4  10  20  35  46  68 106 143 187 228 271 317
#     4  10  18  31  50  68  90 135 191 240 277 313
#
# _framework density 20.079104000000001
#
# number of rings (size 3 to 8) (size 9 to 14) (size 15 to 20)
#    0.000    1.333    0.000    8.500    2.333    0.000 
#    0.000    0.000    0.000    0.000    0.000    0.000 
#    0.000   13.333    0.000    0.000    0.000    0.000 
#
# Total GULP energy -268069.980372 kJ/mol
# GULP energy per Si atom -5584.791258 kJ/mol
# Density = 2.003340 g / cm^3
# Si number density = 20.079104 Si / 1000 Ang^3
#
#
#
# Elastic Constant Matrix: (Units=GPa)
#
#
# Indices 1 2 3 4 5 6 
#
# 1 71.3545 8.2199 15.4440 0.0000 0.0000 0.0000
# 2 8.2199 77.5683 1.6112 0.0000 0.0000 0.0000
# 3 15.4440 1.6112 20.3849 0.0000 0.0000 0.0000
# 4 0.0000 0.0000 0.0000 14.9919 0.0000 0.0000
# 5 0.0000 0.0000 0.0000 0.0000 15.9002 0.0000
# 6 0.0000 0.0000 0.0000 0.0000 0.0000 34.8831
#
#
#
# Elastic Compliance Matrix: (Units=1/GPa)
#
#
# Indices 1 2 3 4 5 6 
#
# 1 0.016943 -0.001531 -0.012715 0.000000 0.000000 0.000000
# 2 -0.001531 0.013051 0.000129 0.000000 0.000000 0.000000
# 3 -0.012715 0.000129 0.058679 0.000000 0.000000 0.000000
# 4 0.000000 0.000000 0.000000 0.066703 0.000000 0.000000
# 5 0.000000 0.000000 0.000000 0.000000 0.062892 0.000000
# 6 0.000000 0.000000 0.000000 0.000000 0.000000 0.028667
#
#
# Mechanical properties :
#
#
# Convention : Reuss Voigt Hill
#
# Bulk Modulus (GPa) = 16.54602 24.42866 20.48734
# Shear Modulus (GPa) = 16.93091 22.75721 19.84406
#
# Velocity S-wave (km/s) = 2.90696 3.37022 3.14712
# Velocity P-wave (km/s) = 4.41877 5.22849 4.84059
#
# Compressibility (1/GPa) = 0.06043749
#
# Stress axis : x y z
#
# Youngs Moduli (GPa) = 59.02124 76.61973 17.04183
#
# Poissons Ratio (x) = 0.11733 0.21669
# Poissons Ratio (y) = 0.09038 -0.00219
# Poissons Ratio (z) = 0.75048 -0.00985
#
# Static dielectric constant tensor:
#      x y z
#    x 1.788190 0.000000 0.000000 
#    y 0.000000 1.715340 0.000000 
#    z 0.000000 0.000000 1.689070 
# 
# From -- ./inp_files/20060.got.cif
#   From: 2010.05.17/outbox.cif.g08.bks.cpg/sg55_11_cif.got.tgz:20060.got - 2010.06.03 13:27:54.
