data_PCOD9425591
_publ_section_title
;
Structure prediction by ZEFSAII (Michael W. Deem and Ramdas Pophale) SiO2 
 PCOD9425591
Probable space group: P B A M
;
_chemical_formula_sum "Si O2"
_cell_formula_units_Z 56
_cell_length_a 19.714566
_cell_length_b 19.784965
_cell_length_c 8.813336
_cell_angle_alpha 90.000000
_cell_angle_beta 90.000000
_cell_angle_gamma 90.000000
_cell_volume 3437.659318
_symmetry_space_group_name_H-M "P B A M"
_symmetry_group_IT_number 55
_symmetry_cell_setting 'orthorhombic'
loop_
_space_group_symop_operation_xyz
x,y,z
-x,-y,z
1/2+x,1/2-y,-z
1/2-x,1/2+y,-z
-x,-y,-z
x,y,-z
1/2-x,1/2+y,z
1/2+x,1/2-y,z
loop_
_atom_site_type_symbol
_atom_site_label
_atom_site_fract_x
_atom_site_fract_y
_atom_site_fract_z
Si Si1 0.345139 0.765677 0.317438
Si Si2 0.515065 0.294137 0.317279
Si Si3 0.706329 0.481005 0.181880
Si Si4 0.440380 0.552756 0.682453
Si Si5 0.368623 0.270191 0.181715
Si Si6 0.761882 0.124904 0.681980
Si Si7 0.238872 0.661250 0.182340
O O1 0.343063 0.760646 0.500000
O O2 0.422636 0.754263 0.270901
O O3 0.306822 0.834744 0.274538
O O4 0.299875 0.705076 0.251614
O O5 0.507412 0.291328 0.500000
O O6 0.536405 0.371176 0.278778
O O7 0.444591 0.274796 0.241466
O O8 0.629835 0.466599 0.238103
O O9 0.732923 0.550233 0.252650
O O10 0.751620 0.416257 0.228321
O O11 0.706473 0.486250 0.000000
O O12 0.500000 0.500000 0.721264
O O13 0.430167 0.549913 0.500000
O O14 0.323662 0.330122 0.253617
O O15 0.330068 0.200445 0.224195
O O16 0.367279 0.276779 0.000000
O O17 0.766678 0.123178 0.500000
O O18 0.244652 0.664020 0.000000
#
# Coordination Sequence:
#
# PCOD9425591 Si02
#       7
#     8   8   8   8   8   8   8
#     4   9  18  33  53  74  97 131 172 210 250 300
#     4  10  19  32  50  75 105 134 167 208 253 301
#     4  11  21  33  51  75 102 133 169 209 253 301
#     4  10  20  32  48  72 105 139 166 198 248 306
#     4  10  20  34  52  75 103 134 169 208 252 302
#     4  10  20  34  52  74 101 133 171 211 252 299
#     4   9  19  34  51  73 101 132 169 211 251 299
#
# _framework density 16.290154000000001
#
# number of rings (size 3 to 8) (size 9 to 14) (size 15 to 20)
#    0.000    2.143    1.429    2.143    0.000    4.286 
#    0.000    0.000    0.000    0.857    0.000    6.000 
#    0.000    0.000    0.000    0.000    0.000    0.000 
#
# Total GULP energy -312444.790347 kJ/mol
# GULP energy per Si atom -5579.371256 kJ/mol
# Density = 1.625308 g / cm^3
# Si number density = 16.290154 Si / 1000 Ang^3
#
#
#
# Elastic Constant Matrix: (Units=GPa)
#
#
# Indices 1 2 3 4 5 6 
#
# 1 100.5422 96.1146 36.6600 0.0000 0.0000 0.0000
# 2 96.1146 158.2510 47.6663 0.0000 0.0000 0.0000
# 3 36.6600 47.6663 29.0993 0.0000 0.0000 0.0000
# 4 0.0000 0.0000 0.0000 19.7097 0.0000 0.0000
# 5 0.0000 0.0000 0.0000 0.0000 21.9056 0.0000
# 6 0.0000 0.0000 0.0000 0.0000 0.0000 20.8799
#
#
#
# Elastic Compliance Matrix: (Units=1/GPa)
#
#
# Indices 1 2 3 4 5 6 
#
# 1 0.026223 -0.011796 -0.013714 0.000000 0.000000 0.000000
# 2 -0.011796 0.017780 -0.014263 0.000000 0.000000 0.000000
# 3 -0.013714 -0.014263 0.075006 0.000000 0.000000 0.000000
# 4 0.000000 0.000000 0.000000 0.050737 0.000000 0.000000
# 5 0.000000 0.000000 0.000000 0.000000 0.045650 0.000000
# 6 0.000000 0.000000 0.000000 0.000000 0.000000 0.047893
#
#
# Mechanical properties :
#
#
# Convention : Reuss Voigt Hill
#
# Bulk Modulus (GPa) = 25.34046 72.08606 48.71326
# Shear Modulus (GPa) = 14.04539 19.66247 16.85393
#
# Velocity S-wave (km/s) = 2.93951 3.47798 3.22002
# Velocity P-wave (km/s) = 5.20677 7.77662 6.61764
#
# Compressibility (1/GPa) = 0.03946259
#
# Stress axis : x y z
#
# Youngs Moduli (GPa) = 38.13454 56.24446 13.33225
#
# Poissons Ratio (x) = 0.66345 0.18284
# Poissons Ratio (y) = 0.44983 0.19016
# Poissons Ratio (z) = 0.52298 0.80222
#
# Static dielectric constant tensor:
#      x y z
#    x 1.529820 0.000000 0.000000 
#    y 0.000000 1.544550 0.000000 
#    z 0.000000 0.000000 1.557230 
# 
# From -- ./inp_files/7822.got.cif
#   From: 2010.05.17/outbox.cif.g08.bks.cpg/sg55_4_cif.got.tgz:7822.got - 2010.06.03 13:27:54.
