data_PCOD9425760
_publ_section_title
;
Structure prediction by ZEFSAII (Michael W. Deem and Ramdas Pophale) SiO2 
 PCOD9425760
Probable space group: P B A M
;
_chemical_formula_sum "Si O2"
_cell_formula_units_Z 56
_cell_length_a 19.741315
_cell_length_b 19.592601
_cell_length_c 8.853918
_cell_angle_alpha 90.000000
_cell_angle_beta 90.000000
_cell_angle_gamma 90.000000
_cell_volume 3424.551234
_symmetry_space_group_name_H-M "P B A M"
_symmetry_group_IT_number 55
_symmetry_cell_setting 'orthorhombic'
loop_
_space_group_symop_operation_xyz
x,y,z
-x,-y,z
1/2+x,1/2-y,-z
1/2-x,1/2+y,-z
-x,-y,-z
x,y,-z
1/2-x,1/2+y,z
1/2+x,1/2-y,z
loop_
_atom_site_type_symbol
_atom_site_label
_atom_site_fract_x
_atom_site_fract_y
_atom_site_fract_z
Si Si1 0.556896 0.943843 0.818657
Si Si2 0.797476 0.478458 0.318674
Si Si3 0.230326 0.150956 0.180784
Si Si4 0.126252 0.252396 0.681066
Si Si5 0.839179 0.231986 0.818860
Si Si6 0.517152 0.788992 0.817732
Si Si7 0.734798 0.132557 0.681528
O O1 0.627155 0.961205 0.738477
O O2 0.531080 0.868220 0.778423
O O3 0.500000 0.000000 0.782637
O O4 0.568363 0.944588 0.000000
O O5 0.795715 0.475288 0.500000
O O6 0.747476 0.422062 0.250144
O O7 0.777945 0.555110 0.269900
O O8 0.164288 0.187306 0.248546
O O9 0.293085 0.201835 0.218958
O O10 0.225694 0.146906 0.000000
O O11 0.126499 0.247597 0.500000
O O12 0.172144 0.318197 0.725773
O O13 0.051063 0.262627 0.742314
O O14 0.916051 0.246627 0.772190
O O15 0.802066 0.167363 0.746929
O O16 0.837822 0.225343 0.000000
O O17 0.510720 0.785356 0.000000
O O18 0.738611 0.133618 0.500000
#
# Coordination Sequence:
#
# PCOD9425760 Si02
#       7
#     8   8   8   8   8   8   8
#     4  10  20  33  50  74 108 145 178 211 253 313
#     4  11  21  33  51  76 107 139 171 215 263 311
#     4  10  19  35  55  75 101 136 177 219 259 308
#     4  10  20  34  52  77 105 137 176 214 258 312
#     4   9  18  33  53  74  99 132 176 219 255 302
#     4  10  19  33  50  75 106 136 173 215 257 305
#     4   9  20  35  50  73 106 136 171 214 257 310
#
# _framework density 16.352506000000002
#
# number of rings (size 3 to 8) (size 9 to 14) (size 15 to 20)
#    0.000    2.143    1.429    2.143    0.000    3.714 
#    0.000    0.000    0.000    0.857    0.000    6.000 
#    0.000    0.000    0.000    0.000    0.000    0.000 
#
# Total GULP energy -312558.028143 kJ/mol
# GULP energy per Si atom -5581.393360 kJ/mol
# Density = 1.631529 g / cm^3
# Si number density = 16.352506 Si / 1000 Ang^3
#
#
#
# Elastic Constant Matrix: (Units=GPa)
#
#
# Indices 1 2 3 4 5 6 
#
# 1 147.7575 74.4891 42.4411 0.0000 0.0000 0.0000
# 2 74.4891 78.2097 27.9394 0.0000 0.0000 0.0000
# 3 42.4411 27.9394 27.8824 0.0000 0.0000 0.0000
# 4 0.0000 0.0000 0.0000 25.0646 0.0000 0.0000
# 5 0.0000 0.0000 0.0000 0.0000 28.7118 0.0000
# 6 0.0000 0.0000 0.0000 0.0000 0.0000 23.4154
#
#
#
# Elastic Compliance Matrix: (Units=1/GPa)
#
#
# Indices 1 2 3 4 5 6 
#
# 1 0.015920 -0.010134 -0.014079 0.000000 0.000000 0.000000
# 2 -0.010134 0.026365 -0.010994 0.000000 0.000000 0.000000
# 3 -0.014079 -0.010994 0.068312 0.000000 0.000000 0.000000
# 4 0.000000 0.000000 0.000000 0.039897 0.000000 0.000000
# 5 0.000000 0.000000 0.000000 0.000000 0.034829 0.000000
# 6 0.000000 0.000000 0.000000 0.000000 0.000000 0.042707
#
#
# Mechanical properties :
#
#
# Convention : Reuss Voigt Hill
#
# Bulk Modulus (GPa) = 24.88554 60.39875 42.64215
# Shear Modulus (GPa) = 16.03391 22.70368 19.36879
#
# Velocity S-wave (km/s) = 3.13472 3.73015 3.44532
# Velocity P-wave (km/s) = 5.32477 7.45438 6.47769
#
# Compressibility (1/GPa) = 0.04018398
#
# Stress axis : x y z
#
# Youngs Moduli (GPa) = 62.81217 37.92885 14.63867
#
# Poissons Ratio (x) = 0.38435 0.20610
# Poissons Ratio (y) = 0.63651 0.16094
# Poissons Ratio (z) = 0.88434 0.41700
#
# Static dielectric constant tensor:
#      x y z
#    x 1.525250 0.000000 0.000000 
#    y 0.000000 1.538140 0.000000 
#    z 0.000000 0.000000 1.548210 
# 
# From -- ./inp_files/7835.got.cif
#   From: 2010.05.17/outbox.cif.g08.bks.cpg/sg55_4_cif.got.tgz:7835.got - 2010.06.03 13:27:54.
