data_PCOD9425280
_publ_section_title
;
Structure prediction by ZEFSAII (Michael W. Deem and Ramdas Pophale) SiO2 
 PCOD9425280
Probable space group: P B A M
;
_chemical_formula_sum "Si O2"
_cell_formula_units_Z 64
_cell_length_a 12.251253
_cell_length_b 31.447877
_cell_length_c 7.542076
_cell_angle_alpha 90.000000
_cell_angle_beta 90.000000
_cell_angle_gamma 90.000000
_cell_volume 2905.780099
_symmetry_space_group_name_H-M "P B A M"
_symmetry_group_IT_number 55
_symmetry_cell_setting 'orthorhombic'
loop_
_space_group_symop_operation_xyz
x,y,z
-x,-y,z
1/2+x,1/2-y,-z
1/2-x,1/2+y,-z
-x,-y,-z
x,y,-z
1/2-x,1/2+y,z
1/2+x,1/2-y,z
loop_
_atom_site_type_symbol
_atom_site_label
_atom_site_fract_x
_atom_site_fract_y
_atom_site_fract_z
Si Si1 0.527759 0.664150 0.783802
Si Si2 0.309916 0.710483 0.217646
Si Si3 0.419710 0.884869 0.782752
Si Si4 0.025099 0.933063 0.786334
Si Si5 0.735859 0.039609 0.212569
Si Si6 0.284427 0.552538 0.704007
Si Si7 0.733533 0.193458 0.216300
Si Si8 0.839983 0.365193 0.796624
O O1 0.427832 0.693232 0.726960
O O2 0.510896 0.615652 0.727880
O O3 0.645533 0.680298 0.726258
O O4 0.528275 0.663933 0.000000
O O5 0.292073 0.758779 0.274345
O O6 0.219881 0.676252 0.279930
O O7 0.308170 0.710035 0.000000
O O8 0.354392 0.926938 0.722577
O O9 0.351733 0.842936 0.730733
O O10 0.544190 0.880116 0.720068
O O11 0.420282 0.886842 0.000000
O O12 0.912647 0.956111 0.738173
O O13 0.142572 0.948686 0.719720
O O14 0.030138 0.934433 0.000000
O O15 0.718311 0.990010 0.250152
O O16 0.739368 0.044282 0.000000
O O17 0.269822 0.562153 0.500000
O O18 0.242226 0.594813 0.799534
O O19 0.732828 0.193563 0.000000
O O20 0.864319 0.353353 0.000000
#
# Coordination Sequence:
#
# PCOD9425280 Si02
#       8
#     8   8   8   8   8   8   8   8
#     4   9  15  26  46  74 112 147 172 207 262 320
#     4   9  17  26  45  77 113 147 175 211 263 315
#     4   9  18  32  52  79 111 143 178 220 265 317
#     4  10  18  34  58  82 111 143 176 216 268 326
#     4  10  20  36  58  82 108 143 179 219 270 325
#     4  12  25  38  54  78 107 140 180 230 276 320
#     4   9  16  26  44  79 117 142 170 216 267 312
#     4  10  20  36  55  78 109 144 182 221 264 320
#
# _framework density 22.025068000000001
#
# number of rings (size 3 to 8) (size 9 to 14) (size 15 to 20)
#    0.000    2.250    2.500    1.500    1.750    2.500 
#    0.000    3.125    0.000    0.000    0.000    4.375 
#    0.000    0.000    0.000    0.000    0.000    0.000 
#
# Total GULP energy -357474.809319 kJ/mol
# GULP energy per Si atom -5585.543896 kJ/mol
# Density = 2.197494 g / cm^3
# Si number density = 22.025068 Si / 1000 Ang^3
#
#
#
# Elastic Constant Matrix: (Units=GPa)
#
#
# Indices 1 2 3 4 5 6 
#
# 1 74.7742 -11.5062 -1.9725 0.0000 0.0000 0.0000
# 2 -11.5062 67.3096 -8.4327 0.0000 0.0000 0.0000
# 3 -1.9725 -8.4327 54.0972 0.0000 0.0000 0.0000
# 4 0.0000 0.0000 0.0000 -33.8880 0.0000 0.0000
# 5 0.0000 0.0000 0.0000 0.0000 -30.9420 0.0000
# 6 0.0000 0.0000 0.0000 0.0000 0.0000 12.8023
#
#
#
# Elastic Compliance Matrix: (Units=1/GPa)
#
#
# Indices 1 2 3 4 5 6 
#
# 1 0.013776 0.002466 0.000887 0.000000 0.000000 0.000000
# 2 0.002466 0.015594 0.002521 0.000000 0.000000 0.000000
# 3 0.000887 0.002521 0.018910 0.000000 0.000000 0.000000
# 4 0.000000 0.000000 0.000000 -0.029509 0.000000 0.000000
# 5 0.000000 0.000000 0.000000 0.000000 -0.032318 0.000000
# 6 0.000000 0.000000 0.000000 0.000000 0.000000 0.078111
#
#
# Mechanical properties :
#
#
# Convention : Reuss Voigt Hill
#
# Bulk Modulus (GPa) = 16.65884 16.92870 16.79377
# Shear Modulus (GPa) = 68.65623 4.13396 36.39510
#
# Velocity S-wave (km/s) = 5.58923 1.37150 4.06943
# Velocity P-wave (km/s) = 7.01660 3.19543 5.45177
#
# Compressibility (1/GPa) = 0.06002817
#
# Stress axis : x y z
#
# Youngs Moduli (GPa) = 72.58748 64.12690 52.88069
#
# Poissons Ratio (x) = -0.15814 -0.04689
# Poissons Ratio (y) = -0.17901 -0.13330
# Poissons Ratio (z) = -0.06437 -0.16165
#
# Static dielectric constant tensor:
#      x y z
#    x 1.783270 0.000000 0.000000 
#    y 0.000000 1.779180 0.000000 
#    z 0.000000 0.000000 1.855640 
# 
# From -- ./inp_files/4482.got.cif
#   From: 2010.05.17/outbox.cif.g08.bks.cpg/sg55_3_cif.got.tgz:4482.got - 2010.06.03 13:27:54.
