data_PCOD9425218
_publ_section_title
;
Structure prediction by ZEFSAII (Michael W. Deem and Ramdas Pophale) SiO2 
 PCOD9425218
Probable space group: P B A M
;
_chemical_formula_sum "Si O2"
_cell_formula_units_Z 60
_cell_length_a 23.730487
_cell_length_b 5.164706
_cell_length_c 25.746918
_cell_angle_alpha 90.000000
_cell_angle_beta 90.000000
_cell_angle_gamma 90.000000
_cell_volume 3155.567723
_symmetry_space_group_name_H-M "P B A M"
_symmetry_group_IT_number 55
_symmetry_cell_setting 'orthorhombic'
loop_
_space_group_symop_operation_xyz
x,y,z
-x,-y,z
1/2+x,1/2-y,-z
1/2-x,1/2+y,-z
-x,-y,-z
x,y,-z
1/2-x,1/2+y,z
1/2+x,1/2-y,z
loop_
_atom_site_type_symbol
_atom_site_label
_atom_site_fract_x
_atom_site_fract_y
_atom_site_fract_z
Si Si1 0.687548 0.744108 0.704684
Si Si2 0.873035 0.104484 0.909758
Si Si3 0.186649 0.250453 0.659518
Si Si4 0.787666 0.018513 0.000000
Si Si5 0.942212 0.394556 0.559700
Si Si6 0.867198 0.909552 0.559199
Si Si7 0.939512 0.616180 0.061074
Si Si8 0.713472 0.787976 0.173985
O O1 0.749127 0.709056 0.677925
O O2 0.659306 0.469176 0.695447
O O3 0.698558 0.792574 0.764915
O O4 0.658847 0.976367 0.673599
O O5 0.826382 0.996703 0.949521
O O6 0.898565 0.369385 0.932972
O O7 0.840602 0.194079 0.858101
O O8 0.918186 0.869650 0.907829
O O9 0.181098 0.150023 0.601059
O O10 0.758785 0.297398 0.000000
O O11 0.957336 0.317321 0.500000
O O12 0.902098 0.643446 0.557898
O O13 0.000000 0.500000 0.584817
O O14 0.907450 0.144013 0.578242
O O15 0.848381 0.969286 0.500000
O O16 0.000000 0.500000 0.076979
O O17 0.942762 0.692141 0.000000
O O18 0.761752 0.572617 0.162436
#
# Coordination Sequence:
#
# PCOD9425218 Si02
#       8
#     8   8   8   4   8   8   8   8
#     4  10  19  35  53  74 104 138 188 226 272 320
#     4  12  23  37  59  88 118 155 200 232 294 344
#     4  10  18  33  52  73 105 140 177 230 267 322
#     4  12  22  36  49  80 127 164 176 218 288 352
#     4   9  17  30  47  70 104 140 173 217 270 329
#     4  10  19  30  48  77 106 139 182 222 276 340
#     4  11  22  41  62  84 117 158 202 245 278 341
#     4  12  21  38  58  86 117 148 192 244 280 348
#
# _framework density 19.014012000000001
#
# number of rings (size 3 to 8) (size 9 to 14) (size 15 to 20)
#    0.000    1.333    4.000    4.000    0.000    2.667 
#    0.000    2.667    0.000    0.000    0.000   14.000 
#    0.000    0.000    0.000    0.000    0.000    0.000 
#
# Total GULP energy -334382.475855 kJ/mol
# GULP energy per Si atom -5573.041264 kJ/mol
# Density = 1.897074 g / cm^3
# Si number density = 19.014012 Si / 1000 Ang^3
#
#
#
# Elastic Constant Matrix: (Units=GPa)
#
#
# Indices 1 2 3 4 5 6 
#
# 1 36.2009 -5.9504 36.8861 0.0000 0.0000 0.0000
# 2 -5.9504 94.8615 2.8296 0.0000 0.0000 0.0000
# 3 36.8861 2.8296 69.4044 0.0000 0.0000 0.0000
# 4 0.0000 0.0000 0.0000 22.2752 0.0000 0.0000
# 5 0.0000 0.0000 0.0000 0.0000 13.6005 0.0000
# 6 0.0000 0.0000 0.0000 0.0000 0.0000 33.0345
#
#
#
# Elastic Compliance Matrix: (Units=1/GPa)
#
#
# Indices 1 2 3 4 5 6 
#
# 1 0.062458 0.004914 -0.033395 0.000000 0.000000 0.000000
# 2 0.004914 0.010941 -0.003058 0.000000 0.000000 0.000000
# 3 -0.033395 -0.003058 0.032281 0.000000 0.000000 0.000000
# 4 0.000000 0.000000 0.000000 0.044893 0.000000 0.000000
# 5 0.000000 0.000000 0.000000 0.000000 0.073527 0.000000
# 6 0.000000 0.000000 0.000000 0.000000 0.000000 0.030271
#
#
# Mechanical properties :
#
#
# Convention : Reuss Voigt Hill
#
# Bulk Modulus (GPa) = 23.47226 29.77749 26.62487
# Shear Modulus (GPa) = 15.07613 24.89546 19.98580
#
# Velocity S-wave (km/s) = 2.81890 3.62238 3.24560
# Velocity P-wave (km/s) = 4.79233 5.76111 5.29890
#
# Compressibility (1/GPa) = 0.04260349
#
# Stress axis : x y z
#
# Youngs Moduli (GPa) = 16.01070 91.39825 30.97776
#
# Poissons Ratio (x) = -0.44913 1.03450
# Poissons Ratio (y) = -0.07868 0.09472
# Poissons Ratio (z) = 0.53467 0.27946
#
# Static dielectric constant tensor:
#      x y z
#    x 1.453600 0.000000 0.000000 
#    y 0.000000 1.759070 0.000000 
#    z 0.000000 0.000000 1.678530 
# 
# From -- ./inp_files/23698.got.cif
#   From: 2010.05.17/outbox.cif.g08.bks.cpg/sg55_12_cif.got.tgz:23698.got - 2010.06.03 13:27:54.
