data_PCOD9425730
_publ_section_title
;
Structure prediction by ZEFSAII (Michael W. Deem and Ramdas Pophale) SiO2 
 PCOD9425730
Probable space group: P B A M
;
_chemical_formula_sum "Si O2"
_cell_formula_units_Z 56
_cell_length_a 15.596971
_cell_length_b 19.790457
_cell_length_c 8.179724
_cell_angle_alpha 90.000000
_cell_angle_beta 90.000000
_cell_angle_gamma 90.000000
_cell_volume 2524.845091
_symmetry_space_group_name_H-M "P B A M"
_symmetry_group_IT_number 55
_symmetry_cell_setting 'orthorhombic'
loop_
_space_group_symop_operation_xyz
x,y,z
-x,-y,z
1/2+x,1/2-y,-z
1/2-x,1/2+y,-z
-x,-y,-z
x,y,-z
1/2-x,1/2+y,z
1/2+x,1/2-y,z
loop_
_atom_site_type_symbol
_atom_site_label
_atom_site_fract_x
_atom_site_fract_y
_atom_site_fract_z
Si Si1 0.101679 0.504860 0.812089
Si Si2 0.661240 0.855841 0.688168
Si Si3 0.153622 0.355942 0.806652
Si Si4 0.320947 0.571212 0.301608
Si Si5 0.309444 0.419567 0.309496
Si Si6 0.993520 0.115003 0.188736
Si Si7 0.001789 0.734175 0.305155
O O1 0.125651 0.567887 0.700973
O O2 0.130364 0.431839 0.750996
O O3 0.000000 0.500000 0.819845
O O4 0.132084 0.516123 0.000000
O O5 0.672339 0.834910 0.500000
O O6 0.756800 0.869065 0.758581
O O7 0.585141 0.808651 0.755141
O O8 0.255299 0.358694 0.772074
O O9 0.087461 0.305418 0.723132
O O10 0.138954 0.350758 0.000000
O O11 0.317200 0.571095 0.500000
O O12 0.292960 0.496067 0.244655
O O13 0.417770 0.583260 0.248632
O O14 0.287826 0.418258 0.500000
O O15 0.410320 0.408412 0.286992
O O16 0.001343 0.195100 0.214058
O O17 0.979648 0.097823 0.000000
O O18 0.010824 0.745485 0.500000
#
# Coordination Sequence:
#
# PCOD9425730 Si02
#       7
#     8   8   8   8   8   8   8
#     4  10  19  32  54  88 129 167 198 245 309 370
#     4  10  21  37  62  94 124 159 205 255 307 369
#     4  11  22  37  61  95 132 166 206 255 313 375
#     4  10  22  42  67  95 125 159 208 264 317 376
#     4  11  23  42  69  96 125 163 207 262 319 375
#     4  12  27  45  64  88 124 167 215 268 318 377
#     4  11  24  42  64  91 128 172 214 256 309 379
#
# _framework density 22.179579
#
# number of rings (size 3 to 8) (size 9 to 14) (size 15 to 20)
#    0.000    1.286    2.857    3.000    0.000    6.000 
#    0.000    4.286    0.000    0.000    0.000    0.000 
#    0.000    0.000    0.000    0.000    0.000    0.000 
#
# Total GULP energy -312725.727875 kJ/mol
# GULP energy per Si atom -5584.387998 kJ/mol
# Density = 2.212910 g / cm^3
# Si number density = 22.179579 Si / 1000 Ang^3
#
#
#
# Elastic Constant Matrix: (Units=GPa)
#
#
# Indices 1 2 3 4 5 6 
#
# 1 102.4500 6.9618 2.9423 0.0000 0.0000 0.0000
# 2 6.9618 50.4084 -7.0095 0.0000 0.0000 0.0000
# 3 2.9423 -7.0095 38.3739 0.0000 0.0000 0.0000
# 4 0.0000 0.0000 0.0000 36.9808 0.0000 0.0000
# 5 0.0000 0.0000 0.0000 0.0000 23.5193 0.0000
# 6 0.0000 0.0000 0.0000 0.0000 0.0000 25.0157
#
#
#
# Elastic Compliance Matrix: (Units=1/GPa)
#
#
# Indices 1 2 3 4 5 6 
#
# 1 0.009893 -0.001510 -0.001034 0.000000 0.000000 0.000000
# 2 -0.001510 0.020586 0.003876 0.000000 0.000000 0.000000
# 3 -0.001034 0.003876 0.026847 0.000000 0.000000 0.000000
# 4 0.000000 0.000000 0.000000 0.027041 0.000000 0.000000
# 5 0.000000 0.000000 0.000000 0.000000 0.042518 0.000000
# 6 0.000000 0.000000 0.000000 0.000000 0.000000 0.039975
#
#
# Mechanical properties :
#
#
# Convention : Reuss Voigt Hill
#
# Bulk Modulus (GPa) = 16.66994 21.89130 19.28062
# Shear Modulus (GPa) = 27.14546 29.65900 28.40223
#
# Velocity S-wave (km/s) = 3.50222 3.66077 3.58237
# Velocity P-wave (km/s) = 4.88735 5.26875 5.08163
#
# Compressibility (1/GPa) = 0.05998821
#
# Stress axis : x y z
#
# Youngs Moduli (GPa) = 101.07960 48.57787 37.24853
#
# Poissons Ratio (x) = 0.07336 0.03853
# Poissons Ratio (y) = 0.15265 -0.14438
# Poissons Ratio (z) = 0.10456 -0.18829
#
# Static dielectric constant tensor:
#      x y z
#    x 1.932300 0.000000 0.000000 
#    y 0.000000 1.799510 0.000000 
#    z 0.000000 0.000000 1.792750 
# 
# From -- ./inp_files/6189.got.cif
#   From: 2010.05.17/outbox.cif.g08.bks.cpg/sg55_4_cif.got.tgz:6189.got - 2010.06.03 13:27:54.
