data_PCOD9425189
_publ_section_title
;
Structure prediction by ZEFSAII (Michael W. Deem and Ramdas Pophale) SiO2 
 PCOD9425189
Probable space group: P B A M
;
_chemical_formula_sum "Si O2"
_cell_formula_units_Z 48
_cell_length_a 16.392722
_cell_length_b 7.857793
_cell_length_c 16.098104
_cell_angle_alpha 90.000000
_cell_angle_beta 90.000000
_cell_angle_gamma 90.000000
_cell_volume 2073.606696
_symmetry_space_group_name_H-M "P B A M"
_symmetry_group_IT_number 55
_symmetry_cell_setting 'orthorhombic'
loop_
_space_group_symop_operation_xyz
x,y,z
-x,-y,z
1/2+x,1/2-y,-z
1/2-x,1/2+y,-z
-x,-y,-z
x,y,-z
1/2-x,1/2+y,z
1/2+x,1/2-y,z
loop_
_atom_site_type_symbol
_atom_site_label
_atom_site_fract_x
_atom_site_fract_y
_atom_site_fract_z
Si Si1 0.876104 0.830402 0.500000
Si Si2 0.378686 0.602235 0.324353
Si Si3 0.879598 0.882804 0.000000
Si Si4 0.535367 0.274286 0.162800
Si Si5 0.201272 0.730699 0.327041
Si Si6 0.783023 0.524617 0.000000
Si Si7 0.371456 0.086995 0.161784
Si Si8 0.695326 0.949678 0.500000
O O1 0.920184 0.867104 0.586375
O O2 0.794595 0.950055 0.500000
O O3 0.842739 0.636802 0.500000
O O4 0.437330 0.638341 0.247924
O O5 0.299899 0.728852 0.324656
O O6 0.338535 0.415923 0.319801
O O7 0.931796 0.873248 0.083088
O O8 0.814139 0.032162 0.000000
O O9 0.826150 0.707768 0.000000
O O10 0.440577 0.230865 0.153610
O O11 0.581585 0.092389 0.164359
O O12 0.174298 0.622996 0.247282
O O13 0.174453 0.646998 0.414500
O O14 0.812361 0.427683 0.916981
#
# Coordination Sequence:
#
# PCOD9425189 Si02
#       8
#     4   8   4   8   8   4   8   4
#     4  10  18  32  55  82 111 144 185 231 279 327
#     4  11  21  35  56  83 114 147 187 232 278 329
#     4  10  21  37  59  85 111 144 185 230 276 326
#     4  10  21  38  58  81 112 149 187 228 278 333
#     4  11  21  35  56  83 114 147 187 232 278 329
#     4  10  21  37  59  85 111 144 185 230 276 326
#     4  10  21  38  58  81 112 149 187 228 278 333
#     4  10  18  32  55  82 111 144 185 231 279 327
#
# _framework density 23.148073
#
# number of rings (size 3 to 8) (size 9 to 14) (size 15 to 20)
#    0.000    1.667    0.000    8.000    0.000    6.667 
#    0.000    0.833    0.000    8.000    0.000    0.000 
#    0.000    0.000    0.000    0.000    0.000    0.000 
#
# Total GULP energy -268814.912267 kJ/mol
# GULP energy per Si atom -5600.310672 kJ/mol
# Density = 2.309539 g / cm^3
# Si number density = 23.148073 Si / 1000 Ang^3
#
#
#
# Elastic Constant Matrix: (Units=GPa)
#
#
# Indices 1 2 3 4 5 6 
#
# 1 58.5463 17.7626 31.0801 0.0000 0.0000 0.0000
# 2 17.7626 104.5163 35.8115 0.0000 0.0000 0.0000
# 3 31.0801 35.8115 183.4477 0.0000 0.0000 0.0000
# 4 0.0000 0.0000 0.0000 24.8538 0.0000 0.0000
# 5 0.0000 0.0000 0.0000 0.0000-1024.7040 0.0000
# 6 0.0000 0.0000 0.0000 0.0000 0.0000 33.9443
#
#
#
# Elastic Compliance Matrix: (Units=1/GPa)
#
#
# Indices 1 2 3 4 5 6 
#
# 1 0.019276 -0.002312 -0.002815 0.000000 0.000000 0.000000
# 2 -0.002312 0.010531 -0.001664 0.000000 0.000000 0.000000
# 3 -0.002815 -0.001664 0.006253 0.000000 0.000000 0.000000
# 4 0.000000 0.000000 0.000000 0.040235 0.000000 0.000000
# 5 0.000000 0.000000 0.000000 0.000000 -0.000976 0.000000
# 6 0.000000 0.000000 0.000000 0.000000 0.000000 0.029460
#
#
# Mechanical properties :
#
#
# Convention : Reuss Voigt Hill
#
# Bulk Modulus (GPa) = 44.48548 57.31318 50.89933
# Shear Modulus (GPa) = 39.72898 -175.72410 -67.99756
#
# Velocity S-wave (km/s) = 4.14732 -8.72226 -5.42575
# Velocity P-wave (km/s) = 6.49563 8.75351 4.14915
#
# Compressibility (1/GPa) = 0.02247924
#
# Stress axis : x y z
#
# Youngs Moduli (GPa) = 51.87809 94.95820 159.92700
#
# Poissons Ratio (x) = 0.21950 0.45012
# Poissons Ratio (y) = 0.11992 0.26614
# Poissons Ratio (z) = 0.14601 0.15803
#
# Static dielectric constant tensor:
#      x y z
#    x 1.825370 0.000000 0.000000 
#    y 0.000000 1.891920 0.000000 
#    z 0.000000 0.000000 1.850670 
# 
# From -- ./inp_files/19418.got.cif
#   From: 2010.05.17/outbox.cif.g08.bks.cpg/sg55_10_cif.got.tgz:19418.got - 2010.06.03 13:27:54.
