data_PCOD9425448
_publ_section_title
;
Structure prediction by ZEFSAII (Michael W. Deem and Ramdas Pophale) SiO2 
 PCOD9425448
Probable space group: P B A M
;
_chemical_formula_sum "Si O2"
_cell_formula_units_Z 64
_cell_length_a 9.139215
_cell_length_b 29.519586
_cell_length_c 14.360369
_cell_angle_alpha 90.000000
_cell_angle_beta 90.000000
_cell_angle_gamma 90.000000
_cell_volume 3874.224259
_symmetry_space_group_name_H-M "P B A M"
_symmetry_group_IT_number 55
_symmetry_cell_setting 'orthorhombic'
loop_
_space_group_symop_operation_xyz
x,y,z
-x,-y,z
1/2+x,1/2-y,-z
1/2-x,1/2+y,-z
-x,-y,-z
x,y,-z
1/2-x,1/2+y,z
1/2+x,1/2-y,z
loop_
_atom_site_type_symbol
_atom_site_label
_atom_site_fract_x
_atom_site_fract_y
_atom_site_fract_z
Si Si1 0.574402 0.550296 0.107796
Si Si2 0.840118 0.506668 0.206295
Si Si3 0.552235 0.213390 0.387239
Si Si4 0.385444 0.303128 0.386343
Si Si5 0.147692 0.627290 0.391150
Si Si6 0.115003 0.444081 0.601693
Si Si7 0.358744 0.577849 0.252413
Si Si8 0.568673 0.596282 0.394140
O O1 0.500000 0.500000 0.112301
O O2 0.732743 0.541832 0.154422
O O3 0.468575 0.584291 0.164947
O O4 0.587046 0.562932 0.000000
O O5 0.868449 0.524180 0.310497
O O6 0.755639 0.459426 0.217700
O O7 0.000000 0.500000 0.161354
O O8 0.559229 0.214620 0.500000
O O9 0.486803 0.261464 0.356476
O O10 0.717752 0.204228 0.355221
O O11 0.440000 0.172897 0.365640
O O12 0.383922 0.303832 0.500000
O O13 0.444676 0.352229 0.358377
O O14 0.200364 0.632123 0.500000
O O15 0.266105 0.614277 0.312658
O O16 0.028416 0.586867 0.392372
O O17 0.119917 0.466845 0.500000
O O18 0.259078 0.412941 0.605488
O O19 0.477197 0.562256 0.330361
O O20 0.517042 0.592661 0.500000
#
# Coordination Sequence:
#
# PCOD9425448 Si02
#       8
#     8   8   8   8   8   8   8   8
#     4   9  20  38  55  71  93 120 153 203 260 300
#     4  11  21  35  51  71  96 126 166 203 245 298
#     4   9  17  28  42  62  91 129 169 203 236 275
#     4   9  17  28  42  62  91 130 170 205 238 274
#     4  10  19  31  46  68 100 138 170 198 237 282
#     4  10  19  32  47  64  98 139 169 200 236 277
#     4  11  21  32  51  71  96 125 161 205 247 292
#     4  10  19  31  46  66  96 134 169 201 241 286
#
# _framework density 16.519435999999999
#
# number of rings (size 3 to 8) (size 9 to 14) (size 15 to 20)
#    0.000    2.125    3.750    0.375    1.750    1.500 
#    0.000    1.250    0.000    0.000    0.000    0.000 
#    0.000    1.000    0.250    0.000    0.000    0.125 
#
# Total GULP energy -356355.287257 kJ/mol
# GULP energy per Si atom -5568.051363 kJ/mol
# Density = 1.648184 g / cm^3
# Si number density = 16.519436 Si / 1000 Ang^3
#
#
#
# Elastic Constant Matrix: (Units=GPa)
#
#
# Indices 1 2 3 4 5 6 
#
# 1 111.5164 22.6275 32.5961 0.0000 0.0000 0.0000
# 2 22.6275 19.1737 -0.4410 0.0000 0.0000 0.0000
# 3 32.5961 -0.4410 62.6648 0.0000 0.0000 0.0000
# 4 0.0000 0.0000 0.0000 5.5406 0.0000 0.0000
# 5 0.0000 0.0000 0.0000 0.0000 3.5769 0.0000
# 6 0.0000 0.0000 0.0000 0.0000 0.0000 18.0992
#
#
#
# Elastic Compliance Matrix: (Units=1/GPa)
#
#
# Indices 1 2 3 4 5 6 
#
# 1 0.014857 -0.017714 -0.007853 0.000000 0.000000 0.000000
# 2 -0.017714 0.073283 0.009730 0.000000 0.000000 0.000000
# 3 -0.007853 0.009730 0.020111 0.000000 0.000000 0.000000
# 4 0.000000 0.000000 0.000000 0.180485 0.000000 0.000000
# 5 0.000000 0.000000 0.000000 0.000000 0.279572 0.000000
# 6 0.000000 0.000000 0.000000 0.000000 0.000000 0.055251
#
#
# Mechanical properties :
#
#
# Convention : Reuss Voigt Hill
#
# Bulk Modulus (GPa) = 13.05863 33.65781 23.35822
# Shear Modulus (GPa) = 7.34476 14.68149 11.01312
#
# Velocity S-wave (km/s) = 2.11087 2.98441 2.58481
# Velocity P-wave (km/s) = 3.72333 5.68283 4.80405
#
# Compressibility (1/GPa) = 0.07657770
#
# Stress axis : x y z
#
# Youngs Moduli (GPa) = 67.30891 13.64574 49.72373
#
# Poissons Ratio (x) = 0.24172 0.39047
# Poissons Ratio (y) = 1.19229 -0.48380
# Poissons Ratio (z) = 0.52856 -0.13277
#
# Static dielectric constant tensor:
#      x y z
#    x 1.623930 0.000000 0.000000 
#    y 0.000000 1.585580 0.000000 
#    z 0.000000 0.000000 1.541160 
# 
# From -- ./inp_files/17925.got.cif
#   From: 2010.05.17/outbox.cif.g08.bks.cpg/sg55_9_cif.got.tgz:17925.got - 2010.06.03 13:27:54.
