data_PCOD9425773
_publ_section_title
;
Structure prediction by ZEFSAII (Michael W. Deem and Ramdas Pophale) SiO2 
 PCOD9425773
Probable space group: P B A M
;
_chemical_formula_sum "Si O2"
_cell_formula_units_Z 64
_cell_length_a 20.968267
_cell_length_b 20.231027
_cell_length_c 8.800873
_cell_angle_alpha 90.000000
_cell_angle_beta 90.000000
_cell_angle_gamma 90.000000
_cell_volume 3733.414602
_symmetry_space_group_name_H-M "P B A M"
_symmetry_group_IT_number 55
_symmetry_cell_setting 'orthorhombic'
loop_
_space_group_symop_operation_xyz
x,y,z
-x,-y,z
1/2+x,1/2-y,-z
1/2-x,1/2+y,-z
-x,-y,-z
x,y,-z
1/2-x,1/2+y,z
1/2+x,1/2-y,z
loop_
_atom_site_type_symbol
_atom_site_label
_atom_site_fract_x
_atom_site_fract_y
_atom_site_fract_z
Si Si1 0.075125 0.812035 0.183770
Si Si2 0.346665 0.843156 0.680568
Si Si3 0.784799 0.179126 0.175385
Si Si4 0.309737 0.479563 0.824987
Si Si5 0.478516 0.803473 0.815932
Si Si6 0.170461 0.489752 0.815429
Si Si7 0.955148 0.439452 0.184674
Si Si8 0.439562 0.457282 0.318949
O O1 0.147496 0.792199 0.231104
O O2 0.021799 0.759023 0.226974
O O3 0.059769 0.884267 0.247639
O O4 0.077285 0.816174 0.000000
O O5 0.349753 0.847243 0.500000
O O6 0.279633 0.810549 0.731389
O O7 0.408198 0.805828 0.746081
O O8 0.346728 0.917599 0.749921
O O9 0.797220 0.099755 0.176518
O O10 0.774090 0.198753 0.000000
O O11 0.242428 0.508485 0.769591
O O12 0.373118 0.491060 0.730060
O O13 0.679333 0.501081 0.000000
O O14 0.515753 0.869985 0.766379
O O15 0.473033 0.804703 0.000000
O O16 0.441403 0.451149 0.500000
O O17 0.116689 0.542148 0.770325
O O18 0.000000 0.500000 0.234084
O O19 0.956082 0.438729 0.000000
O O20 0.500000 0.500000 0.267539
O O21 0.170574 0.483427 0.000000
#
# Coordination Sequence:
#
# PCOD9425773 Si02
#       8
#     8   8   8   8   8   8   8   8
#     4   9  19  34  54  77  97 125 164 211 256 292
#     4  11  20  28  44  73 100 130 167 203 241 285
#     4   8  15  30  49  69  94 122 158 205 249 289
#     4   8  15  27  47  73  98 124 157 204 245 280
#     4  10  19  33  52  73  99 131 166 205 250 296
#     4   9  16  29  47  69  97 129 165 205 244 282
#     4   9  15  26  49  74  96 130 167 198 239 287
#     4  10  20  33  52  76 100 129 160 197 249 307
#
# _framework density 17.142485000000001
#
# number of rings (size 3 to 8) (size 9 to 14) (size 15 to 20)
#    0.000    2.750    1.250    3.000    0.000    6.000 
#    0.000    1.250    2.750    0.000    0.000    0.000 
#    0.000    0.000    0.000    0.000    0.000    0.000 
#
# Total GULP energy -356531.703540 kJ/mol
# GULP energy per Si atom -5570.807868 kJ/mol
# Density = 1.710347 g / cm^3
# Si number density = 17.142485 Si / 1000 Ang^3
#
#
#
# Elastic Constant Matrix: (Units=GPa)
#
#
# Indices 1 2 3 4 5 6 
#
# 1 187.9807 60.9363 43.3577 0.0000 0.0000 0.0000
# 2 60.9363 50.8730 19.1283 0.0000 0.0000 0.0000
# 3 43.3577 19.1283 28.6723 0.0000 0.0000 0.0000
# 4 0.0000 0.0000 0.0000 7.0657 0.0000 0.0000
# 5 0.0000 0.0000 0.0000 0.0000 -17.1647 0.0000
# 6 0.0000 0.0000 0.0000 0.0000 0.0000 27.2648
#
#
#
# Elastic Compliance Matrix: (Units=1/GPa)
#
#
# Indices 1 2 3 4 5 6 
#
# 1 0.010468 -0.008792 -0.009964 0.000000 0.000000 0.000000
# 2 -0.008792 0.033623 -0.009136 0.000000 0.000000 0.000000
# 3 -0.009964 -0.009136 0.056039 0.000000 0.000000 0.000000
# 4 0.000000 0.000000 0.000000 0.141528 0.000000 0.000000
# 5 0.000000 0.000000 0.000000 0.000000 -0.058259 0.000000
# 6 0.000000 0.000000 0.000000 0.000000 0.000000 0.036677
#
#
# Mechanical properties :
#
#
# Convention : Reuss Voigt Hill
#
# Bulk Modulus (GPa) = 22.54979 57.15229 39.85104
# Shear Modulus (GPa) = 17.20326 13.04008 15.12167
#
# Velocity S-wave (km/s) = 3.17131 2.76105 2.97327
# Velocity P-wave (km/s) = 5.15680 6.60125 5.92322
#
# Compressibility (1/GPa) = 0.04434631
#
# Stress axis : x y z
#
# Youngs Moduli (GPa) = 95.52947 29.74127 17.84470
#
# Poissons Ratio (x) = 0.26149 0.17780
# Poissons Ratio (y) = 0.83992 0.16303
# Poissons Ratio (z) = 0.95184 0.27171
#
# Static dielectric constant tensor:
#      x y z
#    x 1.619010 0.000000 0.000000 
#    y 0.000000 1.555780 0.000000 
#    z 0.000000 0.000000 1.572760 
# 
# From -- ./inp_files/8208.got.cif
#   From: 2010.05.17/outbox.cif.g08.bks.cpg/sg55_5_cif.got.tgz:8208.got - 2010.06.03 13:27:54.
