data_PCOD9425086
_publ_section_title
;
Structure prediction by ZEFSAII (Michael W. Deem and Ramdas Pophale) SiO2 
 PCOD9425086
Probable space group: P B A M
;
_chemical_formula_sum "Si O2"
_cell_formula_units_Z 56
_cell_length_a 22.676733
_cell_length_b 15.102618
_cell_length_c 7.560376
_cell_angle_alpha 90.000000
_cell_angle_beta 90.000000
_cell_angle_gamma 90.000000
_cell_volume 2589.262724
_symmetry_space_group_name_H-M "P B A M"
_symmetry_group_IT_number 55
_symmetry_cell_setting 'orthorhombic'
loop_
_space_group_symop_operation_xyz
x,y,z
-x,-y,z
1/2+x,1/2-y,-z
1/2-x,1/2+y,-z
-x,-y,-z
x,y,-z
1/2-x,1/2+y,z
1/2+x,1/2-y,z
loop_
_atom_site_type_symbol
_atom_site_label
_atom_site_fract_x
_atom_site_fract_y
_atom_site_fract_z
Si Si1 0.895593 0.793347 0.215341
Si Si2 0.354425 0.892145 0.215552
Si Si3 0.011081 0.902756 0.705844
Si Si4 0.785710 0.910719 0.784585
Si Si5 0.891803 0.227970 0.297042
Si Si6 0.652569 0.912973 0.208488
Si Si7 0.217792 0.887875 0.213258
O O1 0.892806 0.691212 0.273934
O O2 0.951308 0.847024 0.283573
O O3 0.835484 0.842530 0.272881
O O4 0.897740 0.795864 0.000000
O O5 0.285914 0.875853 0.265065
O O6 0.369373 0.991695 0.276857
O O7 0.356591 0.890645 0.000000
O O8 0.027860 0.918111 0.500000
O O9 0.062549 0.841731 0.786672
O O10 0.000000 0.000000 0.785028
O O11 0.718816 0.893720 0.721724
O O12 0.800524 0.012171 0.735929
O O13 0.785256 0.906493 0.000000
O O14 0.909095 0.237803 0.500000
O O15 0.887796 0.327479 0.227400
O O16 0.827562 0.183607 0.283644
O O17 0.660918 0.926875 0.000000
O O18 0.216040 0.882040 0.000000
#
# Coordination Sequence:
#
# PCOD9425086 Si02
#       7
#     8   8   8   8   8   8   8
#     4  10  18  31  53  79 103 126 164 213 249 285
#     4   8  16  31  53  81 107 130 160 203 250 299
#     4  10  23  41  54  67  96 136 171 205 250 300
#     4   8  15  28  51  82 107 128 158 200 246 295
#     4  11  22  34  49  72 101 132 171 215 251 286
#     4   9  17  33  55  76 103 137 166 195 246 308
#     4   9  16  30  53  78 105 135 163 193 244 307
#
# _framework density 21.627780000000001
#
# number of rings (size 3 to 8) (size 9 to 14) (size 15 to 20)
#    0.000    2.714    0.000    3.857    0.000    3.714 
#    0.000    7.143    0.000    4.286    0.000    0.000 
#    0.000    0.000    0.000    0.000    0.000    0.000 
#
# Total GULP energy -312499.511717 kJ/mol
# GULP energy per Si atom -5580.348424 kJ/mol
# Density = 2.157855 g / cm^3
# Si number density = 21.627780 Si / 1000 Ang^3
#
#
#
# Elastic Constant Matrix: (Units=GPa)
#
#
# Indices 1 2 3 4 5 6 
#
# 1 47.0881 72.2660 -5.3274 0.0000 0.0000 0.0000
# 2 72.2660 189.0586 -6.3037 0.0000 0.0000 0.0000
# 3 -5.3274 -6.3037 40.2659 0.0000 0.0000 0.0000
# 4 0.0000 0.0000 0.0000 18.1999 0.0000 0.0000
# 5 0.0000 0.0000 0.0000 0.0000 15.6857 0.0000
# 6 0.0000 0.0000 0.0000 0.0000 0.0000 33.4859
#
#
#
# Elastic Compliance Matrix: (Units=1/GPa)
#
#
# Indices 1 2 3 4 5 6 
#
# 1 0.051941 -0.019728 0.003784 0.000000 0.000000 0.000000
# 2 -0.019728 0.012810 -0.000605 0.000000 0.000000 0.000000
# 3 0.003784 -0.000605 0.025241 0.000000 0.000000 0.000000
# 4 0.000000 0.000000 0.000000 0.054945 0.000000 0.000000
# 5 0.000000 0.000000 0.000000 0.000000 0.063752 0.000000
# 6 0.000000 0.000000 0.000000 0.000000 0.000000 0.029863
#
#
# Mechanical properties :
#
#
# Convention : Reuss Voigt Hill
#
# Bulk Modulus (GPa) = 17.57646 44.18692 30.88169
# Shear Modulus (GPa) = 17.20484 27.85948 22.53216
#
# Velocity S-wave (km/s) = 2.82352 3.59295 3.23122
# Velocity P-wave (km/s) = 4.33291 6.13901 5.31326
#
# Compressibility (1/GPa) = 0.05689427
#
# Stress axis : x y z
#
# Youngs Moduli (GPa) = 19.25249 78.06378 39.61829
#
# Poissons Ratio (x) = 1.54004 -0.14990
# Poissons Ratio (y) = 0.37981 0.02396
# Poissons Ratio (z) = -0.07284 0.04720
#
# Static dielectric constant tensor:
#      x y z
#    x 1.758790 0.000000 0.000000 
#    y 0.000000 1.808250 0.000000 
#    z 0.000000 0.000000 1.831600 
# 
# From -- ./inp_files/8723.got.cif
#   From: 2010.05.17/outbox.cif.g08.bks.cpg/sg55_5_cif.got.tgz:8723.got - 2010.06.03 13:27:54.
