data_PCOD9425742
_publ_section_title
;
Structure prediction by ZEFSAII (Michael W. Deem and Ramdas Pophale) SiO2 
 PCOD9425742
Probable space group: P B A M
;
_chemical_formula_sum "Si O2"
_cell_formula_units_Z 56
_cell_length_a 19.601626
_cell_length_b 16.694259
_cell_length_c 8.756313
_cell_angle_alpha 90.000000
_cell_angle_beta 90.000000
_cell_angle_gamma 90.000000
_cell_volume 2865.368768
_symmetry_space_group_name_H-M "P B A M"
_symmetry_group_IT_number 55
_symmetry_cell_setting 'orthorhombic'
loop_
_space_group_symop_operation_xyz
x,y,z
-x,-y,z
1/2+x,1/2-y,-z
1/2-x,1/2+y,-z
-x,-y,-z
x,y,-z
1/2-x,1/2+y,z
1/2+x,1/2-y,z
loop_
_atom_site_type_symbol
_atom_site_label
_atom_site_fract_x
_atom_site_fract_y
_atom_site_fract_z
Si Si1 0.763735 0.175477 0.679554
Si Si2 0.665853 0.527345 0.826469
Si Si3 0.118288 0.297426 0.180474
Si Si4 0.899462 0.268445 0.683557
Si Si5 0.524322 0.619208 0.173227
Si Si6 0.611123 0.378358 0.322256
Si Si7 0.501060 0.907346 0.684005
O O1 0.748233 0.183546 0.500000
O O2 0.796271 0.089114 0.716051
O O3 0.695340 0.179684 0.776468
O O4 0.821340 0.242816 0.719050
O O5 0.588495 0.560458 0.829473
O O6 0.662180 0.437569 0.764772
O O7 0.692322 0.531701 0.000000
O O8 0.110307 0.210455 0.255563
O O9 0.062665 0.358381 0.248558
O O10 0.109115 0.292998 0.000000
O O11 0.907432 0.255803 0.500000
O O12 0.945986 0.204714 0.773459
O O13 0.929890 0.356275 0.719233
O O14 0.465961 0.593438 0.288993
O O15 0.496392 0.623194 0.000000
O O16 0.626743 0.378036 0.500000
O O17 0.494566 0.907254 0.500000
O O18 0.500000 0.000000 0.735267
#
# Coordination Sequence:
#
# PCOD9425742 Si02
#       7
#     8   8   8   8   8   8   8
#     4  10  21  40  63  88 121 163 209 256 312 378
#     4  10  21  37  57  86 122 156 196 243 301 367
#     4  12  25  42  63  88 123 166 209 259 318 371
#     4   9  18  35  61  89 118 157 203 249 302 368
#     4  10  19  32  55  86 120 155 188 236 294 353
#     4  12  23  36  57  86 119 157 202 247 298 361
#     4  10  21  40  66  95 125 160 205 262 319 376
#
# _framework density 19.543731999999999
#
# number of rings (size 3 to 8) (size 9 to 14) (size 15 to 20)
#    0.000    1.571    1.429    4.286    0.000    4.286 
#    2.571    0.000    0.000    0.000    0.000    0.000 
#    0.000    0.000    0.000    0.000    0.000    0.000 
#
# Total GULP energy -312660.716409 kJ/mol
# GULP energy per Si atom -5583.227079 kJ/mol
# Density = 1.949925 g / cm^3
# Si number density = 19.543732 Si / 1000 Ang^3
#
#
#
# Elastic Constant Matrix: (Units=GPa)
#
#
# Indices 1 2 3 4 5 6 
#
# 1 59.2901 26.4565 5.1362 0.0000 0.0000 0.0000
# 2 26.4565 132.0436 27.0838 0.0000 0.0000 0.0000
# 3 5.1362 27.0838 52.6951 0.0000 0.0000 0.0000
# 4 0.0000 0.0000 0.0000 23.6711 0.0000 0.0000
# 5 0.0000 0.0000 0.0000 0.0000 26.5326 0.0000
# 6 0.0000 0.0000 0.0000 0.0000 0.0000 6.0360
#
#
#
# Elastic Compliance Matrix: (Units=1/GPa)
#
#
# Indices 1 2 3 4 5 6 
#
# 1 0.018523 -0.003735 0.000114 0.000000 0.000000 0.000000
# 2 -0.003735 0.009219 -0.004374 0.000000 0.000000 0.000000
# 3 0.000114 -0.004374 0.021214 0.000000 0.000000 0.000000
# 4 0.000000 0.000000 0.000000 0.042246 0.000000 0.000000
# 5 0.000000 0.000000 0.000000 0.000000 0.037689 0.000000
# 6 0.000000 0.000000 0.000000 0.000000 0.000000 0.165674
#
#
# Mechanical properties :
#
#
# Convention : Reuss Voigt Hill
#
# Bulk Modulus (GPa) = 30.33402 40.15354 35.24378
# Shear Modulus (GPa) = 15.55004 23.60476 19.57740
#
# Velocity S-wave (km/s) = 2.82379 3.47910 3.16843
# Velocity P-wave (km/s) = 5.11728 6.06044 5.60872
#
# Compressibility (1/GPa) = 0.03296628
#
# Stress axis : x y z
#
# Youngs Moduli (GPa) = 53.98746 108.47463 47.13829
#
# Poissons Ratio (x) = 0.40512 -0.00538
# Poissons Ratio (y) = 0.20163 0.20619
# Poissons Ratio (z) = -0.00616 0.47449
#
# Static dielectric constant tensor:
#      x y z
#    x 1.722670 0.000000 0.000000 
#    y 0.000000 1.710790 0.000000 
#    z 0.000000 0.000000 1.657730 
# 
# From -- ./inp_files/8792.got.cif
#   From: 2010.05.17/outbox.cif.g08.bks.cpg/sg55_5_cif.got.tgz:8792.got - 2010.06.03 13:27:54.
