data_PCOD9425512
_publ_section_title
;
Structure prediction by ZEFSAII (Michael W. Deem and Ramdas Pophale) SiO2 
 PCOD9425512
Probable space group: P B A M
;
_chemical_formula_sum "Si O2"
_cell_formula_units_Z 56
_cell_length_a 14.163873
_cell_length_b 15.908156
_cell_length_c 12.846393
_cell_angle_alpha 90.000000
_cell_angle_beta 90.000000
_cell_angle_gamma 90.000000
_cell_volume 2894.563418
_symmetry_space_group_name_H-M "P B A M"
_symmetry_group_IT_number 55
_symmetry_cell_setting 'orthorhombic'
loop_
_space_group_symop_operation_xyz
x,y,z
-x,-y,z
1/2+x,1/2-y,-z
1/2-x,1/2+y,-z
-x,-y,-z
x,y,-z
1/2-x,1/2+y,z
1/2+x,1/2-y,z
loop_
_atom_site_type_symbol
_atom_site_label
_atom_site_fract_x
_atom_site_fract_y
_atom_site_fract_z
Si Si1 0.224938 0.479854 0.169403
Si Si2 0.566851 0.580075 0.116722
Si Si3 0.605507 0.711207 0.286631
Si Si4 0.026292 0.348981 0.383097
Si Si5 0.968139 0.589834 0.158232
Si Si6 0.235533 0.400406 0.384479
Si Si7 0.154258 0.667242 0.114358
O O1 0.325258 0.452107 0.125633
O O2 0.143298 0.412320 0.139117
O O3 0.228510 0.470397 0.294649
O O4 0.195853 0.573907 0.136154
O O5 0.500000 0.500000 0.132240
O O6 0.553479 0.648869 0.206115
O O7 0.550739 0.613527 0.000000
O O8 0.532339 0.765913 0.353563
O O9 0.674945 0.656707 0.357447
O O10 0.669154 0.770879 0.211136
O O11 0.999770 0.377912 0.500000
O O12 0.009289 0.407088 0.282248
O O13 0.140203 0.344061 0.381782
O O14 0.000000 0.500000 0.117425
O O15 0.039754 0.657268 0.113102
O O16 0.242285 0.436655 0.500000
O O17 0.186286 0.695835 0.000000
#
# Coordination Sequence:
#
# PCOD9425512 Si02
#       7
#     8   8   8   8   8   8   8
#     4   9  18  33  52  74 101 132 170 212 255 307
#     4  10  21  36  53  71  96 137 180 212 245 290
#     4  10  20  34  52  75 104 134 170 212 256 303
#     4   9  17  30  49  72  98 129 164 204 253 302
#     4   8  16  29  46  73 101 128 161 201 251 308
#     4   9  18  34  54  74 101 136 172 213 259 307
#     4  10  19  31  50  77 106 132 163 210 264 314
#
# _framework density 19.346615
#
# number of rings (size 3 to 8) (size 9 to 14) (size 15 to 20)
#    0.000    2.714    0.000    1.286    0.000    4.571 
#    0.000    7.857    0.000   17.571    0.000    0.000 
#    0.000    0.000    0.000    0.000    0.000    0.000 
#
# Total GULP energy -311784.641423 kJ/mol
# GULP energy per Si atom -5567.582883 kJ/mol
# Density = 1.930258 g / cm^3
# Si number density = 19.346615 Si / 1000 Ang^3
#
#
#
# Elastic Constant Matrix: (Units=GPa)
#
#
# Indices 1 2 3 4 5 6 
#
# 1 48.6687 2.5318 9.5945 0.0000 0.0000 0.0000
# 2 2.5318 31.4842 8.9822 0.0000 0.0000 0.0000
# 3 9.5945 8.9822 119.2470 0.0000 0.0000 0.0000
# 4 0.0000 0.0000 0.0000 -5.0734 0.0000 0.0000
# 5 0.0000 0.0000 0.0000 0.0000 7.1975 0.0000
# 6 0.0000 0.0000 0.0000 0.0000 0.0000 20.9996
#
#
#
# Elastic Compliance Matrix: (Units=1/GPa)
#
#
# Indices 1 2 3 4 5 6 
#
# 1 0.020925 -0.001229 -0.001591 0.000000 0.000000 0.000000
# 2 -0.001229 0.032532 -0.002352 0.000000 0.000000 0.000000
# 3 -0.001591 -0.002352 0.008691 0.000000 0.000000 0.000000
# 4 0.000000 0.000000 0.000000 -0.197106 0.000000 0.000000
# 5 0.000000 0.000000 0.000000 0.000000 0.138938 0.000000
# 6 0.000000 0.000000 0.000000 0.000000 0.000000 0.047620
#
#
# Mechanical properties :
#
#
# Convention : Reuss Voigt Hill
#
# Bulk Modulus (GPa) = 19.30325 26.84632 23.07478
# Shear Modulus (GPa) = 63.12327 16.51084 39.81705
#
# Velocity S-wave (km/s) = 5.71825 2.92451 4.54154
# Velocity P-wave (km/s) = 7.32100 5.03093 6.28122
#
# Compressibility (1/GPa) = 0.05180476
#
# Stress axis : x y z
#
# Youngs Moduli (GPa) = 47.79053 30.73928 115.06032
#
# Poissons Ratio (x) = 0.03777 0.18306
# Poissons Ratio (y) = 0.05872 0.27057
# Poissons Ratio (z) = 0.07604 0.07228
#
# Static dielectric constant tensor:
#      x y z
#    x 1.688010 0.000000 0.000000 
#    y 0.000000 1.658950 0.000000 
#    z 0.000000 0.000000 1.726040 
# 
# From -- ./inp_files/14230.got.cif
#   From: 2010.05.17/outbox.cif.g08.bks.cpg/sg55_8_cif.got.tgz:14230.got - 2010.06.03 13:27:54.
