data_PCOD9425590
_publ_section_title
;
Structure prediction by ZEFSAII (Michael W. Deem and Ramdas Pophale) SiO2 
 PCOD9425590
Probable space group: P B A M
;
_chemical_formula_sum "Si O2"
_cell_formula_units_Z 64
_cell_length_a 23.842319
_cell_length_b 19.583436
_cell_length_c 8.854844
_cell_angle_alpha 90.000000
_cell_angle_beta 90.000000
_cell_angle_gamma 90.000000
_cell_volume 4134.455309
_symmetry_space_group_name_H-M "P B A M"
_symmetry_group_IT_number 55
_symmetry_cell_setting 'orthorhombic'
loop_
_space_group_symop_operation_xyz
x,y,z
-x,-y,z
1/2+x,1/2-y,-z
1/2-x,1/2+y,-z
-x,-y,-z
x,y,-z
1/2-x,1/2+y,z
1/2+x,1/2-y,z
loop_
_atom_site_type_symbol
_atom_site_label
_atom_site_fract_x
_atom_site_fract_y
_atom_site_fract_z
Si Si1 0.936515 0.864029 0.181006
Si Si2 0.664492 0.266912 0.818990
Si Si3 0.162843 0.768432 0.318541
Si Si4 0.380519 0.501401 0.680957
Si Si5 0.255914 0.496256 0.181531
Si Si6 0.275212 0.146257 0.180892
Si Si7 0.941653 0.141813 0.318230
Si Si8 0.726796 0.144587 0.319408
O O1 0.893734 0.802933 0.221446
O O2 0.998969 0.850679 0.238375
O O3 0.912984 0.933180 0.255402
O O4 0.935221 0.871718 0.000000
O O5 0.714936 0.319629 0.780516
O O6 0.679174 0.196425 0.737285
O O7 0.666058 0.256566 0.000000
O O8 0.163202 0.764843 0.500000
O O9 0.178068 0.694768 0.252826
O O10 0.104220 0.801757 0.271295
O O11 0.213944 0.819327 0.275198
O O12 0.374934 0.506271 0.500000
O O13 0.319026 0.497216 0.753666
O O14 0.414860 0.432354 0.714948
O O15 0.226540 0.567394 0.227433
O O16 0.225523 0.429367 0.244405
O O17 0.258559 0.494246 0.000000
O O18 0.280602 0.149027 0.000000
O O19 0.948899 0.145771 0.500000
O O20 0.725859 0.138500 0.500000
#
# Coordination Sequence:
#
# PCOD9425590 Si02
#       8
#     8   8   8   8   8   8   8   8
#     4  11  22  35  50  72  99 131 174 210 243 292
#     4   9  18  34  49  68  98 129 162 205 247 287
#     4   9  18  33  49  69  97 127 163 205 244 288
#     4  11  21  34  49  68 100 138 173 208 242 286
#     4  11  20  32  50  74 103 134 164 202 249 297
#     4   9  18  32  49  70  97 126 161 201 245 294
#     4  10  21  36  49  68  99 134 170 206 245 287
#     4  10  19  32  50  74  98 126 166 203 245 299
#
# _framework density 15.479668999999999
#
# number of rings (size 3 to 8) (size 9 to 14) (size 15 to 20)
#    0.000    2.000    2.500    1.875    0.000    5.500 
#    0.000    0.000    0.000    0.000    0.000    0.875 
#    0.000    7.000    0.000    0.000    0.000    0.000 
#
# Total GULP energy -357150.533889 kJ/mol
# GULP energy per Si atom -5580.477092 kJ/mol
# Density = 1.544444 g / cm^3
# Si number density = 15.479669 Si / 1000 Ang^3
#
#
#
# Elastic Constant Matrix: (Units=GPa)
#
#
# Indices 1 2 3 4 5 6 
#
# 1 95.6774 76.0815 39.3634 0.0000 0.0000 0.0000
# 2 76.0815 151.2044 51.7628 0.0000 0.0000 0.0000
# 3 39.3634 51.7628 38.4380 0.0000 0.0000 0.0000
# 4 0.0000 0.0000 0.0000 25.7295 0.0000 0.0000
# 5 0.0000 0.0000 0.0000 0.0000 25.8528 0.0000
# 6 0.0000 0.0000 0.0000 0.0000 0.0000 17.0618
#
#
#
# Elastic Compliance Matrix: (Units=1/GPa)
#
#
# Indices 1 2 3 4 5 6 
#
# 1 0.020477 -0.005797 -0.013163 0.000000 0.000000 0.000000
# 2 -0.005797 0.013912 -0.012797 0.000000 0.000000 0.000000
# 3 -0.013163 -0.012797 0.056730 0.000000 0.000000 0.000000
# 4 0.000000 0.000000 0.000000 0.038866 0.000000 0.000000
# 5 0.000000 0.000000 0.000000 0.000000 0.038681 0.000000
# 6 0.000000 0.000000 0.000000 0.000000 0.000000 0.058610
#
#
# Mechanical properties :
#
#
# Convention : Reuss Voigt Hill
#
# Bulk Modulus (GPa) = 36.22824 68.85948 52.54386
# Shear Modulus (GPa) = 16.66710 21.60296 19.13503
#
# Velocity S-wave (km/s) = 3.28488 3.73979 3.51969
# Velocity P-wave (km/s) = 6.15157 7.95163 7.10881
#
# Compressibility (1/GPa) = 0.02760278
#
# Stress axis : x y z
#
# Youngs Moduli (GPa) = 48.83439 71.88274 17.62745
#
# Poissons Ratio (x) = 0.41672 0.23204
# Poissons Ratio (y) = 0.28311 0.22558
# Poissons Ratio (z) = 0.64283 0.91990
#
# Static dielectric constant tensor:
#      x y z
#    x 1.493220 0.000000 0.000000 
#    y 0.000000 1.510420 0.000000 
#    z 0.000000 0.000000 1.518800 
# 
# From -- ./inp_files/7988.got.cif
#   From: 2010.05.17/outbox.cif.g08.bks.cpg/sg55_4_cif.got.tgz:7988.got - 2010.06.03 13:27:54.
