data_PCOD9425002
_publ_section_title
;
Structure prediction by ZEFSAII (Michael W. Deem and Ramdas Pophale) SiO2 
 PCOD9425002
Probable space group: P B A M
;
_chemical_formula_sum "Si O2"
_cell_formula_units_Z 64
_cell_length_a 19.244376
_cell_length_b 13.202741
_cell_length_c 13.735166
_cell_angle_alpha 90.000000
_cell_angle_beta 90.000000
_cell_angle_gamma 90.000000
_cell_volume 3489.810540
_symmetry_space_group_name_H-M "P B A M"
_symmetry_group_IT_number 55
_symmetry_cell_setting 'orthorhombic'
loop_
_space_group_symop_operation_xyz
x,y,z
-x,-y,z
1/2+x,1/2-y,-z
1/2-x,1/2+y,-z
-x,-y,-z
x,y,-z
1/2-x,1/2+y,z
1/2+x,1/2-y,z
loop_
_atom_site_type_symbol
_atom_site_label
_atom_site_fract_x
_atom_site_fract_y
_atom_site_fract_z
Si Si1 0.192530 0.917533 0.886497
Si Si2 0.222851 0.119260 0.789878
Si Si3 0.134372 0.708720 0.197003
Si Si4 0.987847 0.716381 0.884914
Si Si5 0.475833 0.609870 0.726380
Si Si6 0.838278 0.956871 0.614092
Si Si7 0.389499 0.317873 0.386548
Si Si8 0.836596 0.685276 0.113388
O O1 0.150389 0.821759 0.845271
O O2 0.274674 0.893987 0.872342
O O3 0.181970 0.025592 0.837640
O O4 0.177602 0.924238 0.000000
O O5 0.300614 0.138154 0.828633
O O6 0.223663 0.090991 0.676327
O O7 0.182904 0.221960 0.816479
O O8 0.060628 0.673218 0.155088
O O9 0.132970 0.730163 0.312537
O O10 0.974238 0.814625 0.817438
O O11 0.916412 0.652684 0.872920
O O12 0.995349 0.738644 0.000000
O O13 0.500000 0.500000 0.762073
O O14 0.406067 0.592424 0.664839
O O15 0.534126 0.650162 0.651230
O O16 0.836311 0.935036 0.500000
O O17 0.844177 0.078913 0.625510
O O18 0.389393 0.291050 0.500000
O O19 0.830631 0.719992 0.000000
#
# Coordination Sequence:
#
# PCOD9425002 Si02
#       8
#     8   8   8   8   8   8   8   8
#     4  10  20  35  52  73 104 139 170 204 254 310
#     4  11  20  34  52  75 101 136 173 212 258 309
#     4  10  21  34  51  75 105 132 172 217 259 303
#     4  10  19  32  50  74 104 136 172 214 254 300
#     4   9  17  29  45  73 106 136 165 204 255 311
#     4  10  18  30  49  74 103 133 170 211 255 310
#     4   9  17  31  50  71 101 135 165 205 258 308
#     4   9  19  34  53  75 102 135 170 208 249 303
#
# _framework density 18.339105
#
# number of rings (size 3 to 8) (size 9 to 14) (size 15 to 20)
#    0.000    2.250    2.500    1.125    0.000    3.750 
#    0.000    0.625    0.000    2.250    0.000    0.000 
#    0.000    3.250    0.000    0.000    0.000    0.000 
#
# Total GULP energy -356632.549331 kJ/mol
# GULP energy per Si atom -5572.383583 kJ/mol
# Density = 1.829736 g / cm^3
# Si number density = 18.339105 Si / 1000 Ang^3
#
#
#
# Elastic Constant Matrix: (Units=GPa)
#
#
# Indices 1 2 3 4 5 6 
#
# 1 70.9462 -14.4052 3.1386 0.0000 0.0000 0.0000
# 2 -14.4052 12.6102 9.7917 0.0000 0.0000 0.0000
# 3 3.1386 9.7917 83.2177 0.0000 0.0000 0.0000
# 4 0.0000 0.0000 0.0000 12.0392 0.0000 0.0000
# 5 0.0000 0.0000 0.0000 0.0000 18.5224 0.0000
# 6 0.0000 0.0000 0.0000 0.0000 0.0000 13.2852
#
#
#
# Elastic Compliance Matrix: (Units=1/GPa)
#
#
# Indices 1 2 3 4 5 6 
#
# 1 0.019314 0.024904 -0.003659 0.000000 0.000000 0.000000
# 2 0.024904 0.119386 -0.014987 0.000000 0.000000 0.000000
# 3 -0.003659 -0.014987 0.013918 0.000000 0.000000 0.000000
# 4 0.000000 0.000000 0.000000 0.083062 0.000000 0.000000
# 5 0.000000 0.000000 0.000000 0.000000 0.053989 0.000000
# 6 0.000000 0.000000 0.000000 0.000000 0.000000 0.075272
#
#
# Mechanical properties :
#
#
# Convention : Reuss Voigt Hill
#
# Bulk Modulus (GPa) = 6.05567 18.20269 12.12918
# Shear Modulus (GPa) = 12.27088 19.98595 16.12842
#
# Velocity S-wave (km/s) = 2.58952 3.30479 2.96878
# Velocity P-wave (km/s) = 3.50001 4.95069 4.28716
#
# Compressibility (1/GPa) = 0.16513454
#
# Stress axis : x y z
#
# Youngs Moduli (GPa) = 51.77707 8.37617 71.84917
#
# Poissons Ratio (x) = -0.20860 0.26287
# Poissons Ratio (y) = -1.28944 1.07678
# Poissons Ratio (z) = 0.18943 0.12553
#
# Static dielectric constant tensor:
#      x y z
#    x 1.687050 0.000000 0.000000 
#    y 0.000000 1.618220 0.000000 
#    z 0.000000 0.000000 1.635120 
# 
# From -- ./inp_files/19575.got.cif
#   From: 2010.05.17/outbox.cif.g08.bks.cpg/sg55_10_cif.got.tgz:19575.got - 2010.06.03 13:27:54.
