data_PCOD9425323
_publ_section_title
;
Structure prediction by ZEFSAII (Michael W. Deem and Ramdas Pophale) SiO2 
 PCOD9425323
Probable space group: P B A M
;
_chemical_formula_sum "Si O2"
_cell_formula_units_Z 64
_cell_length_a 16.573340
_cell_length_b 13.722203
_cell_length_c 14.777599
_cell_angle_alpha 90.000000
_cell_angle_beta 90.000000
_cell_angle_gamma 90.000000
_cell_volume 3360.761994
_symmetry_space_group_name_H-M "P B A M"
_symmetry_group_IT_number 55
_symmetry_cell_setting 'orthorhombic'
loop_
_space_group_symop_operation_xyz
x,y,z
-x,-y,z
1/2+x,1/2-y,-z
1/2-x,1/2+y,-z
-x,-y,-z
x,y,-z
1/2-x,1/2+y,z
1/2+x,1/2-y,z
loop_
_atom_site_type_symbol
_atom_site_label
_atom_site_fract_x
_atom_site_fract_y
_atom_site_fract_z
Si Si1 0.367694 0.257935 0.894270
Si Si2 0.805654 0.633645 0.103678
Si Si3 0.357901 0.709379 0.232643
Si Si4 0.023485 0.897917 0.772395
Si Si5 0.230946 0.290282 0.599105
Si Si6 0.866005 0.046460 0.397960
Si Si7 0.798513 0.426815 0.797497
Si Si8 0.780236 0.421577 0.400964
O O1 0.281381 0.313217 0.891902
O O2 0.426109 0.326929 0.836633
O O3 0.355148 0.153675 0.845116
O O4 0.390480 0.246730 0.000000
O O5 0.863687 0.710681 0.153203
O O6 0.797745 0.528223 0.149755
O O7 0.829027 0.620605 0.000000
O O8 0.441259 0.656669 0.251623
O O9 0.327614 0.771738 0.318237
O O10 0.288838 0.628709 0.207683
O O11 0.073384 0.929398 0.682504
O O12 0.000000 0.000000 0.819388
O O13 0.191938 0.297245 0.500000
O O14 0.290252 0.380272 0.612164
O O15 0.287154 0.194593 0.597902
O O16 0.899910 0.057095 0.500000
O O17 0.816266 0.945235 0.394201
O O18 0.819926 0.452044 0.693025
O O19 0.806599 0.459437 0.500000
#
# Coordination Sequence:
#
# PCOD9425323 Si02
#       8
#     8   8   8   8   8   8   8   8
#     4  10  22  38  56  80 108 142 189 236 280 336
#     4  10  20  36  58  80 102 135 185 240 283 320
#     4  10  21  33  53  83 112 140 181 231 273 328
#     4  12  23  36  54  79 115 152 178 219 285 343
#     4   9  17  32  53  76 106 144 183 221 259 304
#     4  10  20  34  54  82 116 151 185 220 265 326
#     4  10  18  36  60  79 106 143 186 229 274 326
#     4   9  16  27  49  80 108 135 172 216 257 307
#
# _framework density 19.043301
#
# number of rings (size 3 to 8) (size 9 to 14) (size 15 to 20)
#    0.000    2.000    0.000    6.375    0.000    2.000 
#    0.000    0.625    0.000    1.500    0.000    0.000 
#    0.000   20.000    0.000    0.000    0.000    0.000 
#
# Total GULP energy -356795.321640 kJ/mol
# GULP energy per Si atom -5574.926901 kJ/mol
# Density = 1.899996 g / cm^3
# Si number density = 19.043301 Si / 1000 Ang^3
#
#
#
# Elastic Constant Matrix: (Units=GPa)
#
#
# Indices 1 2 3 4 5 6 
#
# 1 24.8139 6.0676 12.3428 0.0000 0.0000 0.0000
# 2 6.0676 97.2065 45.1765 0.0000 0.0000 0.0000
# 3 12.3428 45.1765 144.0584 0.0000 0.0000 0.0000
# 4 0.0000 0.0000 0.0000 29.9775 0.0000 0.0000
# 5 0.0000 0.0000 0.0000 0.0000 14.2204 0.0000
# 6 0.0000 0.0000 0.0000 0.0000 0.0000 25.9021
#
#
#
# Elastic Compliance Matrix: (Units=1/GPa)
#
#
# Indices 1 2 3 4 5 6 
#
# 1 0.042197 -0.001116 -0.003265 0.000000 0.000000 0.000000
# 2 -0.001116 0.012072 -0.003690 0.000000 0.000000 0.000000
# 3 -0.003265 -0.003690 0.008379 0.000000 0.000000 0.000000
# 4 0.000000 0.000000 0.000000 0.033358 0.000000 0.000000
# 5 0.000000 0.000000 0.000000 0.000000 0.070321 0.000000
# 6 0.000000 0.000000 0.000000 0.000000 0.000000 0.038607
#
#
# Mechanical properties :
#
#
# Convention : Reuss Voigt Hill
#
# Bulk Modulus (GPa) = 21.50346 43.69474 32.59910
# Shear Modulus (GPa) = 21.13456 27.51948 24.32702
#
# Velocity S-wave (km/s) = 3.33500 3.80557 3.57803
# Velocity P-wave (km/s) = 5.11332 6.50420 5.85024
#
# Compressibility (1/GPa) = 0.04650414
#
# Stress axis : x y z
#
# Youngs Moduli (GPa) = 23.69828 82.83600 119.35141
#
# Poissons Ratio (x) = 0.09248 0.38972
# Poissons Ratio (y) = 0.02646 0.44042
# Poissons Ratio (z) = 0.07738 0.30568
#
# Static dielectric constant tensor:
#      x y z
#    x 1.635850 0.000000 0.000000 
#    y 0.000000 1.669550 0.000000 
#    z 0.000000 0.000000 1.717040 
# 
# From -- ./inp_files/19580.got.cif
#   From: 2010.05.17/outbox.cif.g08.bks.cpg/sg55_10_cif.got.tgz:19580.got - 2010.06.03 13:27:54.
