data_PCOD9425526
_publ_section_title
;
Structure prediction by ZEFSAII (Michael W. Deem and Ramdas Pophale) SiO2 
 PCOD9425526
Probable space group: P B A M
;
_chemical_formula_sum "Si O2"
_cell_formula_units_Z 64
_cell_length_a 15.115700
_cell_length_b 21.481115
_cell_length_c 7.638448
_cell_angle_alpha 90.000000
_cell_angle_beta 90.000000
_cell_angle_gamma 90.000000
_cell_volume 2480.220030
_symmetry_space_group_name_H-M "P B A M"
_symmetry_group_IT_number 55
_symmetry_cell_setting 'orthorhombic'
loop_
_space_group_symop_operation_xyz
x,y,z
-x,-y,z
1/2+x,1/2-y,-z
1/2-x,1/2+y,-z
-x,-y,-z
x,y,-z
1/2-x,1/2+y,z
1/2+x,1/2-y,z
loop_
_atom_site_type_symbol
_atom_site_label
_atom_site_fract_x
_atom_site_fract_y
_atom_site_fract_z
Si Si1 0.578357 0.774644 0.199955
Si Si2 0.814892 0.154796 0.709627
Si Si3 0.529666 0.568474 0.710660
Si Si4 0.362501 0.896514 0.793921
Si Si5 0.742336 0.850901 0.216170
Si Si6 0.076570 0.194923 0.209340
Si Si7 0.718381 0.978291 0.192811
Si Si8 0.955294 0.432169 0.304885
O O1 0.636821 0.711844 0.198925
O O2 0.647631 0.823993 0.278854
O O3 0.487956 0.748497 0.282568
O O4 0.560588 0.795216 0.000000
O O5 0.822008 0.161620 0.500000
O O6 0.871079 0.092378 0.759795
O O7 0.712613 0.153527 0.762923
O O8 0.500000 0.500000 0.776784
O O9 0.528531 0.565019 0.500000
O O10 0.467855 0.626891 0.762457
O O11 0.461392 0.887416 0.725275
O O12 0.313629 0.958620 0.716890
O O13 0.373699 0.908328 0.000000
O O14 0.823233 0.807376 0.273878
O O15 0.770501 0.921056 0.276009
O O16 0.743223 0.850504 0.000000
O O17 0.078114 0.204982 0.000000
O O18 0.625730 0.940166 0.176440
O O19 0.754340 0.992374 0.000000
O O20 0.920716 0.425775 0.500000
O O21 0.000000 0.500000 0.292693
#
# Coordination Sequence:
#
# PCOD9425526 Si02
#       8
#     8   8   8   8   8   8   8   8
#     4   9  18  36  56  75 103 138 181 223 266 321
#     4  10  20  34  52  74 105 139 174 220 268 319
#     4   9  19  34  51  75 108 143 174 211 266 329
#     4  10  19  31  51  77 106 139 178 217 264 323
#     4   9  18  34  55  80 110 139 178 230 274 317
#     4   9  18  33  55  79 104 139 179 224 272 316
#     4   9  18  32  50  75 107 139 174 221 271 318
#     4   9  17  31  49  70 102 140 173 211 260 312
#
# _framework density 25.80416
#
# number of rings (size 3 to 8) (size 9 to 14) (size 15 to 20)
#    0.000    2.750    0.000    1.125    1.750    2.750 
#    2.250    1.875    0.000    0.000    0.000    0.000 
#    0.000    0.000    0.000    0.000    0.000    0.000 
#
# Total GULP energy -357076.972290 kJ/mol
# GULP energy per Si atom -5579.327692 kJ/mol
# Density = 2.574543 g / cm^3
# Si number density = 25.804160 Si / 1000 Ang^3
#
#
#
# Elastic Constant Matrix: (Units=GPa)
#
#
# Indices 1 2 3 4 5 6 
#
# 1 49.5506 -29.6577 -3.7541 0.0000 0.0000 0.0000
# 2 -29.6577 86.7818 -7.5793 0.0000 0.0000 0.0000
# 3 -3.7541 -7.5793 68.6587 0.0000 0.0000 0.0000
# 4 0.0000 0.0000 0.0000 -6.9340 0.0000 0.0000
# 5 0.0000 0.0000 0.0000 0.0000 8.0153 0.0000
# 6 0.0000 0.0000 0.0000 0.0000 0.0000 25.9276
#
#
#
# Elastic Compliance Matrix: (Units=1/GPa)
#
#
# Indices 1 2 3 4 5 6 
#
# 1 0.025758 0.009013 0.002403 0.000000 0.000000 0.000000
# 2 0.009013 0.014789 0.002125 0.000000 0.000000 0.000000
# 3 0.002403 0.002125 0.014931 0.000000 0.000000 0.000000
# 4 0.000000 0.000000 0.000000 -0.144218 0.000000 0.000000
# 5 0.000000 0.000000 0.000000 0.000000 0.124761 0.000000
# 6 0.000000 0.000000 0.000000 0.000000 0.000000 0.038569
#
#
# Mechanical properties :
#
#
# Convention : Reuss Voigt Hill
#
# Bulk Modulus (GPa) = 12.11240 13.66767 12.89004
# Shear Modulus (GPa) = 66.64234 21.80061 44.22147
#
# Velocity S-wave (km/s) = 5.08746 2.90978 4.14422
# Velocity P-wave (km/s) = 6.26210 4.07398 5.28257
#
# Compressibility (1/GPa) = 0.08256000
#
# Stress axis : x y z
#
# Youngs Moduli (GPa) = 38.82317 67.61852 66.97559
#
# Poissons Ratio (x) = -0.60942 -0.16096
# Poissons Ratio (y) = -0.34990 -0.14235
# Poissons Ratio (z) = -0.09330 -0.14371
#
# Static dielectric constant tensor:
#      x y z
#    x 2.075750 0.000000 0.000000 
#    y 0.000000 2.195080 0.000000 
#    z 0.000000 0.000000 1.951900 
# 
# From -- ./inp_files/6568.got.cif
#   From: 2010.05.17/outbox.cif.g08.bks.cpg/sg55_4_cif.got.tgz:6568.got - 2010.06.03 13:27:54.
