data_PCOD9425263
_publ_section_title
;
Structure prediction by ZEFSAII (Michael W. Deem and Ramdas Pophale) SiO2 
 PCOD9425263
Probable space group: P B A M
;
_chemical_formula_sum "Si O2"
_cell_formula_units_Z 58
_cell_length_a 26.079555
_cell_length_b 9.894586
_cell_length_c 13.714831
_cell_angle_alpha 90.000000
_cell_angle_beta 90.000000
_cell_angle_gamma 90.000000
_cell_volume 3539.062763
_symmetry_space_group_name_H-M "P B A M"
_symmetry_group_IT_number 55
_symmetry_cell_setting 'orthorhombic'
loop_
_space_group_symop_operation_xyz
x,y,z
-x,-y,z
1/2+x,1/2-y,-z
1/2-x,1/2+y,-z
-x,-y,-z
x,y,-z
1/2-x,1/2+y,z
1/2+x,1/2-y,z
loop_
_atom_site_type_symbol
_atom_site_label
_atom_site_fract_x
_atom_site_fract_y
_atom_site_fract_z
Si Si1 0.915516 0.169546 0.106493
Si Si2 0.628588 0.987152 0.386538
Si Si3 0.667092 0.290589 0.615215
Si Si4 0.462058 0.120386 0.749819
Si Si5 0.971696 0.141928 0.614066
Si Si6 0.713181 0.760073 0.614776
Si Si7 0.000000 0.000000 0.000000
Si Si8 0.635269 0.561836 0.705044
O O1 0.937381 0.303285 0.158245
O O2 0.878958 0.097071 0.184213
O O3 0.891765 0.197653 0.000000
O O4 0.963410 0.072144 0.083185
O O5 0.613389 0.969048 0.500000
O O6 0.643011 0.143018 0.371387
O O7 0.583483 0.938903 0.316703
O O8 0.678588 0.893448 0.370447
O O9 0.661879 0.326924 0.500000
O O10 0.727573 0.283500 0.638309
O O11 0.641018 0.405328 0.679740
O O12 0.489250 0.236079 0.683546
O O13 0.500000 0.000000 0.776469
O O14 0.978218 0.174320 0.500000
O O15 0.911825 0.120276 0.640386
O O16 0.000000 0.000000 0.633568
O O17 0.710882 0.724690 0.500000
O O18 0.686429 0.640079 0.673569
#
# Coordination Sequence:
#
# PCOD9425263 Si02
#       8
#     8   8   8   8   8   8   2   8
#     4   9  21  39  62  79 103 132 183 242 293 336
#     4  10  20  34  49  78 121 154 180 217 268 329
#     4  10  21  32  53  87 120 152 189 227 260 317
#     4  11  23  35  55  79 111 147 180 222 286 344
#     4  10  21  33  49  76 111 151 192 228 269 332
#     4  10  18  34  55  81 117 156 190 224 267 320
#     4   8  20  40  62  84  98 132 182 244 300 344
#     4  11  20  34  59  81 106 148 195 232 276 333
#
# _framework density 16.388521000000001
#
# number of rings (size 3 to 8) (size 9 to 14) (size 15 to 20)
#    0.414    1.517    2.759    2.483    5.793    3.586 
#    0.000    0.000    0.000    0.828    0.000    0.000 
#    0.000    0.000    0.000    0.000    0.000    0.000 
#
# Total GULP energy -323007.104879 kJ/mol
# GULP energy per Si atom -5569.088015 kJ/mol
# Density = 1.635122 g / cm^3
# Si number density = 16.388521 Si / 1000 Ang^3
#
#
#
# Elastic Constant Matrix: (Units=GPa)
#
#
# Indices 1 2 3 4 5 6 
#
# 1 44.4154 22.5844 21.8125 0.0000 0.0000 0.0000
# 2 22.5844 83.6304 41.5325 0.0000 0.0000 0.0000
# 3 21.8125 41.5325 75.8930 0.0000 0.0000 0.0000
# 4 0.0000 0.0000 0.0000 13.6317 0.0000 0.0000
# 5 0.0000 0.0000 0.0000 0.0000 7.9505 0.0000
# 6 0.0000 0.0000 0.0000 0.0000 0.0000 25.6194
#
#
#
# Elastic Compliance Matrix: (Units=1/GPa)
#
#
# Indices 1 2 3 4 5 6 
#
# 1 0.027560 -0.004818 -0.005284 0.000000 0.000000 0.000000
# 2 -0.004818 0.017262 -0.008062 0.000000 0.000000 0.000000
# 3 -0.005284 -0.008062 0.019107 0.000000 0.000000 0.000000
# 4 0.000000 0.000000 0.000000 0.073358 0.000000 0.000000
# 5 0.000000 0.000000 0.000000 0.000000 0.125778 0.000000
# 6 0.000000 0.000000 0.000000 0.000000 0.000000 0.039033
#
#
# Mechanical properties :
#
#
# Convention : Reuss Voigt Hill
#
# Bulk Modulus (GPa) = 36.23148 41.75528 38.99338
# Shear Modulus (GPa) = 14.38322 17.30761 15.84542
#
# Velocity S-wave (km/s) = 2.96571 3.25327 3.11281
# Velocity P-wave (km/s) = 5.82092 6.29645 6.06335
#
# Compressibility (1/GPa) = 0.02760031
#
# Stress axis : x y z
#
# Youngs Moduli (GPa) = 36.28469 57.92971 52.33652
#
# Poissons Ratio (x) = 0.27912 0.27656
# Poissons Ratio (y) = 0.17483 0.42194
# Poissons Ratio (z) = 0.19174 0.46703
#
# Static dielectric constant tensor:
#      x y z
#    x 1.551580 0.000000 0.000000 
#    y 0.000000 1.568370 0.000000 
#    z 0.000000 0.000000 1.546450 
# 
# From -- ./inp_files/17782.got.cif
#   From: 2010.05.17/outbox.cif.g08.bks.cpg/sg55_9_cif.got.tgz:17782.got - 2010.06.03 13:27:54.
