data_PCOD9425083
_publ_section_title
;
Structure prediction by ZEFSAII (Michael W. Deem and Ramdas Pophale) SiO2 
 PCOD9425083
Probable space group: P B A M
;
_chemical_formula_sum "Si O2"
_cell_formula_units_Z 56
_cell_length_a 18.039112
_cell_length_b 19.624291
_cell_length_c 8.802177
_cell_angle_alpha 90.000000
_cell_angle_beta 90.000000
_cell_angle_gamma 90.000000
_cell_volume 3116.012761
_symmetry_space_group_name_H-M "P B A M"
_symmetry_group_IT_number 55
_symmetry_cell_setting 'orthorhombic'
loop_
_space_group_symop_operation_xyz
x,y,z
-x,-y,z
1/2+x,1/2-y,-z
1/2-x,1/2+y,-z
-x,-y,-z
x,y,-z
1/2-x,1/2+y,z
1/2+x,1/2-y,z
loop_
_atom_site_type_symbol
_atom_site_label
_atom_site_fract_x
_atom_site_fract_y
_atom_site_fract_z
Si Si1 0.342300 0.246031 0.680345
Si Si2 0.304770 0.383751 0.817872
Si Si3 0.167723 0.462102 0.320087
Si Si4 0.028778 0.927749 0.183933
Si Si5 0.874586 0.393224 0.180190
Si Si6 0.950514 0.637980 0.179445
Si Si7 0.002285 0.218370 0.183134
O O1 0.335205 0.244708 0.500000
O O2 0.295304 0.307805 0.750760
O O3 0.331301 0.171218 0.750000
O O4 0.426301 0.264696 0.730455
O O5 0.241667 0.432867 0.756463
O O6 0.386310 0.411648 0.772352
O O7 0.302711 0.379846 0.000000
O O8 0.176258 0.464873 0.500000
O O9 0.148465 0.536307 0.255639
O O10 0.101979 0.410310 0.275084
O O11 0.980647 0.860133 0.221695
O O12 0.028379 0.931888 0.000000
O O13 0.000000 0.000000 0.243661
O O14 0.963024 0.381178 0.203347
O O15 0.862298 0.395588 0.000000
O O16 0.943330 0.718709 0.215503
O O17 0.934279 0.628155 0.000000
O O18 0.987422 0.221742 0.000000
#
# Coordination Sequence:
#
# PCOD9425083 Si02
#       7
#     8   8   8   8   8   8   8
#     4  10  18  31  53  78 102 128 166 215 260 305
#     4  10  20  36  55  74 103 143 181 215 262 326
#     4  12  24  35  50  76 110 142 176 223 274 318
#     4   8  14  28  54  83 103 125 168 223 267 305
#     4  10  20  36  57  79 104 138 179 217 260 320
#     4   9  18  33  52  74 103 140 181 220 261 320
#     4   8  15  29  50  75 102 133 168 206 253 314
#
# _framework density 17.971685000000001
#
# number of rings (size 3 to 8) (size 9 to 14) (size 15 to 20)
#    0.000    2.429    0.000    5.571    0.000    4.571 
#    0.000    1.429    0.000   14.143    0.000    0.000 
#    0.000    0.000    0.000    0.000    0.000    0.000 
#
# Total GULP energy -312183.496902 kJ/mol
# GULP energy per Si atom -5574.705302 kJ/mol
# Density = 1.793078 g / cm^3
# Si number density = 17.971685 Si / 1000 Ang^3
#
#
#
# Elastic Constant Matrix: (Units=GPa)
#
#
# Indices 1 2 3 4 5 6 
#
# 1 31.1234 44.7343 26.4369 0.0000 0.0000 0.0000
# 2 44.7343 179.8073 55.1468 0.0000 0.0000 0.0000
# 3 26.4369 55.1468 71.7434 0.0000 0.0000 0.0000
# 4 0.0000 0.0000 0.0000 11.8661 0.0000 0.0000
# 5 0.0000 0.0000 0.0000 0.0000 12.8503 0.0000
# 6 0.0000 0.0000 0.0000 0.0000 0.0000 8.4459
#
#
#
# Elastic Compliance Matrix: (Units=1/GPa)
#
#
# Indices 1 2 3 4 5 6 
#
# 1 0.058670 -0.010423 -0.013608 0.000000 0.000000 0.000000
# 2 -0.010423 0.009129 -0.003176 0.000000 0.000000 0.000000
# 3 -0.013608 -0.003176 0.021394 0.000000 0.000000 0.000000
# 4 0.000000 0.000000 0.000000 0.084274 0.000000 0.000000
# 5 0.000000 0.000000 0.000000 0.000000 0.077819 0.000000
# 6 0.000000 0.000000 0.000000 0.000000 0.000000 0.118401
#
#
# Mechanical properties :
#
#
# Convention : Reuss Voigt Hill
#
# Bulk Modulus (GPa) = 28.75261 59.47890 44.11575
# Shear Modulus (GPa) = 11.47595 17.05620 14.26607
#
# Velocity S-wave (km/s) = 2.52971 3.08402 2.82052
# Velocity P-wave (km/s) = 4.95643 6.77121 5.93361
#
# Compressibility (1/GPa) = 0.03477945
#
# Stress axis : x y z
#
# Youngs Moduli (GPa) = 17.04447 109.54330 46.74145
#
# Poissons Ratio (x) = 1.14178 0.63604
# Poissons Ratio (y) = 0.17766 0.14846
# Poissons Ratio (z) = 0.23193 0.34793
#
# Static dielectric constant tensor:
#      x y z
#    x 1.606540 0.000000 0.000000 
#    y 0.000000 1.650890 0.000000 
#    z 0.000000 0.000000 1.591720 
# 
# From -- ./inp_files/7808.got.cif
#   From: 2010.05.17/outbox.cif.g08.bks.cpg/sg55_4_cif.got.tgz:7808.got - 2010.06.03 13:27:54.
