data_PCOD9425161
_publ_section_title
;
Structure prediction by ZEFSAII (Michael W. Deem and Ramdas Pophale) SiO2 
 PCOD9425161
Probable space group: P B A M
;
_chemical_formula_sum "Si O2"
_cell_formula_units_Z 56
_cell_length_a 19.912889
_cell_length_b 14.329705
_cell_length_c 7.361977
_cell_angle_alpha 90.000000
_cell_angle_beta 90.000000
_cell_angle_gamma 90.000000
_cell_volume 2100.709401
_symmetry_space_group_name_H-M "P B A M"
_symmetry_group_IT_number 55
_symmetry_cell_setting 'orthorhombic'
loop_
_space_group_symop_operation_xyz
x,y,z
-x,-y,z
1/2+x,1/2-y,-z
1/2-x,1/2+y,-z
-x,-y,-z
x,y,-z
1/2-x,1/2+y,z
1/2+x,1/2-y,z
loop_
_atom_site_type_symbol
_atom_site_label
_atom_site_fract_x
_atom_site_fract_y
_atom_site_fract_z
Si Si1 0.069464 0.606177 0.791270
Si Si2 0.301092 0.227417 0.290177
Si Si3 0.493427 0.721927 0.221526
Si Si4 0.431322 0.453932 0.221567
Si Si5 0.143365 0.433790 0.222474
Si Si6 0.848630 0.784008 0.217969
Si Si7 0.288704 0.445468 0.791576
O O1 0.140457 0.663198 0.791554
O O2 0.014019 0.675815 0.712333
O O3 0.086898 0.505157 0.713384
O O4 0.049051 0.591430 0.000000
O O5 0.317699 0.239448 0.500000
O O6 0.225216 0.185851 0.279084
O O7 0.294908 0.331810 0.207222
O O8 0.554406 0.653814 0.266493
O O9 0.421708 0.679395 0.277752
O O10 0.490737 0.725640 0.000000
O O11 0.500000 0.500000 0.283503
O O12 0.358158 0.482329 0.288719
O O13 0.429501 0.463439 0.000000
O O14 0.141701 0.325319 0.269041
O O15 0.216507 0.468085 0.288039
O O16 0.142771 0.436167 0.000000
O O17 0.846277 0.792278 0.000000
O O18 0.286555 0.477643 0.000000
#
# Coordination Sequence:
#
# PCOD9425161 Si02
#       7
#     8   8   8   8   8   8   8
#     4  10  18  32  53  78 105 133 171 212 260 315
#     4  11  21  33  51  74  99 138 181 215 256 302
#     4   9  17  29  50  77 103 136 168 207 260 309
#     4   9  16  26  46  77 107 131 163 207 254 306
#     4   8  16  28  49  78 101 130 166 211 259 304
#     4   9  18  34  53  75 103 133 171 215 264 313
#     4   9  16  32  53  74 102 133 168 212 261 307
#
# _framework density 26.657662999999999
#
# number of rings (size 3 to 8) (size 9 to 14) (size 15 to 20)
#    0.000    2.714    1.429    2.143    0.000    1.714 
#    0.000   10.714    0.000    0.429    0.000    5.000 
#    0.000    0.000    0.000    0.000    0.000    0.000 
#
# Total GULP energy -312970.755210 kJ/mol
# GULP energy per Si atom -5588.763486 kJ/mol
# Density = 2.659699 g / cm^3
# Si number density = 26.657663 Si / 1000 Ang^3
#
#
#
# Elastic Constant Matrix: (Units=GPa)
#
#
# Indices 1 2 3 4 5 6 
#
# 1 141.9788 4.3190 -2.2085 0.0000 0.0000 0.0000
# 2 4.3190 61.5673 -6.2071 0.0000 0.0000 0.0000
# 3 -2.2085 -6.2071 110.1370 0.0000 0.0000 0.0000
# 4 0.0000 0.0000 0.0000 -263.4596 0.0000 0.0000
# 5 0.0000 0.0000 0.0000 0.0000 -1.4465 0.0000
# 6 0.0000 0.0000 0.0000 0.0000 0.0000 55.5653
#
#
#
# Elastic Compliance Matrix: (Units=1/GPa)
#
#
# Indices 1 2 3 4 5 6 
#
# 1 0.007060 -0.000484 0.000114 0.000000 0.000000 0.000000
# 2 -0.000484 0.016368 0.000913 0.000000 0.000000 0.000000
# 3 0.000114 0.000913 0.009133 0.000000 0.000000 0.000000
# 4 0.000000 0.000000 0.000000 -0.003796 0.000000 0.000000
# 5 0.000000 0.000000 0.000000 0.000000 -0.691341 0.000000
# 6 0.000000 0.000000 0.000000 0.000000 0.000000 0.017997
#
#
# Mechanical properties :
#
#
# Convention : Reuss Voigt Hill
#
# Bulk Modulus (GPa) = 29.71925 33.94331 31.83128
# Shear Modulus (GPa) = -7.88085 -20.68284 -14.28185
#
# Velocity S-wave (km/s) = -1.72126 -2.78846 -2.31714
# Velocity P-wave (km/s) = 2.68745 1.54703 2.19268
#
# Compressibility (1/GPa) = 0.03364822
#
# Stress axis : x y z
#
# Youngs Moduli (GPa) = 141.64708 61.09349 109.48900
#
# Poissons Ratio (x) = 0.02955 -0.01252
# Poissons Ratio (y) = 0.06852 -0.09994
# Poissons Ratio (z) = -0.01619 -0.05577
#
# Static dielectric constant tensor:
#      x y z
#    x 2.060150 0.000000 0.000000 
#    y 0.000000 2.142060 0.000000 
#    z 0.000000 0.000000 2.077990 
# 
# From -- ./inp_files/7883.got.cif
#   From: 2010.05.17/outbox.cif.g08.bks.cpg/sg55_4_cif.got.tgz:7883.got - 2010.06.03 13:27:54.
