data_PCOD9425602
_publ_section_title
;
Structure prediction by ZEFSAII (Michael W. Deem and Ramdas Pophale) SiO2 
 PCOD9425602
Probable space group: P B A M
;
_chemical_formula_sum "Si O2"
_cell_formula_units_Z 64
_cell_length_a 21.404622
_cell_length_b 20.241496
_cell_length_c 7.855170
_cell_angle_alpha 90.000000
_cell_angle_beta 90.000000
_cell_angle_gamma 90.000000
_cell_volume 3403.343291
_symmetry_space_group_name_H-M "P B A M"
_symmetry_group_IT_number 55
_symmetry_cell_setting 'orthorhombic'
loop_
_space_group_symop_operation_xyz
x,y,z
-x,-y,z
1/2+x,1/2-y,-z
1/2-x,1/2+y,-z
-x,-y,-z
x,y,-z
1/2-x,1/2+y,z
1/2+x,1/2-y,z
loop_
_atom_site_type_symbol
_atom_site_label
_atom_site_fract_x
_atom_site_fract_y
_atom_site_fract_z
Si Si1 0.801251 0.717927 0.199863
Si Si2 0.388808 0.567174 0.201770
Si Si3 0.739331 0.077977 0.296354
Si Si4 0.073802 0.209998 0.208811
Si Si5 0.680613 0.798731 0.301902
Si Si6 0.438031 0.284761 0.797495
Si Si7 0.743346 0.930989 0.707103
Si Si8 0.114622 0.922177 0.794652
O O1 0.798513 0.639366 0.223327
O O2 0.865242 0.750007 0.266639
O O3 0.740081 0.750357 0.282844
O O4 0.796137 0.733266 0.000000
O O5 0.420749 0.633690 0.266401
O O6 0.314412 0.575839 0.228678
O O7 0.405722 0.494518 0.271216
O O8 0.401568 0.565224 0.000000
O O9 0.735964 0.081492 0.500000
O O10 0.811847 0.085357 0.243721
O O11 0.720208 0.003968 0.242532
O O12 0.006396 0.236717 0.264348
O O13 0.076424 0.210978 0.000000
O O14 0.668001 0.808386 0.500000
O O15 0.619060 0.764813 0.229249
O O16 0.702145 0.869702 0.230579
O O17 0.419848 0.357279 0.727629
O O18 0.444041 0.293134 0.000000
O O19 0.746156 0.928837 0.500000
O O20 0.107808 0.923522 0.000000
#
# Coordination Sequence:
#
# PCOD9425602 Si02
#       8
#     8   8   8   8   8   8   8   8
#     4  11  20  33  53  77 103 134 172 213 253 298
#     4   9  16  29  48  72 101 136 172 205 241 291
#     4  10  19  32  51  75 103 132 166 211 259 301
#     4   9  19  33  50  73 104 138 172 211 253 298
#     4  11  21  34  53  77 102 133 172 212 255 303
#     4  10  20  34  50  73 105 139 172 209 254 301
#     4   9  19  33  50  74 103 132 165 210 258 302
#     4   9  17  28  47  73 102 135 172 204 241 296
#
# _framework density 18.805038
#
# number of rings (size 3 to 8) (size 9 to 14) (size 15 to 20)
#    0.000    2.250    2.500    1.125    0.000    1.500 
#    0.000    4.375    0.000    0.750    0.000    9.625 
#    0.000    0.000    0.000    0.000    0.000    0.000 
#
# Total GULP energy -356966.963530 kJ/mol
# GULP energy per Si atom -5577.608805 kJ/mol
# Density = 1.876224 g / cm^3
# Si number density = 18.805038 Si / 1000 Ang^3
#
#
#
# Elastic Constant Matrix: (Units=GPa)
#
#
# Indices 1 2 3 4 5 6 
#
# 1 74.1134 26.2954 -3.2330 0.0000 0.0000 0.0000
# 2 26.2954 82.1913 -6.5942 0.0000 0.0000 0.0000
# 3 -3.2330 -6.5942 16.7695 0.0000 0.0000 0.0000
# 4 0.0000 0.0000 0.0000 16.5486 0.0000 0.0000
# 5 0.0000 0.0000 0.0000 0.0000 121.2157 0.0000
# 6 0.0000 0.0000 0.0000 0.0000 0.0000 18.4001
#
#
#
# Elastic Compliance Matrix: (Units=1/GPa)
#
#
# Indices 1 2 3 4 5 6 
#
# 1 0.015239 -0.004791 0.001054 0.000000 0.000000 0.000000
# 2 -0.004791 0.014069 0.004609 0.000000 0.000000 0.000000
# 3 0.001054 0.004609 0.061647 0.000000 0.000000 0.000000
# 4 0.000000 0.000000 0.000000 0.060428 0.000000 0.000000
# 5 0.000000 0.000000 0.000000 0.000000 0.008250 0.000000
# 6 0.000000 0.000000 0.000000 0.000000 0.000000 0.054348
#
#
# Mechanical properties :
#
#
# Convention : Reuss Voigt Hill
#
# Bulk Modulus (GPa) = 10.78755 22.89005 16.83880
# Shear Modulus (GPa) = 20.56461 41.67327 31.11894
#
# Velocity S-wave (km/s) = 3.31050 4.71262 4.07236
# Velocity P-wave (km/s) = 4.51238 6.46610 5.57548
#
# Compressibility (1/GPa) = 0.09269941
#
# Stress axis : x y z
#
# Youngs Moduli (GPa) = 65.62302 71.07733 16.22127
#
# Poissons Ratio (x) = 0.34051 -0.01710
# Poissons Ratio (y) = 0.31438 -0.07476
# Poissons Ratio (z) = -0.06917 -0.32758
#
# Static dielectric constant tensor:
#      x y z
#    x 1.639530 0.000000 0.000000 
#    y 0.000000 1.686340 0.000000 
#    z 0.000000 0.000000 1.693310 
# 
# From -- ./inp_files/8098.got.cif
#   From: 2010.05.17/outbox.cif.g08.bks.cpg/sg55_5_cif.got.tgz:8098.got - 2010.06.03 13:27:54.
