data_PCOD9425174
_publ_section_title
;
Structure prediction by ZEFSAII (Michael W. Deem and Ramdas Pophale) SiO2 
 PCOD9425174
Probable space group: P B A M
;
_chemical_formula_sum "Si O2"
_cell_formula_units_Z 64
_cell_length_a 15.009217
_cell_length_b 24.897797
_cell_length_c 8.697834
_cell_angle_alpha 90.000000
_cell_angle_beta 90.000000
_cell_angle_gamma 90.000000
_cell_volume 3250.349584
_symmetry_space_group_name_H-M "P B A M"
_symmetry_group_IT_number 55
_symmetry_cell_setting 'orthorhombic'
loop_
_space_group_symop_operation_xyz
x,y,z
-x,-y,z
1/2+x,1/2-y,-z
1/2-x,1/2+y,-z
-x,-y,-z
x,y,-z
1/2-x,1/2+y,z
1/2+x,1/2-y,z
loop_
_atom_site_type_symbol
_atom_site_label
_atom_site_fract_x
_atom_site_fract_y
_atom_site_fract_z
Si Si1 0.435654 0.549768 0.313648
Si Si2 0.052826 0.553481 0.316299
Si Si3 0.751368 0.585811 0.323740
Si Si4 0.150711 0.752905 0.815332
Si Si5 0.017614 0.666495 0.184614
Si Si6 0.172888 0.306054 0.815309
Si Si7 0.740971 0.972575 0.180217
Si Si8 0.062501 0.858081 0.678195
O O1 0.500000 0.500000 0.265740
O O2 0.434038 0.549101 0.500000
O O3 0.335840 0.543541 0.252524
O O4 0.480525 0.606074 0.263834
O O5 0.053251 0.552595 0.500000
O O6 0.008332 0.608203 0.258042
O O7 0.153916 0.553635 0.255257
O O8 0.000000 0.500000 0.262603
O O9 0.775500 0.572122 0.500000
O O10 0.801035 0.638639 0.266731
O O11 0.769133 0.535853 0.215343
O O12 0.647161 0.601494 0.319861
O O13 0.103598 0.699026 0.758224
O O14 0.252558 0.763232 0.765384
O O15 0.093356 0.805076 0.766929
O O16 0.149926 0.750268 0.000000
O O17 0.930601 0.702878 0.217010
O O18 0.023097 0.659499 0.000000
O O19 0.182057 0.312792 0.000000
O O20 0.741840 0.961581 0.000000
O O21 0.047069 0.843331 0.500000
#
# Coordination Sequence:
#
# PCOD9425174 Si02
#       8
#     8   8   8   8   8   8   8   8
#     4  10  19  36  57  81 120 164 201 244 297 352
#     4  11  25  44  65  88 116 153 198 250 306 367
#     4  10  18  32  54  81 113 150 194 240 286 340
#     4   9  19  36  57  83 116 151 192 242 293 348
#     4  10  21  39  61  86 118 155 194 243 300 355
#     4   9  18  34  57  83 111 148 190 238 293 344
#     4  12  24  36  55  86 120 156 195 239 296 361
#     4   9  18  33  55  80 111 154 198 242 288 336
#
# _framework density 19.690190999999999
#
# number of rings (size 3 to 8) (size 9 to 14) (size 15 to 20)
#    0.000    2.000    1.250    2.625    0.000    5.250 
#    2.250    0.000    0.000    0.000    0.000    0.000 
#    0.000    0.000    0.000    0.000    0.000    0.000 
#
# Total GULP energy -357205.096998 kJ/mol
# GULP energy per Si atom -5581.329641 kJ/mol
# Density = 1.964537 g / cm^3
# Si number density = 19.690191 Si / 1000 Ang^3
#
#
#
# Elastic Constant Matrix: (Units=GPa)
#
#
# Indices 1 2 3 4 5 6 
#
# 1 119.8757 33.2646 29.0690 0.0000 0.0000 0.0000
# 2 33.2646 65.7407 12.4952 0.0000 0.0000 0.0000
# 3 29.0690 12.4952 20.7653 0.0000 0.0000 0.0000
# 4 0.0000 0.0000 0.0000 15.9503 0.0000 0.0000
# 5 0.0000 0.0000 0.0000 0.0000 21.2544 0.0000
# 6 0.0000 0.0000 0.0000 0.0000 0.0000 25.4835
#
#
#
# Elastic Compliance Matrix: (Units=1/GPa)
#
#
# Indices 1 2 3 4 5 6 
#
# 1 0.013349 -0.003616 -0.016511 0.000000 0.000000 0.000000
# 2 -0.003616 0.018155 -0.005862 0.000000 0.000000 0.000000
# 3 -0.016511 -0.005862 0.074799 0.000000 0.000000 0.000000
# 4 0.000000 0.000000 0.000000 0.062695 0.000000 0.000000
# 5 0.000000 0.000000 0.000000 0.000000 0.047049 0.000000
# 6 0.000000 0.000000 0.000000 0.000000 0.000000 0.039241
#
#
# Mechanical properties :
#
#
# Convention : Reuss Voigt Hill
#
# Bulk Modulus (GPa) = 18.40824 39.55992 28.98408
# Shear Modulus (GPa) = 15.36683 21.30786 18.33734
#
# Velocity S-wave (km/s) = 2.79665 3.29318 3.05502
# Velocity P-wave (km/s) = 4.44945 5.88174 5.21500
#
# Compressibility (1/GPa) = 0.05432349
#
# Stress axis : x y z
#
# Youngs Moduli (GPa) = 74.90962 55.08004 13.36920
#
# Poissons Ratio (x) = 0.19919 0.22075
# Poissons Ratio (y) = 0.27091 0.07837
# Poissons Ratio (z) = 1.23687 0.32289
#
# Static dielectric constant tensor:
#      x y z
#    x 1.725250 0.000000 0.000000 
#    y 0.000000 1.682950 0.000000 
#    z 0.000000 0.000000 1.663140 
# 
# From -- ./inp_files/6713.got.cif
#   From: 2010.05.17/outbox.cif.g08.bks.cpg/sg55_4_cif.got.tgz:6713.got - 2010.06.03 13:27:54.
