data_PCOD9425113
_publ_section_title
;
Structure prediction by ZEFSAII (Michael W. Deem and Ramdas Pophale) SiO2 
 PCOD9425113
Probable space group: P B A M
;
_chemical_formula_sum "Si O2"
_cell_formula_units_Z 64
_cell_length_a 19.248661
_cell_length_b 15.716518
_cell_length_c 10.952950
_cell_angle_alpha 90.000000
_cell_angle_beta 90.000000
_cell_angle_gamma 90.000000
_cell_volume 3313.507541
_symmetry_space_group_name_H-M "P B A M"
_symmetry_group_IT_number 55
_symmetry_cell_setting 'orthorhombic'
loop_
_space_group_symop_operation_xyz
x,y,z
-x,-y,z
1/2+x,1/2-y,-z
1/2-x,1/2+y,-z
-x,-y,-z
x,y,-z
1/2-x,1/2+y,z
1/2+x,1/2-y,z
loop_
_atom_site_type_symbol
_atom_site_label
_atom_site_fract_x
_atom_site_fract_y
_atom_site_fract_z
Si Si1 0.168339 0.729698 0.642148
Si Si2 0.217154 0.909152 0.636019
Si Si3 0.572830 0.535458 0.730998
Si Si4 0.089731 0.288942 0.857579
Si Si5 0.849486 0.880282 0.139447
Si Si6 0.290121 0.064349 0.763551
Si Si7 0.923215 0.523591 0.852908
Si Si8 0.934483 0.215061 0.858663
O O1 0.143965 0.738105 0.500000
O O2 0.220824 0.808908 0.663632
O O3 0.200778 0.636675 0.661018
O O4 0.112613 0.743643 0.751723
O O5 0.242425 0.923917 0.500000
O O6 0.134424 0.930606 0.644202
O O7 0.257548 0.974941 0.720214
O O8 0.500000 0.500000 0.679241
O O9 0.608625 0.455836 0.797571
O O10 0.558630 0.615162 0.821929
O O11 0.132646 0.210955 0.802739
O O12 0.096497 0.382816 0.804242
O O13 0.009415 0.260015 0.855062
O O14 0.111358 0.296673 0.000000
O O15 0.767844 0.898173 0.146495
O O16 0.873301 0.878246 0.000000
O O17 0.364825 0.043720 0.818540
O O18 0.000000 0.500000 0.808566
O O19 0.926748 0.528083 0.000000
O O20 0.908538 0.222197 0.000000
#
# Coordination Sequence:
#
# PCOD9425113 Si02
#       8
#     8   8   8   8   8   8   8   8
#     4  10  22  40  61  84 117 157 196 245 300 351
#     4   9  21  39  56  81 114 152 198 245 296 353
#     4  10  18  31  54  85 120 156 193 238 295 358
#     4   9  18  32  53  80 118 156 188 236 300 352
#     4  10  20  32  50  83 122 155 190 245 304 356
#     4  11  22  36  62  82 108 154 206 247 293 362
#     4  10  21  37  57  85 119 155 195 246 305 361
#     4  10  19  33  59  89 118 156 198 240 292 355
#
# _framework density 19.314879000000001
#
# number of rings (size 3 to 8) (size 9 to 14) (size 15 to 20)
#    0.000    2.125    1.250    1.875    1.750    2.750 
#    0.000    0.625    0.000    6.750    0.000    0.000 
#    0.000    0.000    0.000    0.000    0.000    0.000 
#
# Total GULP energy -356494.445101 kJ/mol
# GULP energy per Si atom -5570.225705 kJ/mol
# Density = 1.927092 g / cm^3
# Si number density = 19.314879 Si / 1000 Ang^3
#
#
#
# Elastic Constant Matrix: (Units=GPa)
#
#
# Indices 1 2 3 4 5 6 
#
# 1 67.1151 25.9397 2.3832 0.0000 0.0000 0.0000
# 2 25.9397 129.1810 18.0613 0.0000 0.0000 0.0000
# 3 2.3832 18.0613 43.1691 0.0000 0.0000 0.0000
# 4 0.0000 0.0000 0.0000 17.7262 0.0000 0.0000
# 5 0.0000 0.0000 0.0000 0.0000 5.0072 0.0000
# 6 0.0000 0.0000 0.0000 0.0000 0.0000 21.7374
#
#
#
# Elastic Compliance Matrix: (Units=1/GPa)
#
#
# Indices 1 2 3 4 5 6 
#
# 1 0.016163 -0.003315 0.000495 0.000000 0.000000 0.000000
# 2 -0.003315 0.008902 -0.003541 0.000000 0.000000 0.000000
# 3 0.000495 -0.003541 0.024619 0.000000 0.000000 0.000000
# 4 0.000000 0.000000 0.000000 0.056414 0.000000 0.000000
# 5 0.000000 0.000000 0.000000 0.000000 0.199714 0.000000
# 6 0.000000 0.000000 0.000000 0.000000 0.000000 0.046004
#
#
# Mechanical properties :
#
#
# Convention : Reuss Voigt Hill
#
# Bulk Modulus (GPa) = 27.05556 36.91485 31.98521
# Shear Modulus (GPa) = 13.26757 21.76623 17.51690
#
# Velocity S-wave (km/s) = 2.62374 3.36060 3.01477
# Velocity P-wave (km/s) = 4.81837 5.84908 5.35857
#
# Compressibility (1/GPa) = 0.03696097
#
# Stress axis : x y z
#
# Youngs Moduli (GPa) = 61.86832 112.33655 40.61894
#
# Poissons Ratio (x) = 0.37237 -0.02009
# Poissons Ratio (y) = 0.20508 0.14385
# Poissons Ratio (z) = -0.03059 0.39783
#
# Static dielectric constant tensor:
#      x y z
#    x 1.680880 0.000000 0.000000 
#    y 0.000000 1.720240 0.000000 
#    z 0.000000 0.000000 1.656390 
# 
# From -- ./inp_files/14969.got.cif
#   From: 2010.05.17/outbox.cif.g08.bks.cpg/sg55_8_cif.got.tgz:14969.got - 2010.06.03 13:27:54.
