data_PCOD9425755
_publ_section_title
;
Structure prediction by ZEFSAII (Michael W. Deem and Ramdas Pophale) SiO2 
 PCOD9425755
Probable space group: P B A M
;
_chemical_formula_sum "Si O2"
_cell_formula_units_Z 48
_cell_length_a 20.930722
_cell_length_b 14.585751
_cell_length_c 7.813635
_cell_angle_alpha 90.000000
_cell_angle_beta 90.000000
_cell_angle_gamma 90.000000
_cell_volume 2385.426968
_symmetry_space_group_name_H-M "P B A M"
_symmetry_group_IT_number 55
_symmetry_cell_setting 'orthorhombic'
loop_
_space_group_symop_operation_xyz
x,y,z
-x,-y,z
1/2+x,1/2-y,-z
1/2-x,1/2+y,-z
-x,-y,-z
x,y,-z
1/2-x,1/2+y,z
1/2+x,1/2-y,z
loop_
_atom_site_type_symbol
_atom_site_label
_atom_site_fract_x
_atom_site_fract_y
_atom_site_fract_z
Si Si1 0.439698 0.062762 0.708480
Si Si2 0.007933 0.755276 0.293706
Si Si3 0.562179 0.552296 0.794452
Si Si4 0.819588 0.552443 0.295325
Si Si5 0.859915 0.753868 0.706368
Si Si6 0.811265 0.952297 0.203980
O O1 0.435483 0.066917 0.500000
O O2 0.456929 0.163997 0.769579
O O3 0.500000 0.000000 0.750263
O O4 0.375845 0.013615 0.771822
O O5 0.004222 0.750184 0.500000
O O6 0.049865 0.842408 0.245441
O O7 0.934014 0.762135 0.232529
O O8 0.500000 0.500000 0.725950
O O9 0.626739 0.506768 0.727084
O O10 0.563090 0.541400 0.000000
O O11 0.827886 0.558216 0.500000
O O12 0.829652 0.657193 0.232217
O O13 0.752402 0.503546 0.263361
O O14 0.862043 0.750676 0.500000
O O15 0.820521 0.845116 0.752140
O O16 0.811528 0.958439 0.000000
#
# Coordination Sequence:
#
# PCOD9425755 Si02
#       6
#     8   8   8   8   8   8
#     4   9  16  32  58  87 115 143 179 228 284 336
#     4  10  19  32  59  92 114 141 187 238 284 336
#     4  10  21  38  56  77 109 151 192 233 283 332
#     4  10  21  38  61  87 118 151 188 236 288 344
#     4  10  20  36  60  87 113 147 189 237 291 342
#     4  11  24  40  58  81 116 158 195 235 284 342
#
# _framework density 20.122184000000001
#
# number of rings (size 3 to 8) (size 9 to 14) (size 15 to 20)
#    0.000    2.000    3.333    0.500    0.000    3.667 
#    0.000    5.833    0.000    1.000    0.000    0.000 
#    0.000    0.000    0.000    0.000    0.000    0.000 
#
# Total GULP energy -267922.935026 kJ/mol
# GULP energy per Si atom -5581.727813 kJ/mol
# Density = 2.007638 g / cm^3
# Si number density = 20.122184 Si / 1000 Ang^3
#
#
#
# Elastic Constant Matrix: (Units=GPa)
#
#
# Indices 1 2 3 4 5 6 
#
# 1 148.8476 81.0542 -8.3464 0.0000 0.0000 0.0000
# 2 81.0542 177.1328 -17.3724 0.0000 0.0000 0.0000
# 3 -8.3464 -17.3724 15.7026 0.0000 0.0000 0.0000
# 4 0.0000 0.0000 0.0000 53.4604 0.0000 0.0000
# 5 0.0000 0.0000 0.0000 0.0000 10.9779 0.0000
# 6 0.0000 0.0000 0.0000 0.0000 0.0000 31.1136
#
#
#
# Elastic Compliance Matrix: (Units=1/GPa)
#
#
# Indices 1 2 3 4 5 6 
#
# 1 0.008949 -0.004070 0.000254 0.000000 0.000000 0.000000
# 2 -0.004070 0.008184 0.006891 0.000000 0.000000 0.000000
# 3 0.000254 0.006891 0.071442 0.000000 0.000000 0.000000
# 4 0.000000 0.000000 0.000000 0.018705 0.000000 0.000000
# 5 0.000000 0.000000 0.000000 0.000000 0.091092 0.000000
# 6 0.000000 0.000000 0.000000 0.000000 0.000000 0.032140
#
#
# Mechanical properties :
#
#
# Convention : Reuss Voigt Hill
#
# Bulk Modulus (GPa) = 10.55706 50.26153 30.40929
# Shear Modulus (GPa) = 19.53599 38.20022 28.86811
#
# Velocity S-wave (km/s) = 3.11926 4.36181 3.79177
# Velocity P-wave (km/s) = 4.26976 7.09926 5.85792
#
# Compressibility (1/GPa) = 0.09472331
#
# Stress axis : x y z
#
# Youngs Moduli (GPa) = 111.74683 122.19462 13.99735
#
# Poissons Ratio (x) = 0.49733 -0.00355
# Poissons Ratio (y) = 0.45481 -0.09645
# Poissons Ratio (z) = -0.02836 -0.84199
#
# Static dielectric constant tensor:
#      x y z
#    x 1.698390 0.000000 0.000000 
#    y 0.000000 1.660690 0.000000 
#    z 0.000000 0.000000 1.741400 
# 
# From -- ./inp_files/7424.got.cif
#   From: 2010.05.17/outbox.cif.g08.bks.cpg/sg55_4_cif.got.tgz:7424.got - 2010.06.03 13:27:54.
