data_PCOD9425985
_publ_section_title
;
Structure prediction by ZEFSAII (Michael W. Deem and Ramdas Pophale) SiO2 
 PCOD9425985
Probable space group: P B A M
;
_chemical_formula_sum "Si O2"
_cell_formula_units_Z 32
_cell_length_a 22.181614
_cell_length_b 6.852304
_cell_length_c 7.845813
_cell_angle_alpha 90.000000
_cell_angle_beta 90.000000
_cell_angle_gamma 90.000000
_cell_volume 1192.525621
_symmetry_space_group_name_H-M "P B A M"
_symmetry_group_IT_number 55
_symmetry_cell_setting 'orthorhombic'
loop_
_space_group_symop_operation_xyz
x,y,z
-x,-y,z
1/2+x,1/2-y,-z
1/2-x,1/2+y,-z
-x,-y,-z
x,y,-z
1/2-x,1/2+y,z
1/2+x,1/2-y,z
loop_
_atom_site_type_symbol
_atom_site_label
_atom_site_fract_x
_atom_site_fract_y
_atom_site_fract_z
Si Si1 0.304715 0.975705 0.190729
Si Si2 0.825618 0.115454 0.308222
Si Si3 0.451164 0.270998 0.292666
Si Si4 0.580238 0.182918 0.704788
O O1 0.234087 0.935732 0.205436
O O2 0.351012 0.798925 0.229270
O O3 0.318532 0.149200 0.319006
O O4 0.317980 0.043209 0.000000
O O5 0.821914 0.034286 0.500000
O O6 0.893701 0.100347 0.237117
O O7 0.451419 0.290205 0.500000
O O8 0.520259 0.296863 0.235257
O O9 0.435713 0.044329 0.253607
O O10 0.581610 0.202120 0.500000
#
# Coordination Sequence:
#
# PCOD9425985 Si02
#       4
#     8   8   8   8
#     4  11  21  32  47  74 105 130 157 199 246 288
#     4  10  19  34  53  72  95 131 169 200 236 287
#     4   7  12  24  46  70  90 115 159 205 234 269
#     4   8  13  26  46  68  92 122 157 196 236 282
#
# _framework density 26.833803
#
# number of rings (size 3 to 8) (size 9 to 14) (size 15 to 20)
#    0.000    3.000    0.000    6.000    0.000    0.000 
#    0.000   11.250    0.000    1.500    0.000   10.500 
#    0.000    0.000    0.000    0.000    0.000    0.000 
#
# Total GULP energy -178714.410667 kJ/mol
# GULP energy per Si atom -5584.825333 kJ/mol
# Density = 2.677273 g / cm^3
# Si number density = 26.833803 Si / 1000 Ang^3
#
#
#
# Elastic Constant Matrix: (Units=GPa)
#
#
# Indices 1 2 3 4 5 6 
#
# 1 296.1328 44.6454 29.0153 0.0000 0.0000 0.0000
# 2 44.6454 59.0930 -0.8446 0.0000 0.0000 0.0000
# 3 29.0153 -0.8446 86.0911 0.0000 0.0000 0.0000
# 4 0.0000 0.0000 0.0000 2.8649 0.0000 0.0000
# 5 0.0000 0.0000 0.0000 0.0000 -30.4467 0.0000
# 6 0.0000 0.0000 0.0000 0.0000 0.0000 65.4966
#
#
#
# Elastic Compliance Matrix: (Units=1/GPa)
#
#
# Indices 1 2 3 4 5 6 
#
# 1 0.003965 -0.003015 -0.001366 0.000000 0.000000 0.000000
# 2 -0.003015 0.019218 0.001205 0.000000 0.000000 0.000000
# 3 -0.001366 0.001205 0.012088 0.000000 0.000000 0.000000
# 4 0.000000 0.000000 0.000000 0.349057 0.000000 0.000000
# 5 0.000000 0.000000 0.000000 0.000000 -0.032844 0.000000
# 6 0.000000 0.000000 0.000000 0.000000 0.000000 0.015268
#
#
# Mechanical properties :
#
#
# Convention : Reuss Voigt Hill
#
# Bulk Modulus (GPa) = 34.58077 65.21657 49.89867
# Shear Modulus (GPa) = 13.06356 32.14966 22.60661
#
# Velocity S-wave (km/s) = 2.20882 3.46512 2.90568
# Velocity P-wave (km/s) = 4.40683 6.35343 5.46746
#
# Compressibility (1/GPa) = 0.02891781
#
# Stress axis : x y z
#
# Youngs Moduli (GPa) = 252.18737 52.03497 82.72803
#
# Poissons Ratio (x) = 0.15690 0.11301
# Poissons Ratio (y) = 0.76044 -0.09967
# Poissons Ratio (z) = 0.34449 -0.06269
#
# Static dielectric constant tensor:
#      x y z
#    x 2.187170 0.000000 0.000000 
#    y 0.000000 2.237810 0.000000 
#    z 0.000000 0.000000 1.906280 
# 
# From -- ./inp_files/1986.got.cif
#   From: 2010.05.17/outbox.cif.g08.bks.cpg/sg55_1_cif.got.tgz:1986.got - 2010.06.03 13:27:54.
