data_PCOD9425834
_publ_section_title
;
Structure prediction by ZEFSAII (Michael W. Deem and Ramdas Pophale) SiO2 
 PCOD9425834
Probable space group: P B A M
;
_chemical_formula_sum "Si O2"
_cell_formula_units_Z 64
_cell_length_a 17.052074
_cell_length_b 21.184475
_cell_length_c 9.241813
_cell_angle_alpha 90.000000
_cell_angle_beta 90.000000
_cell_angle_gamma 90.000000
_cell_volume 3338.505461
_symmetry_space_group_name_H-M "P B A M"
_symmetry_group_IT_number 55
_symmetry_cell_setting 'orthorhombic'
loop_
_space_group_symop_operation_xyz
x,y,z
-x,-y,z
1/2+x,1/2-y,-z
1/2-x,1/2+y,-z
-x,-y,-z
x,y,-z
1/2-x,1/2+y,z
1/2+x,1/2-y,z
loop_
_atom_site_type_symbol
_atom_site_label
_atom_site_fract_x
_atom_site_fract_y
_atom_site_fract_z
Si Si1 0.229394 0.889150 0.325555
Si Si2 0.045448 0.112410 0.828294
Si Si3 0.342827 0.522704 0.672396
Si Si4 0.603339 0.146435 0.668207
Si Si5 0.153831 0.208485 0.334383
Si Si6 0.943124 0.332960 0.172662
Si Si7 0.105779 0.809756 0.826015
Si Si8 0.794246 0.376234 0.331116
O O1 0.227251 0.881246 0.500000
O O2 0.321061 0.893828 0.284821
O O3 0.185204 0.831236 0.250568
O O4 0.183472 0.952844 0.286096
O O5 0.081528 0.051117 0.751645
O O6 0.102188 0.169326 0.777722
O O7 0.959668 0.137617 0.787134
O O8 0.048051 0.104197 0.000000
O O9 0.356219 0.524273 0.500000
O O10 0.268687 0.568944 0.702270
O O11 0.585360 0.132436 0.500000
O O12 0.635267 0.218313 0.675793
O O13 0.524750 0.143807 0.760432
O O14 0.134070 0.187702 0.500000
O O15 0.243529 0.187895 0.312614
O O16 0.926135 0.259597 0.215915
O O17 0.870494 0.373002 0.233460
O O18 0.946373 0.335224 0.000000
O O19 0.115317 0.809636 0.000000
O O20 0.816393 0.381937 0.500000
#
# Coordination Sequence:
#
# PCOD9425834 Si02
#       8
#     8   8   8   8   8   8   8   8
#     4  10  22  39  59  81 106 143 187 230 273 321
#     4  10  19  33  54  80 112 148 181 216 265 322
#     4   9  20  39  58  79 109 143 187 232 270 317
#     4  10  20  35  56  81 108 140 180 226 278 326
#     4   9  17  31  53  80 108 137 175 222 272 323
#     4  11  22  36  54  82 115 145 179 220 271 330
#     4  10  22  37  53  81 118 147 176 219 273 330
#     4   9  18  34  56  80 106 139 180 228 274 317
#
# _framework density 19.170254
#
# number of rings (size 3 to 8) (size 9 to 14) (size 15 to 20)
#    0.000    2.250    1.250    2.250    0.000    6.500 
#    0.000    3.125    0.000    3.750    0.000    0.000 
#    0.000    0.000    0.000    0.000    0.000    0.000 
#
# Total GULP energy -357171.152283 kJ/mol
# GULP energy per Si atom -5580.799254 kJ/mol
# Density = 1.912662 g / cm^3
# Si number density = 19.170254 Si / 1000 Ang^3
#
#
#
# Elastic Constant Matrix: (Units=GPa)
#
#
# Indices 1 2 3 4 5 6 
#
# 1 96.6380 5.4659 44.6280 0.0000 0.0000 0.0000
# 2 5.4659 37.0897 11.2719 0.0000 0.0000 0.0000
# 3 44.6280 11.2719 32.5679 0.0000 0.0000 0.0000
# 4 0.0000 0.0000 0.0000 16.5325 0.0000 0.0000
# 5 0.0000 0.0000 0.0000 0.0000 51.5465 0.0000
# 6 0.0000 0.0000 0.0000 0.0000 0.0000 20.9358
#
#
#
# Elastic Compliance Matrix: (Units=1/GPa)
#
#
# Indices 1 2 3 4 5 6 
#
# 1 0.030785 0.009257 -0.045390 0.000000 0.000000 0.000000
# 2 0.009257 0.032915 -0.024078 0.000000 0.000000 0.000000
# 3 -0.045390 -0.024078 0.101236 0.000000 0.000000 0.000000
# 4 0.000000 0.000000 0.000000 0.060487 0.000000 0.000000
# 5 0.000000 0.000000 0.000000 0.000000 0.019400 0.000000
# 6 0.000000 0.000000 0.000000 0.000000 0.000000 0.047765
#
#
# Mechanical properties :
#
#
# Convention : Reuss Voigt Hill
#
# Bulk Modulus (GPa) = 22.46333 32.11415 27.28874
# Shear Modulus (GPa) = 11.68644 24.79828 18.24236
#
# Velocity S-wave (km/s) = 2.47171 3.60054 3.08814
# Velocity P-wave (km/s) = 4.45972 5.83726 5.19436
#
# Compressibility (1/GPa) = 0.04451700
#
# Stress axis : x y z
#
# Youngs Moduli (GPa) = 32.48288 30.38148 9.87791
#
# Poissons Ratio (x) = -0.28126 0.44835
# Poissons Ratio (y) = -0.30071 0.23784
# Poissons Ratio (z) = 1.47438 0.73151
#
# Static dielectric constant tensor:
#      x y z
#    x 1.662760 0.000000 0.000000 
#    y 0.000000 1.688680 0.000000 
#    z 0.000000 0.000000 1.639000 
# 
# From -- ./inp_files/6702.got.cif
#   From: 2010.05.17/outbox.cif.g08.bks.cpg/sg55_4_cif.got.tgz:6702.got - 2010.06.03 13:27:54.
