data_PCOD9425506
_publ_section_title
;
Structure prediction by ZEFSAII (Michael W. Deem and Ramdas Pophale) SiO2 
 PCOD9425506
Probable space group: P B A M
;
_chemical_formula_sum "Si O2"
_cell_formula_units_Z 64
_cell_length_a 7.735300
_cell_length_b 16.885543
_cell_length_c 21.951692
_cell_angle_alpha 90.000000
_cell_angle_beta 90.000000
_cell_angle_gamma 90.000000
_cell_volume 2867.214560
_symmetry_space_group_name_H-M "P B A M"
_symmetry_group_IT_number 55
_symmetry_cell_setting 'orthorhombic'
loop_
_space_group_symop_operation_xyz
x,y,z
-x,-y,z
1/2+x,1/2-y,-z
1/2-x,1/2+y,-z
-x,-y,-z
x,y,-z
1/2-x,1/2+y,z
1/2+x,1/2-y,z
loop_
_atom_site_type_symbol
_atom_site_label
_atom_site_fract_x
_atom_site_fract_y
_atom_site_fract_z
Si Si1 0.722694 0.798205 0.801891
Si Si2 0.778637 0.036288 0.315279
Si Si3 0.887864 0.127607 0.065138
Si Si4 0.889807 0.123196 0.432242
Si Si5 0.978358 0.713052 0.432227
Si Si6 0.778179 0.303995 0.934606
Si Si7 0.907963 0.376856 0.682823
Si Si8 0.895843 0.124703 0.197563
O O1 0.644318 0.822476 0.868115
O O2 0.618354 0.827599 0.743903
O O3 0.725044 0.702884 0.798280
O O4 0.912127 0.837579 0.799520
O O5 0.877182 0.066143 0.375115
O O6 0.591727 0.079020 0.315774
O O7 0.864214 0.065904 0.252943
O O8 0.738685 0.943741 0.318637
O O9 0.775018 0.208225 0.065150
O O10 0.865063 0.086869 0.130524
O O11 0.085379 0.160374 0.065159
O O12 0.858749 0.085576 0.000000
O O13 0.905782 0.087333 0.500000
O O14 0.029538 0.192543 0.424840
O O15 0.708134 0.171738 0.431355
O O16 0.052799 0.697971 0.500000
O O17 0.086015 0.677165 0.376824
O O18 0.860301 0.327337 0.000000
#
# Coordination Sequence:
#
# PCOD9425506 Si02
#       8
#     8   8   8   8   8   8   8   8
#     4  10  19  31  50  74  99 128 162 200 242 289
#     4  10  21  35  50  70  98 131 165 202 242 283
#     4   8  14  25  42  66  94 121 152 193 239 284
#     4   9  18  33  53  75  97 123 157 196 238 285
#     4   9  18  33  53  75  97 123 157 196 238 285
#     4   8  14  25  42  66  94 121 152 193 239 284
#     4  10  21  35  50  70  98 131 165 202 242 283
#     4  10  19  31  50  74  99 128 162 200 242 289
#
# _framework density 22.321315999999999
#
# number of rings (size 3 to 8) (size 9 to 14) (size 15 to 20)
#    0.000    2.750    0.000    1.500    0.000    5.000 
#    0.000    2.500    0.000    0.750    0.000   10.500 
#    0.000    0.000    0.000    0.000    0.000    0.000 
#
# Total GULP energy -357208.261570 kJ/mol
# GULP energy per Si atom -5581.379087 kJ/mol
# Density = 2.227051 g / cm^3
# Si number density = 22.321316 Si / 1000 Ang^3
#
#
#
# Elastic Constant Matrix: (Units=GPa)
#
#
# Indices 1 2 3 4 5 6 
#
# 1 57.1975 16.9633 49.5751 0.0000 0.0000 0.0000
# 2 16.9633 41.5793 48.9006 0.0000 0.0000 0.0000
# 3 49.5751 48.9006 200.6066 0.0000 0.0000 0.0000
# 4 0.0000 0.0000 0.0000 -30.3447 0.0000 0.0000
# 5 0.0000 0.0000 0.0000 0.0000 37.9571 0.0000
# 6 0.0000 0.0000 0.0000 0.0000 0.0000 31.5012
#
#
#
# Elastic Compliance Matrix: (Units=1/GPa)
#
#
# Indices 1 2 3 4 5 6 
#
# 1 0.022653 -0.003726 -0.004690 0.000000 0.000000 0.000000
# 2 -0.003726 0.034329 -0.007447 0.000000 0.000000 0.000000
# 3 -0.004690 -0.007447 0.007959 0.000000 0.000000 0.000000
# 4 0.000000 0.000000 0.000000 -0.032955 0.000000 0.000000
# 5 0.000000 0.000000 0.000000 0.000000 0.026346 0.000000
# 6 0.000000 0.000000 0.000000 0.000000 0.000000 0.031745
#
#
# Mechanical properties :
#
#
# Convention : Reuss Voigt Hill
#
# Bulk Modulus (GPa) = 30.10703 58.91795 44.51249
# Shear Modulus (GPa) = 37.62894 20.08568 28.85731
#
# Velocity S-wave (km/s) = 4.11029 3.00299 3.59947
# Velocity P-wave (km/s) = 6.00360 6.20295 6.10409
#
# Compressibility (1/GPa) = 0.03321484
#
# Stress axis : x y z
#
# Youngs Moduli (GPa) = 44.14371 29.12951 125.63952
#
# Poissons Ratio (x) = 0.10855 0.58923
# Poissons Ratio (y) = 0.16449 0.93569
# Poissons Ratio (z) = 0.20703 0.21694
#
# Static dielectric constant tensor:
#      x y z
#    x 1.869280 0.000000 0.000000 
#    y 0.000000 1.770560 0.000000 
#    z 0.000000 0.000000 1.849800 
# 
# From -- ./inp_files/22738.got.cif
#   From: 2010.05.17/outbox.cif.g08.bks.cpg/sg55_12_cif.got.tgz:22738.got - 2010.06.03 13:27:54.
