data_PCOD9425561
_publ_section_title
;
Structure prediction by ZEFSAII (Michael W. Deem and Ramdas Pophale) SiO2 
 PCOD9425561
Probable space group: P B A M
;
_chemical_formula_sum "Si O2"
_cell_formula_units_Z 64
_cell_length_a 12.088985
_cell_length_b 13.823581
_cell_length_c 18.306568
_cell_angle_alpha 90.000000
_cell_angle_beta 90.000000
_cell_angle_gamma 90.000000
_cell_volume 3059.266658
_symmetry_space_group_name_H-M "P B A M"
_symmetry_group_IT_number 55
_symmetry_cell_setting 'orthorhombic'
loop_
_space_group_symop_operation_xyz
x,y,z
-x,-y,z
1/2+x,1/2-y,-z
1/2-x,1/2+y,-z
-x,-y,-z
x,y,-z
1/2-x,1/2+y,z
1/2+x,1/2-y,z
loop_
_atom_site_type_symbol
_atom_site_label
_atom_site_fract_x
_atom_site_fract_y
_atom_site_fract_z
Si Si1 0.805765 0.899821 0.701126
Si Si2 0.207386 0.652584 0.083242
Si Si3 0.121337 0.952617 0.416827
Si Si4 0.326434 0.385936 0.915327
Si Si5 0.687567 0.054531 0.212186
Si Si6 0.939059 0.866483 0.842167
Si Si7 0.975287 0.333373 0.802454
Si Si8 0.676931 0.711044 0.305357
O O1 0.908545 0.898926 0.758933
O O2 0.770984 0.791677 0.679661
O O3 0.816628 0.966834 0.630886
O O4 0.712099 0.953963 0.748262
O O5 0.199826 0.770734 0.087297
O O6 0.328881 0.619558 0.109872
O O7 0.107815 0.624842 0.137115
O O8 0.188644 0.623954 0.000000
O O9 0.160583 0.941157 0.500000
O O10 0.130325 0.851032 0.373075
O O11 0.000000 0.000000 0.418870
O O12 0.228622 0.437517 0.871021
O O13 0.444585 0.403998 0.874539
O O14 0.335248 0.413521 0.000000
O O15 0.564436 0.090532 0.224051
O O16 0.769137 0.131998 0.251830
O O17 0.953779 0.751015 0.841140
O O18 0.913654 0.272558 0.739087
#
# Coordination Sequence:
#
# PCOD9425561 Si02
#       8
#     8   8   8   8   8   8   8   8
#     4  11  23  38  66  93 126 169 209 258 320 388
#     4  10  19  31  54  83 116 165 218 271 332 379
#     4  10  24  43  69 106 135 163 207 260 323 388
#     4  10  20  33  53  84 121 166 218 280 339 378
#     4  11  22  36  58  91 121 163 223 270 317 387
#     4  11  18  36  55  86 118 162 219 271 320 382
#     4  11  18  35  59  83 121 157 217 265 318 381
#     4  11  21  41  64  94 126 171 211 259 319 385
#
# _framework density 20.920045999999999
#
# number of rings (size 3 to 8) (size 9 to 14) (size 15 to 20)
#    0.000    1.375    6.250    1.125    1.750    2.000 
#    0.000    1.875    0.000    0.750    0.000    2.625 
#    0.000    0.000    0.000    0.000    0.000    0.000 
#
# Total GULP energy -357576.226360 kJ/mol
# GULP energy per Si atom -5587.128537 kJ/mol
# Density = 2.087243 g / cm^3
# Si number density = 20.920046 Si / 1000 Ang^3
#
#
#
# Elastic Constant Matrix: (Units=GPa)
#
#
# Indices 1 2 3 4 5 6 
#
# 1 83.1146 30.5624 58.0355 0.0000 0.0000 0.0000
# 2 30.5624 95.1922 35.7835 0.0000 0.0000 0.0000
# 3 58.0355 35.7835 157.7482 0.0000 0.0000 0.0000
# 4 0.0000 0.0000 0.0000 25.9086 0.0000 0.0000
# 5 0.0000 0.0000 0.0000 0.0000 20.2298 0.0000
# 6 0.0000 0.0000 0.0000 0.0000 0.0000 47.4496
#
#
#
# Elastic Compliance Matrix: (Units=1/GPa)
#
#
# Indices 1 2 3 4 5 6 
#
# 1 0.017156 -0.003428 -0.005534 0.000000 0.000000 0.000000
# 2 -0.003428 0.012169 -0.001499 0.000000 0.000000 0.000000
# 3 -0.005534 -0.001499 0.008715 0.000000 0.000000 0.000000
# 4 0.000000 0.000000 0.000000 0.038597 0.000000 0.000000
# 5 0.000000 0.000000 0.000000 0.000000 0.049432 0.000000
# 6 0.000000 0.000000 0.000000 0.000000 0.000000 0.021075
#
#
# Mechanical properties :
#
#
# Convention : Reuss Voigt Hill
#
# Bulk Modulus (GPa) = 58.41780 64.97975 61.69878
# Shear Modulus (GPa) = 28.77298 32.82919 30.80108
#
# Velocity S-wave (km/s) = 3.71263 3.96570 3.84125
# Velocity P-wave (km/s) = 6.80905 7.21786 7.01643
#
# Compressibility (1/GPa) = 0.01711807
#
# Stress axis : x y z
#
# Youngs Moduli (GPa) = 58.28728 82.17445 114.73968
#
# Poissons Ratio (x) = 0.28168 0.63500
# Poissons Ratio (y) = 0.19980 0.17204
# Poissons Ratio (z) = 0.32258 0.12321
#
# Static dielectric constant tensor:
#      x y z
#    x 1.807980 0.000000 0.000000 
#    y 0.000000 1.827490 0.000000 
#    z 0.000000 0.000000 1.739780 
# 
# From -- ./inp_files/21348.got.cif
#   From: 2010.05.17/outbox.cif.g08.bks.cpg/sg55_11_cif.got.tgz:21348.got - 2010.06.03 13:27:54.
