data_PCOD9425490
_publ_section_title
;
Structure prediction by ZEFSAII (Michael W. Deem and Ramdas Pophale) SiO2 
 PCOD9425490
Probable space group: P B A M
;
_chemical_formula_sum "Si O2"
_cell_formula_units_Z 64
_cell_length_a 20.307838
_cell_length_b 21.067408
_cell_length_c 7.508622
_cell_angle_alpha 90.000000
_cell_angle_beta 90.000000
_cell_angle_gamma 90.000000
_cell_volume 3212.440096
_symmetry_space_group_name_H-M "P B A M"
_symmetry_group_IT_number 55
_symmetry_cell_setting 'orthorhombic'
loop_
_space_group_symop_operation_xyz
x,y,z
-x,-y,z
1/2+x,1/2-y,-z
1/2-x,1/2+y,-z
-x,-y,-z
x,y,-z
1/2-x,1/2+y,z
1/2+x,1/2-y,z
loop_
_atom_site_type_symbol
_atom_site_label
_atom_site_fract_x
_atom_site_fract_y
_atom_site_fract_z
Si Si1 0.070718 0.025613 0.286032
Si Si2 0.677517 0.079583 0.212918
Si Si3 0.937231 0.335937 0.206199
Si Si4 0.081586 0.803439 0.217240
Si Si5 0.325581 0.415427 0.213319
Si Si6 0.427524 0.023871 0.218539
Si Si7 0.085912 0.303988 0.287180
Si Si8 0.431228 0.665173 0.707189
O O1 0.064245 0.031246 0.500000
O O2 0.085815 0.096337 0.215677
O O3 0.127476 0.975116 0.249167
O O4 0.000000 0.000000 0.219078
O O5 0.751726 0.076564 0.283310
O O6 0.643873 0.147475 0.246412
O O7 0.628171 0.025030 0.279691
O O8 0.680607 0.070981 0.000000
O O9 0.911330 0.269174 0.281012
O O10 0.917406 0.403979 0.281951
O O11 0.016797 0.330594 0.213398
O O12 0.916909 0.336794 0.000000
O O13 0.137376 0.852043 0.277701
O O14 0.010428 0.828247 0.279601
O O15 0.079476 0.802885 0.000000
O O16 0.320887 0.408808 0.000000
O O17 0.500000 0.000000 0.271927
O O18 0.427607 0.024540 0.000000
O O19 0.077292 0.300621 0.500000
O O20 0.095366 0.231983 0.218220
O O21 0.411493 0.664144 0.500000
#
# Coordination Sequence:
#
# PCOD9425490 Si02
#       8
#     8   8   8   8   8   8   8   8
#     4  10  19  33  54  76  99 134 174 208 250 307
#     4  10  20  35  51  70 102 138 171 205 252 310
#     4   9  16  29  50  72  94 123 163 204 248 298
#     4   9  17  29  47  72  98 124 157 202 251 295
#     4  10  21  34  49  74 106 135 165 210 258 300
#     4   9  15  27  50  73  91 123 168 206 240 292
#     4  10  19  31  49  74 101 127 161 208 254 295
#     4   9  18  32  50  74 100 125 162 207 248 292
#
# _framework density 19.922550000000001
#
# number of rings (size 3 to 8) (size 9 to 14) (size 15 to 20)
#    0.000    2.500    2.500    0.375    0.000    1.750 
#    0.000    2.500    0.000    3.000    0.000    0.000 
#    0.000    0.000    0.000    0.000    0.000    0.000 
#
# Total GULP energy -357019.526626 kJ/mol
# GULP energy per Si atom -5578.430104 kJ/mol
# Density = 1.987721 g / cm^3
# Si number density = 19.922550 Si / 1000 Ang^3
#
#
#
# Elastic Constant Matrix: (Units=GPa)
#
#
# Indices 1 2 3 4 5 6 
#
# 1 120.6709 108.0975 -7.5272 0.0000 0.0000 0.0000
# 2 108.0975 216.9847 -1.8939 0.0000 0.0000 0.0000
# 3 -7.5272 -1.8939 51.6420 0.0000 0.0000 0.0000
# 4 0.0000 0.0000 0.0000 3.9641 0.0000 0.0000
# 5 0.0000 0.0000 0.0000 0.0000 21.5536 0.0000
# 6 0.0000 0.0000 0.0000 0.0000 0.0000 22.2382
#
#
#
# Elastic Compliance Matrix: (Units=1/GPa)
#
#
# Indices 1 2 3 4 5 6 
#
# 1 0.015156 -0.007534 0.001933 0.000000 0.000000 0.000000
# 2 -0.007534 0.008355 -0.000792 0.000000 0.000000 0.000000
# 3 0.001933 -0.000792 0.019617 0.000000 0.000000 0.000000
# 4 0.000000 0.000000 0.000000 0.252264 0.000000 0.000000
# 5 0.000000 0.000000 0.000000 0.000000 0.046396 0.000000
# 6 0.000000 0.000000 0.000000 0.000000 0.000000 0.044968
#
#
# Mechanical properties :
#
#
# Convention : Reuss Voigt Hill
#
# Bulk Modulus (GPa) = 32.95667 65.18338 49.07003
# Shear Modulus (GPa) = 12.20538 28.92591 20.56564
#
# Velocity S-wave (km/s) = 2.47784 3.81454 3.21640
# Velocity P-wave (km/s) = 4.97640 7.22429 6.20302
#
# Compressibility (1/GPa) = 0.03034287
#
# Stress axis : x y z
#
# Youngs Moduli (GPa) = 65.97924 119.69098 50.97675
#
# Poissons Ratio (x) = 0.90172 -0.09853
# Poissons Ratio (y) = 0.49707 0.04036
# Poissons Ratio (z) = -0.12753 0.09476
#
# Static dielectric constant tensor:
#      x y z
#    x 1.653080 0.000000 0.000000 
#    y 0.000000 1.735480 0.000000 
#    z 0.000000 0.000000 1.738030 
# 
# From -- ./inp_files/9134.got.cif
#   From: 2010.05.17/outbox.cif.g08.bks.cpg/sg55_5_cif.got.tgz:9134.got - 2010.06.03 13:27:54.
