data_PCOD9425012
_publ_section_title
;
Structure prediction by ZEFSAII (Michael W. Deem and Ramdas Pophale) SiO2 
 PCOD9425012
Probable space group: P B A M
;
_chemical_formula_sum "Si O2"
_cell_formula_units_Z 64
_cell_length_a 19.985976
_cell_length_b 23.841868
_cell_length_c 7.977010
_cell_angle_alpha 90.000000
_cell_angle_beta 90.000000
_cell_angle_gamma 90.000000
_cell_volume 3801.069209
_symmetry_space_group_name_H-M "P B A M"
_symmetry_group_IT_number 55
_symmetry_cell_setting 'orthorhombic'
loop_
_space_group_symop_operation_xyz
x,y,z
-x,-y,z
1/2+x,1/2-y,-z
1/2-x,1/2+y,-z
-x,-y,-z
x,y,-z
1/2-x,1/2+y,z
1/2+x,1/2-y,z
loop_
_atom_site_type_symbol
_atom_site_label
_atom_site_fract_x
_atom_site_fract_y
_atom_site_fract_z
Si Si1 0.000703 0.624370 0.196739
Si Si2 0.635657 0.937653 0.202888
Si Si3 0.365343 0.934327 0.301241
Si Si4 0.003778 0.247809 0.698358
Si Si5 0.649598 0.272889 0.297509
Si Si6 0.641417 0.723566 0.300074
Si Si7 0.278317 0.165902 0.199684
Si Si8 0.269237 0.838130 0.704530
O O1 0.064775 0.589164 0.257623
O O2 0.933505 0.588807 0.220901
O O3 0.995100 0.684829 0.282489
O O4 0.011003 0.635521 0.000000
O O5 0.692997 0.893859 0.256071
O O6 0.644126 0.000330 0.267215
O O7 0.634900 0.940431 0.000000
O O8 0.372335 0.925283 0.500000
O O9 0.303445 0.895818 0.241636
O O10 0.003480 0.235500 0.500000
O O11 0.073787 0.224105 0.766963
O O12 0.933636 0.225343 0.770480
O O13 0.648049 0.272269 0.500000
O O14 0.701864 0.320353 0.243946
O O15 0.682376 0.213411 0.244923
O O16 0.636282 0.715285 0.500000
O O17 0.676229 0.784046 0.273341
O O18 0.694984 0.678096 0.234926
O O19 0.286069 0.168819 0.000000
O O20 0.266957 0.837997 0.500000
#
# Coordination Sequence:
#
# PCOD9425012 Si02
#       8
#     8   8   8   8   8   8   8   8
#     4  11  21  33  46  64  97 132 159 195 235 273
#     4  10  22  36  46  63  95 129 161 200 239 273
#     4  11  21  33  49  68  92 125 167 202 229 278
#     4  10  18  30  50  73  96 125 159 192 231 285
#     4   9  17  31  48  68  96 121 151 195 236 277
#     4   9  17  30  50  70  93 123 153 190 240 285
#     4  10  19  32  47  67  94 124 158 195 235 282
#     4   8  15  29  45  66  94 118 145 193 238 268
#
# _framework density 16.837367
#
# number of rings (size 3 to 8) (size 9 to 14) (size 15 to 20)
#    0.000    2.250    2.500    2.250    0.000    4.000 
#    0.000    0.625    0.000    0.000    0.000    0.875 
#    0.000    7.000    0.000    0.000    0.000    0.000 
#
# Total GULP energy -356899.239183 kJ/mol
# GULP energy per Si atom -5576.550612 kJ/mol
# Density = 1.679904 g / cm^3
# Si number density = 16.837367 Si / 1000 Ang^3
#
#
#
# Elastic Constant Matrix: (Units=GPa)
#
#
# Indices 1 2 3 4 5 6 
#
# 1 161.9878 70.4002 3.1847 0.0000 0.0000 0.0000
# 2 70.4002 75.8058 -6.4807 0.0000 0.0000 0.0000
# 3 3.1847 -6.4807 12.8317 0.0000 0.0000 0.0000
# 4 0.0000 0.0000 0.0000 35.7568 0.0000 0.0000
# 5 0.0000 0.0000 0.0000 0.0000 11.2006 0.0000
# 6 0.0000 0.0000 0.0000 0.0000 0.0000 20.2727
#
#
#
# Elastic Compliance Matrix: (Units=1/GPa)
#
#
# Indices 1 2 3 4 5 6 
#
# 1 0.011147 -0.011067 -0.008356 0.000000 0.000000 0.000000
# 2 -0.011067 0.024774 0.015259 0.000000 0.000000 0.000000
# 3 -0.008356 0.015259 0.087712 0.000000 0.000000 0.000000
# 4 0.000000 0.000000 0.000000 0.027967 0.000000 0.000000
# 5 0.000000 0.000000 0.000000 0.000000 0.089281 0.000000
# 6 0.000000 0.000000 0.000000 0.000000 0.000000 0.049327
#
#
# Mechanical properties :
#
#
# Convention : Reuss Voigt Hill
#
# Bulk Modulus (GPa) = 8.67262 42.75929 25.71596
# Shear Modulus (GPa) = 14.83809 25.68077 20.25943
#
# Velocity S-wave (km/s) = 2.97182 3.90965 3.47254
# Velocity P-wave (km/s) = 4.11554 6.76987 5.60217
#
# Compressibility (1/GPa) = 0.11530545
#
# Stress axis : x y z
#
# Youngs Moduli (GPa) = 89.70896 40.36563 11.40089
#
# Poissons Ratio (x) = 0.44671 0.09526
# Poissons Ratio (y) = 0.99277 -0.17396
# Poissons Ratio (z) = 0.74960 -0.61592
#
# Static dielectric constant tensor:
#      x y z
#    x 1.606240 0.000000 0.000000 
#    y 0.000000 1.536430 0.000000 
#    z 0.000000 0.000000 1.603690 
# 
# From -- ./inp_files/9110.got.cif
#   From: 2010.05.17/outbox.cif.g08.bks.cpg/sg55_5_cif.got.tgz:9110.got - 2010.06.03 13:27:54.
