data_PCOD9425145
_publ_section_title
;
Structure prediction by ZEFSAII (Michael W. Deem and Ramdas Pophale) SiO2 
 PCOD9425145
Probable space group: P B A M
;
_chemical_formula_sum "Si O2"
_cell_formula_units_Z 60
_cell_length_a 26.289638
_cell_length_b 5.482059
_cell_length_c 20.449898
_cell_angle_alpha 90.000000
_cell_angle_beta 90.000000
_cell_angle_gamma 90.000000
_cell_volume 2947.266838
_symmetry_space_group_name_H-M "P B A M"
_symmetry_group_IT_number 55
_symmetry_cell_setting 'orthorhombic'
loop_
_space_group_symop_operation_xyz
x,y,z
-x,-y,z
1/2+x,1/2-y,-z
1/2-x,1/2+y,-z
-x,-y,-z
x,y,-z
1/2-x,1/2+y,z
1/2+x,1/2-y,z
loop_
_atom_site_type_symbol
_atom_site_label
_atom_site_fract_x
_atom_site_fract_y
_atom_site_fract_z
Si Si1 0.921805 0.756552 0.142948
Si Si2 0.939278 0.502973 0.423870
Si Si3 0.509287 0.748157 0.259153
Si Si4 0.468623 0.751569 0.000000
Si Si5 0.775534 0.085311 0.403412
Si Si6 0.894799 0.004044 0.423273
Si Si7 0.725704 0.628793 0.246840
Si Si8 0.616779 0.754822 0.192569
O O1 0.939742 0.741233 0.068751
O O2 0.887813 0.519312 0.158948
O O3 0.970272 0.754582 0.195135
O O4 0.892926 0.013100 0.149666
O O5 0.920754 0.501501 0.500000
O O6 0.915497 0.750030 0.393973
O O7 0.000000 0.500000 0.427554
O O8 0.918349 0.251445 0.394194
O O9 0.500000 0.500000 0.296372
O O10 0.567202 0.751259 0.237782
O O11 0.500000 0.000000 0.294527
O O12 0.500000 0.500000 0.000000
O O13 0.500000 0.000000 0.000000
O O14 0.757526 0.352772 0.426747
O O15 0.769778 0.104350 0.324966
O O16 0.834095 0.026766 0.418698
O O17 0.910272 0.999351 0.500000
O O18 0.739525 0.355817 0.222469
O O19 0.668964 0.711285 0.229600
#
# Coordination Sequence:
#
# PCOD9425145 Si02
#       8
#     8   8   8   4   8   8   8   8
#     4  10  19  30  48  77 108 138 165 195 243 302
#     4   9  17  30  49  73 101 135 175 214 244 283
#     4   8  14  25  41  65  95 124 152 181 227 286
#     4  12  20  30  48  78 120 152 170 198 236 298
#     4  10  21  36  53  75 105 134 167 220 278 326
#     4  10  19  31  51  78 106 140 176 208 258 324
#     4  10  21  37  56  77  95 124 175 229 273 307
#     4  10  18  32  51  71  97 130 169 213 250 291
#
# _framework density 20.357845000000001
#
# number of rings (size 3 to 8) (size 9 to 14) (size 15 to 20)
#    0.000    2.267    0.000    5.200    0.000    2.133 
#    0.000    0.000    0.000    7.200    0.000   10.267 
#    0.000    0.000    0.000    0.000    0.000    0.000 
#
# Total GULP energy -334766.795158 kJ/mol
# GULP energy per Si atom -5579.446586 kJ/mol
# Density = 2.031151 g / cm^3
# Si number density = 20.357845 Si / 1000 Ang^3
#
#
#
# Elastic Constant Matrix: (Units=GPa)
#
#
# Indices 1 2 3 4 5 6 
#
# 1 78.9987 62.1022 -2.3361 0.0000 0.0000 0.0000
# 2 62.1022 227.6839 30.1836 0.0000 0.0000 0.0000
# 3 -2.3361 30.1836 51.4059 0.0000 0.0000 0.0000
# 4 0.0000 0.0000 0.0000 41.0669 0.0000 0.0000
# 5 0.0000 0.0000 0.0000 0.0000 19.6023 0.0000
# 6 0.0000 0.0000 0.0000 0.0000 0.0000 39.9307
#
#
#
# Elastic Compliance Matrix: (Units=1/GPa)
#
#
# Indices 1 2 3 4 5 6 
#
# 1 0.016749 -0.005064 0.003734 0.000000 0.000000 0.000000
# 2 -0.005064 0.006294 -0.003925 0.000000 0.000000 0.000000
# 3 0.003734 -0.003925 0.021928 0.000000 0.000000 0.000000
# 4 0.000000 0.000000 0.000000 0.024351 0.000000 0.000000
# 5 0.000000 0.000000 0.000000 0.000000 0.051015 0.000000
# 6 0.000000 0.000000 0.000000 0.000000 0.000000 0.025043
#
#
# Mechanical properties :
#
#
# Convention : Reuss Voigt Hill
#
# Bulk Modulus (GPa) = 29.01822 59.77644 44.39733
# Shear Modulus (GPa) = 29.87296 37.99589 33.93443
#
# Velocity S-wave (km/s) = 3.83481 4.32487 4.08719
# Velocity P-wave (km/s) = 5.82175 7.37333 6.64299
#
# Compressibility (1/GPa) = 0.03446110
#
# Stress axis : x y z
#
# Youngs Moduli (GPa) = 59.70362 158.89268 45.60469
#
# Poissons Ratio (x) = 0.80456 -0.17030
# Poissons Ratio (y) = 0.30231 0.17902
# Poissons Ratio (z) = -0.22295 0.62372
#
# Static dielectric constant tensor:
#      x y z
#    x 1.700700 0.000000 0.000000 
#    y 0.000000 1.819450 0.000000 
#    z 0.000000 0.000000 1.714160 
# 
# From -- ./inp_files/23179.got.cif
#   From: 2010.05.17/outbox.cif.g08.bks.cpg/sg55_12_cif.got.tgz:23179.got - 2010.06.03 13:27:54.
