data_PCOD9425734
_publ_section_title
;
Structure prediction by ZEFSAII (Michael W. Deem and Ramdas Pophale) SiO2 
 PCOD9425734
Probable space group: P B A M
;
_chemical_formula_sum "Si O2"
_cell_formula_units_Z 64
_cell_length_a 24.224130
_cell_length_b 16.012227
_cell_length_c 7.929601
_cell_angle_alpha 90.000000
_cell_angle_beta 90.000000
_cell_angle_gamma 90.000000
_cell_volume 3075.751624
_symmetry_space_group_name_H-M "P B A M"
_symmetry_group_IT_number 55
_symmetry_cell_setting 'orthorhombic'
loop_
_space_group_symop_operation_xyz
x,y,z
-x,-y,z
1/2+x,1/2-y,-z
1/2-x,1/2+y,-z
-x,-y,-z
x,y,-z
1/2-x,1/2+y,z
1/2+x,1/2-y,z
loop_
_atom_site_type_symbol
_atom_site_label
_atom_site_fract_x
_atom_site_fract_y
_atom_site_fract_z
Si Si1 0.534455 0.797472 0.699670
Si Si2 0.918810 0.644938 0.192549
Si Si3 0.922543 0.937735 0.203446
Si Si4 0.221338 0.495629 0.293413
Si Si5 0.903656 0.463266 0.296079
Si Si6 0.193509 0.133571 0.297481
Si Si7 0.544792 0.616870 0.203458
Si Si8 0.200521 0.315306 0.305279
O O1 0.527795 0.807179 0.500000
O O2 0.473385 0.801623 0.777509
O O3 0.568909 0.877349 0.762594
O O4 0.561598 0.708016 0.734959
O O5 0.932047 0.548015 0.231519
O O6 0.865797 0.670285 0.301407
O O7 0.901061 0.653372 0.000000
O O8 0.870094 0.886436 0.262346
O O9 0.981498 0.900858 0.259086
O O10 0.920986 0.035173 0.258024
O O11 0.923054 0.936672 0.000000
O O12 0.222489 0.493042 0.500000
O O13 0.160584 0.528992 0.246805
O O14 0.268351 0.558366 0.234041
O O15 0.225912 0.400156 0.231300
O O16 0.906302 0.465309 0.500000
O O17 0.200073 0.136762 0.500000
O O18 0.210440 0.224405 0.228316
O O19 0.545165 0.618133 0.000000
O O20 0.218609 0.311866 0.500000
#
# Coordination Sequence:
#
# PCOD9425734 Si02
#       8
#     8   8   8   8   8   8   8   8
#     4  11  21  32  50  79 107 136 171 212 262 313
#     4  11  21  32  51  77 104 138 177 216 256 309
#     4   9  19  36  55  74 102 139 172 210 262 311
#     4   8  16  34  53  73 102 135 171 215 261 307
#     4   9  19  36  53  71 103 140 172 213 263 309
#     4  10  19  32  55  82 101 131 178 219 261 311
#     4   9  19  36  54  73 103 141 174 207 256 315
#     4   9  18  34  54  76 104 138 173 219 268 309
#
# _framework density 20.807922000000001
#
# number of rings (size 3 to 8) (size 9 to 14) (size 15 to 20)
#    0.000    2.500    0.000    4.125    0.000    6.000 
#    2.250    3.750    0.000    0.000    0.000    0.000 
#    0.000    0.000    0.000    0.000    0.000    0.000 
#
# Total GULP energy -357182.811928 kJ/mol
# GULP energy per Si atom -5580.981436 kJ/mol
# Density = 2.076056 g / cm^3
# Si number density = 20.807922 Si / 1000 Ang^3
#
#
#
# Elastic Constant Matrix: (Units=GPa)
#
#
# Indices 1 2 3 4 5 6 
#
# 1 24.8771 28.1001 -2.4679 0.0000 0.0000 0.0000
# 2 28.1001 161.2374 -0.0016 0.0000 0.0000 0.0000
# 3 -2.4679 -0.0016 25.4097 0.0000 0.0000 0.0000
# 4 0.0000 0.0000 0.0000 -2.0939 0.0000 0.0000
# 5 0.0000 0.0000 0.0000 0.0000 17.3626 0.0000
# 6 0.0000 0.0000 0.0000 0.0000 0.0000 23.3134
#
#
#
# Elastic Compliance Matrix: (Units=1/GPa)
#
#
# Indices 1 2 3 4 5 6 
#
# 1 0.050658 -0.008829 0.004920 0.000000 0.000000 0.000000
# 2 -0.008829 0.007741 -0.000857 0.000000 0.000000 0.000000
# 3 0.004920 -0.000857 0.039833 0.000000 0.000000 0.000000
# 4 0.000000 0.000000 0.000000 -0.477568 0.000000 0.000000
# 5 0.000000 0.000000 0.000000 0.000000 0.057595 0.000000
# 6 0.000000 0.000000 0.000000 0.000000 0.000000 0.042894
#
#
# Mechanical properties :
#
#
# Convention : Reuss Voigt Hill
#
# Bulk Modulus (GPa) = 11.27404 29.19839 20.23621
# Shear Modulus (GPa) = -20.85509 20.10930 -0.37289
#
# Velocity S-wave (km/s) = -3.16929 3.11211 -0.42379
# Velocity P-wave (km/s) = 2.82182 5.19389 3.08333
#
# Compressibility (1/GPa) = 0.08869939
#
# Stress axis : x y z
#
# Youngs Moduli (GPa) = 19.74024 129.18829 25.10498
#
# Poissons Ratio (x) = 1.14054 -0.12350
# Poissons Ratio (y) = 0.17428 0.02151
# Poissons Ratio (z) = -0.09711 0.11071
#
# Static dielectric constant tensor:
#      x y z
#    x 1.707730 0.000000 0.000000 
#    y 0.000000 1.786750 0.000000 
#    z 0.000000 0.000000 1.748950 
# 
# From -- ./inp_files/9829.got.cif
#   From: 2010.05.17/outbox.cif.g08.bks.cpg/sg55_5_cif.got.tgz:9829.got - 2010.06.03 13:27:54.
