data_PCOD9425388
_publ_section_title
;
Structure prediction by ZEFSAII (Michael W. Deem and Ramdas Pophale) SiO2 
 PCOD9425388
Probable space group: P B A M
;
_chemical_formula_sum "Si O2"
_cell_formula_units_Z 40
_cell_length_a 7.026355
_cell_length_b 18.119954
_cell_length_c 13.482635
_cell_angle_alpha 90.000000
_cell_angle_beta 90.000000
_cell_angle_gamma 90.000000
_cell_volume 1716.571733
_symmetry_space_group_name_H-M "P B A M"
_symmetry_group_IT_number 55
_symmetry_cell_setting 'orthorhombic'
loop_
_space_group_symop_operation_xyz
x,y,z
-x,-y,z
1/2+x,1/2-y,-z
1/2-x,1/2+y,-z
-x,-y,-z
x,y,-z
1/2-x,1/2+y,z
1/2+x,1/2-y,z
loop_
_atom_site_type_symbol
_atom_site_label
_atom_site_fract_x
_atom_site_fract_y
_atom_site_fract_z
Si Si1 0.667861 0.606533 0.000000
Si Si2 0.278017 0.060777 0.610195
Si Si3 0.165783 0.642074 0.804007
Si Si4 0.830814 0.106963 0.610178
Si Si5 0.105039 0.811876 0.196070
Si Si6 0.781114 0.440330 0.000000
O O1 0.703163 0.654118 0.901273
O O2 0.773717 0.528461 0.000000
O O3 0.441671 0.585730 0.000000
O O4 0.354352 0.076962 0.500000
O O5 0.377586 0.101191 0.701268
O O6 0.057034 0.087292 0.609477
O O7 0.268531 0.972586 0.624070
O O8 0.393839 0.654642 0.803061
O O9 0.086001 0.724300 0.810591
O O10 0.128592 0.593089 0.900599
O O11 0.785124 0.136300 0.500000
O O12 0.799113 0.161899 0.701455
#
# Coordination Sequence:
#
# PCOD9425388 Si02
#       6
#     4   8   8   8   8   4
#     4   9  17  30  49  69  86 111 152 192 218 249
#     4   8  14  26  45  67  88 113 150 190 219 248
#     4  10  19  30  46  68  93 118 144 179 223 266
#     4   8  14  26  45  67  88 113 150 190 219 248
#     4  10  19  30  46  68  93 118 144 179 223 266
#     4   9  17  30  49  69  86 111 152 192 218 249
#
# _framework density 23.30226
#
# number of rings (size 3 to 8) (size 9 to 14) (size 15 to 20)
#    0.000    3.000    0.000    3.000    0.000    5.600 
#    0.000    0.000    0.000    6.000    0.000    2.800 
#    0.000    0.000    0.000    0.000    0.000    0.000 
#
# Total GULP energy -223788.511585 kJ/mol
# GULP energy per Si atom -5594.712790 kJ/mol
# Density = 2.324922 g / cm^3
# Si number density = 23.302260 Si / 1000 Ang^3
#
#
#
# Elastic Constant Matrix: (Units=GPa)
#
#
# Indices 1 2 3 4 5 6 
#
# 1 77.7795 20.2437 31.0169 0.0000 0.0000 0.0000
# 2 20.2437 130.2335 133.0030 0.0000 0.0000 0.0000
# 3 31.0169 133.0030 253.8795 0.0000 0.0000 0.0000
# 4 0.0000 0.0000 0.0000 -38.1980 0.0000 0.0000
# 5 0.0000 0.0000 0.0000 0.0000 -5.5071 0.0000
# 6 0.0000 0.0000 0.0000 0.0000 0.0000 17.6427
#
#
#
# Elastic Compliance Matrix: (Units=1/GPa)
#
#
# Indices 1 2 3 4 5 6 
#
# 1 0.013564 -0.000895 -0.001188 0.000000 0.000000 0.000000
# 2 -0.000895 0.016573 -0.008573 0.000000 0.000000 0.000000
# 3 -0.001188 -0.008573 0.008575 0.000000 0.000000 0.000000
# 4 0.000000 0.000000 0.000000 -0.026179 0.000000 0.000000
# 5 0.000000 0.000000 0.000000 0.000000 -0.181582 0.000000
# 6 0.000000 0.000000 0.000000 0.000000 0.000000 0.056681
#
#
# Mechanical properties :
#
#
# Convention : Reuss Voigt Hill
#
# Bulk Modulus (GPa) = 57.47215 92.26884 74.87050
# Shear Modulus (GPa) = -58.64581 13.29612 -22.67485
#
# Velocity S-wave (km/s) = -5.02216 2.39130 -3.12280
# Velocity P-wave (km/s) = 2.98532 6.87800 4.38148
#
# Compressibility (1/GPa) = 0.01739973
#
# Stress axis : x y z
#
# Youngs Moduli (GPa) = 73.72659 60.33992 116.61483
#
# Poissons Ratio (x) = 0.05399 0.13858
# Poissons Ratio (y) = 0.06596 0.99972
# Poissons Ratio (z) = 0.08761 0.51729
#
# Static dielectric constant tensor:
#      x y z
#    x 1.971190 0.000000 0.000000 
#    y 0.000000 1.791340 0.000000 
#    z 0.000000 0.000000 1.842540 
# 
# From -- ./inp_files/17105.got.cif
#   From: 2010.05.17/outbox.cif.g08.bks.cpg/sg55_9_cif.got.tgz:17105.got - 2010.06.03 13:27:54.
