data_PCOD9425328
_publ_section_title
;
Structure prediction by ZEFSAII (Michael W. Deem and Ramdas Pophale) SiO2 
 PCOD9425328
Probable space group: P B A M
;
_chemical_formula_sum "Si O2"
_cell_formula_units_Z 56
_cell_length_a 16.428461
_cell_length_b 11.610949
_cell_length_c 14.502801
_cell_angle_alpha 90.000000
_cell_angle_beta 90.000000
_cell_angle_gamma 90.000000
_cell_volume 2766.409622
_symmetry_space_group_name_H-M "P B A M"
_symmetry_group_IT_number 55
_symmetry_cell_setting 'orthorhombic'
loop_
_space_group_symop_operation_xyz
x,y,z
-x,-y,z
1/2+x,1/2-y,-z
1/2-x,1/2+y,-z
-x,-y,-z
x,y,-z
1/2-x,1/2+y,z
1/2+x,1/2-y,z
loop_
_atom_site_type_symbol
_atom_site_label
_atom_site_fract_x
_atom_site_fract_y
_atom_site_fract_z
Si Si1 0.159699 0.769333 0.894903
Si Si2 0.599876 0.183428 0.325578
Si Si3 0.052908 0.810070 0.398995
Si Si4 0.223811 0.158823 0.742003
Si Si5 0.984495 0.379909 0.166141
Si Si6 0.092413 0.969343 0.223267
Si Si7 0.623451 0.930023 0.346607
O O1 0.224054 0.702634 0.829571
O O2 0.071156 0.707398 0.889298
O O3 0.141059 0.892312 0.849924
O O4 0.187599 0.774525 0.000000
O O5 0.539589 0.271613 0.376156
O O6 0.689986 0.231956 0.314019
O O7 0.562783 0.168575 0.221040
O O8 0.600526 0.059115 0.375989
O O9 0.059415 0.863544 0.500000
O O10 0.083945 0.891989 0.316738
O O11 0.099173 0.686485 0.398835
O O12 0.282773 0.080915 0.679952
O O13 0.144845 0.083802 0.764487
O O14 0.927230 0.414778 0.252301
O O15 0.000000 0.500000 0.115335
O O16 0.000000 0.000000 0.195610
#
# Coordination Sequence:
#
# PCOD9425328 Si02
#       7
#     8   8   8   8   8   8   8
#     4  11  23  40  63  94 126 164 218 266 324 399
#     4  10  18  37  63  88 122 171 215 261 327 384
#     4  11  22  41  67  97 125 167 223 269 323 390
#     4  11  21  39  64  86 132 175 208 259 334 389
#     4   8  15  33  57  85 114 156 202 255 316 375
#     4  12  23  44  68  92 133 180 212 273 327 387
#     4   9  19  34  62  90 121 162 207 266 325 381
#
# _framework density 20.242846
#
# number of rings (size 3 to 8) (size 9 to 14) (size 15 to 20)
#    0.000    1.714    5.714    2.143    0.000    2.571 
#    0.000    3.571    0.000    0.000    0.000    0.000 
#    0.000    0.000    0.000    0.000    0.000    0.000 
#
# Total GULP energy -312157.098274 kJ/mol
# GULP energy per Si atom -5574.233898 kJ/mol
# Density = 2.019677 g / cm^3
# Si number density = 20.242846 Si / 1000 Ang^3
#
#
#
# Elastic Constant Matrix: (Units=GPa)
#
#
# Indices 1 2 3 4 5 6 
#
# 1 82.9550 14.2639 -1.7435 0.0000 0.0000 0.0000
# 2 14.2639 80.2651 10.1925 0.0000 0.0000 0.0000
# 3 -1.7435 10.1925 54.9128 0.0000 0.0000 0.0000
# 4 0.0000 0.0000 0.0000 -4.8535 0.0000 0.0000
# 5 0.0000 0.0000 0.0000 0.0000 -2.1486 0.0000
# 6 0.0000 0.0000 0.0000 0.0000 0.0000 39.7646
#
#
#
# Elastic Compliance Matrix: (Units=1/GPa)
#
#
# Indices 1 2 3 4 5 6 
#
# 1 0.012471 -0.002321 0.000827 0.000000 0.000000 0.000000
# 2 -0.002321 0.013192 -0.002522 0.000000 0.000000 0.000000
# 3 0.000827 -0.002522 0.018705 0.000000 0.000000 0.000000
# 4 0.000000 0.000000 0.000000 -0.206039 0.000000 0.000000
# 5 0.000000 0.000000 0.000000 0.000000 -0.465430 0.000000
# 6 0.000000 0.000000 0.000000 0.000000 0.000000 0.025148
#
#
# Mechanical properties :
#
#
# Convention : Reuss Voigt Hill
#
# Bulk Modulus (GPa) = 27.52199 29.28428 28.40313
# Shear Modulus (GPa) = -8.59390 19.58052 5.49331
#
# Velocity S-wave (km/s) = -2.06267 3.11349 1.64912
# Velocity P-wave (km/s) = 2.82004 5.23669 4.20568
#
# Compressibility (1/GPa) = 0.03633458
#
# Stress axis : x y z
#
# Youngs Moduli (GPa) = 80.18447 75.80632 53.46134
#
# Poissons Ratio (x) = 0.17597 -0.04420
# Poissons Ratio (y) = 0.18613 0.13484
# Poissons Ratio (z) = -0.06630 0.19120
#
# Static dielectric constant tensor:
#      x y z
#    x 1.744300 0.000000 0.000000 
#    y 0.000000 1.779650 0.000000 
#    z 0.000000 0.000000 1.730950 
# 
# From -- ./inp_files/18945.got.cif
#   From: 2010.05.17/outbox.cif.g08.bks.cpg/sg55_10_cif.got.tgz:18945.got - 2010.06.03 13:27:54.
