data_PCOD9425736
_publ_section_title
;
Structure prediction by ZEFSAII (Michael W. Deem and Ramdas Pophale) SiO2 
 PCOD9425736
Probable space group: P B A M
;
_chemical_formula_sum "Si O2"
_cell_formula_units_Z 64
_cell_length_a 21.306012
_cell_length_b 18.201198
_cell_length_c 9.032545
_cell_angle_alpha 90.000000
_cell_angle_beta 90.000000
_cell_angle_gamma 90.000000
_cell_volume 3502.775273
_symmetry_space_group_name_H-M "P B A M"
_symmetry_group_IT_number 55
_symmetry_cell_setting 'orthorhombic'
loop_
_space_group_symop_operation_xyz
x,y,z
-x,-y,z
1/2+x,1/2-y,-z
1/2-x,1/2+y,-z
-x,-y,-z
x,y,-z
1/2-x,1/2+y,z
1/2+x,1/2-y,z
loop_
_atom_site_type_symbol
_atom_site_label
_atom_site_fract_x
_atom_site_fract_y
_atom_site_fract_z
Si Si1 0.881890 0.660540 0.174769
Si Si2 0.501803 0.912302 0.674184
Si Si3 0.383481 0.330242 0.677462
Si Si4 0.625771 0.335702 0.175814
Si Si5 0.003637 0.912706 0.826054
Si Si6 0.245466 0.341482 0.329682
Si Si7 0.382312 0.169522 0.176934
Si Si8 0.253578 0.162809 0.329622
O O1 0.884359 0.748579 0.201177
O O2 0.813214 0.635727 0.230590
O O3 0.937849 0.622129 0.262411
O O4 0.888863 0.647711 0.000000
O O5 0.507888 0.894701 0.500000
O O6 0.560756 0.878704 0.761133
O O7 0.500000 0.000000 0.691078
O O8 0.383301 0.318983 0.500000
O O9 0.440238 0.380353 0.730006
O O10 0.315402 0.364659 0.717060
O O11 0.389991 0.251673 0.757482
O O12 0.562711 0.377614 0.219239
O O13 0.687684 0.361890 0.261022
O O14 0.635922 0.345487 0.000000
O O15 0.013930 0.893539 0.000000
O O16 0.000000 0.000000 0.814041
O O17 0.234058 0.363259 0.500000
O O18 0.249815 0.252218 0.326135
O O19 0.314965 0.141701 0.236869
O O20 0.382779 0.171699 0.000000
O O21 0.260553 0.140303 0.500000
#
# Coordination Sequence:
#
# PCOD9425736 Si02
#       8
#     8   8   8   8   8   8   8   8
#     4  10  19  32  55  83 107 136 177 223 268 319
#     4  11  24  40  56  76 107 145 182 222 267 316
#     4  10  20  35  57  83 110 141 180 223 267 319
#     4   9  18  33  53  79 108 140 179 220 267 319
#     4  10  21  36  53  76 110 149 187 228 272 318
#     4   8  16  31  51  77 107 137 172 218 267 316
#     4  11  21  35  58  84 110 139 174 219 268 320
#     4   9  17  31  53  81 109 137 173 217 266 317
#
# _framework density 18.271227
#
# number of rings (size 3 to 8) (size 9 to 14) (size 15 to 20)
#    0.000    2.250    0.000    4.125    0.000    6.750 
#    0.000    1.250    0.000    3.000    0.000    0.000 
#    0.000    0.000    0.000    0.000    0.000    0.000 
#
# Total GULP energy -357225.595918 kJ/mol
# GULP energy per Si atom -5581.649936 kJ/mol
# Density = 1.822964 g / cm^3
# Si number density = 18.271227 Si / 1000 Ang^3
#
#
#
# Elastic Constant Matrix: (Units=GPa)
#
#
# Indices 1 2 3 4 5 6 
#
# 1 185.0835 48.6227 94.2718 0.0000 0.0000 0.0000
# 2 48.6227 26.9283 42.7633 0.0000 0.0000 0.0000
# 3 94.2718 42.7633 120.1742 0.0000 0.0000 0.0000
# 4 0.0000 0.0000 0.0000 17.5047 0.0000 0.0000
# 5 0.0000 0.0000 0.0000 0.0000 39.7822 0.0000
# 6 0.0000 0.0000 0.0000 0.0000 0.0000 -12.3657
#
#
#
# Elastic Compliance Matrix: (Units=1/GPa)
#
#
# Indices 1 2 3 4 5 6 
#
# 1 0.010903 -0.014035 -0.003558 0.000000 0.000000 0.000000
# 2 -0.014035 0.103457 -0.025804 0.000000 0.000000 0.000000
# 3 -0.003558 -0.025804 0.020295 0.000000 0.000000 0.000000
# 4 0.000000 0.000000 0.000000 0.057128 0.000000 0.000000
# 5 0.000000 0.000000 0.000000 0.000000 0.025137 0.000000
# 6 0.000000 0.000000 0.000000 0.000000 0.000000 -0.080869
#
#
# Mechanical properties :
#
#
# Convention : Reuss Voigt Hill
#
# Bulk Modulus (GPa) = 20.89502 78.16684 49.53093
# Shear Modulus (GPa) = 20.93822 18.75278 19.84550
#
# Velocity S-wave (km/s) = 3.38889 3.20715 3.29927
# Velocity P-wave (km/s) = 5.17432 7.52255 6.45609
#
# Compressibility (1/GPa) = 0.04785829
#
# Stress axis : x y z
#
# Youngs Moduli (GPa) = 91.72206 9.66589 49.27389
#
# Poissons Ratio (x) = 0.13567 0.17532
# Poissons Ratio (y) = 1.28736 1.27147
# Poissons Ratio (z) = 0.32636 0.24942
#
# Static dielectric constant tensor:
#      x y z
#    x 1.623090 0.000000 0.000000 
#    y 0.000000 1.602520 0.000000 
#    z 0.000000 0.000000 1.616080 
# 
# From -- ./inp_files/9052.got.cif
#   From: 2010.05.17/outbox.cif.g08.bks.cpg/sg55_5_cif.got.tgz:9052.got - 2010.06.03 13:27:54.
