data_PCOD9425702
_publ_section_title
;
Structure prediction by ZEFSAII (Michael W. Deem and Ramdas Pophale) SiO2 
 PCOD9425702
Probable space group: P B A M
;
_chemical_formula_sum "Si O2"
_cell_formula_units_Z 64
_cell_length_a 29.649813
_cell_length_b 12.801471
_cell_length_c 7.627570
_cell_angle_alpha 90.000000
_cell_angle_beta 90.000000
_cell_angle_gamma 90.000000
_cell_volume 2895.129785
_symmetry_space_group_name_H-M "P B A M"
_symmetry_group_IT_number 55
_symmetry_cell_setting 'orthorhombic'
loop_
_space_group_symop_operation_xyz
x,y,z
-x,-y,z
1/2+x,1/2-y,-z
1/2-x,1/2+y,-z
-x,-y,-z
x,y,-z
1/2-x,1/2+y,z
1/2+x,1/2-y,z
loop_
_atom_site_type_symbol
_atom_site_label
_atom_site_fract_x
_atom_site_fract_y
_atom_site_fract_z
Si Si1 0.065596 0.762674 0.286874
Si Si2 0.302744 0.995772 0.204740
Si Si3 0.835770 0.285497 0.292598
Si Si4 0.118522 0.351373 0.788461
Si Si5 0.864609 0.880799 0.785267
Si Si6 0.513875 0.113931 0.291239
Si Si7 0.704638 0.558501 0.788125
Si Si8 0.049556 0.998364 0.204562
O O1 0.065432 0.768101 0.500000
O O2 0.112235 0.708481 0.230901
O O3 0.066603 0.880333 0.218097
O O4 0.020978 0.701854 0.225230
O O5 0.306829 0.120308 0.215895
O O6 0.347984 0.941848 0.277567
O O7 0.255536 0.955178 0.279763
O O8 0.301784 0.966675 0.000000
O O9 0.836008 0.301103 0.500000
O O10 0.816537 0.170458 0.256366
O O11 0.138657 0.239419 0.732626
O O12 0.066430 0.363407 0.736441
O O13 0.117716 0.352971 0.000000
O O14 0.826511 0.962192 0.726657
O O15 0.912797 0.924897 0.722237
O O16 0.864372 0.883371 0.000000
O O17 0.506438 0.111124 0.500000
O O18 0.500000 0.000000 0.220666
O O19 0.705511 0.552124 0.000000
O O20 0.044761 0.027926 0.000000
O O21 0.000000 0.000000 0.286475
#
# Coordination Sequence:
#
# PCOD9425702 Si02
#       8
#     8   8   8   8   8   8   8   8
#     4  10  21  36  55  81 113 152 195 239 287 346
#     4  10  23  39  63  91 117 153 198 248 299 357
#     4  11  23  40  62  88 122 156 195 248 298 352
#     4  10  21  38  59  89 120 150 196 248 295 346
#     4   9  18  34  56  83 117 151 185 236 293 346
#     4  10  21  38  58  80 113 159 201 236 290 355
#     4  10  21  39  64  89 115 154 200 246 299 357
#     4  10  19  32  53  82 113 148 187 233 292 346
#
# _framework density 22.106089999999998
#
# number of rings (size 3 to 8) (size 9 to 14) (size 15 to 20)
#    0.000    2.000    1.250    1.875    1.750    4.500 
#    0.000    1.250    0.000    0.000    0.000    0.000 
#    0.000    0.000    0.000    0.000    0.000    0.000 
#
# Total GULP energy -357570.301976 kJ/mol
# GULP energy per Si atom -5587.035968 kJ/mol
# Density = 2.205578 g / cm^3
# Si number density = 22.106090 Si / 1000 Ang^3
#
#
#
# Elastic Constant Matrix: (Units=GPa)
#
#
# Indices 1 2 3 4 5 6 
#
# 1 129.0130 28.0943 -4.0963 0.0000 0.0000 0.0000
# 2 28.0943 95.7298 -17.0869 0.0000 0.0000 0.0000
# 3 -4.0963 -17.0869 39.2270 0.0000 0.0000 0.0000
# 4 0.0000 0.0000 0.0000 23.6025 0.0000 0.0000
# 5 0.0000 0.0000 0.0000 0.0000 11.3296 0.0000
# 6 0.0000 0.0000 0.0000 0.0000 0.0000 35.9157
#
#
#
# Elastic Compliance Matrix: (Units=1/GPa)
#
#
# Indices 1 2 3 4 5 6 
#
# 1 0.008282 -0.002468 -0.000210 0.000000 0.000000 0.000000
# 2 -0.002468 0.012062 0.004996 0.000000 0.000000 0.000000
# 3 -0.000210 0.004996 0.027647 0.000000 0.000000 0.000000
# 4 0.000000 0.000000 0.000000 0.042368 0.000000 0.000000
# 5 0.000000 0.000000 0.000000 0.000000 0.088264 0.000000
# 6 0.000000 0.000000 0.000000 0.000000 0.000000 0.027843
#
#
# Mechanical properties :
#
#
# Convention : Reuss Voigt Hill
#
# Bulk Modulus (GPa) = 19.00147 30.86579 24.93363
# Shear Modulus (GPa) = 22.79222 31.30681 27.04951
#
# Velocity S-wave (km/s) = 3.21446 3.76734 3.50183
# Velocity P-wave (km/s) = 4.73194 5.73730 5.25870
#
# Compressibility (1/GPa) = 0.05262752
#
# Stress axis : x y z
#
# Youngs Moduli (GPa) = 120.74471 82.90365 36.17019
#
# Poissons Ratio (x) = 0.20461 0.00760
# Poissons Ratio (y) = 0.29801 -0.18072
# Poissons Ratio (z) = 0.02538 -0.41422
#
# Static dielectric constant tensor:
#      x y z
#    x 1.818220 0.000000 0.000000 
#    y 0.000000 1.782310 0.000000 
#    z 0.000000 0.000000 1.832630 
# 
# From -- ./inp_files/10785.got.cif
#   From: 2010.05.17/outbox.cif.g08.bks.cpg/sg55_6_cif.got.tgz:10785.got - 2010.06.03 13:27:54.
