data_PCOD9425163
_publ_section_title
;
Structure prediction by ZEFSAII (Michael W. Deem and Ramdas Pophale) SiO2 
 PCOD9425163
Probable space group: P B A M
;
_chemical_formula_sum "Si O2"
_cell_formula_units_Z 48
_cell_length_a 15.946195
_cell_length_b 9.907059
_cell_length_c 16.540513
_cell_angle_alpha 90.000000
_cell_angle_beta 90.000000
_cell_angle_gamma 90.000000
_cell_volume 2613.068502
_symmetry_space_group_name_H-M "P B A M"
_symmetry_group_IT_number 55
_symmetry_cell_setting 'orthorhombic'
loop_
_space_group_symop_operation_xyz
x,y,z
-x,-y,z
1/2+x,1/2-y,-z
1/2-x,1/2+y,-z
-x,-y,-z
x,y,-z
1/2-x,1/2+y,z
1/2+x,1/2-y,z
loop_
_atom_site_type_symbol
_atom_site_label
_atom_site_fract_x
_atom_site_fract_y
_atom_site_fract_z
Si Si1 0.257618 0.652990 0.665655
Si Si2 0.599338 0.751079 0.762782
Si Si3 0.168582 0.112781 0.841839
Si Si4 0.500000 0.500000 0.797748
Si Si5 0.155706 0.408960 0.594367
Si Si6 0.717646 0.667633 0.094389
Si Si7 0.500000 0.000000 0.295557
O O1 0.173793 0.727074 0.698883
O O2 0.309082 0.616477 0.746726
O O3 0.225586 0.519796 0.620247
O O4 0.309424 0.760242 0.613927
O O5 0.546798 0.615736 0.747682
O O6 0.644850 0.730833 0.849016
O O7 0.540279 0.880652 0.756923
O O8 0.198766 0.251937 0.880557
O O9 0.220072 0.989537 0.881429
O O10 0.071253 0.075518 0.849626
O O11 0.136611 0.423322 0.500000
O O12 0.074014 0.439839 0.648591
O O13 0.701247 0.682185 0.000000
#
# Coordination Sequence:
#
# PCOD9425163 Si02
#       7
#     8   8   8   4   8   8   4
#     4  10  20  36  56  77 106 145 184 214 254 324
#     4   9  20  35  55  78 105 144 181 215 262 317
#     4  10  20  35  57  79 105 144 180 214 263 317
#     4  10  18  32  53  80 103 128 178 226 256 304
#     4  11  21  35  55  82 109 138 175 224 270 310
#     4  10  20  36  54  78 107 139 179 223 262 309
#     4  10  21  36  55  78 110 142 176 216 267 324
#
# _framework density 18.369209000000001
#
# number of rings (size 3 to 8) (size 9 to 14) (size 15 to 20)
#    0.000    2.000    0.000    5.250    0.000    2.667 
#    0.000   10.833    0.000    0.000    0.000   16.333 
#    0.000    0.000    0.000    0.000    0.000    0.000 
#
# Total GULP energy -267874.620130 kJ/mol
# GULP energy per Si atom -5580.721253 kJ/mol
# Density = 1.832740 g / cm^3
# Si number density = 18.369209 Si / 1000 Ang^3
#
#
#
# Elastic Constant Matrix: (Units=GPa)
#
#
# Indices 1 2 3 4 5 6 
#
# 1 66.9013 22.7616 -15.2012 0.0000 0.0000 0.0000
# 2 22.7616 44.8124 -5.0454 0.0000 0.0000 0.0000
# 3 -15.2012 -5.0454 46.7023 0.0000 0.0000 0.0000
# 4 0.0000 0.0000 0.0000 18.9641 0.0000 0.0000
# 5 0.0000 0.0000 0.0000 0.0000 3.4792 0.0000
# 6 0.0000 0.0000 0.0000 0.0000 0.0000 36.7823
#
#
#
# Elastic Compliance Matrix: (Units=1/GPa)
#
#
# Indices 1 2 3 4 5 6 
#
# 1 0.019276 -0.009196 0.005281 0.000000 0.000000 0.000000
# 2 -0.009196 0.026978 -0.000079 0.000000 0.000000 0.000000
# 3 0.005281 -0.000079 0.023123 0.000000 0.000000 0.000000
# 4 0.000000 0.000000 0.000000 0.052731 0.000000 0.000000
# 5 0.000000 0.000000 0.000000 0.000000 0.287423 0.000000
# 6 0.000000 0.000000 0.000000 0.000000 0.000000 0.027187
#
#
# Mechanical properties :
#
#
# Convention : Reuss Voigt Hill
#
# Bulk Modulus (GPa) = 16.29009 18.16066 17.22537
# Shear Modulus (GPa) = 10.74879 22.23852 16.49366
#
# Velocity S-wave (km/s) = 2.42162 3.48320 2.99974
# Velocity P-wave (km/s) = 4.08734 5.10733 4.62554
#
# Compressibility (1/GPa) = 0.06138703
#
# Stress axis : x y z
#
# Youngs Moduli (GPa) = 51.87760 37.06789 43.24787
#
# Poissons Ratio (x) = 0.34089 -0.22838
# Poissons Ratio (y) = 0.47709 0.00341
# Poissons Ratio (z) = -0.27395 0.00292
#
# Static dielectric constant tensor:
#      x y z
#    x 1.655260 0.000000 0.000000 
#    y 0.000000 1.645010 0.000000 
#    z 0.000000 0.000000 1.602000 
# 
# From -- ./inp_files/21543.got.cif
#   From: 2010.05.17/outbox.cif.g08.bks.cpg/sg55_11_cif.got.tgz:21543.got - 2010.06.03 13:27:54.
