data_PCOD9425289
_publ_section_title
;
Structure prediction by ZEFSAII (Michael W. Deem and Ramdas Pophale) SiO2 
 PCOD9425289
Probable space group: P B A M
;
_chemical_formula_sum "Si O2"
_cell_formula_units_Z 56
_cell_length_a 21.434244
_cell_length_b 14.916667
_cell_length_c 7.769866
_cell_angle_alpha 90.000000
_cell_angle_beta 90.000000
_cell_angle_gamma 90.000000
_cell_volume 2484.239677
_symmetry_space_group_name_H-M "P B A M"
_symmetry_group_IT_number 55
_symmetry_cell_setting 'orthorhombic'
loop_
_space_group_symop_operation_xyz
x,y,z
-x,-y,z
1/2+x,1/2-y,-z
1/2-x,1/2+y,-z
-x,-y,-z
x,y,-z
1/2-x,1/2+y,z
1/2+x,1/2-y,z
loop_
_atom_site_type_symbol
_atom_site_label
_atom_site_fract_x
_atom_site_fract_y
_atom_site_fract_z
Si Si1 0.405402 0.298972 0.702108
Si Si2 0.597927 0.022110 0.708028
Si Si3 0.674375 0.372409 0.693854
Si Si4 0.727863 0.726817 0.798768
Si Si5 0.739530 0.029061 0.799090
Si Si6 0.927353 0.002595 0.710350
Si Si7 0.491072 0.145158 0.290415
O O1 0.418770 0.309581 0.500000
O O2 0.338933 0.249006 0.717808
O O3 0.401506 0.400617 0.770988
O O4 0.460924 0.237307 0.774305
O O5 0.603120 0.024344 0.500000
O O6 0.665987 0.014996 0.784487
O O7 0.559041 0.110332 0.764432
O O8 0.556465 0.935465 0.752582
O O9 0.659669 0.342816 0.500000
O O10 0.714365 0.293210 0.775622
O O11 0.722086 0.455973 0.695428
O O12 0.612410 0.417241 0.773163
O O13 0.745935 0.628522 0.733317
O O14 0.715083 0.720393 0.000000
O O15 0.757515 0.020670 0.000000
O O16 0.922154 0.999067 0.500000
O O17 0.000000 0.000000 0.754238
O O18 0.492942 0.149509 0.500000
#
# Coordination Sequence:
#
# PCOD9425289 Si02
#       7
#     8   8   8   8   8   8   8
#     4  10  18  34  59  84 112 152 201 244 291 351
#     4   9  17  32  53  81 114 146 189 236 288 344
#     4  11  22  38  62  89 116 151 198 249 297 349
#     4  11  24  39  57  83 118 157 195 240 295 352
#     4  11  23  38  56  81 118 155 189 235 289 343
#     4   9  19  35  57  87 119 148 190 249 302 347
#     4   8  16  30  52  81 111 145 184 238 291 338
#
# _framework density 22.542110000000001
#
# number of rings (size 3 to 8) (size 9 to 14) (size 15 to 20)
#    0.000    2.143    1.429    3.000    0.000    4.000 
#    0.000    5.000    0.000    3.857    0.000    0.000 
#    0.000    0.000    0.000    0.000    0.000    0.000 
#
# Total GULP energy -312690.333089 kJ/mol
# GULP energy per Si atom -5583.755948 kJ/mol
# Density = 2.249080 g / cm^3
# Si number density = 22.542110 Si / 1000 Ang^3
#
#
#
# Elastic Constant Matrix: (Units=GPa)
#
#
# Indices 1 2 3 4 5 6 
#
# 1 87.5728 -11.1468 -10.6677 0.0000 0.0000 0.0000
# 2 -11.1468 41.2731 -1.0655 0.0000 0.0000 0.0000
# 3 -10.6677 -1.0655 32.7474 0.0000 0.0000 0.0000
# 4 0.0000 0.0000 0.0000 7.1132 0.0000 0.0000
# 5 0.0000 0.0000 0.0000 0.0000 30.6706 0.0000
# 6 0.0000 0.0000 0.0000 0.0000 0.0000 33.2781
#
#
#
# Elastic Compliance Matrix: (Units=1/GPa)
#
#
# Indices 1 2 3 4 5 6 
#
# 1 0.012362 0.003445 0.004139 0.000000 0.000000 0.000000
# 2 0.003445 0.025210 0.001943 0.000000 0.000000 0.000000
# 3 0.004139 0.001943 0.031948 0.000000 0.000000 0.000000
# 4 0.000000 0.000000 0.000000 0.140583 0.000000 0.000000
# 5 0.000000 0.000000 0.000000 0.000000 0.032605 0.000000
# 6 0.000000 0.000000 0.000000 0.000000 0.000000 0.030050
#
#
# Mechanical properties :
#
#
# Convention : Reuss Voigt Hill
#
# Bulk Modulus (GPa) = 11.28998 12.87035 12.08017
# Shear Modulus (GPa) = 17.65365 26.51060 22.08212
#
# Velocity S-wave (km/s) = 2.80150 3.43308 3.13324
# Velocity P-wave (km/s) = 3.93495 4.62996 4.29653
#
# Compressibility (1/GPa) = 0.08857410
#
# Stress axis : x y z
#
# Youngs Moduli (GPa) = 80.89414 39.66748 31.30053
#
# Poissons Ratio (x) = -0.13667 -0.12955
# Poissons Ratio (y) = -0.27872 -0.06081
# Poissons Ratio (z) = -0.33483 -0.07706
#
# Static dielectric constant tensor:
#      x y z
#    x 1.829270 0.000000 0.000000 
#    y 0.000000 1.849270 0.000000 
#    z 0.000000 0.000000 1.832000 
# 
# From -- ./inp_files/6038.got.cif
#   From: 2010.05.17/outbox.cif.g08.bks.cpg/sg55_4_cif.got.tgz:6038.got - 2010.06.03 13:27:54.
