data_PCOD9425790
_publ_section_title
;
Structure prediction by ZEFSAII (Michael W. Deem and Ramdas Pophale) SiO2 
 PCOD9425790
Probable space group: P B A M
;
_chemical_formula_sum "Si O2"
_cell_formula_units_Z 54
_cell_length_a 17.070464
_cell_length_b 5.062908
_cell_length_c 29.365646
_cell_angle_alpha 90.000000
_cell_angle_beta 90.000000
_cell_angle_gamma 90.000000
_cell_volume 2537.960864
_symmetry_space_group_name_H-M "P B A M"
_symmetry_group_IT_number 55
_symmetry_cell_setting 'orthorhombic'
loop_
_space_group_symop_operation_xyz
x,y,z
-x,-y,z
1/2+x,1/2-y,-z
1/2-x,1/2+y,-z
-x,-y,-z
x,y,-z
1/2-x,1/2+y,z
1/2+x,1/2-y,z
loop_
_atom_site_type_symbol
_atom_site_label
_atom_site_fract_x
_atom_site_fract_y
_atom_site_fract_z
Si Si1 0.593205 0.008423 0.646945
Si Si2 0.804865 0.434984 0.265188
Si Si3 0.696169 0.383332 0.500000
Si Si4 0.806471 0.892717 0.947981
Si Si5 0.406180 0.489998 0.588347
Si Si6 0.196561 0.703980 0.167520
Si Si7 0.000000 0.500000 0.000000
Si Si8 0.083555 0.488770 0.092629
O O1 0.637693 0.923283 0.692310
O O2 0.612253 0.299034 0.628184
O O3 0.500000 0.000000 0.654737
O O4 0.612506 0.799952 0.607153
O O5 0.735068 0.221462 0.267134
O O6 0.842396 0.369114 0.215995
O O7 0.732496 0.091811 0.500000
O O8 0.643045 0.435831 0.544208
O O9 0.742215 0.659185 0.942572
O O10 0.878641 0.798839 0.917070
O O11 0.835730 0.883109 0.000000
O O12 0.500000 0.500000 0.579265
O O13 0.230147 0.999238 0.165750
O O14 0.141865 0.640795 0.125289
O O15 0.938145 0.409314 0.041407
O O16 0.000000 0.500000 0.116555
#
# Coordination Sequence:
#
# PCOD9425790 Si02
#       8
#     8   8   4   8   8   8   2   8
#     4  10  21  37  60  87 117 153 204 243 298 361
#     4  10  21  37  60  88 118 150 189 241 297 350
#     4  12  25  38  57  88 120 156 212 264 303 352
#     4  10  19  33  53  76 101 135 174 212 256 314
#     4  10  22  40  59  83 120 166 199 247 300 365
#     4  10  22  41  62  86 116 154 194 233 286 353
#     4   8  20  36  60  86 124 142 194 234 300 324
#     4  10  19  37  59  83 117 146 185 234 283 334
#
# _framework density 21.276924999999999
#
# number of rings (size 3 to 8) (size 9 to 14) (size 15 to 20)
#    0.444    1.481    0.741    2.889    0.000    4.148 
#    0.000    5.926    0.000   11.556    0.000    0.000 
#    0.000    0.000    0.000    0.000    0.000    0.000 
#
# Total GULP energy -301153.859801 kJ/mol
# GULP energy per Si atom -5576.923330 kJ/mol
# Density = 2.122850 g / cm^3
# Si number density = 21.276925 Si / 1000 Ang^3
#
#
#
# Elastic Constant Matrix: (Units=GPa)
#
#
# Indices 1 2 3 4 5 6 
#
# 1 46.7097 7.8695 44.3028 0.0000 0.0000 0.0000
# 2 7.8695 74.7570 -1.8297 0.0000 0.0000 0.0000
# 3 44.3028 -1.8297 110.6524 0.0000 0.0000 0.0000
# 4 0.0000 0.0000 0.0000 20.1607 0.0000 0.0000
# 5 0.0000 0.0000 0.0000 0.0000 38.2931 0.0000
# 6 0.0000 0.0000 0.0000 0.0000 0.0000 11.1906
#
#
#
# Elastic Compliance Matrix: (Units=1/GPa)
#
#
# Indices 1 2 3 4 5 6 
#
# 1 0.035738 -0.004114 -0.014377 0.000000 0.000000 0.000000
# 2 -0.004114 0.013856 0.001876 0.000000 0.000000 0.000000
# 3 -0.014377 0.001876 0.014824 0.000000 0.000000 0.000000
# 4 0.000000 0.000000 0.000000 0.049601 0.000000 0.000000
# 5 0.000000 0.000000 0.000000 0.000000 0.026114 0.000000
# 6 0.000000 0.000000 0.000000 0.000000 0.000000 0.089361
#
#
# Mechanical properties :
#
#
# Convention : Reuss Voigt Hill
#
# Bulk Modulus (GPa) = 32.06242 36.97827 34.52034
# Shear Modulus (GPa) = 18.30700 26.04732 22.17716
#
# Velocity S-wave (km/s) = 2.93647 3.50266 3.23199
# Velocity P-wave (km/s) = 5.15742 5.81166 5.49429
#
# Compressibility (1/GPa) = 0.03118917
#
# Stress axis : x y z
#
# Youngs Moduli (GPa) = 27.98163 72.17270 67.45619
#
# Poissons Ratio (x) = 0.29691 0.96979
# Poissons Ratio (y) = 0.11511 -0.12656
# Poissons Ratio (z) = 0.40228 -0.13541
#
# Static dielectric constant tensor:
#      x y z
#    x 1.783630 0.000000 0.000000 
#    y 0.000000 1.799690 0.000000 
#    z 0.000000 0.000000 1.786260 
# 
# From -- ./inp_files/24196.got.cif
#   From: 2010.05.17/outbox.cif.g08.bks.cpg/sg55_13_cif.got.tgz:24196.got - 2010.06.03 13:27:54.
