data_PCOD9425221
_publ_section_title
;
Structure prediction by ZEFSAII (Michael W. Deem and Ramdas Pophale) SiO2 
 PCOD9425221
Probable space group: P B A M
;
_chemical_formula_sum "Si O2"
_cell_formula_units_Z 56
_cell_length_a 19.585552
_cell_length_b 18.160563
_cell_length_c 8.802676
_cell_angle_alpha 90.000000
_cell_angle_beta 90.000000
_cell_angle_gamma 90.000000
_cell_volume 3130.976741
_symmetry_space_group_name_H-M "P B A M"
_symmetry_group_IT_number 55
_symmetry_cell_setting 'orthorhombic'
loop_
_space_group_symop_operation_xyz
x,y,z
-x,-y,z
1/2+x,1/2-y,-z
1/2-x,1/2+y,-z
-x,-y,-z
x,y,-z
1/2-x,1/2+y,z
1/2+x,1/2-y,z
loop_
_atom_site_type_symbol
_atom_site_label
_atom_site_fract_x
_atom_site_fract_y
_atom_site_fract_z
Si Si1 0.077787 0.517954 0.184005
Si Si2 0.792486 0.575387 0.819583
Si Si3 0.654098 0.845267 0.322895
Si Si4 0.721923 0.421158 0.175156
Si Si5 0.184315 0.811648 0.179625
Si Si6 0.916744 0.918506 0.675211
Si Si7 0.569480 0.595375 0.675637
O O1 0.134959 0.457590 0.237279
O O2 0.102168 0.597761 0.242563
O O3 0.000000 0.500000 0.229193
O O4 0.080765 0.518886 0.000000
O O5 0.739037 0.507630 0.803393
O O6 0.754015 0.648472 0.760410
O O7 0.801863 0.587220 0.000000
O O8 0.638629 0.842606 0.500000
O O9 0.727930 0.880279 0.288935
O O10 0.660837 0.763926 0.255695
O O11 0.644897 0.400586 0.213930
O O12 0.739169 0.403460 0.000000
O O13 0.123301 0.868135 0.213988
O O14 0.192346 0.799976 0.000000
O O15 0.900708 0.898798 0.500000
O O16 0.990906 0.886468 0.713877
O O17 0.923965 0.007151 0.679476
O O18 0.582481 0.618011 0.500000
#
# Coordination Sequence:
#
# PCOD9425221 Si02
#       7
#     8   8   8   8   8   8   8
#     4   9  18  37  63  87 110 140 181 232 283 338
#     4   8  16  30  52  81 106 132 172 222 273 320
#     4  11  23  37  54  78 109 145 182 226 280 335
#     4  10  18  33  54  78 104 135 179 227 267 317
#     4  11  20  34  53  77 108 144 184 230 276 326
#     4   9  17  30  49  75 107 140 173 214 262 313
#     4   9  18  31  48  74 109 144 177 213 259 319
#
# _framework density 17.885791000000001
#
# number of rings (size 3 to 8) (size 9 to 14) (size 15 to 20)
#    0.000    2.429    1.429    3.857    0.000    0.857 
#    0.000    3.571    0.000    5.143    0.000    0.000 
#    0.000    0.000    0.000    0.000    0.000    0.000 
#
# Total GULP energy -311879.747411 kJ/mol
# GULP energy per Si atom -5569.281204 kJ/mol
# Density = 1.784508 g / cm^3
# Si number density = 17.885791 Si / 1000 Ang^3
#
#
#
# Elastic Constant Matrix: (Units=GPa)
#
#
# Indices 1 2 3 4 5 6 
#
# 1 110.0631 35.9342 20.7130 0.0000 0.0000 0.0000
# 2 35.9342 74.8584 18.8406 0.0000 0.0000 0.0000
# 3 20.7130 18.8406 29.1488 0.0000 0.0000 0.0000
# 4 0.0000 0.0000 0.0000 17.2295 0.0000 0.0000
# 5 0.0000 0.0000 0.0000 0.0000 21.8557 0.0000
# 6 0.0000 0.0000 0.0000 0.0000 0.0000 10.3506
#
#
#
# Elastic Compliance Matrix: (Units=1/GPa)
#
#
# Indices 1 2 3 4 5 6 
#
# 1 0.011463 -0.004123 -0.005481 0.000000 0.000000 0.000000
# 2 -0.004123 0.017437 -0.008341 0.000000 0.000000 0.000000
# 3 -0.005481 -0.008341 0.043592 0.000000 0.000000 0.000000
# 4 0.000000 0.000000 0.000000 0.058040 0.000000 0.000000
# 5 0.000000 0.000000 0.000000 0.000000 0.045755 0.000000
# 6 0.000000 0.000000 0.000000 0.000000 0.000000 0.096613
#
#
# Mechanical properties :
#
#
# Convention : Reuss Voigt Hill
#
# Bulk Modulus (GPa) = 27.31977 40.56064 33.94020
# Shear Modulus (GPa) = 15.57678 19.12599 17.35138
#
# Velocity S-wave (km/s) = 2.95431 3.27362 3.11806
# Velocity P-wave (km/s) = 5.19085 6.08405 5.65511
#
# Compressibility (1/GPa) = 0.03660353
#
# Stress axis : x y z
#
# Youngs Moduli (GPa) = 87.23471 57.34910 22.93988
#
# Poissons Ratio (x) = 0.23647 0.12572
# Poissons Ratio (y) = 0.35970 0.19133
# Poissons Ratio (z) = 0.47810 0.47832
#
# Static dielectric constant tensor:
#      x y z
#    x 1.637640 0.000000 0.000000 
#    y 0.000000 1.639100 0.000000 
#    z 0.000000 0.000000 1.612270 
# 
# From -- ./inp_files/9097.got.cif
#   From: 2010.05.17/outbox.cif.g08.bks.cpg/sg55_5_cif.got.tgz:9097.got - 2010.06.03 13:27:54.
