data_PCOD9425634
_publ_section_title
;
Structure prediction by ZEFSAII (Michael W. Deem and Ramdas Pophale) SiO2 
 PCOD9425634
Probable space group: P B A M
;
_chemical_formula_sum "Si O2"
_cell_formula_units_Z 48
_cell_length_a 18.694595
_cell_length_b 16.715512
_cell_length_c 9.071531
_cell_angle_alpha 90.000000
_cell_angle_beta 90.000000
_cell_angle_gamma 90.000000
_cell_volume 2834.760246
_symmetry_space_group_name_H-M "P B A M"
_symmetry_group_IT_number 55
_symmetry_cell_setting 'orthorhombic'
loop_
_space_group_symop_operation_xyz
x,y,z
-x,-y,z
1/2+x,1/2-y,-z
1/2-x,1/2+y,-z
-x,-y,-z
x,y,-z
1/2-x,1/2+y,z
1/2+x,1/2-y,z
loop_
_atom_site_type_symbol
_atom_site_label
_atom_site_fract_x
_atom_site_fract_y
_atom_site_fract_z
Si Si1 0.547599 0.081281 0.168823
Si Si2 0.578528 0.835900 0.324358
Si Si3 0.671637 0.992204 0.323797
Si Si4 0.459380 0.585829 0.832042
Si Si5 0.910702 0.155489 0.674976
Si Si6 0.825310 0.011336 0.177364
O O1 0.495405 0.146194 0.240808
O O2 0.617646 0.059582 0.262000
O O3 0.500000 0.000000 0.169182
O O4 0.565613 0.100536 0.000000
O O5 0.564901 0.840116 0.500000
O O6 0.606834 0.747525 0.290357
O O7 0.634324 0.906662 0.289204
O O8 0.678325 0.998959 0.500000
O O9 0.747891 0.998928 0.246356
O O10 0.500000 0.500000 0.836231
O O11 0.507701 0.639395 0.726717
O O12 0.379501 0.561810 0.785095
O O13 0.459226 0.617185 0.000000
O O14 0.904527 0.142491 0.500000
O O15 0.861007 0.092086 0.758967
O O16 0.822701 0.016081 0.000000
#
# Coordination Sequence:
#
# PCOD9425634 Si02
#       6
#     8   8   8   8   8   8
#     4   9  17  30  50  74  97 125 163 201 239 289
#     4   9  19  34  51  74 102 131 165 207 251 295
#     4  10  19  33  53  74 100 133 167 204 248 296
#     4   8  16  31  49  69  95 127 161 200 243 289
#     4  10  19  32  52  76 100 129 167 208 251 298
#     4  10  20  34  51  73 102 133 167 205 248 299
#
# _framework density 16.932649000000001
#
# number of rings (size 3 to 8) (size 9 to 14) (size 15 to 20)
#    0.000    2.667    0.000    3.000    0.000    7.667 
#    0.000    1.667    0.000    6.000    0.000    0.000 
#    0.000    0.000    0.000    0.000    0.000    0.000 
#
# Total GULP energy -267493.277993 kJ/mol
# GULP energy per Si atom -5572.776625 kJ/mol
# Density = 1.689411 g / cm^3
# Si number density = 16.932649 Si / 1000 Ang^3
#
#
#
# Elastic Constant Matrix: (Units=GPa)
#
#
# Indices 1 2 3 4 5 6 
#
# 1 133.7353 37.2964 59.8911 0.0000 0.0000 0.0000
# 2 37.2964 68.4633 43.0825 0.0000 0.0000 0.0000
# 3 59.8911 43.0825 72.1336 0.0000 0.0000 0.0000
# 4 0.0000 0.0000 0.0000 11.7134 0.0000 0.0000
# 5 0.0000 0.0000 0.0000 0.0000 33.2341 0.0000
# 6 0.0000 0.0000 0.0000 0.0000 0.0000 14.6616
#
#
#
# Elastic Compliance Matrix: (Units=1/GPa)
#
#
# Indices 1 2 3 4 5 6 
#
# 1 0.011911 -0.000425 -0.009636 0.000000 0.000000 0.000000
# 2 -0.000425 0.023417 -0.013633 0.000000 0.000000 0.000000
# 3 -0.009636 -0.013633 0.030006 0.000000 0.000000 0.000000
# 4 0.000000 0.000000 0.000000 0.085373 0.000000 0.000000
# 5 0.000000 0.000000 0.000000 0.000000 0.030090 0.000000
# 6 0.000000 0.000000 0.000000 0.000000 0.000000 0.068205
#
#
# Mechanical properties :
#
#
# Convention : Reuss Voigt Hill
#
# Bulk Modulus (GPa) = 55.72164 61.65246 58.68705
# Shear Modulus (GPa) = 16.53598 20.85931 18.69764
#
# Velocity S-wave (km/s) = 3.12841 3.51365 3.32661
# Velocity P-wave (km/s) = 6.78443 7.27670 7.03487
#
# Compressibility (1/GPa) = 0.01794635
#
# Stress axis : x y z
#
# Youngs Moduli (GPa) = 83.95438 42.70417 33.32694
#
# Poissons Ratio (x) = 0.01816 0.32113
# Poissons Ratio (y) = 0.03571 0.45434
# Poissons Ratio (z) = 0.80895 0.58218
#
# Static dielectric constant tensor:
#      x y z
#    x 1.565080 0.000000 0.000000 
#    y 0.000000 1.574970 0.000000 
#    z 0.000000 0.000000 1.567430 
# 
# From -- ./inp_files/7558.got.cif
#   From: 2010.05.17/outbox.cif.g08.bks.cpg/sg55_4_cif.got.tgz:7558.got - 2010.06.03 13:27:54.
