data_PCOD9425272
_publ_section_title
;
Structure prediction by ZEFSAII (Michael W. Deem and Ramdas Pophale) SiO2 
 PCOD9425272
Probable space group: P B A M
;
_chemical_formula_sum "Si O2"
_cell_formula_units_Z 64
_cell_length_a 14.529489
_cell_length_b 25.566857
_cell_length_c 7.446556
_cell_angle_alpha 90.000000
_cell_angle_beta 90.000000
_cell_angle_gamma 90.000000
_cell_volume 2766.197234
_symmetry_space_group_name_H-M "P B A M"
_symmetry_group_IT_number 55
_symmetry_cell_setting 'orthorhombic'
loop_
_space_group_symop_operation_xyz
x,y,z
-x,-y,z
1/2+x,1/2-y,-z
1/2-x,1/2+y,-z
-x,-y,-z
x,y,-z
1/2-x,1/2+y,z
1/2+x,1/2-y,z
loop_
_atom_site_type_symbol
_atom_site_label
_atom_site_fract_x
_atom_site_fract_y
_atom_site_fract_z
Si Si1 0.750128 0.915314 0.780831
Si Si2 0.946553 0.448905 0.781271
Si Si3 0.102551 0.241178 0.295473
Si Si4 0.094563 0.795392 0.214353
Si Si5 0.605727 0.497952 0.780385
Si Si6 0.790868 0.103758 0.219372
Si Si7 0.087299 0.361992 0.783110
Si Si8 0.792263 0.300386 0.798886
O O1 0.659723 0.948022 0.730559
O O2 0.730219 0.856608 0.716744
O O3 0.840955 0.945658 0.721825
O O4 0.755599 0.912801 0.000000
O O5 0.000000 0.500000 0.719758
O O6 0.002368 0.397624 0.723146
O O7 0.948055 0.449197 0.000000
O O8 0.126653 0.230652 0.500000
O O9 0.079178 0.302121 0.273826
O O10 0.194172 0.228254 0.187987
O O11 0.014003 0.207004 0.245450
O O12 0.146770 0.847067 0.279289
O O13 0.139679 0.741818 0.287388
O O14 0.110182 0.794332 0.000000
O O15 0.500000 0.500000 0.722083
O O16 0.663478 0.549168 0.724629
O O17 0.605238 0.498083 0.000000
O O18 0.685489 0.113881 0.275177
O O19 0.790566 0.103267 0.000000
O O20 0.087600 0.362239 0.000000
O O21 0.829975 0.311507 0.000000
#
# Coordination Sequence:
#
# PCOD9425272 Si02
#       8
#     8   8   8   8   8   8   8   8
#     4   9  17  28  45  75 111 143 178 221 274 332
#     4   9  16  27  50  83 115 142 171 223 285 334
#     4  12  25  37  53  80 113 148 187 232 286 337
#     4  10  20  36  58  82 108 142 188 231 279 337
#     4   9  17  27  42  73 114 146 172 217 278 329
#     4   9  17  30  51  78 107 140 178 223 272 327
#     4  10  18  34  57  81 110 144 185 228 277 336
#     4  10  20  37  59  82 109 146 189 232 277 329
#
# _framework density 23.136454000000001
#
# number of rings (size 3 to 8) (size 9 to 14) (size 15 to 20)
#    0.000    2.250    1.250    2.625    1.750    5.500 
#    0.000    0.000    0.000    0.375    0.000    4.375 
#    0.000    0.000    0.000    0.000    0.000    0.000 
#
# Total GULP energy -357752.366212 kJ/mol
# GULP energy per Si atom -5589.880722 kJ/mol
# Density = 2.308379 g / cm^3
# Si number density = 23.136454 Si / 1000 Ang^3
#
#
#
# Elastic Constant Matrix: (Units=GPa)
#
#
# Indices 1 2 3 4 5 6 
#
# 1 73.4916 -16.2213 -2.8678 0.0000 0.0000 0.0000
# 2 -16.2213 68.7936 1.9064 0.0000 0.0000 0.0000
# 3 -2.8678 1.9064 72.0726 0.0000 0.0000 0.0000
# 4 0.0000 0.0000 0.0000 31.3005 0.0000 0.0000
# 5 0.0000 0.0000 0.0000 0.0000 16.5662 0.0000
# 6 0.0000 0.0000 0.0000 0.0000 0.0000 42.7245
#
#
#
# Elastic Compliance Matrix: (Units=1/GPa)
#
#
# Indices 1 2 3 4 5 6 
#
# 1 0.014371 0.003375 0.000483 0.000000 0.000000 0.000000
# 2 0.003375 0.015340 -0.000271 0.000000 0.000000 0.000000
# 3 0.000483 -0.000271 0.013901 0.000000 0.000000 0.000000
# 4 0.000000 0.000000 0.000000 0.031948 0.000000 0.000000
# 5 0.000000 0.000000 0.000000 0.000000 0.060364 0.000000
# 6 0.000000 0.000000 0.000000 0.000000 0.000000 0.023406
#
#
# Mechanical properties :
#
#
# Convention : Reuss Voigt Hill
#
# Bulk Modulus (GPa) = 19.69111 19.99917 19.84514
# Shear Modulus (GPa) = 29.57087 33.55427 31.56257
#
# Velocity S-wave (km/s) = 3.57894 3.81238 3.69750
# Velocity P-wave (km/s) = 5.06041 5.29545 5.17926
#
# Compressibility (1/GPa) = 0.05078433
#
# Stress axis : x y z
#
# Youngs Moduli (GPa) = 69.58543 65.19062 71.93587
#
# Poissons Ratio (x) = -0.22003 -0.03471
# Poissons Ratio (y) = -0.23487 0.01953
# Poissons Ratio (z) = -0.03358 0.01770
#
# Static dielectric constant tensor:
#      x y z
#    x 1.816680 0.000000 0.000000 
#    y 0.000000 1.863780 0.000000 
#    z 0.000000 0.000000 1.849690 
# 
# From -- ./inp_files/6653.got.cif
#   From: 2010.05.17/outbox.cif.g08.bks.cpg/sg55_4_cif.got.tgz:6653.got - 2010.06.03 13:27:54.
