data_PCOD9425934
_publ_section_title
;
Structure prediction by ZEFSAII (Michael W. Deem and Ramdas Pophale) SiO2 
 PCOD9425934
Probable space group: P B A M
;
_chemical_formula_sum "Si O2"
_cell_formula_units_Z 40
_cell_length_a 27.769047
_cell_length_b 10.332236
_cell_length_c 7.828668
_cell_angle_alpha 90.000000
_cell_angle_beta 90.000000
_cell_angle_gamma 90.000000
_cell_volume 2246.172825
_symmetry_space_group_name_H-M "P B A M"
_symmetry_group_IT_number 55
_symmetry_cell_setting 'orthorhombic'
loop_
_space_group_symop_operation_xyz
x,y,z
-x,-y,z
1/2+x,1/2-y,-z
1/2-x,1/2+y,-z
-x,-y,-z
x,y,-z
1/2-x,1/2+y,z
1/2+x,1/2-y,z
loop_
_atom_site_type_symbol
_atom_site_label
_atom_site_fract_x
_atom_site_fract_y
_atom_site_fract_z
Si Si1 0.297036 0.783052 0.000000
Si Si2 0.207403 0.975914 0.000000
Si Si3 0.367877 0.467639 0.301224
Si Si4 0.030236 0.379654 0.800652
Si Si5 0.028157 0.870905 0.706295
Si Si6 0.369517 0.773316 0.309675
O O1 0.253286 0.883054 0.000000
O O2 0.330784 0.803892 0.165111
O O3 0.281579 0.630790 0.000000
O O4 0.174867 0.948446 0.167494
O O5 0.355227 0.441027 0.500000
O O6 0.415531 0.387612 0.253890
O O7 0.381576 0.620231 0.292157
O O8 0.081089 0.351072 0.713066
O O9 0.000000 0.500000 0.729991
O O10 0.997088 0.253378 0.783885
O O11 0.040569 0.404634 0.000000
O O12 0.023901 0.862507 0.500000
O O13 0.000000 0.000000 0.761146
O O14 0.349991 0.793679 0.500000
#
# Coordination Sequence:
#
# PCOD9425934 Si02
#       6
#     4   4   8   8   8   8
#     4  10  22  42  60  86 106 141 192 235 291 342
#     4  10  22  40  62  79 110 147 178 242 295 330
#     4   9  19  35  58  88 112 142 192 233 276 339
#     4  11  23  36  52  84 124 159 191 228 275 342
#     4  10  19  33  56  85 115 147 188 233 271 329
#     4  10  19  37  62  82 112 153 189 226 278 344
#
# _framework density 17.808069
#
# number of rings (size 3 to 8) (size 9 to 14) (size 15 to 20)
#    0.000    2.000    3.000    0.600    1.400    2.800 
#    3.600    0.000    0.000    0.000    0.000    0.000 
#    0.000    0.000    0.000    0.000    0.000    0.000 
#
# Total GULP energy -223267.243523 kJ/mol
# GULP energy per Si atom -5581.681088 kJ/mol
# Density = 1.776754 g / cm^3
# Si number density = 17.808069 Si / 1000 Ang^3
#
#
#
# Elastic Constant Matrix: (Units=GPa)
#
#
# Indices 1 2 3 4 5 6 
#
# 1 118.0038 56.6004 59.2437 0.0000 0.0000 0.0000
# 2 56.6004 75.6027 26.9055 0.0000 0.0000 0.0000
# 3 59.2437 26.9055 91.7866 0.0000 0.0000 0.0000
# 4 0.0000 0.0000 0.0000 18.2068 0.0000 0.0000
# 5 0.0000 0.0000 0.0000 0.0000 22.9591 0.0000
# 6 0.0000 0.0000 0.0000 0.0000 0.0000 38.2373
#
#
#
# Elastic Compliance Matrix: (Units=1/GPa)
#
#
# Indices 1 2 3 4 5 6 
#
# 1 0.017534 -0.010159 -0.008339 0.000000 0.000000 0.000000
# 2 -0.010159 0.020654 0.000503 0.000000 0.000000 0.000000
# 3 -0.008339 0.000503 0.016130 0.000000 0.000000 0.000000
# 4 0.000000 0.000000 0.000000 0.054925 0.000000 0.000000
# 5 0.000000 0.000000 0.000000 0.000000 0.043556 0.000000
# 6 0.000000 0.000000 0.000000 0.000000 0.000000 0.026152
#
#
# Mechanical properties :
#
#
# Convention : Reuss Voigt Hill
#
# Bulk Modulus (GPa) = 54.56512 63.43245 58.99879
# Shear Modulus (GPa) = 22.61933 25.39020 24.00477
#
# Velocity S-wave (km/s) = 3.56782 3.78003 3.67546
# Velocity P-wave (km/s) = 6.90504 7.39925 7.15641
#
# Compressibility (1/GPa) = 0.01832673
#
# Stress axis : x y z
#
# Youngs Moduli (GPa) = 57.03281 48.41757 61.99624
#
# Poissons Ratio (x) = 0.49187 0.51700
# Poissons Ratio (y) = 0.57939 -0.03118
# Poissons Ratio (z) = 0.47561 -0.02435
#
# Static dielectric constant tensor:
#      x y z
#    x 1.573390 0.000000 0.000000 
#    y 0.000000 1.596530 0.000000 
#    z 0.000000 0.000000 1.628970 
# 
# From -- ./inp_files/2357.got.cif
#   From: 2010.05.17/outbox.cif.g08.bks.cpg/sg55_2_cif.got.tgz:2357.got - 2010.06.03 13:27:54.
