data_PCOD9425710
_publ_section_title
;
Structure prediction by ZEFSAII (Michael W. Deem and Ramdas Pophale) SiO2 
 PCOD9425710
Probable space group: P B A M
;
_chemical_formula_sum "Si O2"
_cell_formula_units_Z 56
_cell_length_a 12.879018
_cell_length_b 13.118020
_cell_length_c 14.998054
_cell_angle_alpha 90.000000
_cell_angle_beta 90.000000
_cell_angle_gamma 90.000000
_cell_volume 2533.879464
_symmetry_space_group_name_H-M "P B A M"
_symmetry_group_IT_number 55
_symmetry_cell_setting 'orthorhombic'
loop_
_space_group_symop_operation_xyz
x,y,z
-x,-y,z
1/2+x,1/2-y,-z
1/2-x,1/2+y,-z
-x,-y,-z
x,y,-z
1/2-x,1/2+y,z
1/2+x,1/2-y,z
loop_
_atom_site_type_symbol
_atom_site_label
_atom_site_fract_x
_atom_site_fract_y
_atom_site_fract_z
Si Si1 0.103379 0.159823 0.098369
Si Si2 0.162058 0.607161 0.106192
Si Si3 0.121553 0.388802 0.656508
Si Si4 0.336118 0.314732 0.598771
Si Si5 0.398583 0.314903 0.198956
Si Si6 0.397776 0.100644 0.598617
Si Si7 0.171345 0.374510 0.853175
O O1 0.214623 0.115482 0.126930
O O2 0.125328 0.281442 0.091800
O O3 0.006214 0.142876 0.161960
O O4 0.078707 0.120129 0.000000
O O5 0.109591 0.694567 0.168311
O O6 0.135291 0.487921 0.120822
O O7 0.147387 0.631765 0.000000
O O8 0.223983 0.364925 0.602268
O O9 0.118578 0.510997 0.666955
O O10 0.134217 0.345298 0.753919
O O11 0.013731 0.356834 0.612593
O O12 0.384236 0.335537 0.500000
O O13 0.390339 0.334963 0.694366
O O14 0.320193 0.192968 0.603400
O O15 0.296862 0.365059 0.152364
O O16 0.392834 0.054033 0.500000
#
# Coordination Sequence:
#
# PCOD9425710 Si02
#       7
#     8   8   8   8   8   8   8
#     4  10  21  37  57  80 109 144 179 222 274 325
#     4  10  21  37  57  82 112 144 182 225 271 328
#     4  10  19  34  54  79 110 142 180 227 273 323
#     4  10  20  34  55  81 110 145 184 229 279 325
#     4  10  21  37  54  80 114 144 182 228 272 323
#     4  10  19  32  54  80 105 138 183 228 266 318
#     4  10  21  35  55  80 109 143 178 223 271 324
#
# _framework density 22.1005
#
# number of rings (size 3 to 8) (size 9 to 14) (size 15 to 20)
#    0.000    2.000    0.000    4.286    0.000    4.000 
#    0.000    2.857    0.000    2.571    0.000   12.000 
#    0.000    0.000    0.000    0.000    0.000    0.000 
#
# Total GULP energy -312416.421391 kJ/mol
# GULP energy per Si atom -5578.864668 kJ/mol
# Density = 2.205020 g / cm^3
# Si number density = 22.100500 Si / 1000 Ang^3
#
#
#
# Elastic Constant Matrix: (Units=GPa)
#
#
# Indices 1 2 3 4 5 6 
#
# 1 70.0389 8.1636 27.4576 0.0000 0.0000 0.0000
# 2 8.1636 35.3151 -21.9575 0.0000 0.0000 0.0000
# 3 27.4576 -21.9575 98.9159 0.0000 0.0000 0.0000
# 4 0.0000 0.0000 0.0000 22.9896 0.0000 0.0000
# 5 0.0000 0.0000 0.0000 0.0000 17.4626 0.0000
# 6 0.0000 0.0000 0.0000 0.0000 0.0000 14.2211
#
#
#
# Elastic Compliance Matrix: (Units=1/GPa)
#
#
# Indices 1 2 3 4 5 6 
#
# 1 0.017941 -0.008404 -0.006846 0.000000 0.000000 0.000000
# 2 -0.008404 0.036787 0.010499 0.000000 0.000000 0.000000
# 3 -0.006846 0.010499 0.014340 0.000000 0.000000 0.000000
# 4 0.000000 0.000000 0.000000 0.043498 0.000000 0.000000
# 5 0.000000 0.000000 0.000000 0.000000 0.057265 0.000000
# 6 0.000000 0.000000 0.000000 0.000000 0.000000 0.070318
#
#
# Mechanical properties :
#
#
# Convention : Reuss Voigt Hill
#
# Bulk Modulus (GPa) = 16.78780 25.73303 21.26042
# Shear Modulus (GPa) = 18.55243 23.64172 21.09708
#
# Velocity S-wave (km/s) = 2.90048 3.27423 3.09301
# Velocity P-wave (km/s) = 4.33932 5.09539 4.73248
#
# Compressibility (1/GPa) = 0.05956706
#
# Stress axis : x y z
#
# Youngs Moduli (GPa) = 55.73820 27.18368 69.73327
#
# Poissons Ratio (x) = 0.22844 0.47737
# Poissons Ratio (y) = 0.46840 -0.73211
# Poissons Ratio (z) = 0.38156 -0.28539
#
# Static dielectric constant tensor:
#      x y z
#    x 1.799240 0.000000 0.000000 
#    y 0.000000 1.849780 0.000000 
#    z 0.000000 0.000000 1.819660 
# 
# From -- ./inp_files/18371.got.cif
#   From: 2010.05.17/outbox.cif.g08.bks.cpg/sg55_10_cif.got.tgz:18371.got - 2010.06.03 13:27:54.
