data_PCOD9425723
_publ_section_title
;
Structure prediction by ZEFSAII (Michael W. Deem and Ramdas Pophale) SiO2 
 PCOD9425723
Probable space group: P B A M
;
_chemical_formula_sum "Si O2"
_cell_formula_units_Z 64
_cell_length_a 25.766781
_cell_length_b 14.901755
_cell_length_c 8.722929
_cell_angle_alpha 90.000000
_cell_angle_beta 90.000000
_cell_angle_gamma 90.000000
_cell_volume 3349.345295
_symmetry_space_group_name_H-M "P B A M"
_symmetry_group_IT_number 55
_symmetry_cell_setting 'orthorhombic'
loop_
_space_group_symop_operation_xyz
x,y,z
-x,-y,z
1/2+x,1/2-y,-z
1/2-x,1/2+y,-z
-x,-y,-z
x,y,-z
1/2-x,1/2+y,z
1/2+x,1/2-y,z
loop_
_atom_site_type_symbol
_atom_site_label
_atom_site_fract_x
_atom_site_fract_y
_atom_site_fract_z
Si Si1 0.940327 0.347012 0.686668
Si Si2 0.338752 0.260170 0.684527
Si Si3 0.108922 0.470805 0.315180
Si Si4 0.553875 0.212982 0.685664
Si Si5 0.229589 0.242044 0.817982
Si Si6 0.670247 0.531876 0.316825
Si Si7 0.373860 0.639007 0.816255
Si Si8 0.780545 0.544252 0.181299
O O1 0.941075 0.344678 0.500000
O O2 0.890055 0.291158 0.737932
O O3 0.930742 0.450447 0.729804
O O4 0.995024 0.306406 0.736609
O O5 0.337742 0.257110 0.500000
O O6 0.284731 0.219454 0.743541
O O7 0.340134 0.365065 0.730737
O O8 0.112518 0.470569 0.500000
O O9 0.088279 0.373344 0.266695
O O10 0.165609 0.490600 0.248669
O O11 0.554849 0.217256 0.500000
O O12 0.578969 0.302503 0.752355
O O13 0.179488 0.187938 0.762657
O O14 0.219708 0.347971 0.791152
O O15 0.234094 0.228220 0.000000
O O16 0.668412 0.527033 0.500000
O O17 0.630379 0.461785 0.244762
O O18 0.728309 0.508752 0.259409
O O19 0.374810 0.640071 0.000000
O O20 0.777755 0.527907 0.000000
#
# Coordination Sequence:
#
# PCOD9425723 Si02
#       8
#     8   8   8   8   8   8   8   8
#     4   9  19  36  57  82 110 145 187 234 283 330
#     4   9  19  36  57  80 109 142 183 233 279 326
#     4  10  19  32  54  84 114 147 185 227 273 332
#     4  10  20  36  58  82 112 148 189 233 278 331
#     4   9  19  34  52  75 108 145 178 218 271 330
#     4  10  21  36  55  81 110 144 187 233 280 334
#     4  11  22  37  56  81 112 148 187 231 282 335
#     4  10  19  34  53  78 114 150 179 219 273 331
#
# _framework density 19.108212999999999
#
# number of rings (size 3 to 8) (size 9 to 14) (size 15 to 20)
#    0.000    2.250    1.250    1.500    1.750    3.500 
#    0.000    1.875    0.000    5.250    0.000    0.000 
#    0.000    0.000    0.000    0.000    0.000    0.000 
#
# Total GULP energy -357354.679311 kJ/mol
# GULP energy per Si atom -5583.666864 kJ/mol
# Density = 1.906472 g / cm^3
# Si number density = 19.108213 Si / 1000 Ang^3
#
#
#
# Elastic Constant Matrix: (Units=GPa)
#
#
# Indices 1 2 3 4 5 6 
#
# 1 72.2172 3.5739 6.1699 0.0000 0.0000 0.0000
# 2 3.5739 25.2556 6.4460 0.0000 0.0000 0.0000
# 3 6.1699 6.4460 9.3652 0.0000 0.0000 0.0000
# 4 0.0000 0.0000 0.0000 14.7988 0.0000 0.0000
# 5 0.0000 0.0000 0.0000 0.0000 -13.4361 0.0000
# 6 0.0000 0.0000 0.0000 0.0000 0.0000 31.6227
#
#
#
# Elastic Compliance Matrix: (Units=1/GPa)
#
#
# Indices 1 2 3 4 5 6 
#
# 1 0.014678 0.000474 -0.009996 0.000000 0.000000 0.000000
# 2 0.000474 0.048049 -0.033384 0.000000 0.000000 0.000000
# 3 -0.009996 -0.033384 0.136342 0.000000 0.000000 0.000000
# 4 0.000000 0.000000 0.000000 0.067573 0.000000 0.000000
# 5 0.000000 0.000000 0.000000 0.000000 -0.074427 0.000000
# 6 0.000000 0.000000 0.000000 0.000000 0.000000 0.031623
#
#
# Mechanical properties :
#
#
# Convention : Reuss Voigt Hill
#
# Bulk Modulus (GPa) = 8.82954 15.46863 12.14908
# Shear Modulus (GPa) = 14.39252 12.64029 13.51641
#
# Velocity S-wave (km/s) = 2.74745 2.57478 2.66251
# Velocity P-wave (km/s) = 3.83347 4.11730 3.97791
#
# Compressibility (1/GPa) = 0.11325613
#
# Stress axis : x y z
#
# Youngs Moduli (GPa) = 68.13067 20.81221 7.33449
#
# Poissons Ratio (x) = -0.00987 0.07332
# Poissons Ratio (y) = -0.03232 0.24486
# Poissons Ratio (z) = 0.68105 0.69480
#
# Static dielectric constant tensor:
#      x y z
#    x 1.648150 0.000000 0.000000 
#    y 0.000000 1.684920 0.000000 
#    z 0.000000 0.000000 1.641540 
# 
# From -- ./inp_files/6658.got.cif
#   From: 2010.05.17/outbox.cif.g08.bks.cpg/sg55_4_cif.got.tgz:6658.got - 2010.06.03 13:27:54.
