data_PCOD9425104
_publ_section_title
;
Structure prediction by ZEFSAII (Michael W. Deem and Ramdas Pophale) SiO2 
 PCOD9425104
Probable space group: P B A M
;
_chemical_formula_sum "Si O2"
_cell_formula_units_Z 40
_cell_length_a 8.018954
_cell_length_b 24.456625
_cell_length_c 7.540486
_cell_angle_alpha 90.000000
_cell_angle_beta 90.000000
_cell_angle_gamma 90.000000
_cell_volume 1478.814106
_symmetry_space_group_name_H-M "P B A M"
_symmetry_group_IT_number 55
_symmetry_cell_setting 'orthorhombic'
loop_
_space_group_symop_operation_xyz
x,y,z
-x,-y,z
1/2+x,1/2-y,-z
1/2-x,1/2+y,-z
-x,-y,-z
x,y,-z
1/2-x,1/2+y,z
1/2+x,1/2-y,z
loop_
_atom_site_type_symbol
_atom_site_label
_atom_site_fract_x
_atom_site_fract_y
_atom_site_fract_z
Si Si1 0.359583 0.234331 0.794174
Si Si2 0.552875 0.335108 0.780781
Si Si3 0.546165 0.133377 0.713413
Si Si4 0.841311 0.464406 0.710773
Si Si5 0.623576 0.563216 0.795349
O O1 0.405558 0.293638 0.723204
O O2 0.520223 0.194347 0.782551
O O3 0.214743 0.197088 0.714106
O O4 0.319452 0.241926 0.000000
O O5 0.516560 0.396418 0.714540
O O6 0.555502 0.336414 0.000000
O O7 0.549125 0.135372 0.500000
O O8 0.710050 0.100744 0.773313
O O9 0.387971 0.095938 0.778462
O O10 0.856092 0.460868 0.500000
O O11 0.680689 0.502489 0.740872
O O12 0.000000 0.500000 0.776781
O O13 0.582227 0.558480 0.000000
#
# Coordination Sequence:
#
# PCOD9425104 Si02
#       5
#     8   8   8   8   8
#     4  10  19  35  56  75  99 132 169 208 254 305
#     4   9  19  34  54  79 103 129 165 212 260 303
#     4  10  20  34  51  75 106 137 171 210 252 297
#     4   8  16  31  49  71 103 138 170 208 250 293
#     4  10  18  31  54  81 105 133 171 210 252 303
#
# _framework density 27.048703
#
# number of rings (size 3 to 8) (size 9 to 14) (size 15 to 20)
#    0.000    2.600    0.000    3.600    0.000    7.600 
#    0.000    8.000    0.000    6.000    0.000    0.000 
#    0.000    0.000    0.000    0.000    0.000    0.000 
#
# Total GULP energy -223571.656840 kJ/mol
# GULP energy per Si atom -5589.291421 kJ/mol
# Density = 2.698714 g / cm^3
# Si number density = 27.048703 Si / 1000 Ang^3
#
#
#
# Elastic Constant Matrix: (Units=GPa)
#
#
# Indices 1 2 3 4 5 6 
#
# 1 95.3285 19.3306 -12.9056 0.0000 0.0000 0.0000
# 2 19.3306 216.4065 7.1530 0.0000 0.0000 0.0000
# 3 -12.9056 7.1530 87.7598 0.0000 0.0000 0.0000
# 4 0.0000 0.0000 0.0000 9.9651 0.0000 0.0000
# 5 0.0000 0.0000 0.0000 0.0000 52.8017 0.0000
# 6 0.0000 0.0000 0.0000 0.0000 0.0000 51.7037
#
#
#
# Elastic Compliance Matrix: (Units=1/GPa)
#
#
# Indices 1 2 3 4 5 6 
#
# 1 0.010928 -0.001032 0.001691 0.000000 0.000000 0.000000
# 2 -0.001032 0.004731 -0.000537 0.000000 0.000000 0.000000
# 3 0.001691 -0.000537 0.011687 0.000000 0.000000 0.000000
# 4 0.000000 0.000000 0.000000 0.100350 0.000000 0.000000
# 5 0.000000 0.000000 0.000000 0.000000 0.018939 0.000000
# 6 0.000000 0.000000 0.000000 0.000000 0.000000 0.019341
#
#
# Mechanical properties :
#
#
# Convention : Reuss Voigt Hill
#
# Bulk Modulus (GPa) = 36.24518 47.40566 41.82542
# Shear Modulus (GPa) = 28.58294 48.62189 38.60242
#
# Velocity S-wave (km/s) = 3.25425 4.24437 3.78186
# Velocity P-wave (km/s) = 5.24874 6.44854 5.87933
#
# Compressibility (1/GPa) = 0.02758987
#
# Stress axis : x y z
#
# Youngs Moduli (GPa) = 91.50577 211.37691 85.56347
#
# Poissons Ratio (x) = 0.21816 -0.14470
# Poissons Ratio (y) = 0.09444 0.04598
# Poissons Ratio (z) = -0.15475 0.11359
#
# Static dielectric constant tensor:
#      x y z
#    x 2.279880 0.000000 0.000000 
#    y 0.000000 2.088840 0.000000 
#    z 0.000000 0.000000 1.964700 
# 
# From -- ./inp_files/2317.got.cif
#   From: 2010.05.17/outbox.cif.g08.bks.cpg/sg55_2_cif.got.tgz:2317.got - 2010.06.03 13:27:54.
