data_PCOD9425563
_publ_section_title
;
Structure prediction by ZEFSAII (Michael W. Deem and Ramdas Pophale) SiO2 
 PCOD9425563
Probable space group: P B A M
;
_chemical_formula_sum "Si O2"
_cell_formula_units_Z 58
_cell_length_a 12.643916
_cell_length_b 24.558621
_cell_length_c 9.907697
_cell_angle_alpha 90.000000
_cell_angle_beta 90.000000
_cell_angle_gamma 90.000000
_cell_volume 3076.509746
_symmetry_space_group_name_H-M "P B A M"
_symmetry_group_IT_number 55
_symmetry_cell_setting 'orthorhombic'
loop_
_space_group_symop_operation_xyz
x,y,z
-x,-y,z
1/2+x,1/2-y,-z
1/2-x,1/2+y,-z
-x,-y,-z
x,y,-z
1/2-x,1/2+y,z
1/2+x,1/2-y,z
loop_
_atom_site_type_symbol
_atom_site_label
_atom_site_fract_x
_atom_site_fract_y
_atom_site_fract_z
Si Si1 0.340176 0.989867 0.745864
Si Si2 0.248226 0.291382 0.840227
Si Si3 0.954169 0.150832 0.837156
Si Si4 0.500000 0.000000 0.000000
Si Si5 0.694264 0.335523 0.160036
Si Si6 0.605993 0.130968 0.656470
Si Si7 0.865760 0.391454 0.346576
Si Si8 0.108255 0.970601 0.162694
O O1 0.409265 0.991075 0.881862
O O2 0.359595 0.931723 0.676787
O O3 0.215329 0.994186 0.777121
O O4 0.373174 0.043195 0.663286
O O5 0.369406 0.303481 0.797949
O O6 0.220510 0.228269 0.825455
O O7 0.171688 0.329911 0.754358
O O8 0.238122 0.305353 0.000000
O O9 0.903977 0.092802 0.801139
O O10 0.074364 0.155520 0.789509
O O11 0.962207 0.152889 0.000000
O O12 0.778373 0.370291 0.242987
O O13 0.700467 0.349499 0.000000
O O14 0.621284 0.146178 0.500000
O O15 0.480939 0.132542 0.688401
O O16 0.839388 0.375881 0.500000
O O17 0.115197 0.974773 0.000000
O O18 0.000000 0.000000 0.204683
#
# Coordination Sequence:
#
# PCOD9425563 Si02
#       8
#     8   8   8   2   8   8   8   8
#     4  12  22  38  61  91 128 156 209 258 313 369
#     4  10  22  39  65  93 120 155 204 263 310 363
#     4   9  18  36  57  88 124 152 192 249 311 362
#     4  12  24  32  60 104 120 164 210 274 308 378
#     4  10  23  40  65  94 121 157 205 262 311 364
#     4  11  24  41  62  88 125 168 205 249 311 377
#     4  11  25  42  61  88 128 169 202 252 314 372
#     4  10  19  31  55  87 121 159 193 239 303 366
#
# _framework density 18.852533000000001
#
# number of rings (size 3 to 8) (size 9 to 14) (size 15 to 20)
#    0.000    1.517    3.448    1.241    3.862    3.310 
#    0.000    0.690    0.000    1.655    0.000    0.000 
#    0.000    0.000    0.000    0.000    0.000    0.000 
#
# Total GULP energy -323320.219522 kJ/mol
# GULP energy per Si atom -5574.486543 kJ/mol
# Density = 1.880962 g / cm^3
# Si number density = 18.852533 Si / 1000 Ang^3
#
#
#
# Elastic Constant Matrix: (Units=GPa)
#
#
# Indices 1 2 3 4 5 6 
#
# 1 110.0158 12.8115 37.6660 0.0000 0.0000 0.0000
# 2 12.8115 41.2478 22.9939 0.0000 0.0000 0.0000
# 3 37.6660 22.9939 55.2236 0.0000 0.0000 0.0000
# 4 0.0000 0.0000 0.0000 7.2328 0.0000 0.0000
# 5 0.0000 0.0000 0.0000 0.0000 14.1796 0.0000
# 6 0.0000 0.0000 0.0000 0.0000 0.0000 13.3849
#
#
#
# Elastic Compliance Matrix: (Units=1/GPa)
#
#
# Indices 1 2 3 4 5 6 
#
# 1 0.011896 0.001079 -0.008563 0.000000 0.000000 0.000000
# 2 0.001079 0.031670 -0.013922 0.000000 0.000000 0.000000
# 3 -0.008563 -0.013922 0.029745 0.000000 0.000000 0.000000
# 4 0.000000 0.000000 0.000000 0.138259 0.000000 0.000000
# 5 0.000000 0.000000 0.000000 0.000000 0.070524 0.000000
# 6 0.000000 0.000000 0.000000 0.000000 0.000000 0.074711
#
#
# Mechanical properties :
#
#
# Convention : Reuss Voigt Hill
#
# Bulk Modulus (GPa) = 32.78892 39.27000 36.02946
# Shear Modulus (GPa) = 12.20156 15.82718 14.01437
#
# Velocity S-wave (km/s) = 2.54679 2.90060 2.72944
# Velocity P-wave (km/s) = 5.10669 5.66509 5.39312
#
# Compressibility (1/GPa) = 0.03049811
#
# Stress axis : x y z
#
# Youngs Moduli (GPa) = 84.06488 31.57582 33.61870
#
# Poissons Ratio (x) = -0.03406 0.28786
# Poissons Ratio (y) = -0.09067 0.46805
# Poissons Ratio (z) = 0.71981 0.43961
#
# Static dielectric constant tensor:
#      x y z
#    x 1.654690 0.000000 0.000000 
#    y 0.000000 1.655240 0.000000 
#    z 0.000000 0.000000 1.632890 
# 
# From -- ./inp_files/4318.got.cif
#   From: 2010.05.17/outbox.cif.g08.bks.cpg/sg55_3_cif.got.tgz:4318.got - 2010.06.03 13:27:54.
