data_PCOD9425403
_publ_section_title
;
Structure prediction by ZEFSAII (Michael W. Deem and Ramdas Pophale) SiO2 
 PCOD9425403
Probable space group: P B A M
;
_chemical_formula_sum "Si O2"
_cell_formula_units_Z 48
_cell_length_a 24.702768
_cell_length_b 14.020051
_cell_length_c 8.726373
_cell_angle_alpha 90.000000
_cell_angle_beta 90.000000
_cell_angle_gamma 90.000000
_cell_volume 3022.240253
_symmetry_space_group_name_H-M "P B A M"
_symmetry_group_IT_number 55
_symmetry_cell_setting 'orthorhombic'
loop_
_space_group_symop_operation_xyz
x,y,z
-x,-y,z
1/2+x,1/2-y,-z
1/2-x,1/2+y,-z
-x,-y,-z
x,y,-z
1/2-x,1/2+y,z
1/2+x,1/2-y,z
loop_
_atom_site_type_symbol
_atom_site_label
_atom_site_fract_x
_atom_site_fract_y
_atom_site_fract_z
Si Si1 0.668272 0.202185 0.183251
Si Si2 0.227985 0.105077 0.183170
Si Si3 0.937707 0.611358 0.314739
Si Si4 0.168510 0.708325 0.314698
Si Si5 0.727917 0.599713 0.316590
Si Si6 0.059629 0.610608 0.313963
O O1 0.686844 0.309480 0.225380
O O2 0.609517 0.173939 0.243379
O O3 0.713418 0.132300 0.254878
O O4 0.670446 0.193672 0.000000
O O5 0.286189 0.137682 0.248092
O O6 0.213009 0.002710 0.250013
O O7 0.230873 0.099843 0.000000
O O8 0.934712 0.617072 0.500000
O O9 0.930051 0.499836 0.271772
O O10 0.998858 0.637933 0.265733
O O11 0.170482 0.701875 0.500000
O O12 0.186779 0.815217 0.271932
O O13 0.108981 0.676682 0.262503
O O14 0.730067 0.594724 0.500000
O O15 0.059002 0.612530 0.500000
#
# Coordination Sequence:
#
# PCOD9425403 Si02
#       6
#     8   8   8   8   8   8
#     4  10  20  32  46  67  95 123 151 185 227 272
#     4  10  20  32  46  66  94 124 151 185 229 272
#     4   9  16  28  48  70  92 120 151 183 224 273
#     4   9  17  30  48  69  93 120 151 187 227 273
#     4  10  19  30  47  69  91 119 155 190 224 268
#     4   8  15  28  46  69  94 118 146 184 229 272
#
# _framework density 15.882258
#
# number of rings (size 3 to 8) (size 9 to 14) (size 15 to 20)
#    0.000    2.667    0.000    3.500    0.000    4.000 
#    0.000    2.500    0.000    1.000    0.000    7.000 
#    0.000    0.000    0.000    0.000    0.000    0.000 
#
# Total GULP energy -267600.389108 kJ/mol
# GULP energy per Si atom -5575.008106 kJ/mol
# Density = 1.584611 g / cm^3
# Si number density = 15.882258 Si / 1000 Ang^3
#
#
#
# Elastic Constant Matrix: (Units=GPa)
#
#
# Indices 1 2 3 4 5 6 
#
# 1 146.7919 72.1045 26.9927 0.0000 0.0000 0.0000
# 2 72.1045 98.5608 28.1303 0.0000 0.0000 0.0000
# 3 26.9927 28.1303 22.3494 0.0000 0.0000 0.0000
# 4 0.0000 0.0000 0.0000 23.7942 0.0000 0.0000
# 5 0.0000 0.0000 0.0000 0.0000 6.0760 0.0000
# 6 0.0000 0.0000 0.0000 0.0000 0.0000 19.2909
#
#
#
# Elastic Compliance Matrix: (Units=1/GPa)
#
#
# Indices 1 2 3 4 5 6 
#
# 1 0.010969 -0.006622 -0.004912 0.000000 0.000000 0.000000
# 2 -0.006622 0.019832 -0.016964 0.000000 0.000000 0.000000
# 3 -0.004912 -0.016964 0.072029 0.000000 0.000000 0.000000
# 4 0.000000 0.000000 0.000000 0.042027 0.000000 0.000000
# 5 0.000000 0.000000 0.000000 0.000000 0.164581 0.000000
# 6 0.000000 0.000000 0.000000 0.000000 0.000000 0.051838
#
#
# Mechanical properties :
#
#
# Convention : Reuss Voigt Hill
#
# Bulk Modulus (GPa) = 21.81859 58.01743 39.91801
# Shear Modulus (GPa) = 11.53270 19.19721 15.36495
#
# Velocity S-wave (km/s) = 2.69762 3.48044 3.11373
# Velocity P-wave (km/s) = 4.84462 7.26363 6.17376
#
# Compressibility (1/GPa) = 0.04583248
#
# Stress axis : x y z
#
# Youngs Moduli (GPa) = 91.17006 50.42230 13.88338
#
# Poissons Ratio (x) = 0.33391 0.06820
# Poissons Ratio (y) = 0.60376 0.23552
# Poissons Ratio (z) = 0.44783 0.85537
#
# Static dielectric constant tensor:
#      x y z
#    x 1.522920 0.000000 0.000000 
#    y 0.000000 1.523970 0.000000 
#    z 0.000000 0.000000 1.530880 
# 
# From -- ./inp_files/4026.got.cif
#   From: 2010.05.17/outbox.cif.g08.bks.cpg/sg55_3_cif.got.tgz:4026.got - 2010.06.03 13:27:54.
