data_PCOD9425025
_publ_section_title
;
Structure prediction by ZEFSAII (Michael W. Deem and Ramdas Pophale) SiO2 
 PCOD9425025
Probable space group: P B A M
;
_chemical_formula_sum "Si O2"
_cell_formula_units_Z 64
_cell_length_a 9.568495
_cell_length_b 25.169167
_cell_length_c 13.987471
_cell_angle_alpha 90.000000
_cell_angle_beta 90.000000
_cell_angle_gamma 90.000000
_cell_volume 3368.617308
_symmetry_space_group_name_H-M "P B A M"
_symmetry_group_IT_number 55
_symmetry_cell_setting 'orthorhombic'
loop_
_space_group_symop_operation_xyz
x,y,z
-x,-y,z
1/2+x,1/2-y,-z
1/2-x,1/2+y,-z
-x,-y,-z
x,y,-z
1/2-x,1/2+y,z
1/2+x,1/2-y,z
loop_
_atom_site_type_symbol
_atom_site_label
_atom_site_fract_x
_atom_site_fract_y
_atom_site_fract_z
Si Si1 0.875947 0.660285 0.805999
Si Si2 0.119261 0.223065 0.887539
Si Si3 0.839278 0.407707 0.396315
Si Si4 0.590952 0.632455 0.889242
Si Si5 0.341149 0.492190 0.356340
Si Si6 0.163027 0.389218 0.393012
Si Si7 0.310413 0.127575 0.182395
Si Si8 0.899525 0.957695 0.154894
O O1 0.881402 0.722132 0.831693
O O2 0.752490 0.633355 0.865937
O O3 0.838261 0.651508 0.694737
O O4 0.024186 0.633539 0.830157
O O5 0.235777 0.181048 0.853462
O O6 0.974205 0.190858 0.875341
O O7 0.139216 0.234161 0.000000
O O8 0.811106 0.380909 0.500000
O O9 0.762560 0.463963 0.397854
O O10 0.790149 0.379869 0.297621
O O11 0.006672 0.414102 0.389559
O O12 0.505363 0.591209 0.824608
O O13 0.562741 0.617944 0.000000
O O14 0.500000 0.500000 0.391052
O O15 0.277622 0.434691 0.375336
O O16 0.348972 0.507716 0.244561
O O17 0.182272 0.367038 0.500000
O O18 0.237480 0.077344 0.128188
O O19 0.000000 0.000000 0.100907
#
# Coordination Sequence:
#
# PCOD9425025 Si02
#       8
#     8   8   8   8   8   8   8   8
#     4  11  20  34  56  80 107 137 179 231 272 318
#     4  10  21  38  59  81 106 137 173 220 281 337
#     4   9  18  33  52  75 107 145 179 214 262 316
#     4  10  21  36  56  82 110 140 176 224 284 339
#     4  10  18  30  51  78 106 139 182 225 259 303
#     4  10  21  35  50  73 108 146 180 217 265 316
#     4   9  20  35  55  82 108 139 181 227 269 321
#     4   9  18  35  54  75 109 148 180 215 270 331
#
# _framework density 18.998892000000001
#
# number of rings (size 3 to 8) (size 9 to 14) (size 15 to 20)
#    0.000    2.250    0.000    3.375    0.000    4.250 
#    0.000    2.500    0.000    3.000    0.000    0.000 
#    0.000    0.000    0.000    0.000    0.000    0.000 
#
# Total GULP energy -356432.833696 kJ/mol
# GULP energy per Si atom -5569.263026 kJ/mol
# Density = 1.895565 g / cm^3
# Si number density = 18.998892 Si / 1000 Ang^3
#
#
#
# Elastic Constant Matrix: (Units=GPa)
#
#
# Indices 1 2 3 4 5 6 
#
# 1 93.8389 36.2830 36.8355 0.0000 0.0000 0.0000
# 2 36.2830 94.3335 46.5780 0.0000 0.0000 0.0000
# 3 36.8355 46.5780 98.9366 0.0000 0.0000 0.0000
# 4 0.0000 0.0000 0.0000 22.5691 0.0000 0.0000
# 5 0.0000 0.0000 0.0000 0.0000 4.4968 0.0000
# 6 0.0000 0.0000 0.0000 0.0000 0.0000 16.3781
#
#
#
# Elastic Compliance Matrix: (Units=1/GPa)
#
#
# Indices 1 2 3 4 5 6 
#
# 1 0.013303 -0.003480 -0.003315 0.000000 0.000000 0.000000
# 2 -0.003480 0.014722 -0.005635 0.000000 0.000000 0.000000
# 3 -0.003315 -0.005635 0.013994 0.000000 0.000000 0.000000
# 4 0.000000 0.000000 0.000000 0.044308 0.000000 0.000000
# 5 0.000000 0.000000 0.000000 0.000000 0.222379 0.000000
# 6 0.000000 0.000000 0.000000 0.000000 0.000000 0.061057
#
#
# Mechanical properties :
#
#
# Convention : Reuss Voigt Hill
#
# Bulk Modulus (GPa) = 58.27581 58.50024 58.38803
# Shear Modulus (GPa) = 12.48928 19.84965 16.16947
#
# Velocity S-wave (km/s) = 2.56670 3.23581 2.92048
# Velocity P-wave (km/s) = 6.28680 6.69469 6.49395
#
# Compressibility (1/GPa) = 0.01715978
#
# Stress axis : x y z
#
# Youngs Moduli (GPa) = 75.16943 67.92755 71.45701
#
# Poissons Ratio (x) = 0.23640 0.23685
# Poissons Ratio (y) = 0.26160 0.40266
# Poissons Ratio (z) = 0.24916 0.38277
#
# Static dielectric constant tensor:
#      x y z
#    x 1.682220 0.000000 0.000000 
#    y 0.000000 1.634100 0.000000 
#    z 0.000000 0.000000 1.709110 
# 
# From -- ./inp_files/17822.got.cif
#   From: 2010.05.17/outbox.cif.g08.bks.cpg/sg55_9_cif.got.tgz:17822.got - 2010.06.03 13:27:54.
