data_PCOD9425171
_publ_section_title
;
Structure prediction by ZEFSAII (Michael W. Deem and Ramdas Pophale) SiO2 
 PCOD9425171
Probable space group: P B A M
;
_chemical_formula_sum "Si O2"
_cell_formula_units_Z 48
_cell_length_a 15.443957
_cell_length_b 20.239222
_cell_length_c 8.620981
_cell_angle_alpha 90.000000
_cell_angle_beta 90.000000
_cell_angle_gamma 90.000000
_cell_volume 2694.691707
_symmetry_space_group_name_H-M "P B A M"
_symmetry_group_IT_number 55
_symmetry_cell_setting 'orthorhombic'
loop_
_space_group_symop_operation_xyz
x,y,z
-x,-y,z
1/2+x,1/2-y,-z
1/2-x,1/2+y,-z
-x,-y,-z
x,y,-z
1/2-x,1/2+y,z
1/2+x,1/2-y,z
loop_
_atom_site_type_symbol
_atom_site_label
_atom_site_fract_x
_atom_site_fract_y
_atom_site_fract_z
Si Si1 0.485598 0.302554 0.814885
Si Si2 0.916963 0.541639 0.312114
Si Si3 0.274317 0.484087 0.688233
Si Si4 0.937264 0.937534 0.313838
Si Si5 0.615743 0.186911 0.813942
Si Si6 0.197862 0.832233 0.314166
O O1 0.527133 0.372215 0.765322
O O2 0.549386 0.243825 0.763317
O O3 0.389754 0.298766 0.743619
O O4 0.478170 0.299845 0.000000
O O5 0.917516 0.545464 0.500000
O O6 0.825535 0.508475 0.265156
O O7 0.915135 0.615728 0.247635
O O8 0.000000 0.500000 0.261763
O O9 0.277564 0.484955 0.500000
O O10 0.342405 0.538878 0.740729
O O11 0.303237 0.409956 0.734669
O O12 0.936307 0.926329 0.500000
O O13 0.000000 0.000000 0.286363
O O14 0.713032 0.197303 0.751016
O O15 0.618691 0.185718 0.000000
O O16 0.200993 0.830838 0.500000
#
# Coordination Sequence:
#
# PCOD9425171 Si02
#       6
#     8   8   8   8   8   8
#     4  11  23  37  54  80 117 152 183 225 277 335
#     4   9  18  35  59  83 109 141 186 236 276 323
#     4   8  15  30  52  78 106 135 171 226 279 315
#     4  10  18  32  54  80 110 142 183 231 275 321
#     4  10  22  39  56  79 115 152 185 225 277 336
#     4  10  19  36  61  82 104 141 188 231 276 328
#
# _framework density 17.812798999999998
#
# number of rings (size 3 to 8) (size 9 to 14) (size 15 to 20)
#    0.000    2.333    1.667    2.500    0.000    3.333 
#    3.000    0.833    0.000    0.000    0.000    0.000 
#    0.000    0.000    0.000    0.000    0.000    0.000 
#
# Total GULP energy -267775.827729 kJ/mol
# GULP energy per Si atom -5578.663078 kJ/mol
# Density = 1.777226 g / cm^3
# Si number density = 17.812799 Si / 1000 Ang^3
#
#
#
# Elastic Constant Matrix: (Units=GPa)
#
#
# Indices 1 2 3 4 5 6 
#
# 1 187.8828 83.5796 41.2222 0.0000 0.0000 0.0000
# 2 83.5796 72.3353 25.3330 0.0000 0.0000 0.0000
# 3 41.2222 25.3330 27.6435 0.0000 0.0000 0.0000
# 4 0.0000 0.0000 0.0000 26.1127 0.0000 0.0000
# 5 0.0000 0.0000 0.0000 0.0000 25.0739 0.0000
# 6 0.0000 0.0000 0.0000 0.0000 0.0000 34.7989
#
#
#
# Elastic Compliance Matrix: (Units=1/GPa)
#
#
# Indices 1 2 3 4 5 6 
#
# 1 0.011947 -0.011140 -0.007606 0.000000 0.000000 0.000000
# 2 -0.011140 0.030747 -0.011564 0.000000 0.000000 0.000000
# 3 -0.007606 -0.011564 0.058115 0.000000 0.000000 0.000000
# 4 0.000000 0.000000 0.000000 0.038296 0.000000 0.000000
# 5 0.000000 0.000000 0.000000 0.000000 0.039882 0.000000
# 6 0.000000 0.000000 0.000000 0.000000 0.000000 0.028737
#
#
# Mechanical properties :
#
#
# Convention : Reuss Voigt Hill
#
# Bulk Modulus (GPa) = 24.88359 65.34792 45.11575
# Shear Modulus (GPa) = 17.74681 26.37889 22.06285
#
# Velocity S-wave (km/s) = 3.15984 3.85241 3.52319
# Velocity P-wave (km/s) = 5.22615 7.52022 6.47558
#
# Compressibility (1/GPa) = 0.04018712
#
# Stress axis : x y z
#
# Youngs Moduli (GPa) = 83.70209 32.52392 17.20717
#
# Poissons Ratio (x) = 0.36233 0.13088
# Poissons Ratio (y) = 0.93247 0.19899
# Poissons Ratio (z) = 0.63667 0.37611
#
# Static dielectric constant tensor:
#      x y z
#    x 1.624850 0.000000 0.000000 
#    y 0.000000 1.578510 0.000000 
#    z 0.000000 0.000000 1.605460 
# 
# From -- ./inp_files/5792.got.cif
#   From: 2010.05.17/outbox.cif.g08.bks.cpg/sg55_3_cif.got.tgz:5792.got - 2010.06.03 13:27:54.
