data_PCOD9425532
_publ_section_title
;
Structure prediction by ZEFSAII (Michael W. Deem and Ramdas Pophale) SiO2 
 PCOD9425532
Probable space group: P B A M
;
_chemical_formula_sum "Si O2"
_cell_formula_units_Z 56
_cell_length_a 22.042443
_cell_length_b 15.136423
_cell_length_c 7.553462
_cell_angle_alpha 90.000000
_cell_angle_beta 90.000000
_cell_angle_gamma 90.000000
_cell_volume 2520.165321
_symmetry_space_group_name_H-M "P B A M"
_symmetry_group_IT_number 55
_symmetry_cell_setting 'orthorhombic'
loop_
_space_group_symop_operation_xyz
x,y,z
-x,-y,z
1/2+x,1/2-y,-z
1/2-x,1/2+y,-z
-x,-y,-z
x,y,-z
1/2-x,1/2+y,z
1/2+x,1/2-y,z
loop_
_atom_site_type_symbol
_atom_site_label
_atom_site_fract_x
_atom_site_fract_y
_atom_site_fract_z
Si Si1 0.111949 0.285521 0.288087
Si Si2 0.218752 0.411088 0.285489
Si Si3 0.380276 0.211190 0.788861
Si Si4 0.142534 0.904207 0.712885
Si Si5 0.733136 0.891979 0.792815
Si Si6 0.493748 0.099763 0.786701
Si Si7 0.871764 0.905079 0.298140
O O1 0.120341 0.276425 0.500000
O O2 0.170910 0.338639 0.221390
O O3 0.105491 0.186187 0.215446
O O4 0.053122 0.343935 0.255609
O O5 0.218132 0.410739 0.500000
O O6 0.287677 0.394134 0.224845
O O7 0.203532 0.510749 0.226330
O O8 0.391328 0.314196 0.756178
O O9 0.314654 0.179040 0.720561
O O10 0.434183 0.150164 0.719109
O O11 0.377202 0.197940 0.000000
O O12 0.144874 0.912021 0.500000
O O13 0.117315 0.997816 0.781795
O O14 0.798299 0.895180 0.700187
O O15 0.745297 0.875496 0.000000
O O16 0.500000 0.000000 0.719786
O O17 0.488763 0.095470 0.000000
O O18 0.894881 0.908473 0.500000
#
# Coordination Sequence:
#
# PCOD9425532 Si02
#       7
#     8   8   8   8   8   8   8
#     4  10  20  35  56  79 103 135 176 218 257 304
#     4   9  18  32  51  78 109 137 166 207 261 308
#     4  10  21  35  51  74 104 137 172 212 257 301
#     4   9  18  33  54  77 102 136 171 205 253 309
#     4  10  19  31  51  79 107 138 175 210 251 308
#     4  10  22  40  57  74 103 139 171 210 260 307
#     4   9  19  36  54  76 108 138 166 209 263 308
#
# _framework density 22.220766000000001
#
# number of rings (size 3 to 8) (size 9 to 14) (size 15 to 20)
#    0.000    2.429    0.000    3.000    0.000    7.714 
#    0.000    0.714    0.000    4.286    0.000    0.000 
#    0.000    0.000    0.000    0.000    0.000    0.000 
#
# Total GULP energy -312742.891116 kJ/mol
# GULP energy per Si atom -5584.694484 kJ/mol
# Density = 2.217019 g / cm^3
# Si number density = 22.220766 Si / 1000 Ang^3
#
#
#
# Elastic Constant Matrix: (Units=GPa)
#
#
# Indices 1 2 3 4 5 6 
#
# 1 28.6183 44.9468 -7.3954 0.0000 0.0000 0.0000
# 2 44.9468 196.1025 -8.5955 0.0000 0.0000 0.0000
# 3 -7.3954 -8.5955 58.8568 0.0000 0.0000 0.0000
# 4 0.0000 0.0000 0.0000 20.3643 0.0000 0.0000
# 5 0.0000 0.0000 0.0000 0.0000 19.0203 0.0000
# 6 0.0000 0.0000 0.0000 0.0000 0.0000 36.0887
#
#
#
# Elastic Compliance Matrix: (Units=1/GPa)
#
#
# Indices 1 2 3 4 5 6 
#
# 1 0.056138 -0.012639 0.005208 0.000000 0.000000 0.000000
# 2 -0.012639 0.007978 -0.000423 0.000000 0.000000 0.000000
# 3 0.005208 -0.000423 0.017583 0.000000 0.000000 0.000000
# 4 0.000000 0.000000 0.000000 0.049106 0.000000 0.000000
# 5 0.000000 0.000000 0.000000 0.000000 0.052575 0.000000
# 6 0.000000 0.000000 0.000000 0.000000 0.000000 0.027710
#
#
# Mechanical properties :
#
#
# Convention : Reuss Voigt Hill
#
# Bulk Modulus (GPa) = 15.15340 37.94327 26.54833
# Shear Modulus (GPa) = 20.09694 32.06943 26.08319
#
# Velocity S-wave (km/s) = 3.01062 3.80309 3.42982
# Velocity P-wave (km/s) = 4.34965 6.03302 5.25912
#
# Compressibility (1/GPa) = 0.06599177
#
# Stress axis : x y z
#
# Youngs Moduli (GPa) = 17.81312 125.35054 56.87311
#
# Poissons Ratio (x) = 1.58427 -0.29620
# Poissons Ratio (y) = 0.22513 0.02406
# Poissons Ratio (z) = -0.09277 0.05302
#
# Static dielectric constant tensor:
#      x y z
#    x 1.773890 0.000000 0.000000 
#    y 0.000000 1.852060 0.000000 
#    z 0.000000 0.000000 1.856400 
# 
# From -- ./inp_files/6090.got.cif
#   From: 2010.05.17/outbox.cif.g08.bks.cpg/sg55_4_cif.got.tgz:6090.got - 2010.06.03 13:27:54.
