data_PCOD9425331
_publ_section_title
;
Structure prediction by ZEFSAII (Michael W. Deem and Ramdas Pophale) SiO2 
 PCOD9425331
Probable space group: P B A M
;
_chemical_formula_sum "Si O2"
_cell_formula_units_Z 58
_cell_length_a 12.091074
_cell_length_b 18.644700
_cell_length_c 13.876141
_cell_angle_alpha 90.000000
_cell_angle_beta 90.000000
_cell_angle_gamma 90.000000
_cell_volume 3128.160178
_symmetry_space_group_name_H-M "P B A M"
_symmetry_group_IT_number 55
_symmetry_cell_setting 'orthorhombic'
loop_
_space_group_symop_operation_xyz
x,y,z
-x,-y,z
1/2+x,1/2-y,-z
1/2-x,1/2+y,-z
-x,-y,-z
x,y,-z
1/2-x,1/2+y,z
1/2+x,1/2-y,z
loop_
_atom_site_type_symbol
_atom_site_label
_atom_site_fract_x
_atom_site_fract_y
_atom_site_fract_z
Si Si1 0.813999 0.961147 0.885075
Si Si2 0.403469 0.800982 0.114084
Si Si3 0.934879 0.428672 0.116979
Si Si4 0.908172 0.940256 0.612334
Si Si5 0.543004 0.344481 0.783042
Si Si6 0.715448 0.049919 0.395306
Si Si7 0.000000 0.500000 0.500000
Si Si8 0.204947 0.882664 0.204039
O O1 0.693129 0.931129 0.854470
O O2 0.909028 0.908260 0.849572
O O3 0.822307 0.039641 0.840108
O O4 0.815947 0.966582 0.000000
O O5 0.499469 0.857107 0.143581
O O6 0.410348 0.729505 0.176763
O O7 0.288949 0.841484 0.134798
O O8 0.414244 0.784846 0.000000
O O9 0.000000 0.500000 0.150592
O O10 0.937088 0.431140 0.000000
O O11 0.925452 0.924602 0.500000
O O12 0.920209 0.870511 0.677400
O O13 0.790497 0.979525 0.623679
O O14 0.000000 0.000000 0.641837
O O15 0.410649 0.342411 0.785138
O O16 0.757081 0.079082 0.500000
O O17 0.590419 0.026713 0.417177
O O18 0.736900 0.102820 0.307139
#
# Coordination Sequence:
#
# PCOD9425331 Si02
#       8
#     8   8   8   8   8   8   2   8
#     4  11  22  37  62  94 127 164 223 285 328 389
#     4  11  26  43  59  89 136 186 227 275 337 398
#     4   9  18  38  61  83 113 163 224 272 321 384
#     4  10  18  37  69 100 128 166 212 272 336 409
#     4  12  25  40  61  98 131 168 226 271 343 408
#     4   9  19  38  64  99 134 159 209 271 331 395
#     4   8  20  36  62 108 134 160 196 270 342 388
#     4  12  23  41  66  93 126 174 226 278 331 403
#
# _framework density 18.541250000000002
#
# number of rings (size 3 to 8) (size 9 to 14) (size 15 to 20)
#    0.414    1.103    4.138    1.241    1.931    3.862 
#    0.000    0.690    0.000    0.000    0.000    0.000 
#    0.000    0.000    0.000    0.000    0.000    0.000 
#
# Total GULP energy -323190.584478 kJ/mol
# GULP energy per Si atom -5572.251457 kJ/mol
# Density = 1.849905 g / cm^3
# Si number density = 18.541250 Si / 1000 Ang^3
#
#
#
# Elastic Constant Matrix: (Units=GPa)
#
#
# Indices 1 2 3 4 5 6 
#
# 1 60.5396 1.3021 6.0017 0.0000 0.0000 0.0000
# 2 1.3021 88.5899 29.9325 0.0000 0.0000 0.0000
# 3 6.0017 29.9325 76.6006 0.0000 0.0000 0.0000
# 4 0.0000 0.0000 0.0000 30.6062 0.0000 0.0000
# 5 0.0000 0.0000 0.0000 0.0000 26.1657 0.0000
# 6 0.0000 0.0000 0.0000 0.0000 0.0000 17.5779
#
#
#
# Elastic Compliance Matrix: (Units=1/GPa)
#
#
# Indices 1 2 3 4 5 6 
#
# 1 0.016651 0.000226 -0.001393 0.000000 0.000000 0.000000
# 2 0.000226 0.013008 -0.005101 0.000000 0.000000 0.000000
# 3 -0.001393 -0.005101 0.015157 0.000000 0.000000 0.000000
# 4 0.000000 0.000000 0.000000 0.032673 0.000000 0.000000
# 5 0.000000 0.000000 0.000000 0.000000 0.038218 0.000000
# 6 0.000000 0.000000 0.000000 0.000000 0.000000 0.056890
#
#
# Mechanical properties :
#
#
# Convention : Reuss Voigt Hill
#
# Bulk Modulus (GPa) = 30.97804 33.35585 32.16694
# Shear Modulus (GPa) = 25.52413 27.43621 26.48017
#
# Velocity S-wave (km/s) = 3.71430 3.85091 3.78322
# Velocity P-wave (km/s) = 5.92778 6.14832 6.03906
#
# Compressibility (1/GPa) = 0.03228093
#
# Stress axis : x y z
#
# Youngs Moduli (GPa) = 60.05517 76.87537 65.97603
#
# Poissons Ratio (x) = -0.01737 0.09190
# Poissons Ratio (y) = -0.01357 0.33653
# Poissons Ratio (z) = 0.08365 0.39212
#
# Static dielectric constant tensor:
#      x y z
#    x 1.653500 0.000000 0.000000 
#    y 0.000000 1.626110 0.000000 
#    z 0.000000 0.000000 1.675360 
# 
# From -- ./inp_files/18519.got.cif
#   From: 2010.05.17/outbox.cif.g08.bks.cpg/sg55_10_cif.got.tgz:18519.got - 2010.06.03 13:27:54.
