data_PCOD9425223
_publ_section_title
;
Structure prediction by ZEFSAII (Michael W. Deem and Ramdas Pophale) SiO2 
 PCOD9425223
Probable space group: P B A M
;
_chemical_formula_sum "Si O2"
_cell_formula_units_Z 64
_cell_length_a 28.178204
_cell_length_b 9.204336
_cell_length_c 13.830495
_cell_angle_alpha 90.000000
_cell_angle_beta 90.000000
_cell_angle_gamma 90.000000
_cell_volume 3587.100107
_symmetry_space_group_name_H-M "P B A M"
_symmetry_group_IT_number 55
_symmetry_cell_setting 'orthorhombic'
loop_
_space_group_symop_operation_xyz
x,y,z
-x,-y,z
1/2+x,1/2-y,-z
1/2-x,1/2+y,-z
-x,-y,-z
x,y,-z
1/2-x,1/2+y,z
1/2+x,1/2-y,z
loop_
_atom_site_type_symbol
_atom_site_label
_atom_site_fract_x
_atom_site_fract_y
_atom_site_fract_z
Si Si1 0.395169 0.982886 0.776966
Si Si2 0.498876 0.164726 0.606744
Si Si3 0.888484 0.298053 0.611668
Si Si4 0.049072 0.192816 0.774379
Si Si5 0.044148 0.708902 0.112862
Si Si6 0.199056 0.426468 0.884502
Si Si7 0.702475 0.415704 0.116568
Si Si8 0.614806 0.582106 0.787978
O O1 0.384162 0.049360 0.670760
O O2 0.439174 0.070374 0.824697
O O3 0.411043 0.816658 0.785110
O O4 0.346925 0.998310 0.836931
O O5 0.519682 0.154024 0.500000
O O6 0.445140 0.216609 0.603218
O O7 0.526999 0.275222 0.670834
O O8 0.500000 0.000000 0.646435
O O9 0.869888 0.295007 0.500000
O O10 0.873957 0.174011 0.689967
O O11 0.074325 0.039261 0.774261
O O12 0.005063 0.221454 0.847816
O O13 0.089067 0.812878 0.134812
O O14 0.039612 0.676175 0.000000
O O15 0.202259 0.255506 0.858220
O O16 0.247097 0.511359 0.858920
O O17 0.193818 0.433635 0.000000
O O18 0.660875 0.503686 0.169431
O O19 0.695912 0.426664 0.000000
#
# Coordination Sequence:
#
# PCOD9425223 Si02
#       8
#     8   8   8   8   8   8   8   8
#     4  11  21  38  61  83 116 152 199 244 288 344
#     4  10  18  33  55  79 110 148 194 242 282 324
#     4  10  22  38  59  84 113 155 201 247 292 346
#     4  12  21  36  53  85 117 152 198 235 286 340
#     4  11  24  36  52  79 119 167 197 225 277 353
#     4  10  22  39  62  92 118 147 191 240 290 343
#     4  10  22  40  62  90 118 148 191 240 289 342
#     4  11  23  38  58  82 120 155 193 241 294 347
#
# _framework density 17.841709999999999
#
# number of rings (size 3 to 8) (size 9 to 14) (size 15 to 20)
#    0.000    1.375    5.000    1.500    3.500    3.500 
#    0.000    1.250    0.000    0.750    0.000    0.000 
#    0.000    0.000    0.000    0.000    0.000    0.000 
#
# Total GULP energy -356815.652510 kJ/mol
# GULP energy per Si atom -5575.244570 kJ/mol
# Density = 1.780110 g / cm^3
# Si number density = 17.841710 Si / 1000 Ang^3
#
#
#
# Elastic Constant Matrix: (Units=GPa)
#
#
# Indices 1 2 3 4 5 6 
#
# 1 80.1702 2.1327 28.1022 0.0000 0.0000 0.0000
# 2 2.1327 42.5187 17.1104 0.0000 0.0000 0.0000
# 3 28.1022 17.1104 92.3100 0.0000 0.0000 0.0000
# 4 0.0000 0.0000 0.0000 13.4160 0.0000 0.0000
# 5 0.0000 0.0000 0.0000 0.0000 21.1021 0.0000
# 6 0.0000 0.0000 0.0000 0.0000 0.0000 30.0157
#
#
#
# Elastic Compliance Matrix: (Units=1/GPa)
#
#
# Indices 1 2 3 4 5 6 
#
# 1 0.014011 0.001095 -0.004468 0.000000 0.000000 0.000000
# 2 0.001095 0.025500 -0.005060 0.000000 0.000000 0.000000
# 3 -0.004468 -0.005060 0.013131 0.000000 0.000000 0.000000
# 4 0.000000 0.000000 0.000000 0.074538 0.000000 0.000000
# 5 0.000000 0.000000 0.000000 0.000000 0.047389 0.000000
# 6 0.000000 0.000000 0.000000 0.000000 0.000000 0.033316
#
#
# Mechanical properties :
#
#
# Convention : Reuss Voigt Hill
#
# Bulk Modulus (GPa) = 27.95163 34.40995 31.18079
# Shear Modulus (GPa) = 21.12591 24.08367 22.60479
#
# Velocity S-wave (km/s) = 3.44477 3.67802 3.56330
# Velocity P-wave (km/s) = 5.61448 6.11271 5.86888
#
# Compressibility (1/GPa) = 0.03577609
#
# Stress axis : x y z
#
# Youngs Moduli (GPa) = 71.37453 39.21506 76.15389
#
# Poissons Ratio (x) = -0.04296 0.34028
# Poissons Ratio (y) = -0.07818 0.38535
# Poissons Ratio (z) = 0.31892 0.19843
#
# Static dielectric constant tensor:
#      x y z
#    x 1.555470 0.000000 0.000000 
#    y 0.000000 1.580320 0.000000 
#    z 0.000000 0.000000 1.636200 
# 
# From -- ./inp_files/19965.got.cif
#   From: 2010.05.17/outbox.cif.g08.bks.cpg/sg55_10_cif.got.tgz:19965.got - 2010.06.03 13:27:54.
