data_PCOD9425725
_publ_section_title
;
Structure prediction by ZEFSAII (Michael W. Deem and Ramdas Pophale) SiO2 
 PCOD9425725
Probable space group: P B A M
;
_chemical_formula_sum "Si O2"
_cell_formula_units_Z 64
_cell_length_a 19.806261
_cell_length_b 20.782174
_cell_length_c 8.755031
_cell_angle_alpha 90.000000
_cell_angle_beta 90.000000
_cell_angle_gamma 90.000000
_cell_volume 3603.721017
_symmetry_space_group_name_H-M "P B A M"
_symmetry_group_IT_number 55
_symmetry_cell_setting 'orthorhombic'
loop_
_space_group_symop_operation_xyz
x,y,z
-x,-y,z
1/2+x,1/2-y,-z
1/2-x,1/2+y,-z
-x,-y,-z
x,y,-z
1/2-x,1/2+y,z
1/2+x,1/2-y,z
loop_
_atom_site_type_symbol
_atom_site_label
_atom_site_fract_x
_atom_site_fract_y
_atom_site_fract_z
Si Si1 0.038900 0.813189 0.818514
Si Si2 0.675286 0.135076 0.683690
Si Si3 0.328631 0.508710 0.183245
Si Si4 0.327979 0.365044 0.316492
Si Si5 0.964402 0.690354 0.682333
Si Si6 0.459439 0.566058 0.318055
Si Si7 0.038119 0.567866 0.817925
Si Si8 0.324742 0.007278 0.816582
O O1 0.113528 0.819872 0.747229
O O2 0.000831 0.749719 0.762116
O O3 0.996946 0.874966 0.761096
O O4 0.043942 0.813987 0.000000
O O5 0.673505 0.131299 0.500000
O O6 0.751507 0.154788 0.727109
O O7 0.613687 0.180481 0.731941
O O8 0.663635 0.063376 0.747385
O O9 0.338777 0.436707 0.249037
O O10 0.384371 0.554752 0.255492
O O11 0.251526 0.527529 0.222216
O O12 0.335763 0.506996 0.000000
O O13 0.332734 0.368587 0.500000
O O14 0.966048 0.699531 0.500000
O O15 0.002712 0.624799 0.727309
O O16 0.500000 0.500000 0.286573
O O17 0.458944 0.576076 0.500000
O O18 0.115658 0.555326 0.771055
O O19 0.000000 0.500000 0.794830
O O20 0.035227 0.582188 0.000000
O O21 0.328680 0.000673 0.000000
#
# Coordination Sequence:
#
# PCOD9425725 Si02
#       8
#     8   8   8   8   8   8   8   8
#     4  12  25  40  59  84 114 150 191 235 283 339
#     4   9  19  34  56  83 112 146 186 231 279 335
#     4  10  19  32  54  85 116 147 188 234 281 332
#     4  10  19  35  57  83 113 146 185 230 281 336
#     4  11  23  39  58  84 117 152 192 236 282 337
#     4  11  22  37  59  84 113 147 184 230 284 335
#     4  10  19  34  57  84 116 151 189 232 280 331
#     4   9  18  32  53  83 117 150 186 234 283 329
#
# _framework density 17.759422000000001
#
# number of rings (size 3 to 8) (size 9 to 14) (size 15 to 20)
#    0.000    1.750    2.500    2.625    0.000    2.750 
#    0.000    1.250    0.000    0.000    0.000    0.000 
#    0.000    0.000    0.000    0.000    0.000    0.000 
#
# Total GULP energy -357346.639374 kJ/mol
# GULP energy per Si atom -5583.541240 kJ/mol
# Density = 1.771900 g / cm^3
# Si number density = 17.759422 Si / 1000 Ang^3
#
#
#
# Elastic Constant Matrix: (Units=GPa)
#
#
# Indices 1 2 3 4 5 6 
#
# 1 154.7287 52.9338 39.1914 0.0000 0.0000 0.0000
# 2 52.9338 66.2413 31.2678 0.0000 0.0000 0.0000
# 3 39.1914 31.2678 48.6647 0.0000 0.0000 0.0000
# 4 0.0000 0.0000 0.0000 30.0554 0.0000 0.0000
# 5 0.0000 0.0000 0.0000 0.0000 25.3201 0.0000
# 6 0.0000 0.0000 0.0000 0.0000 0.0000 28.8017
#
#
#
# Elastic Compliance Matrix: (Units=1/GPa)
#
#
# Indices 1 2 3 4 5 6 
#
# 1 0.009392 -0.005648 -0.003935 0.000000 0.000000 0.000000
# 2 -0.005648 0.025064 -0.011556 0.000000 0.000000 0.000000
# 3 -0.003935 -0.011556 0.031142 0.000000 0.000000 0.000000
# 4 0.000000 0.000000 0.000000 0.033272 0.000000 0.000000
# 5 0.000000 0.000000 0.000000 0.000000 0.039494 0.000000
# 6 0.000000 0.000000 0.000000 0.000000 0.000000 0.034720
#
#
# Mechanical properties :
#
#
# Convention : Reuss Voigt Hill
#
# Bulk Modulus (GPa) = 42.87851 57.38007 50.12929
# Shear Modulus (GPa) = 22.40799 26.58488 24.49644
#
# Velocity S-wave (km/s) = 3.55597 3.87323 3.71799
# Velocity P-wave (km/s) = 6.40753 7.23757 6.83516
#
# Compressibility (1/GPa) = 0.02332171
#
# Stress axis : x y z
#
# Youngs Moduli (GPa) = 106.47755 39.89779 32.11063
#
# Poissons Ratio (x) = 0.22533 0.12635
# Poissons Ratio (y) = 0.60134 0.37106
# Poissons Ratio (z) = 0.41896 0.46105
#
# Static dielectric constant tensor:
#      x y z
#    x 1.641980 0.000000 0.000000 
#    y 0.000000 1.559350 0.000000 
#    z 0.000000 0.000000 1.593730 
# 
# From -- ./inp_files/9001.got.cif
#   From: 2010.05.17/outbox.cif.g08.bks.cpg/sg55_5_cif.got.tgz:9001.got - 2010.06.03 13:27:54.
