data_PCOD9425300
_publ_section_title
;
Structure prediction by ZEFSAII (Michael W. Deem and Ramdas Pophale) SiO2 
 PCOD9425300
Probable space group: P B A M
;
_chemical_formula_sum "Si O2"
_cell_formula_units_Z 64
_cell_length_a 9.667973
_cell_length_b 24.433938
_cell_length_c 13.338117
_cell_angle_alpha 90.000000
_cell_angle_beta 90.000000
_cell_angle_gamma 90.000000
_cell_volume 3150.818734
_symmetry_space_group_name_H-M "P B A M"
_symmetry_group_IT_number 55
_symmetry_cell_setting 'orthorhombic'
loop_
_space_group_symop_operation_xyz
x,y,z
-x,-y,z
1/2+x,1/2-y,-z
1/2-x,1/2+y,-z
-x,-y,-z
x,y,-z
1/2-x,1/2+y,z
1/2+x,1/2-y,z
loop_
_atom_site_type_symbol
_atom_site_label
_atom_site_fract_x
_atom_site_fract_y
_atom_site_fract_z
Si Si1 0.026147 0.864227 0.786299
Si Si2 0.633431 0.741942 0.118458
Si Si3 0.836299 0.006917 0.384921
Si Si4 0.897762 0.689445 0.204331
Si Si5 0.267457 0.364647 0.381517
Si Si6 0.024854 0.418221 0.886017
Si Si7 0.191421 0.963897 0.883510
Si Si8 0.763911 0.929825 0.214399
O O1 0.059402 0.816843 0.865121
O O2 0.093463 0.847615 0.679278
O O3 0.108512 0.918956 0.821026
O O4 0.866419 0.878960 0.777105
O O5 0.784682 0.732569 0.165043
O O6 0.546256 0.783522 0.187114
O O7 0.635696 0.756697 0.000000
O O8 0.826599 0.990822 0.500000
O O9 0.776974 0.068683 0.376850
O O10 0.757837 0.964273 0.316066
O O11 0.000000 0.000000 0.357660
O O12 0.895674 0.638975 0.126825
O O13 0.516872 0.928209 0.000000
O O14 0.261911 0.350276 0.500000
O O15 0.148412 0.336827 0.311417
O O16 0.888052 0.415467 0.821307
O O17 0.144377 0.460625 0.857713
O O18 0.160874 0.026928 0.860808
O O19 0.175584 0.951564 0.000000
#
# Coordination Sequence:
#
# PCOD9425300 Si02
#       8
#     8   8   8   8   8   8   8   8
#     4  11  22  37  60  93 126 164 215 270 319 380
#     4  11  23  41  66  91 123 162 212 266 328 392
#     4  10  18  34  63  94 127 172 220 265 314 371
#     4  11  24  44  66  94 125 165 217 274 331 391
#     4  10  20  40  69  95 125 167 212 267 328 379
#     4  11  23  39  58  84 130 179 214 258 323 390
#     4  11  21  37  56  80 125 181 220 254 314 383
#     4  12  22  34  55  93 132 165 216 266 311 379
#
# _framework density 20.312182
#
# number of rings (size 3 to 8) (size 9 to 14) (size 15 to 20)
#    0.000    1.125    5.000    2.625    1.750    3.500 
#    0.000    3.125    0.000    2.250    0.000    0.000 
#    0.000    0.000    0.000    0.000    0.000    0.000 
#
# Total GULP energy -357147.551932 kJ/mol
# GULP energy per Si atom -5580.430499 kJ/mol
# Density = 2.026595 g / cm^3
# Si number density = 20.312182 Si / 1000 Ang^3
#
#
#
# Elastic Constant Matrix: (Units=GPa)
#
#
# Indices 1 2 3 4 5 6 
#
# 1 81.4740 16.3594 44.3041 0.0000 0.0000 0.0000
# 2 16.3594 35.1033 6.1436 0.0000 0.0000 0.0000
# 3 44.3041 6.1436 121.3364 0.0000 0.0000 0.0000
# 4 0.0000 0.0000 0.0000 24.5795 0.0000 0.0000
# 5 0.0000 0.0000 0.0000 0.0000 25.1905 0.0000
# 6 0.0000 0.0000 0.0000 0.0000 0.0000 39.5032
#
#
#
# Elastic Compliance Matrix: (Units=1/GPa)
#
#
# Indices 1 2 3 4 5 6 
#
# 1 0.016787 -0.006811 -0.005785 0.000000 0.000000 0.000000
# 2 -0.006811 0.031505 0.000892 0.000000 0.000000 0.000000
# 3 -0.005785 0.000892 0.010309 0.000000 0.000000 0.000000
# 4 0.000000 0.000000 0.000000 0.040684 0.000000 0.000000
# 5 0.000000 0.000000 0.000000 0.000000 0.039697 0.000000
# 6 0.000000 0.000000 0.000000 0.000000 0.000000 0.025314
#
#
# Mechanical properties :
#
#
# Convention : Reuss Voigt Hill
#
# Bulk Modulus (GPa) = 28.41461 41.28091 34.84776
# Shear Modulus (GPa) = 25.07067 29.26174 27.16621
#
# Velocity S-wave (km/s) = 3.51703 3.79964 3.66106
# Velocity P-wave (km/s) = 5.52376 6.29421 5.92153
#
# Compressibility (1/GPa) = 0.03519317
#
# Stress axis : x y z
#
# Youngs Moduli (GPa) = 59.56972 31.74058 97.00654
#
# Poissons Ratio (x) = 0.21618 0.56115
# Poissons Ratio (y) = 0.40573 -0.08650
# Poissons Ratio (z) = 0.34459 -0.02830
#
# Static dielectric constant tensor:
#      x y z
#    x 1.772740 0.000000 0.000000 
#    y 0.000000 1.783640 0.000000 
#    z 0.000000 0.000000 1.718420 
# 
# From -- ./inp_files/17855.got.cif
#   From: 2010.05.17/outbox.cif.g08.bks.cpg/sg55_9_cif.got.tgz:17855.got - 2010.06.03 13:27:54.
