data_PCOD9425720
_publ_section_title
;
Structure prediction by ZEFSAII (Michael W. Deem and Ramdas Pophale) SiO2 
 PCOD9425720
Probable space group: P B A M
;
_chemical_formula_sum "Si O2"
_cell_formula_units_Z 56
_cell_length_a 21.734870
_cell_length_b 15.269900
_cell_length_c 7.509228
_cell_angle_alpha 90.000000
_cell_angle_beta 90.000000
_cell_angle_gamma 90.000000
_cell_volume 2492.232360
_symmetry_space_group_name_H-M "P B A M"
_symmetry_group_IT_number 55
_symmetry_cell_setting 'orthorhombic'
loop_
_space_group_symop_operation_xyz
x,y,z
-x,-y,z
1/2+x,1/2-y,-z
1/2-x,1/2+y,-z
-x,-y,-z
x,y,-z
1/2-x,1/2+y,z
1/2+x,1/2-y,z
loop_
_atom_site_type_symbol
_atom_site_label
_atom_site_fract_x
_atom_site_fract_y
_atom_site_fract_z
Si Si1 0.704319 0.578913 0.789892
Si Si2 0.091672 0.793414 0.715472
Si Si3 0.809219 0.702669 0.209237
Si Si4 0.833026 0.891015 0.789710
Si Si5 0.432166 0.103578 0.716841
Si Si6 0.976305 0.904434 0.284819
Si Si7 0.925118 0.590357 0.714976
O O1 0.644227 0.639553 0.772366
O O2 0.761184 0.633348 0.712364
O O3 0.691714 0.482520 0.713458
O O4 0.716018 0.566560 0.000000
O O5 0.091813 0.792840 0.500000
O O6 0.099738 0.693189 0.776647
O O7 0.025614 0.831858 0.773085
O O8 0.807348 0.800255 0.286861
O O9 0.877055 0.662126 0.223158
O O10 0.794319 0.710688 0.000000
O O11 0.906837 0.889538 0.773288
O O12 0.819319 0.891013 0.000000
O O13 0.430533 0.102857 0.500000
O O14 0.504319 0.107253 0.768187
O O15 0.407765 0.008519 0.774547
O O16 0.976009 0.904330 0.500000
O O17 0.000000 0.000000 0.226194
O O18 0.924467 0.591662 0.500000
#
# Coordination Sequence:
#
# PCOD9425720 Si02
#       7
#     8   8   8   8   8   8   8
#     4  10  22  38  53  72 103 141 178 215 259 309
#     4  10  19  33  53  79 110 138 170 214 264 314
#     4  10  22  38  54  75 105 140 179 222 264 307
#     4  10  21  37  56  77 105 142 180 217 264 324
#     4   8  16  31  54  81 108 135 165 210 263 312
#     4  10  19  32  54  84 112 137 168 218 272 314
#     4   9  17  34  57  79 103 136 175 210 256 316
#
# _framework density 22.469815000000001
#
# number of rings (size 3 to 8) (size 9 to 14) (size 15 to 20)
#    0.000    2.429    1.429    1.714    0.000    4.286 
#    0.000    4.286    0.000    0.000    0.000    0.000 
#    0.000    0.000    0.000    0.000    0.000    0.000 
#
# Total GULP energy -312790.021053 kJ/mol
# GULP energy per Si atom -5585.536090 kJ/mol
# Density = 2.241867 g / cm^3
# Si number density = 22.469815 Si / 1000 Ang^3
#
#
#
# Elastic Constant Matrix: (Units=GPa)
#
#
# Indices 1 2 3 4 5 6 
#
# 1 52.2567 45.8478 -4.2280 0.0000 0.0000 0.0000
# 2 45.8478 180.2919 1.7242 0.0000 0.0000 0.0000
# 3 -4.2280 1.7242 57.6186 0.0000 0.0000 0.0000
# 4 0.0000 0.0000 0.0000 6.1234 0.0000 0.0000
# 5 0.0000 0.0000 0.0000 0.0000 17.0166 0.0000
# 6 0.0000 0.0000 0.0000 0.0000 0.0000 18.8603
#
#
#
# Elastic Compliance Matrix: (Units=1/GPa)
#
#
# Indices 1 2 3 4 5 6 
#
# 1 0.024863 -0.006342 0.002014 0.000000 0.000000 0.000000
# 2 -0.006342 0.007166 -0.000680 0.000000 0.000000 0.000000
# 3 0.002014 -0.000680 0.017524 0.000000 0.000000 0.000000
# 4 0.000000 0.000000 0.000000 0.163308 0.000000 0.000000
# 5 0.000000 0.000000 0.000000 0.000000 0.058766 0.000000
# 6 0.000000 0.000000 0.000000 0.000000 0.000000 0.053021
#
#
# Mechanical properties :
#
#
# Convention : Reuss Voigt Hill
#
# Bulk Modulus (GPa) = 25.29222 41.87280 33.58251
# Shear Modulus (GPa) = 14.37430 24.85494 19.61462
#
# Velocity S-wave (km/s) = 2.53200 3.32949 2.95775
# Velocity P-wave (km/s) = 4.45293 5.78414 5.16163
#
# Compressibility (1/GPa) = 0.03953785
#
# Stress axis : x y z
#
# Youngs Moduli (GPa) = 40.21971 139.55158 57.06572
#
# Poissons Ratio (x) = 0.88503 -0.11494
# Poissons Ratio (y) = 0.25507 0.03879
# Poissons Ratio (z) = -0.08101 0.09487
#
# Static dielectric constant tensor:
#      x y z
#    x 1.775490 0.000000 0.000000 
#    y 0.000000 1.861010 0.000000 
#    z 0.000000 0.000000 1.870100 
# 
# From -- ./inp_files/8785.got.cif
#   From: 2010.05.17/outbox.cif.g08.bks.cpg/sg55_5_cif.got.tgz:8785.got - 2010.06.03 13:27:54.
