data_PCOD9425507
_publ_section_title
;
Structure prediction by ZEFSAII (Michael W. Deem and Ramdas Pophale) SiO2 
 PCOD9425507
Probable space group: P B A M
;
_chemical_formula_sum "Si O2"
_cell_formula_units_Z 56
_cell_length_a 19.619362
_cell_length_b 18.510288
_cell_length_c 8.715841
_cell_angle_alpha 90.000000
_cell_angle_beta 90.000000
_cell_angle_gamma 90.000000
_cell_volume 3165.245175
_symmetry_space_group_name_H-M "P B A M"
_symmetry_group_IT_number 55
_symmetry_cell_setting 'orthorhombic'
loop_
_space_group_symop_operation_xyz
x,y,z
-x,-y,z
1/2+x,1/2-y,-z
1/2-x,1/2+y,-z
-x,-y,-z
x,y,-z
1/2-x,1/2+y,z
1/2+x,1/2-y,z
loop_
_atom_site_type_symbol
_atom_site_label
_atom_site_fract_x
_atom_site_fract_y
_atom_site_fract_z
Si Si1 0.860562 0.458399 0.685172
Si Si2 0.112587 0.813582 0.183289
Si Si3 0.542218 0.835177 0.185084
Si Si4 0.285541 0.514368 0.323277
Si Si5 0.246774 0.343344 0.676390
Si Si6 0.108383 0.383849 0.183789
Si Si7 0.427234 0.468294 0.313613
O O1 0.859016 0.461914 0.500000
O O2 0.909752 0.395587 0.740980
O O3 0.782102 0.448283 0.742612
O O4 0.886415 0.535473 0.747610
O O5 0.068939 0.743875 0.228842
O O6 0.190659 0.805443 0.238732
O O7 0.083265 0.886889 0.255992
O O8 0.111673 0.820636 0.000000
O O9 0.463805 0.849272 0.227794
O O10 0.547060 0.841597 0.000000
O O11 0.291095 0.538648 0.500000
O O12 0.265919 0.429037 0.322953
O O13 0.361764 0.514946 0.256530
O O14 0.243354 0.320078 0.500000
O O15 0.173327 0.339494 0.754969
O O16 0.112272 0.388716 0.000000
O O17 0.500000 0.500000 0.267043
O O18 0.424061 0.467509 0.500000
#
# Coordination Sequence:
#
# PCOD9425507 Si02
#       7
#     8   8   8   8   8   8   8
#     4  10  19  31  50  75 103 136 176 220 259 301
#     4  10  20  35  53  73 101 138 176 212 257 313
#     4  10  22  36  49  71 106 142 173 210 257 311
#     4   7  13  27  46  70  97 121 152 198 249 299
#     4   9  17  32  53  75  97 123 163 211 253 301
#     4  10  19  33  53  75 102 137 173 210 256 307
#     4   9  17  32  55  78 101 131 168 216 268 311
#
# _framework density 17.692152
#
# number of rings (size 3 to 8) (size 9 to 14) (size 15 to 20)
#    0.000    2.714    0.000    3.857    0.000    4.286 
#    0.000    2.143    0.000    3.429    0.000    0.000 
#    0.000    0.000    0.000    0.000    0.000    0.000 
#
# Total GULP energy -312038.697227 kJ/mol
# GULP energy per Si atom -5572.119593 kJ/mol
# Density = 1.765188 g / cm^3
# Si number density = 17.692152 Si / 1000 Ang^3
#
#
#
# Elastic Constant Matrix: (Units=GPa)
#
#
# Indices 1 2 3 4 5 6 
#
# 1 209.7663 72.9826 41.3964 0.0000 0.0000 0.0000
# 2 72.9826 59.7749 21.0290 0.0000 0.0000 0.0000
# 3 41.3964 21.0290 28.8422 0.0000 0.0000 0.0000
# 4 0.0000 0.0000 0.0000 4.2881 0.0000 0.0000
# 5 0.0000 0.0000 0.0000 0.0000 26.5026 0.0000
# 6 0.0000 0.0000 0.0000 0.0000 0.0000 18.6132
#
#
#
# Elastic Compliance Matrix: (Units=1/GPa)
#
#
# Indices 1 2 3 4 5 6 
#
# 1 0.009163 -0.008825 -0.006718 0.000000 0.000000 0.000000
# 2 -0.008825 0.030999 -0.009936 0.000000 0.000000 0.000000
# 3 -0.006718 -0.009936 0.051557 0.000000 0.000000 0.000000
# 4 0.000000 0.000000 0.000000 0.233205 0.000000 0.000000
# 5 0.000000 0.000000 0.000000 0.000000 0.037732 0.000000
# 6 0.000000 0.000000 0.000000 0.000000 0.000000 0.053725
#
#
# Mechanical properties :
#
#
# Convention : Reuss Voigt Hill
#
# Bulk Modulus (GPa) = 24.53186 63.24437 43.88812
# Shear Modulus (GPa) = 10.39659 20.74581 15.57120
#
# Velocity S-wave (km/s) = 2.42676 3.42804 2.96990
# Velocity P-wave (km/s) = 4.66350 7.17589 6.05151
#
# Compressibility (1/GPa) = 0.04076331
#
# Stress axis : x y z
#
# Youngs Moduli (GPa) = 109.13269 32.25862 19.39583
#
# Poissons Ratio (x) = 0.28467 0.13029
# Poissons Ratio (y) = 0.96305 0.19272
# Poissons Ratio (z) = 0.73311 0.32053
#
# Static dielectric constant tensor:
#      x y z
#    x 1.639180 0.000000 0.000000 
#    y 0.000000 1.570300 0.000000 
#    z 0.000000 0.000000 1.602300 
# 
# From -- ./inp_files/8737.got.cif
#   From: 2010.05.17/outbox.cif.g08.bks.cpg/sg55_5_cif.got.tgz:8737.got - 2010.06.03 13:27:54.
