data_PCOD9426703
_publ_section_title
;
Structure prediction by ZEFSAII (Michael W. Deem and Ramdas Pophale) SiO2 
 PCOD9426703
Probable space group: P B A M
;
_chemical_formula_sum "Si O2"
_cell_formula_units_Z 64
_cell_length_a 14.658096
_cell_length_b 30.779020
_cell_length_c 8.509884
_cell_angle_alpha 90.000000
_cell_angle_beta 90.000000
_cell_angle_gamma 90.000000
_cell_volume 3839.334838
_symmetry_space_group_name_H-M "P B A M"
_symmetry_group_IT_number 55
_symmetry_cell_setting 'orthorhombic'
loop_
_space_group_symop_operation_xyz
x,y,z
-x,-y,z
1/2+x,1/2-y,-z
1/2-x,1/2+y,-z
-x,-y,-z
x,y,-z
1/2-x,1/2+y,z
1/2+x,1/2-y,z
loop_
_atom_site_type_symbol
_atom_site_label
_atom_site_fract_x
_atom_site_fract_y
_atom_site_fract_z
Si Si1 0.189004 0.864380 0.313356
Si Si2 0.397491 0.455218 0.311971
Si Si3 0.850952 0.863265 0.685126
Si Si4 0.769313 0.286160 0.812226
Si Si5 0.027639 0.722969 0.317089
Si Si6 0.836653 0.696577 0.188047
Si Si7 0.104050 0.049249 0.812923
Si Si8 0.980930 0.185355 0.180685
O O1 0.173131 0.858507 0.500000
O O2 0.168404 0.914687 0.276699
O O3 0.285244 0.843920 0.266574
O O4 0.115035 0.836572 0.217447
O O5 0.403846 0.459881 0.500000
O O6 0.499565 0.445764 0.248512
O O7 0.367535 0.500860 0.238287
O O8 0.869885 0.861707 0.500000
O O9 0.774954 0.827989 0.729762
O O10 0.835402 0.912837 0.736652
O O11 0.939650 0.848322 0.782282
O O12 0.716169 0.241585 0.765384
O O13 0.875352 0.283505 0.767077
O O14 0.758801 0.290348 0.000000
O O15 0.035777 0.712199 0.500000
O O16 0.941380 0.699147 0.240771
O O17 0.006026 0.773855 0.293524
O O18 0.830531 0.693529 0.000000
O O19 0.104416 0.052944 0.000000
O O20 0.985792 0.200040 0.000000
#
# Coordination Sequence:
#
# PCOD9426703 Si02
#       8
#     8   8   8   8   8   8   8   8
#     4  11  22  35  54  79 108 144 184 223 268 320
#     4  10  20  34  52  76 109 143 179 223 269 320
#     4  12  23  36  54  78 107 144 185 224 270 322
#     4  11  23  38  56  79 108 142 183 225 270 319
#     4  12  24  38  56  77 107 143 184 227 270 317
#     4  11  23  37  56  78 108 144 182 226 268 316
#     4  11  21  33  52  77 108 143 180 221 269 324
#     4  12  22  33  51  76 108 144 183 223 267 316
#
# _framework density 16.669554999999999
#
# number of rings (size 3 to 8) (size 9 to 14) (size 15 to 20)
#    0.000    0.750    3.750    6.750    0.000    2.500 
#    0.000    0.000    0.000    0.000    0.000    0.875 
#    0.000    7.000    0.000    0.000    0.000    0.000 
#
# Total GULP energy -357647.764888 kJ/mol
# GULP energy per Si atom -5588.246326 kJ/mol
# Density = 1.663161 g / cm^3
# Si number density = 16.669555 Si / 1000 Ang^3
#
#
#
# Elastic Constant Matrix: (Units=GPa)
#
#
# Indices 1 2 3 4 5 6 
#
# 1 44.2719 3.5743 8.6888 0.0000 0.0000 0.0000
# 2 3.5743 80.7170 18.2218 0.0000 0.0000 0.0000
# 3 8.6888 18.2218 70.6100 0.0000 0.0000 0.0000
# 4 0.0000 0.0000 0.0000 23.4452 0.0000 0.0000
# 5 0.0000 0.0000 0.0000 0.0000 25.8440 0.0000
# 6 0.0000 0.0000 0.0000 0.0000 0.0000 23.1846
#
#
#
# Elastic Compliance Matrix: (Units=1/GPa)
#
#
# Indices 1 2 3 4 5 6 
#
# 1 0.023159 -0.000406 -0.002745 0.000000 0.000000 0.000000
# 2 -0.000406 0.013162 -0.003347 0.000000 0.000000 0.000000
# 3 -0.002745 -0.003347 0.015364 0.000000 0.000000 0.000000
# 4 0.000000 0.000000 0.000000 0.042653 0.000000 0.000000
# 5 0.000000 0.000000 0.000000 0.000000 0.038694 0.000000
# 6 0.000000 0.000000 0.000000 0.000000 0.000000 0.043132
#
#
# Mechanical properties :
#
#
# Convention : Reuss Voigt Hill
#
# Bulk Modulus (GPa) = 25.84646 28.50762 27.17704
# Shear Modulus (GPa) = 24.74562 25.50237 25.12400
#
# Velocity S-wave (km/s) = 3.85708 3.91561 3.88645
# Velocity P-wave (km/s) = 5.94768 6.13037 6.03971
#
# Compressibility (1/GPa) = 0.03869002
#
# Stress axis : x y z
#
# Youngs Moduli (GPa) = 43.17939 75.97357 65.08813
#
# Poissons Ratio (x) = 0.03083 0.17867
# Poissons Ratio (y) = 0.01752 0.21784
# Poissons Ratio (z) = 0.11853 0.25427
#
# Static dielectric constant tensor:
#      x y z
#    x 1.552880 0.000000 0.000000 
#    y 0.000000 1.579180 0.000000 
#    z 0.000000 0.000000 1.554330 
# 
# From -- ./inp_files/6937.got.cif
#   From: 2010.05.17/outbox.cif.g08.bks.cpg/sg55_4_cif.got.tgz:6937.got - 2010.06.03 13:27:54.
