data_PCOD9426739
_publ_section_title
;
Structure prediction by ZEFSAII (Michael W. Deem and Ramdas Pophale) SiO2 
 PCOD9426739
Probable space group: P B A M
;
_chemical_formula_sum "Si O2"
_cell_formula_units_Z 64
_cell_length_a 9.699254
_cell_length_b 32.540907
_cell_length_c 10.938772
_cell_angle_alpha 90.000000
_cell_angle_beta 90.000000
_cell_angle_gamma 90.000000
_cell_volume 3452.522810
_symmetry_space_group_name_H-M "P B A M"
_symmetry_group_IT_number 55
_symmetry_cell_setting 'orthorhombic'
loop_
_space_group_symop_operation_xyz
x,y,z
-x,-y,z
1/2+x,1/2-y,-z
1/2-x,1/2+y,-z
-x,-y,-z
x,y,-z
1/2-x,1/2+y,z
1/2+x,1/2-y,z
loop_
_atom_site_type_symbol
_atom_site_label
_atom_site_fract_x
_atom_site_fract_y
_atom_site_fract_z
Si Si1 0.535374 0.042548 0.132610
Si Si2 0.996859 0.361792 0.362710
Si Si3 0.878447 0.783611 0.146295
Si Si4 0.016396 0.127251 0.851382
Si Si5 0.245279 0.911350 0.713260
Si Si6 0.943385 0.296382 0.149133
Si Si7 0.785798 0.421391 0.239850
Si Si8 0.652260 0.499982 0.359714
O O1 0.654199 0.070137 0.185058
O O2 0.396517 0.068766 0.135093
O O3 0.500000 0.000000 0.201251
O O4 0.585189 0.030100 0.000000
O O5 0.976089 0.344221 0.500000
O O6 0.983592 0.332183 0.244262
O O7 0.877117 0.395864 0.337932
O O8 0.150068 0.381662 0.358456
O O9 0.716415 0.785384 0.176691
O O10 0.955463 0.825303 0.184612
O O11 0.958851 0.742289 0.179727
O O12 0.882577 0.784535 0.000000
O O13 0.885628 0.110001 0.776613
O O14 0.153952 0.102905 0.810043
O O15 0.998488 0.124169 0.000000
O O16 0.202361 0.953021 0.643680
O O17 0.954369 0.305405 0.000000
O O18 0.738263 0.465154 0.292211
O O19 0.500000 0.500000 0.303092
O O20 0.642746 0.486469 0.500000
#
# Coordination Sequence:
#
# PCOD9426739 Si02
#       8
#     8   8   8   8   8   8   8   8
#     4  10  20  34  53  81 117 154 196 250 307 365
#     4  11  25  42  64  93 130 165 210 261 315 374
#     4   9  20  38  64  97 123 156 200 250 302 369
#     4  11  22  38  62  93 125 157 204 259 312 378
#     4  11  23  39  58  86 122 162 210 256 314 362
#     4  10  21  41  70  95 126 161 204 252 308 375
#     4  11  21  39  60  84 117 161 209 252 311 362
#     4  11  22  38  58  79 110 157 214 260 304 365
#
# _framework density 18.537171000000001
#
# number of rings (size 3 to 8) (size 9 to 14) (size 15 to 20)
#    0.000    1.500    3.750    1.500    1.750    2.500 
#    0.000    3.125    0.000    0.000    0.000    0.000 
#    0.000    0.000    0.000    0.000    0.000    0.000 
#
# Total GULP energy -356361.663609 kJ/mol
# GULP energy per Si atom -5568.150994 kJ/mol
# Density = 1.849498 g / cm^3
# Si number density = 18.537171 Si / 1000 Ang^3
#
#
#
# Elastic Constant Matrix: (Units=GPa)
#
#
# Indices 1 2 3 4 5 6 
#
# 1 125.6931 56.4523 28.4197 0.0000 0.0000 0.0000
# 2 56.4523 109.8431 32.7802 0.0000 0.0000 0.0000
# 3 28.4197 32.7802 65.7681 0.0000 0.0000 0.0000
# 4 0.0000 0.0000 0.0000 30.6543 0.0000 0.0000
# 5 0.0000 0.0000 0.0000 0.0000 -62.0612 0.0000
# 6 0.0000 0.0000 0.0000 0.0000 0.0000 39.2403
#
#
#
# Elastic Compliance Matrix: (Units=1/GPa)
#
#
# Indices 1 2 3 4 5 6 
#
# 1 0.010606 -0.004796 -0.002192 0.000000 0.000000 0.000000
# 2 -0.004796 0.012864 -0.004339 0.000000 0.000000 0.000000
# 3 -0.002192 -0.004339 0.018315 0.000000 0.000000 0.000000
# 4 0.000000 0.000000 0.000000 0.032622 0.000000 0.000000
# 5 0.000000 0.000000 0.000000 0.000000 -0.016113 0.000000
# 6 0.000000 0.000000 0.000000 0.000000 0.000000 0.025484
#
#
# Mechanical properties :
#
#
# Convention : Reuss Voigt Hill
#
# Bulk Modulus (GPa) = 52.27646 59.62319 55.94982
# Shear Modulus (GPa) = 44.32269 13.81016 29.06643
#
# Velocity S-wave (km/s) = 4.89511 2.73243 3.96410
# Velocity P-wave (km/s) = 7.75961 6.49529 7.15543
#
# Compressibility (1/GPa) = 0.01912907
#
# Stress axis : x y z
#
# Youngs Moduli (GPa) = 94.28807 77.73736 54.60034
#
# Poissons Ratio (x) = 0.37286 0.11970
# Poissons Ratio (y) = 0.45225 0.23691
# Poissons Ratio (z) = 0.20671 0.33730
#
# Static dielectric constant tensor:
#      x y z
#    x 1.660570 0.000000 0.000000 
#    y 0.000000 1.694980 0.000000 
#    z 0.000000 0.000000 1.646230 
# 
# From -- ./inp_files/12588.got.cif
#   From: 2010.05.17/outbox.cif.g08.bks.cpg/sg55_7_cif.got.tgz:12588.got - 2010.06.03 13:27:54.
