data_PCOD9426457
_publ_section_title
;
Structure prediction by ZEFSAII (Michael W. Deem and Ramdas Pophale) SiO2 
 PCOD9426457
Probable space group: P B A M
;
_chemical_formula_sum "Si O2"
_cell_formula_units_Z 40
_cell_length_a 12.837640
_cell_length_b 19.059981
_cell_length_c 8.457182
_cell_angle_alpha 90.000000
_cell_angle_beta 90.000000
_cell_angle_gamma 90.000000
_cell_volume 2069.347053
_symmetry_space_group_name_H-M "P B A M"
_symmetry_group_IT_number 55
_symmetry_cell_setting 'orthorhombic'
loop_
_space_group_symop_operation_xyz
x,y,z
-x,-y,z
1/2+x,1/2-y,-z
1/2-x,1/2+y,-z
-x,-y,-z
x,y,-z
1/2-x,1/2+y,z
1/2+x,1/2-y,z
loop_
_atom_site_type_symbol
_atom_site_label
_atom_site_fract_x
_atom_site_fract_y
_atom_site_fract_z
Si Si1 0.218913 0.453580 0.192883
Si Si2 0.109326 0.193257 0.687242
Si Si3 0.811912 0.385194 0.191589
Si Si4 0.452152 0.423968 0.809051
Si Si5 0.456353 0.844871 0.190895
O O1 0.206950 0.534342 0.242751
O O2 0.331473 0.423793 0.240531
O O3 0.124116 0.404707 0.246217
O O4 0.217984 0.454074 0.000000
O O5 0.112756 0.198742 0.500000
O O6 0.219164 0.163612 0.748865
O O7 0.082616 0.268795 0.758489
O O8 0.021001 0.137523 0.737278
O O9 0.925834 0.359950 0.244476
O O10 0.809492 0.384347 0.000000
O O11 0.500000 0.500000 0.768259
O O12 0.456953 0.417588 0.000000
O O13 0.457444 0.847736 0.000000
#
# Coordination Sequence:
#
# PCOD9426457 Si02
#       5
#     8   8   8   8   8
#     4   9  18  36  65  96 118 143 193 256 305 348
#     4  12  26  40  56  85 128 165 200 242 295 360
#     4  10  20  40  66  90 117 151 200 252 301 357
#     4  10  19  37  64  90 117 152 199 249 296 350
#     4  10  22  39  64  92 119 155 200 250 303 355
#
# _framework density 19.329768000000001
#
# number of rings (size 3 to 8) (size 9 to 14) (size 15 to 20)
#    0.000    1.800    2.000    2.400    2.800    3.600 
#    0.000    1.000    0.000    2.400    0.000    0.000 
#    0.000    0.000    0.000    0.000    0.000    0.000 
#
# Total GULP energy -223519.985722 kJ/mol
# GULP energy per Si atom -5587.999643 kJ/mol
# Density = 1.928577 g / cm^3
# Si number density = 19.329768 Si / 1000 Ang^3
#
#
#
# Elastic Constant Matrix: (Units=GPa)
#
#
# Indices 1 2 3 4 5 6 
#
# 1 200.7184 66.7855 18.0739 0.0000 0.0000 0.0000
# 2 66.7855 64.7916 0.1246 0.0000 0.0000 0.0000
# 3 18.0739 0.1246 8.3821 0.0000 0.0000 0.0000
# 4 0.0000 0.0000 0.0000 -22.0054 0.0000 0.0000
# 5 0.0000 0.0000 0.0000 0.0000 -11.9276 0.0000
# 6 0.0000 0.0000 0.0000 0.0000 0.0000 26.4187
#
#
#
# Elastic Compliance Matrix: (Units=1/GPa)
#
#
# Indices 1 2 3 4 5 6 
#
# 1 0.010700 -0.010985 -0.022909 0.000000 0.000000 0.000000
# 2 -0.010985 0.026713 0.023290 0.000000 0.000000 0.000000
# 3 -0.022909 0.023290 0.168352 0.000000 0.000000 0.000000
# 4 0.000000 0.000000 0.000000 -0.045443 0.000000 0.000000
# 5 0.000000 0.000000 0.000000 0.000000 -0.083839 0.000000
# 6 0.000000 0.000000 0.000000 0.000000 0.000000 0.037852
#
#
# Mechanical properties :
#
#
# Convention : Reuss Voigt Hill
#
# Bulk Modulus (GPa) = 5.41838 49.31781 27.36810
# Shear Modulus (GPa) = 25.37267 11.09100 18.23184
#
# Velocity S-wave (km/s) = 3.62694 2.39797 3.07449
# Velocity P-wave (km/s) = 4.51097 5.76509 5.17615
#
# Compressibility (1/GPa) = 0.18455699
#
# Stress axis : x y z
#
# Youngs Moduli (GPa) = 93.45659 37.43531 5.93992
#
# Poissons Ratio (x) = 0.41124 0.13608
# Poissons Ratio (y) = 1.02666 -0.13834
# Poissons Ratio (z) = 2.14098 -0.87187
#
# Static dielectric constant tensor:
#      x y z
#    x 1.664020 0.000000 0.000000 
#    y 0.000000 1.634200 0.000000 
#    z 0.000000 0.000000 1.658820 
# 
# From -- ./inp_files/3595.got.cif
#   From: 2010.05.17/outbox.cif.g08.bks.cpg/sg55_2_cif.got.tgz:3595.got - 2010.06.03 13:27:54.
