data_PCOD9426996
_publ_section_title
;
Structure prediction by ZEFSAII (Michael W. Deem and Ramdas Pophale) SiO2 
 PCOD9426996
Probable space group: P B A M
;
_chemical_formula_sum "Si O2"
_cell_formula_units_Z 48
_cell_length_a 24.946582
_cell_length_b 10.906240
_cell_length_c 9.512809
_cell_angle_alpha 90.000000
_cell_angle_beta 90.000000
_cell_angle_gamma 90.000000
_cell_volume 2588.182388
_symmetry_space_group_name_H-M "P B A M"
_symmetry_group_IT_number 55
_symmetry_cell_setting 'orthorhombic'
loop_
_space_group_symop_operation_xyz
x,y,z
-x,-y,z
1/2+x,1/2-y,-z
1/2-x,1/2+y,-z
-x,-y,-z
x,y,-z
1/2-x,1/2+y,z
1/2+x,1/2-y,z
loop_
_atom_site_type_symbol
_atom_site_label
_atom_site_fract_x
_atom_site_fract_y
_atom_site_fract_z
Si Si1 0.292846 0.358854 0.170220
Si Si2 0.563183 0.021630 0.837607
Si Si3 0.498193 0.365676 0.660745
Si Si4 0.612637 0.239244 0.661640
Si Si5 0.709801 0.357506 0.829278
Si Si6 0.406120 0.252726 0.162391
O O1 0.253586 0.246710 0.210583
O O2 0.278476 0.499575 0.210740
O O3 0.352825 0.320562 0.215541
O O4 0.292922 0.358278 0.000000
O O5 0.594252 0.114755 0.737936
O O6 0.500000 0.000000 0.799051
O O7 0.595670 0.894319 0.834898
O O8 0.562283 0.066787 0.000000
O O9 0.500000 0.500000 0.724506
O O10 0.478402 0.373655 0.500000
O O11 0.557737 0.315167 0.658486
O O12 0.457735 0.285656 0.748509
O O13 0.630472 0.219964 0.500000
O O14 0.656173 0.312110 0.752384
O O15 0.704089 0.354790 0.000000
O O16 0.414050 0.289200 0.000000
#
# Coordination Sequence:
#
# PCOD9426996 Si02
#       6
#     8   8   8   8   8   8
#     4   9  20  37  61  89 113 145 189 241 292 343
#     4  10  20  35  57  86 117 153 193 236 287 342
#     4  10  21  36  54  78 111 152 188 227 288 352
#     4  11  23  37  56  83 117 152 191 236 286 345
#     4  10  21  39  62  86 113 148 191 237 290 344
#     4  10  20  35  57  85 114 144 190 241 287 343
#
# _framework density 18.545833999999999
#
# number of rings (size 3 to 8) (size 9 to 14) (size 15 to 20)
#    0.000    2.000    1.667    1.500    2.333    2.000 
#    0.000    1.667    0.000    0.000    0.000    0.000 
#    0.000    0.000    0.000    0.000    0.000    0.000 
#
# Total GULP energy -267551.008358 kJ/mol
# GULP energy per Si atom -5573.979341 kJ/mol
# Density = 1.850362 g / cm^3
# Si number density = 18.545834 Si / 1000 Ang^3
#
#
#
# Elastic Constant Matrix: (Units=GPa)
#
#
# Indices 1 2 3 4 5 6 
#
# 1 66.5316 14.9545 13.6383 0.0000 0.0000 0.0000
# 2 14.9545 71.4896 15.2700 0.0000 0.0000 0.0000
# 3 13.6383 15.2700 33.4042 0.0000 0.0000 0.0000
# 4 0.0000 0.0000 0.0000 14.3928 0.0000 0.0000
# 5 0.0000 0.0000 0.0000 0.0000 29.5655 0.0000
# 6 0.0000 0.0000 0.0000 0.0000 0.0000 32.2558
#
#
#
# Elastic Compliance Matrix: (Units=1/GPa)
#
#
# Indices 1 2 3 4 5 6 
#
# 1 0.016727 -0.002261 -0.005796 0.000000 0.000000 0.000000
# 2 -0.002261 0.015807 -0.006303 0.000000 0.000000 0.000000
# 3 -0.005796 -0.006303 0.035184 0.000000 0.000000 0.000000
# 4 0.000000 0.000000 0.000000 0.069479 0.000000 0.000000
# 5 0.000000 0.000000 0.000000 0.000000 0.033823 0.000000
# 6 0.000000 0.000000 0.000000 0.000000 0.000000 0.031002
#
#
# Mechanical properties :
#
#
# Convention : Reuss Voigt Hill
#
# Bulk Modulus (GPa) = 25.64177 28.79456 27.21816
# Shear Modulus (GPa) = 20.51357 23.74699 22.13028
#
# Velocity S-wave (km/s) = 3.32942 3.58222 3.45813
# Velocity P-wave (km/s) = 5.35128 5.71573 5.53651
#
# Compressibility (1/GPa) = 0.03899887
#
# Stress axis : x y z
#
# Youngs Moduli (GPa) = 59.78463 63.26191 28.42215
#
# Poissons Ratio (x) = 0.14304 0.16472
# Poissons Ratio (y) = 0.13518 0.17914
# Poissons Ratio (z) = 0.34649 0.39873
#
# Static dielectric constant tensor:
#      x y z
#    x 1.605570 0.000000 0.000000 
#    y 0.000000 1.679380 0.000000 
#    z 0.000000 0.000000 1.640270 
# 
# From -- ./inp_files/9435.got.cif
#   From: 2010.05.17/outbox.cif.g08.bks.cpg/sg55_5_cif.got.tgz:9435.got - 2010.06.03 13:27:54.
