data_PCOD9426297
_publ_section_title
;
Structure prediction by ZEFSAII (Michael W. Deem and Ramdas Pophale) SiO2 
 PCOD9426297
Probable space group: P B A M
;
_chemical_formula_sum "Si O2"
_cell_formula_units_Z 58
_cell_length_a 12.189269
_cell_length_b 24.289977
_cell_length_c 10.030977
_cell_angle_alpha 90.000000
_cell_angle_beta 90.000000
_cell_angle_gamma 90.000000
_cell_volume 2969.942216
_symmetry_space_group_name_H-M "P B A M"
_symmetry_group_IT_number 55
_symmetry_cell_setting 'orthorhombic'
loop_
_space_group_symop_operation_xyz
x,y,z
-x,-y,z
1/2+x,1/2-y,-z
1/2-x,1/2+y,-z
-x,-y,-z
x,y,-z
1/2-x,1/2+y,z
1/2+x,1/2-y,z
loop_
_atom_site_type_symbol
_atom_site_label
_atom_site_fract_x
_atom_site_fract_y
_atom_site_fract_z
Si Si1 0.780223 0.480823 0.642120
Si Si2 0.465481 0.640785 0.656802
Si Si3 0.223461 0.223575 0.339174
Si Si4 0.398952 0.927020 0.760146
Si Si5 0.397161 0.540747 0.846931
Si Si6 0.100522 0.636369 0.347689
Si Si7 0.500000 0.000000 0.000000
Si Si8 0.773507 0.152492 0.341152
O O1 0.721465 0.488651 0.500000
O O2 0.876783 0.525110 0.651788
O O3 0.702963 0.487675 0.769418
O O4 0.826039 0.418994 0.648058
O O5 0.443103 0.627081 0.500000
O O6 0.391670 0.694050 0.690533
O O7 0.428134 0.592787 0.755837
O O8 0.595053 0.650130 0.669459
O O9 0.233316 0.223052 0.500000
O O10 0.323849 0.185009 0.290430
O O11 0.234037 0.286695 0.300010
O O12 0.492085 0.882303 0.727151
O O13 0.286505 0.892230 0.750552
O O14 0.439703 0.961599 0.885467
O O15 0.500000 0.500000 0.848827
O O16 0.368594 0.554975 0.000000
O O17 0.070169 0.650771 0.500000
O O18 0.746571 0.143390 0.500000
#
# Coordination Sequence:
#
# PCOD9426297 Si02
#       8
#     8   8   8   8   8   8   2   8
#     4  11  21  37  62  93 124 159 212 273 333 395
#     4  10  20  40  63  91 128 166 217 271 327 394
#     4   9  19  36  63  98 129 165 210 269 343 398
#     4  12  24  41  61  91 129 173 223 271 336 402
#     4  11  24  38  57  86 124 172 213 260 324 399
#     4  10  19  35  61  92 124 159 202 265 329 393
#     4  12  28  44  62  88 134 188 210 268 336 412
#     4  10  22  38  65  99 129 167 216 282 338 392
#
# _framework density 19.529
#
# number of rings (size 3 to 8) (size 9 to 14) (size 15 to 20)
#    0.000    1.517    2.759    2.483    2.897    3.310 
#    1.241    0.000    1.517    0.000    0.000    0.000 
#    0.000    0.000    0.000    0.000    0.000    0.000 
#
# Total GULP energy -323033.743435 kJ/mol
# GULP energy per Si atom -5569.547301 kJ/mol
# Density = 1.948455 g / cm^3
# Si number density = 19.529000 Si / 1000 Ang^3
#
#
#
# Elastic Constant Matrix: (Units=GPa)
#
#
# Indices 1 2 3 4 5 6 
#
# 1 98.0728 43.9633 46.6066 0.0000 0.0000 0.0000
# 2 43.9633 128.8338 41.2422 0.0000 0.0000 0.0000
# 3 46.6066 41.2422 96.2995 0.0000 0.0000 0.0000
# 4 0.0000 0.0000 0.0000 3.7275 0.0000 0.0000
# 5 0.0000 0.0000 0.0000 0.0000 70.1114 0.0000
# 6 0.0000 0.0000 0.0000 0.0000 0.0000 23.0882
#
#
#
# Elastic Compliance Matrix: (Units=1/GPa)
#
#
# Indices 1 2 3 4 5 6 
#
# 1 0.014218 -0.003070 -0.005566 0.000000 0.000000 0.000000
# 2 -0.003070 0.009658 -0.002651 0.000000 0.000000 0.000000
# 3 -0.005566 -0.002651 0.014213 0.000000 0.000000 0.000000
# 4 0.000000 0.000000 0.000000 0.268277 0.000000 0.000000
# 5 0.000000 0.000000 0.000000 0.000000 0.014263 0.000000
# 6 0.000000 0.000000 0.000000 0.000000 0.000000 0.043312
#
#
# Mechanical properties :
#
#
# Convention : Reuss Voigt Hill
#
# Bulk Modulus (GPa) = 64.45033 65.20338 64.82685
# Shear Modulus (GPa) = 12.76529 32.14502 22.45516
#
# Velocity S-wave (km/s) = 2.55945 4.06151 3.39460
# Velocity P-wave (km/s) = 6.46594 7.44681 6.97364
#
# Compressibility (1/GPa) = 0.01551583
#
# Stress axis : x y z
#
# Youngs Moduli (GPa) = 70.33383 103.54160 70.35604
#
# Poissons Ratio (x) = 0.31785 0.39163
# Poissons Ratio (y) = 0.21591 0.18648
# Poissons Ratio (z) = 0.39151 0.27444
#
# Static dielectric constant tensor:
#      x y z
#    x 1.731190 0.000000 0.000000 
#    y 0.000000 1.691580 0.000000 
#    z 0.000000 0.000000 1.664240 
# 
# From -- ./inp_files/4354.got.cif
#   From: 2010.05.17/outbox.cif.g08.bks.cpg/sg55_3_cif.got.tgz:4354.got - 2010.06.03 13:27:54.
