data_PCOD9426471
_publ_section_title
;
Structure prediction by ZEFSAII (Michael W. Deem and Ramdas Pophale) SiO2 
 PCOD9426471
Probable space group: P B A M
;
_chemical_formula_sum "Si O2"
_cell_formula_units_Z 44
_cell_length_a 7.671048
_cell_length_b 14.664087
_cell_length_c 17.365242
_cell_angle_alpha 90.000000
_cell_angle_beta 90.000000
_cell_angle_gamma 90.000000
_cell_volume 1953.397236
_symmetry_space_group_name_H-M "P B A M"
_symmetry_group_IT_number 55
_symmetry_cell_setting 'orthorhombic'
loop_
_space_group_symop_operation_xyz
x,y,z
-x,-y,z
1/2+x,1/2-y,-z
1/2-x,1/2+y,-z
-x,-y,-z
x,y,-z
1/2-x,1/2+y,z
1/2+x,1/2-y,z
loop_
_atom_site_type_symbol
_atom_site_label
_atom_site_fract_x
_atom_site_fract_y
_atom_site_fract_z
Si Si1 0.893081 0.363245 0.084573
Si Si2 0.850720 0.423776 0.582101
Si Si3 0.311681 0.353371 0.081185
Si Si4 0.000000 0.000000 0.367039
Si Si5 0.563602 0.849393 0.252004
Si Si6 0.648200 0.636333 0.755810
O O1 0.103777 0.368752 0.082790
O O2 0.853288 0.393298 0.173396
O O3 0.838115 0.256562 0.083285
O O4 0.834624 0.401725 0.000000
O O5 0.870092 0.371823 0.500000
O O6 0.664207 0.471105 0.583751
O O7 0.000000 0.500000 0.583220
O O8 0.862694 0.375867 0.664944
O O9 0.393897 0.394701 0.157352
O O10 0.384620 0.385810 0.000000
O O11 0.942809 0.081186 0.310692
O O12 0.357369 0.870183 0.253116
O O13 0.590832 0.741309 0.246382
#
# Coordination Sequence:
#
# PCOD9426471 Si02
#       6
#     8   8   8   4   8   8
#     4   8  14  25  49  80 113 152 197 245 296 348
#     4  11  24  44  67  90 119 156 197 249 308 368
#     4   8  14  26  45  76 115 155 199 246 292 349
#     4  12  23  42  65  92 126 162 201 248 314 368
#     4  10  19  38  60  90 123 160 208 257 299 361
#     4  10  20  34  60  89 123 164 206 253 308 361
#
# _framework density 22.52486
#
# number of rings (size 3 to 8) (size 9 to 14) (size 15 to 20)
#    0.000    2.364    1.818    1.364    0.000    1.455 
#    0.000    5.000    0.000    1.636    0.000    0.000 
#    0.000    0.000    0.000    0.000    0.000    0.000 
#
# Total GULP energy -245407.866882 kJ/mol
# GULP energy per Si atom -5577.451520 kJ/mol
# Density = 2.247359 g / cm^3
# Si number density = 22.524860 Si / 1000 Ang^3
#
#
#
# Elastic Constant Matrix: (Units=GPa)
#
#
# Indices 1 2 3 4 5 6 
#
# 1 81.1320 7.4542 36.4386 0.0000 0.0000 0.0000
# 2 7.4542 30.2962 39.1110 0.0000 0.0000 0.0000
# 3 36.4386 39.1110 259.6690 0.0000 0.0000 0.0000
# 4 0.0000 0.0000 0.0000 56.1985 0.0000 0.0000
# 5 0.0000 0.0000 0.0000 0.0000 212.7735 0.0000
# 6 0.0000 0.0000 0.0000 0.0000 0.0000 20.9515
#
#
#
# Elastic Compliance Matrix: (Units=1/GPa)
#
#
# Indices 1 2 3 4 5 6 
#
# 1 0.013182 -0.001062 -0.001690 0.000000 0.000000 0.000000
# 2 -0.001062 0.041060 -0.006035 0.000000 0.000000 0.000000
# 3 -0.001690 -0.006035 0.004997 0.000000 0.000000 0.000000
# 4 0.000000 0.000000 0.000000 0.017794 0.000000 0.000000
# 5 0.000000 0.000000 0.000000 0.000000 0.004700 0.000000
# 6 0.000000 0.000000 0.000000 0.000000 0.000000 0.047729
#
#
# Mechanical properties :
#
#
# Convention : Reuss Voigt Hill
#
# Bulk Modulus (GPa) = 24.00081 59.67831 41.83956
# Shear Modulus (GPa) = 31.07028 77.19092 54.13060
#
# Velocity S-wave (km/s) = 3.71803 5.86034 4.90751
# Velocity P-wave (km/s) = 5.39537 8.50549 7.12227
#
# Compressibility (1/GPa) = 0.04166527
#
# Stress axis : x y z
#
# Youngs Moduli (GPa) = 75.86032 24.35450 200.11053
#
# Poissons Ratio (x) = 0.02586 0.33816
# Poissons Ratio (y) = 0.08055 1.20775
# Poissons Ratio (z) = 0.12819 0.14699
#
# Static dielectric constant tensor:
#      x y z
#    x 1.849350 0.000000 0.000000 
#    y 0.000000 1.826470 0.000000 
#    z 0.000000 0.000000 1.918850 
# 
# From -- ./inp_files/17249.got.cif
#   From: 2010.05.17/outbox.cif.g08.bks.cpg/sg55_9_cif.got.tgz:17249.got - 2010.06.03 13:27:54.
