data_PCOD9426560
_publ_section_title
;
Structure prediction by ZEFSAII (Michael W. Deem and Ramdas Pophale) SiO2 
 PCOD9426560
Probable space group: P B A M
;
_chemical_formula_sum "Si O2"
_cell_formula_units_Z 46
_cell_length_a 5.144289
_cell_length_b 18.346066
_cell_length_c 20.997555
_cell_angle_alpha 90.000000
_cell_angle_beta 90.000000
_cell_angle_gamma 90.000000
_cell_volume 1981.696023
_symmetry_space_group_name_H-M "P B A M"
_symmetry_group_IT_number 55
_symmetry_cell_setting 'orthorhombic'
loop_
_space_group_symop_operation_xyz
x,y,z
-x,-y,z
1/2+x,1/2-y,-z
1/2-x,1/2+y,-z
-x,-y,-z
x,y,-z
1/2-x,1/2+y,z
1/2+x,1/2-y,z
loop_
_atom_site_type_symbol
_atom_site_label
_atom_site_fract_x
_atom_site_fract_y
_atom_site_fract_z
Si Si1 0.500000 0.500000 0.500000
Si Si2 0.752997 0.551668 0.000000
Si Si3 0.290131 0.200415 0.924629
Si Si4 0.658097 0.075793 0.601469
Si Si5 0.941863 0.086444 0.871003
Si Si6 0.175005 0.716415 0.574485
Si Si7 0.750520 0.551583 0.743224
O O1 0.399003 0.441649 0.444427
O O2 0.500000 0.500000 0.000000
O O3 0.729708 0.596650 0.065096
O O4 0.000000 0.500000 0.000000
O O5 0.055086 0.257312 0.912379
O O6 0.204720 0.130930 0.883290
O O7 0.281887 0.180176 0.000000
O O8 0.467499 0.139344 0.578644
O O9 0.715944 0.089475 0.675330
O O10 0.500000 0.000000 0.596809
O O11 0.803475 0.102119 0.804295
O O12 0.000000 0.000000 0.867998
O O13 0.218301 0.732746 0.500000
O O14 0.962041 0.772921 0.602669
O O15 0.500000 0.500000 0.734837
O O16 0.000000 0.500000 0.755602
#
# Coordination Sequence:
#
# PCOD9426560 Si02
#       7
#     2   4   8   8   8   8   8
#     4  12  22  36  68  94 120 154 224 254 310 366
#     4  10  20  32  54  88 114 142 193 246 283 336
#     4  10  22  39  58  87 125 162 202 256 312 361
#     4  11  24  39  64  95 125 161 212 260 311 374
#     4  10  21  40  63  91 120 161 207 255 303 365
#     4  10  23  38  58  86 124 158 194 248 312 362
#     4  10  22  39  59  90 127 159 196 258 320 361
#
# _framework density 23.212439
#
# number of rings (size 3 to 8) (size 9 to 14) (size 15 to 20)
#    0.000    1.739    2.609    0.783    2.435    5.565 
#    0.000    1.739    0.000    0.000    0.000    0.000 
#    0.000    0.000    0.000    0.000    0.000    0.000 
#
# Total GULP energy -256713.549646 kJ/mol
# GULP energy per Si atom -5580.729340 kJ/mol
# Density = 2.315961 g / cm^3
# Si number density = 23.212439 Si / 1000 Ang^3
#
#
#
# Elastic Constant Matrix: (Units=GPa)
#
#
# Indices 1 2 3 4 5 6 
#
# 1 99.4255 5.5905 17.8779 0.0000 0.0000 0.0000
# 2 5.5905 87.6712 2.3234 0.0000 0.0000 0.0000
# 3 17.8779 2.3234 111.5270 0.0000 0.0000 0.0000
# 4 0.0000 0.0000 0.0000 5.9335 0.0000 0.0000
# 5 0.0000 0.0000 0.0000 0.0000 35.9134 0.0000
# 6 0.0000 0.0000 0.0000 0.0000 0.0000 38.5571
#
#
#
# Elastic Compliance Matrix: (Units=1/GPa)
#
#
# Indices 1 2 3 4 5 6 
#
# 1 0.010390 -0.000619 -0.001653 0.000000 0.000000 0.000000
# 2 -0.000619 0.011449 -0.000139 0.000000 0.000000 0.000000
# 3 -0.001653 -0.000139 0.009234 0.000000 0.000000 0.000000
# 4 0.000000 0.000000 0.000000 0.168534 0.000000 0.000000
# 5 0.000000 0.000000 0.000000 0.000000 0.027845 0.000000
# 6 0.000000 0.000000 0.000000 0.000000 0.000000 0.025936
#
#
# Mechanical properties :
#
#
# Convention : Reuss Voigt Hill
#
# Bulk Modulus (GPa) = 38.09223 38.91192 38.50207
# Shear Modulus (GPa) = 18.72939 34.26961 26.49950
#
# Velocity S-wave (km/s) = 2.84363 3.84649 3.38243
# Velocity P-wave (km/s) = 5.21800 6.04377 5.64600
#
# Compressibility (1/GPa) = 0.02625207
#
# Stress axis : x y z
#
# Youngs Moduli (GPa) = 96.24887 87.34083 108.29248
#
# Poissons Ratio (x) = 0.05404 0.17896
# Poissons Ratio (y) = 0.05955 0.01509
# Poissons Ratio (z) = 0.15906 0.01217
#
# Static dielectric constant tensor:
#      x y z
#    x 1.920370 0.000000 0.000000 
#    y 0.000000 1.864580 0.000000 
#    z 0.000000 0.000000 1.865910 
# 
# From -- ./inp_files/23315.got.cif
#   From: 2010.05.17/outbox.cif.g08.bks.cpg/sg55_12_cif.got.tgz:23315.got - 2010.06.03 13:27:54.
