data_PCOD9426873
_publ_section_title
;
Structure prediction by ZEFSAII (Michael W. Deem and Ramdas Pophale) SiO2 
 PCOD9426873
Probable space group: P B A M
;
_chemical_formula_sum "Si O2"
_cell_formula_units_Z 30
_cell_length_a 14.059892
_cell_length_b 18.216023
_cell_length_c 5.217100
_cell_angle_alpha 90.000000
_cell_angle_beta 90.000000
_cell_angle_gamma 90.000000
_cell_volume 1336.179215
_symmetry_space_group_name_H-M "P B A M"
_symmetry_group_IT_number 55
_symmetry_cell_setting 'orthorhombic'
loop_
_space_group_symop_operation_xyz
x,y,z
-x,-y,z
1/2+x,1/2-y,-z
1/2-x,1/2+y,-z
-x,-y,-z
x,y,-z
1/2-x,1/2+y,z
1/2+x,1/2-y,z
loop_
_atom_site_type_symbol
_atom_site_label
_atom_site_fract_x
_atom_site_fract_y
_atom_site_fract_z
Si Si1 0.532205 0.906403 0.500000
Si Si2 0.320652 0.634148 0.000000
Si Si3 0.545366 0.738523 0.500000
Si Si4 0.500000 0.000000 0.000000
Si Si5 0.803994 0.607881 0.500000
Si Si6 0.185574 0.224292 0.500000
Si Si7 0.213404 0.963527 0.000000
Si Si8 0.950455 0.146812 0.000000
O O1 0.573147 0.823895 0.500000
O O2 0.417631 0.895677 0.500000
O O3 0.549815 0.949511 0.766590
O O4 0.289195 0.678670 0.750851
O O5 0.288527 0.550584 0.000000
O O6 0.436488 0.633244 0.000000
O O7 0.429556 0.733863 0.500000
O O8 0.575099 0.694681 0.247829
O O9 0.775962 0.693322 0.500000
O O10 0.766024 0.568060 0.751660
O O11 0.108198 0.928367 0.000000
#
# Coordination Sequence:
#
# PCOD9426873 Si02
#       8
#     4   4   4   2   4   4   4   4
#     4  10  20  38  62  87 109 152 203 241 301 346
#     4  10  20  37  61  86 114 153 203 242 283 343
#     4   9  18  34  60  81 108 145 193 246 280 341
#     4  10  20  34  64  86 112 136 198 266 286 332
#     4  11  23  39  62  83 120 159 201 231 292 366
#     4   9  19  37  61  82 103 152 200 243 271 347
#     4  12  23  36  60  88 125 159 185 247 302 348
#     4  10  20  35  57  88 119 147 199 237 289 343
#
# _framework density 22.452079000000001
#
# number of rings (size 3 to 8) (size 9 to 14) (size 15 to 20)
#    0.000    1.867    0.000    4.400    0.000    4.267 
#    0.000    5.333   58.667    0.000    0.000    0.000 
#    0.000    0.000    0.000    0.000    0.000    0.000 
#
# Total GULP energy -167416.899488 kJ/mol
# GULP energy per Si atom -5580.563316 kJ/mol
# Density = 2.240098 g / cm^3
# Si number density = 22.452079 Si / 1000 Ang^3
#
#
#
# Elastic Constant Matrix: (Units=GPa)
#
#
# Indices 1 2 3 4 5 6 
#
# 1 81.9647 24.9817 30.3257 0.0000 0.0000 0.0000
# 2 24.9817 228.8535 114.5101 0.0000 0.0000 0.0000
# 3 30.3257 114.5101 264.4391 0.0000 0.0000 0.0000
# 4 0.0000 0.0000 0.0000 33.0053 0.0000 0.0000
# 5 0.0000 0.0000 0.0000 0.0000 15.0742 0.0000
# 6 0.0000 0.0000 0.0000 0.0000 0.0000 24.8385
#
#
#
# Elastic Compliance Matrix: (Units=1/GPa)
#
#
# Indices 1 2 3 4 5 6 
#
# 1 0.012869 -0.000851 -0.001107 0.000000 0.000000 0.000000
# 2 -0.000851 0.005634 -0.002342 0.000000 0.000000 0.000000
# 3 -0.001107 -0.002342 0.004923 0.000000 0.000000 0.000000
# 4 0.000000 0.000000 0.000000 0.030298 0.000000 0.000000
# 5 0.000000 0.000000 0.000000 0.000000 0.066339 0.000000
# 6 0.000000 0.000000 0.000000 0.000000 0.000000 0.040260
#
#
# Mechanical properties :
#
#
# Convention : Reuss Voigt Hill
#
# Bulk Modulus (GPa) = 67.45015 101.65471 84.55243
# Shear Modulus (GPa) = 28.75766 41.61291 35.18529
#
# Velocity S-wave (km/s) = 3.58277 4.30980 3.96299
# Velocity P-wave (km/s) = 6.87183 8.37498 7.66037
#
# Compressibility (1/GPa) = 0.01482576
#
# Stress axis : x y z
#
# Youngs Moduli (GPa) = 77.70373 177.47818 203.13219
#
# Poissons Ratio (x) = 0.15098 0.22497
# Poissons Ratio (y) = 0.06610 0.47581
# Poissons Ratio (z) = 0.08606 0.41572
#
# Static dielectric constant tensor:
#      x y z
#    x 1.897790 0.000000 0.000000 
#    y 0.000000 1.802400 0.000000 
#    z 0.000000 0.000000 1.713500 
# 
# From -- ./inp_files/763.got.cif
#   From: 2010.05.17/outbox.cif.g08.bks.cpg/sg55_1_cif.got.tgz:763.got - 2010.06.03 13:27:54.
