data_PCOD9426766
_publ_section_title
;
Structure prediction by ZEFSAII (Michael W. Deem and Ramdas Pophale) SiO2 
 PCOD9426766
Probable space group: P B A M
;
_chemical_formula_sum "Si O2"
_cell_formula_units_Z 24
_cell_length_a 26.192192
_cell_length_b 5.195550
_cell_length_c 7.432181
_cell_angle_alpha 90.000000
_cell_angle_beta 90.000000
_cell_angle_gamma 90.000000
_cell_volume 1011.392321
_symmetry_space_group_name_H-M "P B A M"
_symmetry_group_IT_number 55
_symmetry_cell_setting 'orthorhombic'
loop_
_space_group_symop_operation_xyz
x,y,z
-x,-y,z
1/2+x,1/2-y,-z
1/2-x,1/2+y,-z
-x,-y,-z
x,y,-z
1/2-x,1/2+y,z
1/2+x,1/2-y,z
loop_
_atom_site_type_symbol
_atom_site_label
_atom_site_fract_x
_atom_site_fract_y
_atom_site_fract_z
Si Si1 0.714915 0.995525 0.000000
Si Si2 0.284983 0.433090 0.500000
Si Si3 0.145855 0.170249 0.203862
Si Si4 0.031038 0.252300 0.780658
O O1 0.678560 0.069993 0.832646
O O2 0.757106 0.225523 0.000000
O O3 0.257406 0.160125 0.500000
O O4 0.321108 0.489865 0.670206
O O5 0.089899 0.233632 0.275698
O O6 0.139868 0.059216 0.000000
O O7 0.000000 0.500000 0.718090
O O8 0.032292 0.263684 0.000000
O O9 0.000000 0.000000 0.728513
#
# Coordination Sequence:
#
# PCOD9426766 Si02
#       4
#     4   4   8   8
#     4  10  20  34  54  80 110 150 192 230 282 340
#     4  12  26  42  62  90 124 158 204 252 296 358
#     4   9  22  41  62  91 120 162 199 247 301 359
#     4   9  18  34  57  86 116 151 195 243 293 352
#
# _framework density 23.729666000000002
#
# number of rings (size 3 to 8) (size 9 to 14) (size 15 to 20)
#    1.000    1.333    0.000    2.000    0.000    5.333 
#    0.000    1.667    0.000    0.000    0.000    0.000 
#    0.000    0.000    0.000    0.000    0.000    0.000 
#
# Total GULP energy -134237.951927 kJ/mol
# GULP energy per Si atom -5593.247997 kJ/mol
# Density = 2.367566 g / cm^3
# Si number density = 23.729666 Si / 1000 Ang^3
#
#
#
# Elastic Constant Matrix: (Units=GPa)
#
#
# Indices 1 2 3 4 5 6 
#
# 1 229.0553 81.7101 27.9633 0.0000 0.0000 0.0000
# 2 81.7101 140.9614 15.0642 0.0000 0.0000 0.0000
# 3 27.9633 15.0642 94.0574 0.0000 0.0000 0.0000
# 4 0.0000 0.0000 0.0000 9.2503 0.0000 0.0000
# 5 0.0000 0.0000 0.0000 0.0000 76.1228 0.0000
# 6 0.0000 0.0000 0.0000 0.0000 0.0000 10.2771
#
#
#
# Elastic Compliance Matrix: (Units=1/GPa)
#
#
# Indices 1 2 3 4 5 6 
#
# 1 0.005628 -0.003137 -0.001171 0.000000 0.000000 0.000000
# 2 -0.003137 0.008966 -0.000503 0.000000 0.000000 0.000000
# 3 -0.001171 -0.000503 0.011060 0.000000 0.000000 0.000000
# 4 0.000000 0.000000 0.000000 0.108105 0.000000 0.000000
# 5 0.000000 0.000000 0.000000 0.000000 0.013137 0.000000
# 6 0.000000 0.000000 0.000000 0.000000 0.000000 0.097303
#
#
# Mechanical properties :
#
#
# Convention : Reuss Voigt Hill
#
# Bulk Modulus (GPa) = 62.37426 79.28324 70.82875
# Shear Modulus (GPa) = 19.29266 41.75247 30.52256
#
# Velocity S-wave (km/s) = 2.85444 4.19920 3.59034
# Velocity P-wave (km/s) = 6.09969 7.54947 6.86297
#
# Compressibility (1/GPa) = 0.01603225
#
# Stress axis : x y z
#
# Youngs Moduli (GPa) = 177.69049 111.52753 90.41200
#
# Poissons Ratio (x) = 0.34987 0.10584
# Poissons Ratio (y) = 0.55743 0.04551
# Poissons Ratio (z) = 0.20802 0.05614
#
# Static dielectric constant tensor:
#      x y z
#    x 1.868110 0.000000 0.000000 
#    y 0.000000 1.838430 0.000000 
#    z 0.000000 0.000000 2.028290 
# 
# From -- ./inp_files/1173.got.cif
#   From: 2010.05.17/outbox.cif.g08.bks.cpg/sg55_1_cif.got.tgz:1173.got - 2010.06.03 13:27:54.
