data_PCOD9426673
_publ_section_title
;
Structure prediction by ZEFSAII (Michael W. Deem and Ramdas Pophale) SiO2 
 PCOD9426673
Probable space group: P B A M
;
_chemical_formula_sum "Si O2"
_cell_formula_units_Z 48
_cell_length_a 7.325670
_cell_length_b 39.149609
_cell_length_c 7.471410
_cell_angle_alpha 90.000000
_cell_angle_beta 90.000000
_cell_angle_gamma 90.000000
_cell_volume 2142.778842
_symmetry_space_group_name_H-M "P B A M"
_symmetry_group_IT_number 55
_symmetry_cell_setting 'orthorhombic'
loop_
_space_group_symop_operation_xyz
x,y,z
-x,-y,z
1/2+x,1/2-y,-z
1/2-x,1/2+y,-z
-x,-y,-z
x,y,-z
1/2-x,1/2+y,z
1/2+x,1/2-y,z
loop_
_atom_site_type_symbol
_atom_site_label
_atom_site_fract_x
_atom_site_fract_y
_atom_site_fract_z
Si Si1 0.757079 0.169652 0.795941
Si Si2 0.241648 0.701646 0.500000
Si Si3 0.086603 0.535345 0.781403
Si Si4 0.685842 0.094889 0.781493
Si Si5 0.193066 0.151595 0.203482
Si Si6 0.591920 0.422278 0.218299
Si Si7 0.169014 0.780029 0.500000
O O1 0.667101 0.134421 0.726810
O O2 0.736544 0.202392 0.670907
O O3 0.975606 0.160702 0.799467
O O4 0.701998 0.176355 0.000000
O O5 0.205368 0.678612 0.673248
O O6 0.163351 0.739413 0.500000
O O7 0.460196 0.707687 0.500000
O O8 0.963028 0.567465 0.727046
O O9 0.000000 0.500000 0.718850
O O10 0.292100 0.544914 0.726705
O O11 0.085055 0.534244 0.000000
O O12 0.883866 0.081009 0.723143
O O13 0.685955 0.096125 0.000000
O O14 0.194798 0.112704 0.270913
O O15 0.260148 0.152467 0.000000
O O16 0.588455 0.421574 0.000000
#
# Coordination Sequence:
#
# PCOD9426673 Si02
#       7
#     8   4   8   8   8   8   4
#     4   8  15  30  51  70  93 130 169 205 246 295
#     4  10  20  34  50  72 102 127 157 204 254 307
#     4   9  16  24  38  67 103 131 162 211 259 298
#     4   8  14  26  43  63  90 127 170 208 246 298
#     4   8  15  30  51  70  93 130 169 205 246 295
#     4   8  14  26  43  63  90 127 170 208 246 298
#     4  10  20  34  50  72 102 127 157 204 254 307
#
# _framework density 22.400818000000001
#
# number of rings (size 3 to 8) (size 9 to 14) (size 15 to 20)
#    0.000    3.500    0.000    2.000    0.000    1.333 
#    3.000    3.333    0.000    0.000    0.000    2.333 
#    0.000    6.667    0.000    0.667    0.000    0.000 
#
# Total GULP energy -268023.724602 kJ/mol
# GULP energy per Si atom -5583.827596 kJ/mol
# Density = 2.234983 g / cm^3
# Si number density = 22.400818 Si / 1000 Ang^3
#
#
#
# Elastic Constant Matrix: (Units=GPa)
#
#
# Indices 1 2 3 4 5 6 
#
# 1 60.7544 21.2646 2.5115 0.0000 0.0000 0.0000
# 2 21.2646 54.7918 13.1653 0.0000 0.0000 0.0000
# 3 2.5115 13.1653 70.8403 0.0000 0.0000 0.0000
# 4 0.0000 0.0000 0.0000 51.2782 0.0000 0.0000
# 5 0.0000 0.0000 0.0000 0.0000 -2.6560 0.0000
# 6 0.0000 0.0000 0.0000 0.0000 0.0000 33.2612
#
#
#
# Elastic Compliance Matrix: (Units=1/GPa)
#
#
# Indices 1 2 3 4 5 6 
#
# 1 0.019083 -0.007582 0.000733 0.000000 0.000000 0.000000
# 2 -0.007582 0.022117 -0.003841 0.000000 0.000000 0.000000
# 3 0.000733 -0.003841 0.014804 0.000000 0.000000 0.000000
# 4 0.000000 0.000000 0.000000 0.019501 0.000000 0.000000
# 5 0.000000 0.000000 0.000000 0.000000 -0.376513 0.000000
# 6 0.000000 0.000000 0.000000 0.000000 0.000000 0.030065
#
#
# Mechanical properties :
#
#
# Convention : Reuss Voigt Hill
#
# Bulk Modulus (GPa) = 28.88347 28.91880 28.90113
# Shear Modulus (GPa) = -21.00670 26.33969 2.66649
#
# Velocity S-wave (km/s) = -3.06562 3.43277 1.09222
# Velocity P-wave (km/s) = 0.62550 5.35253 3.81057
#
# Compressibility (1/GPa) = 0.03462188
#
# Stress axis : x y z
#
# Youngs Moduli (GPa) = 52.40190 45.21501 67.54839
#
# Poissons Ratio (x) = 0.34283 -0.04948
# Poissons Ratio (y) = 0.39732 0.25948
# Poissons Ratio (z) = -0.03839 0.17369
#
# Static dielectric constant tensor:
#      x y z
#    x 1.878160 0.000000 0.000000 
#    y 0.000000 1.785070 0.000000 
#    z 0.000000 0.000000 1.908340 
# 
# From -- ./inp_files/2917.got.cif
#   From: 2010.05.17/outbox.cif.g08.bks.cpg/sg55_2_cif.got.tgz:2917.got - 2010.06.03 13:27:54.
