data_PCOD9426912
_publ_section_title
;
Structure prediction by ZEFSAII (Michael W. Deem and Ramdas Pophale) SiO2 
 PCOD9426912
Probable space group: P B A M
;
_chemical_formula_sum "Si O2"
_cell_formula_units_Z 64
_cell_length_a 14.743290
_cell_length_b 25.354366
_cell_length_c 7.600274
_cell_angle_alpha 90.000000
_cell_angle_beta 90.000000
_cell_angle_gamma 90.000000
_cell_volume 2841.033880
_symmetry_space_group_name_H-M "P B A M"
_symmetry_group_IT_number 55
_symmetry_cell_setting 'orthorhombic'
loop_
_space_group_symop_operation_xyz
x,y,z
-x,-y,z
1/2+x,1/2-y,-z
1/2-x,1/2+y,-z
-x,-y,-z
x,y,-z
1/2-x,1/2+y,z
1/2+x,1/2-y,z
loop_
_atom_site_type_symbol
_atom_site_label
_atom_site_fract_x
_atom_site_fract_y
_atom_site_fract_z
Si Si1 0.991810 0.236920 0.213824
Si Si2 0.899781 0.860921 0.212145
Si Si3 0.214712 0.672344 0.294301
Si Si4 0.453990 0.445643 0.212862
Si Si5 0.572340 0.041031 0.300275
Si Si6 0.015873 0.646737 0.201456
Si Si7 0.247742 0.906719 0.290245
Si Si8 0.714204 0.711036 0.705318
O O1 0.012293 0.296054 0.273363
O O2 0.895221 0.214898 0.277982
O O3 0.067533 0.196455 0.270596
O O4 0.986367 0.238269 0.000000
O O5 0.797904 0.867232 0.274828
O O6 0.976231 0.900894 0.273591
O O7 0.898824 0.862694 0.000000
O O8 0.192904 0.679241 0.500000
O O9 0.124724 0.650588 0.205018
O O10 0.240157 0.730929 0.220752
O O11 0.500000 0.500000 0.271777
O O12 0.351325 0.432387 0.265726
O O13 0.453324 0.445764 0.000000
O O14 0.589090 0.021334 0.500000
O O15 0.521670 0.097150 0.303132
O O16 0.670689 0.056219 0.220689
O O17 0.500000 0.000000 0.217817
O O18 0.984741 0.641606 0.000000
O O19 0.263311 0.902487 0.500000
O O20 0.245951 0.845797 0.220530
O O21 0.739837 0.710792 0.500000
#
# Coordination Sequence:
#
# PCOD9426912 Si02
#       8
#     8   8   8   8   8   8   8   8
#     4   9  18  33  54  81 114 149 185 232 289 344
#     4  10  20  35  54  82 119 153 188 236 287 344
#     4  10  21  35  55  85 120 158 194 237 292 352
#     4  10  22  40  61  86 117 154 195 238 289 344
#     4  10  23  42  62  85 117 156 198 247 298 346
#     4  10  21  38  59  85 115 152 197 243 293 350
#     4  10  21  38  60  85 113 148 192 242 290 343
#     4   9  18  33  53  81 113 146 189 235 283 339
#
# _framework density 22.527011999999999
#
# number of rings (size 3 to 8) (size 9 to 14) (size 15 to 20)
#    0.000    2.250    1.250    0.750    1.750    4.000 
#    0.000    2.500    0.000    0.000    0.000    0.000 
#    0.000    0.000    0.000    0.000    0.000    0.000 
#
# Total GULP energy -357184.959509 kJ/mol
# GULP energy per Si atom -5581.014992 kJ/mol
# Density = 2.247574 g / cm^3
# Si number density = 22.527012 Si / 1000 Ang^3
#
#
#
# Elastic Constant Matrix: (Units=GPa)
#
#
# Indices 1 2 3 4 5 6 
#
# 1 114.1842 56.6808 -8.2613 0.0000 0.0000 0.0000
# 2 56.6808 75.5508 2.4075 0.0000 0.0000 0.0000
# 3 -8.2613 2.4075 55.6059 0.0000 0.0000 0.0000
# 4 0.0000 0.0000 0.0000 18.4138 0.0000 0.0000
# 5 0.0000 0.0000 0.0000 0.0000 18.8300 0.0000
# 6 0.0000 0.0000 0.0000 0.0000 0.0000 32.5308
#
#
#
# Elastic Compliance Matrix: (Units=1/GPa)
#
#
# Indices 1 2 3 4 5 6 
#
# 1 0.014319 -0.010826 0.002596 0.000000 0.000000 0.000000
# 2 -0.010826 0.021439 -0.002537 0.000000 0.000000 0.000000
# 3 0.002596 -0.002537 0.018479 0.000000 0.000000 0.000000
# 4 0.000000 0.000000 0.000000 0.054307 0.000000 0.000000
# 5 0.000000 0.000000 0.000000 0.000000 0.053107 0.000000
# 6 0.000000 0.000000 0.000000 0.000000 0.000000 0.030740
#
#
# Mechanical properties :
#
#
# Convention : Reuss Voigt Hill
#
# Bulk Modulus (GPa) = 30.57618 38.55500 34.56559
# Shear Modulus (GPa) = 22.23948 26.92250 24.58099
#
# Velocity S-wave (km/s) = 3.14544 3.46080 3.30688
# Velocity P-wave (km/s) = 5.17632 5.75515 5.47339
#
# Compressibility (1/GPa) = 0.03270520
#
# Stress axis : x y z
#
# Youngs Moduli (GPa) = 69.83510 46.64453 54.11486
#
# Poissons Ratio (x) = 0.50496 -0.14049
# Poissons Ratio (y) = 0.75601 0.13727
# Poissons Ratio (z) = -0.18130 0.11832
#
# Static dielectric constant tensor:
#      x y z
#    x 1.824730 0.000000 0.000000 
#    y 0.000000 1.845370 0.000000 
#    z 0.000000 0.000000 1.861270 
# 
# From -- ./inp_files/6551.got.cif
#   From: 2010.05.17/outbox.cif.g08.bks.cpg/sg55_4_cif.got.tgz:6551.got - 2010.06.03 13:27:54.
