data_PCOD9426871
_publ_section_title
;
Structure prediction by ZEFSAII (Michael W. Deem and Ramdas Pophale) SiO2 
 PCOD9426871
Probable space group: P B A M
;
_chemical_formula_sum "Si O2"
_cell_formula_units_Z 56
_cell_length_a 21.493897
_cell_length_b 15.170421
_cell_length_c 7.733262
_cell_angle_alpha 90.000000
_cell_angle_beta 90.000000
_cell_angle_gamma 90.000000
_cell_volume 2521.596081
_symmetry_space_group_name_H-M "P B A M"
_symmetry_group_IT_number 55
_symmetry_cell_setting 'orthorhombic'
loop_
_space_group_symop_operation_xyz
x,y,z
-x,-y,z
1/2+x,1/2-y,-z
1/2-x,1/2+y,-z
-x,-y,-z
x,y,-z
1/2-x,1/2+y,z
1/2+x,1/2-y,z
loop_
_atom_site_type_symbol
_atom_site_label
_atom_site_fract_x
_atom_site_fract_y
_atom_site_fract_z
Si Si1 0.176937 0.425704 0.212301
Si Si2 0.738149 0.892192 0.208779
Si Si3 0.098668 0.911955 0.300117
Si Si4 0.616106 0.393161 0.705486
Si Si5 0.034136 0.410696 0.788153
Si Si6 0.783594 0.201619 0.203342
Si Si7 0.005979 0.219710 0.800904
O O1 0.204238 0.519697 0.270966
O O2 0.106050 0.412559 0.265607
O O3 0.223821 0.349907 0.274782
O O4 0.177635 0.425195 0.000000
O O5 0.810742 0.890654 0.256964
O O6 0.708850 0.800364 0.272997
O O7 0.734022 0.895947 0.000000
O O8 0.115248 0.923699 0.500000
O O9 0.155873 0.858613 0.220431
O O10 0.037394 0.852888 0.286810
O O11 0.092146 0.011036 0.229898
O O12 0.605626 0.385635 0.500000
O O13 0.576530 0.315466 0.790786
O O14 0.003215 0.318937 0.730235
O O15 0.000000 0.500000 0.733509
O O16 0.032957 0.408909 0.000000
O O17 0.771452 0.212362 0.000000
O O18 0.985516 0.222332 0.000000
#
# Coordination Sequence:
#
# PCOD9426871 Si02
#       7
#     8   8   8   8   8   8   8
#     4   9  17  32  54  84 120 150 180 235 291 339
#     4  10  20  34  60  90 117 149 194 244 292 350
#     4  11  24  40  58  84 120 157 199 247 303 362
#     4  11  23  40  60  85 121 160 197 242 302 361
#     4   9  19  35  58  90 124 152 188 240 298 351
#     4  10  20  35  58  88 118 151 198 247 296 349
#     4  11  23  38  62  90 118 155 202 248 296 352
#
# _framework density 22.208157
#
# number of rings (size 3 to 8) (size 9 to 14) (size 15 to 20)
#    0.000    1.857    1.429    2.571    2.000    6.286 
#    0.000    0.000    0.000    2.571    0.000    0.000 
#    0.000    0.000    0.000    0.000    0.000    0.000 
#
# Total GULP energy -312999.420653 kJ/mol
# GULP energy per Si atom -5589.275369 kJ/mol
# Density = 2.215761 g / cm^3
# Si number density = 22.208157 Si / 1000 Ang^3
#
#
#
# Elastic Constant Matrix: (Units=GPa)
#
#
# Indices 1 2 3 4 5 6 
#
# 1 35.7093 -10.4716 -13.1975 0.0000 0.0000 0.0000
# 2 -10.4716 116.6666 6.2774 0.0000 0.0000 0.0000
# 3 -13.1975 6.2774 32.3919 0.0000 0.0000 0.0000
# 4 0.0000 0.0000 0.0000 17.9782 0.0000 0.0000
# 5 0.0000 0.0000 0.0000 0.0000 -30.0877 0.0000
# 6 0.0000 0.0000 0.0000 0.0000 0.0000 16.5626
#
#
#
# Elastic Compliance Matrix: (Units=1/GPa)
#
#
# Indices 1 2 3 4 5 6 
#
# 1 0.033569 0.002301 0.013231 0.000000 0.000000 0.000000
# 2 0.002301 0.008819 -0.000772 0.000000 0.000000 0.000000
# 3 0.013231 -0.000772 0.036412 0.000000 0.000000 0.000000
# 4 0.000000 0.000000 0.000000 0.055623 0.000000 0.000000
# 5 0.000000 0.000000 0.000000 0.000000 -0.033236 0.000000
# 6 0.000000 0.000000 0.000000 0.000000 0.000000 0.060377
#
#
# Mechanical properties :
#
#
# Convention : Reuss Voigt Hill
#
# Bulk Modulus (GPa) = 9.23183 16.66496 12.94839
# Shear Modulus (GPa) = 29.73531 14.36792 22.05162
#
# Velocity S-wave (km/s) = 3.66312 2.54631 3.15453
# Velocity P-wave (km/s) = 4.69651 4.02060 4.37164
#
# Compressibility (1/GPa) = 0.10832092
#
# Stress axis : x y z
#
# Youngs Moduli (GPa) = 29.78979 113.38529 27.46335
#
# Poissons Ratio (x) = -0.26091 -0.36337
# Poissons Ratio (y) = -0.06855 0.02119
# Poissons Ratio (z) = -0.39415 0.08749
#
# Static dielectric constant tensor:
#      x y z
#    x 1.758570 0.000000 0.000000 
#    y 0.000000 1.843310 0.000000 
#    z 0.000000 0.000000 1.824050 
# 
# From -- ./inp_files/6175.got.cif
#   From: 2010.05.17/outbox.cif.g08.bks.cpg/sg55_4_cif.got.tgz:6175.got - 2010.06.03 13:27:54.
