data_PCOD9426188
_publ_section_title
;
Structure prediction by ZEFSAII (Michael W. Deem and Ramdas Pophale) SiO2 
 PCOD9426188
Probable space group: P B A M
;
_chemical_formula_sum "Si O2"
_cell_formula_units_Z 30
_cell_length_a 19.448423
_cell_length_b 12.128258
_cell_length_c 5.343740
_cell_angle_alpha 90.000000
_cell_angle_beta 90.000000
_cell_angle_gamma 90.000000
_cell_volume 1260.457301
_symmetry_space_group_name_H-M "P B A M"
_symmetry_group_IT_number 55
_symmetry_cell_setting 'orthorhombic'
loop_
_space_group_symop_operation_xyz
x,y,z
-x,-y,z
1/2+x,1/2-y,-z
1/2-x,1/2+y,-z
-x,-y,-z
x,y,-z
1/2-x,1/2+y,z
1/2+x,1/2-y,z
loop_
_atom_site_type_symbol
_atom_site_label
_atom_site_fract_x
_atom_site_fract_y
_atom_site_fract_z
Si Si1 0.845151 0.697475 0.000000
Si Si2 0.315133 0.574871 0.500000
Si Si3 0.107030 0.726807 0.000000
Si Si4 0.000000 0.000000 0.500000
Si Si5 0.523216 0.340517 0.000000
Si Si6 0.650734 0.648274 0.500000
Si Si7 0.684764 0.164182 0.500000
Si Si8 0.239485 0.611400 0.000000
O O1 0.847711 0.624619 0.245552
O O2 0.771597 0.763068 0.000000
O O3 0.899403 0.796110 0.000000
O O4 0.374242 0.480597 0.500000
O O5 0.332229 0.703619 0.500000
O O6 0.270946 0.558361 0.248661
O O7 0.127363 0.793389 0.249852
O O8 0.158040 0.623633 0.000000
O O9 0.025208 0.731421 0.000000
O O10 0.990028 0.905662 0.737526
O O11 0.733455 0.651133 0.500000
#
# Coordination Sequence:
#
# PCOD9426188 Si02
#       8
#     4   4   4   2   4   4   4   4
#     4  10  19  35  56  73 108 155 188 230 282 347
#     4  10  20  32  56  81 107 151 183 234 299 341
#     4  12  22  38  57  86 122 150 196 251 288 353
#     4  10  24  42  48  82 132 156 194 250 256 382
#     4  11  24  36  58  82 115 168 198 226 309 346
#     4  12  21  36  58  86 116 151 193 247 306 346
#     4  10  19  36  54  78 114 142 189 249 276 344
#     4  10  19  37  53  77 115 145 187 247 279 330
#
# _framework density 23.800888
#
# number of rings (size 3 to 8) (size 9 to 14) (size 15 to 20)
#    0.000    1.333    5.333    2.400    0.000   12.800 
#    0.000    0.000    0.000    0.000    0.000    5.600 
#    0.000    0.000    0.000    0.000    0.000    0.000 
#
# Total GULP energy -167110.669626 kJ/mol
# GULP energy per Si atom -5570.355654 kJ/mol
# Density = 2.374672 g / cm^3
# Si number density = 23.800888 Si / 1000 Ang^3
#
#
#
# Elastic Constant Matrix: (Units=GPa)
#
#
# Indices 1 2 3 4 5 6 
#
# 1 67.0143 5.0570 30.2628 0.0000 0.0000 0.0000
# 2 5.0570 52.4351 22.2163 0.0000 0.0000 0.0000
# 3 30.2628 22.2163 265.1009 0.0000 0.0000 0.0000
# 4 0.0000 0.0000 0.0000 28.4345 0.0000 0.0000
# 5 0.0000 0.0000 0.0000 0.0000 35.0063 0.0000
# 6 0.0000 0.0000 0.0000 0.0000 0.0000 41.0827
#
#
#
# Elastic Compliance Matrix: (Units=1/GPa)
#
#
# Indices 1 2 3 4 5 6 
#
# 1 0.015764 -0.000786 -0.001734 0.000000 0.000000 0.000000
# 2 -0.000786 0.019812 -0.001571 0.000000 0.000000 0.000000
# 3 -0.001734 -0.001571 0.004102 0.000000 0.000000 0.000000
# 4 0.000000 0.000000 0.000000 0.035169 0.000000 0.000000
# 5 0.000000 0.000000 0.000000 0.000000 0.028566 0.000000
# 6 0.000000 0.000000 0.000000 0.000000 0.000000 0.024341
#
#
# Mechanical properties :
#
#
# Convention : Reuss Voigt Hill
#
# Bulk Modulus (GPa) = 31.74784 55.51361 43.63072
# Shear Modulus (GPa) = 34.14501 42.70565 38.42533
#
# Velocity S-wave (km/s) = 3.79173 4.24050 4.02238
# Velocity P-wave (km/s) = 5.70417 6.88118 6.32013
#
# Compressibility (1/GPa) = 0.03149821
#
# Stress axis : x y z
#
# Youngs Moduli (GPa) = 63.43393 50.47331 243.80186
#
# Poissons Ratio (x) = 0.03966 0.42269
# Poissons Ratio (y) = 0.04985 0.38293
# Poissons Ratio (z) = 0.10998 0.07928
#
# Static dielectric constant tensor:
#      x y z
#    x 1.555160 0.000000 0.000000 
#    y 0.000000 1.930610 0.000000 
#    z 0.000000 0.000000 1.990700 
# 
# From -- ./inp_files/761.got.cif
#   From: 2010.05.17/outbox.cif.g08.bks.cpg/sg55_1_cif.got.tgz:761.got - 2010.06.03 13:27:54.
