data_PCOD9426020
_publ_section_title
;
Structure prediction by ZEFSAII (Michael W. Deem and Ramdas Pophale) SiO2 
 PCOD9426020
Probable space group: P B A M
;
_chemical_formula_sum "Si O2"
_cell_formula_units_Z 64
_cell_length_a 20.078218
_cell_length_b 20.594707
_cell_length_c 7.765798
_cell_angle_alpha 90.000000
_cell_angle_beta 90.000000
_cell_angle_gamma 90.000000
_cell_volume 3211.196432
_symmetry_space_group_name_H-M "P B A M"
_symmetry_group_IT_number 55
_symmetry_cell_setting 'orthorhombic'
loop_
_space_group_symop_operation_xyz
x,y,z
-x,-y,z
1/2+x,1/2-y,-z
1/2-x,1/2+y,-z
-x,-y,-z
x,y,-z
1/2-x,1/2+y,z
1/2+x,1/2-y,z
loop_
_atom_site_type_symbol
_atom_site_label
_atom_site_fract_x
_atom_site_fract_y
_atom_site_fract_z
Si Si1 0.565944 0.537790 0.211337
Si Si2 0.527615 0.067879 0.294143
Si Si3 0.220732 0.639226 0.298430
Si Si4 0.210116 0.007221 0.202655
Si Si5 0.248361 0.781107 0.208555
Si Si6 0.899774 0.181001 0.794324
Si Si7 0.427105 0.176452 0.292181
Si Si8 0.821022 0.593210 0.208191
O O1 0.500000 0.500000 0.269579
O O2 0.635339 0.504405 0.269005
O O3 0.569586 0.613279 0.267609
O O4 0.564259 0.536850 0.000000
O O5 0.517522 0.067164 0.500000
O O6 0.484733 0.128753 0.228411
O O7 0.605490 0.073895 0.261628
O O8 0.500000 0.000000 0.223977
O O9 0.214425 0.625004 0.500000
O O10 0.260799 0.579298 0.221082
O O11 0.256773 0.708199 0.273402
O O12 0.145490 0.651166 0.228845
O O13 0.264762 0.956705 0.273769
O O14 0.205432 0.992319 0.000000
O O15 0.176011 0.807471 0.268190
O O16 0.302114 0.834041 0.263467
O O17 0.247310 0.778461 0.000000
O O18 0.936638 0.248382 0.755608
O O19 0.895298 0.174911 0.000000
O O20 0.424574 0.174472 0.500000
O O21 0.818973 0.592007 0.000000
#
# Coordination Sequence:
#
# PCOD9426020 Si02
#       8
#     8   8   8   8   8   8   8   8
#     4   9  17  32  55  80 104 133 172 214 259 315
#     4  10  21  37  54  74 106 147 182 217 267 319
#     4  10  20  34  54  80 107 139 179 216 255 313
#     4  10  19  34  55  80 109 139 171 216 271 314
#     4   9  17  33  54  76 103 135 172 217 265 309
#     4   9  16  31  56  79 101 133 175 216 255 308
#     4   9  19  35  53  75 106 142 178 217 261 311
#     4  10  20  34  55  80 106 137 178 225 268 314
#
# _framework density 19.930267000000001
#
# number of rings (size 3 to 8) (size 9 to 14) (size 15 to 20)
#    0.000    2.500    1.250    1.125    0.000    3.250 
#    2.250    0.625    0.000    0.750    0.000    0.000 
#    0.000    0.000    0.000    0.000    0.000    0.000 
#
# Total GULP energy -357071.780175 kJ/mol
# GULP energy per Si atom -5579.246565 kJ/mol
# Density = 1.988490 g / cm^3
# Si number density = 19.930267 Si / 1000 Ang^3
#
#
#
# Elastic Constant Matrix: (Units=GPa)
#
#
# Indices 1 2 3 4 5 6 
#
# 1 136.2810 94.4560 -3.7622 0.0000 0.0000 0.0000
# 2 94.4560 151.5781 -5.4364 0.0000 0.0000 0.0000
# 3 -3.7622 -5.4364 19.4032 0.0000 0.0000 0.0000
# 4 0.0000 0.0000 0.0000 -12.0111 0.0000 0.0000
# 5 0.0000 0.0000 0.0000 0.0000 10.5865 0.0000
# 6 0.0000 0.0000 0.0000 0.0000 0.0000 31.9049
#
#
#
# Elastic Compliance Matrix: (Units=1/GPa)
#
#
# Indices 1 2 3 4 5 6 
#
# 1 0.012918 -0.008041 0.000252 0.000000 0.000000 0.000000
# 2 -0.008041 0.011669 0.001710 0.000000 0.000000 0.000000
# 3 0.000252 0.001710 0.052066 0.000000 0.000000 0.000000
# 4 0.000000 0.000000 0.000000 -0.083257 0.000000 0.000000
# 5 0.000000 0.000000 0.000000 0.000000 0.094460 0.000000
# 6 0.000000 0.000000 0.000000 0.000000 0.000000 0.031343
#
#
# Mechanical properties :
#
#
# Convention : Reuss Voigt Hill
#
# Bulk Modulus (GPa) = 15.50484 53.08635 34.29559
# Shear Modulus (GPa) = 32.71088 20.89640 26.80364
#
# Velocity S-wave (km/s) = 4.05565 3.24153 3.67123
# Velocity P-wave (km/s) = 5.45229 6.37996 5.93428
#
# Compressibility (1/GPa) = 0.06449600
#
# Stress axis : x y z
#
# Youngs Moduli (GPa) = 77.41337 85.69629 19.20643
#
# Poissons Ratio (x) = 0.68905 -0.00484
# Poissons Ratio (y) = 0.62245 -0.03285
# Poissons Ratio (z) = -0.01950 -0.14657
#
# Static dielectric constant tensor:
#      x y z
#    x 1.682400 0.000000 0.000000 
#    y 0.000000 1.692160 0.000000 
#    z 0.000000 0.000000 1.750170 
# 
# From -- ./inp_files/7959.got.cif
#   From: 2010.05.17/outbox.cif.g08.bks.cpg/sg55_4_cif.got.tgz:7959.got - 2010.06.03 13:27:54.
