data_PCOD9426407
_publ_section_title
;
Structure prediction by ZEFSAII (Michael W. Deem and Ramdas Pophale) SiO2 
 PCOD9426407
Probable space group: P B A M
;
_chemical_formula_sum "Si O2"
_cell_formula_units_Z 48
_cell_length_a 9.775810
_cell_length_b 27.959453
_cell_length_c 7.594566
_cell_angle_alpha 90.000000
_cell_angle_beta 90.000000
_cell_angle_gamma 90.000000
_cell_volume 2075.794627
_symmetry_space_group_name_H-M "P B A M"
_symmetry_group_IT_number 55
_symmetry_cell_setting 'orthorhombic'
loop_
_space_group_symop_operation_xyz
x,y,z
-x,-y,z
1/2+x,1/2-y,-z
1/2-x,1/2+y,-z
-x,-y,-z
x,y,-z
1/2-x,1/2+y,z
1/2+x,1/2-y,z
loop_
_atom_site_type_symbol
_atom_site_label
_atom_site_fract_x
_atom_site_fract_y
_atom_site_fract_z
Si Si1 0.142234 0.795266 0.211500
Si Si2 0.817227 0.391755 0.784352
Si Si3 0.843556 0.098915 0.699734
Si Si4 0.674011 0.293550 0.784345
Si Si5 0.585200 0.457592 0.197907
Si Si6 0.068848 0.450197 0.787387
O O1 0.200584 0.847348 0.257271
O O2 0.239254 0.752489 0.273895
O O3 0.984294 0.792490 0.273872
O O4 0.137669 0.791660 0.000000
O O5 0.753679 0.341560 0.727843
O O6 0.719730 0.435000 0.722375
O O7 0.969794 0.406393 0.733900
O O8 0.811629 0.391984 0.000000
O O9 0.890613 0.097219 0.500000
O O10 0.720941 0.061672 0.726399
O O11 0.975297 0.085037 0.812729
O O12 0.672220 0.293789 0.000000
O O13 0.500000 0.500000 0.286025
O O14 0.622238 0.474542 0.000000
O O15 0.000000 0.500000 0.729065
O O16 0.073070 0.451747 0.000000
#
# Coordination Sequence:
#
# PCOD9426407 Si02
#       6
#     8   8   8   8   8   8
#     4  10  20  37  61  87 114 146 195 250 299 349
#     4   9  17  32  57  88 115 139 186 250 304 349
#     4  12  25  39  56  84 125 166 197 231 289 359
#     4   9  18  32  58  90 111 140 189 251 307 345
#     4  10  19  36  64  90 112 145 193 249 298 343
#     4  10  21  38  62  89 116 152 200 252 299 343
#
# _framework density 23.123673
#
# number of rings (size 3 to 8) (size 9 to 14) (size 15 to 20)
#    0.000    2.000    1.667    2.500    2.333    3.333 
#    0.000    1.667    0.000    0.000    0.000    0.000 
#    0.000    0.000    0.000    0.000    0.000    0.000 
#
# Total GULP energy -268263.872564 kJ/mol
# GULP energy per Si atom -5588.830678 kJ/mol
# Density = 2.307104 g / cm^3
# Si number density = 23.123673 Si / 1000 Ang^3
#
#
#
# Elastic Constant Matrix: (Units=GPa)
#
#
# Indices 1 2 3 4 5 6 
#
# 1 99.3937 12.9422 3.5170 0.0000 0.0000 0.0000
# 2 12.9422 98.6858 0.9013 0.0000 0.0000 0.0000
# 3 3.5170 0.9013 59.8600 0.0000 0.0000 0.0000
# 4 0.0000 0.0000 0.0000 -58.3013 0.0000 0.0000
# 5 0.0000 0.0000 0.0000 0.0000 67.0573 0.0000
# 6 0.0000 0.0000 0.0000 0.0000 0.0000 44.6802
#
#
#
# Elastic Compliance Matrix: (Units=1/GPa)
#
#
# Indices 1 2 3 4 5 6 
#
# 1 0.010256 -0.001340 -0.000582 0.000000 0.000000 0.000000
# 2 -0.001340 0.010310 -0.000077 0.000000 0.000000 0.000000
# 3 -0.000582 -0.000077 0.016741 0.000000 0.000000 0.000000
# 4 0.000000 0.000000 0.000000 -0.017152 0.000000 0.000000
# 5 0.000000 0.000000 0.000000 0.000000 0.014913 0.000000
# 6 0.000000 0.000000 0.000000 0.000000 0.000000 0.022381
#
#
# Mechanical properties :
#
#
# Convention : Reuss Voigt Hill
#
# Bulk Modulus (GPa) = 30.02160 32.51784 31.26972
# Shear Modulus (GPa) = 68.91924 26.72583 47.82254
#
# Velocity S-wave (km/s) = 5.46528 3.40336 4.55259
# Velocity P-wave (km/s) = 7.26891 5.43479 6.41771
#
# Compressibility (1/GPa) = 0.03330935
#
# Stress axis : x y z
#
# Youngs Moduli (GPa) = 97.50339 96.99729 59.73354
#
# Poissons Ratio (x) = 0.12995 0.03479
# Poissons Ratio (y) = 0.13063 0.00457
# Poissons Ratio (z) = 0.05679 0.00742
#
# Static dielectric constant tensor:
#      x y z
#    x 1.810660 0.000000 0.000000 
#    y 0.000000 1.874860 0.000000 
#    z 0.000000 0.000000 1.944220 
# 
# From -- ./inp_files/2872.got.cif
#   From: 2010.05.17/outbox.cif.g08.bks.cpg/sg55_2_cif.got.tgz:2872.got - 2010.06.03 13:27:54.
