data_PCOD9426872
_publ_section_title
;
Structure prediction by ZEFSAII (Michael W. Deem and Ramdas Pophale) SiO2 
 PCOD9426872
Probable space group: P B A M
;
_chemical_formula_sum "Si O2"
_cell_formula_units_Z 64
_cell_length_a 17.423321
_cell_length_b 11.627774
_cell_length_c 13.824796
_cell_angle_alpha 90.000000
_cell_angle_beta 90.000000
_cell_angle_gamma 90.000000
_cell_volume 2800.826789
_symmetry_space_group_name_H-M "P B A M"
_symmetry_group_IT_number 55
_symmetry_cell_setting 'orthorhombic'
loop_
_space_group_symop_operation_xyz
x,y,z
-x,-y,z
1/2+x,1/2-y,-z
1/2-x,1/2+y,-z
-x,-y,-z
x,y,-z
1/2-x,1/2+y,z
1/2+x,1/2-y,z
loop_
_atom_site_type_symbol
_atom_site_label
_atom_site_fract_x
_atom_site_fract_y
_atom_site_fract_z
Si Si1 0.176160 0.052113 0.285767
Si Si2 0.969148 0.854886 0.609065
Si Si3 0.634722 0.168405 0.841102
Si Si4 0.086484 0.586089 0.894138
Si Si5 0.362959 0.353698 0.390016
Si Si6 0.706229 0.770386 0.791320
Si Si7 0.918982 0.932801 0.112859
Si Si8 0.515996 0.120089 0.699243
O O1 0.101617 0.122644 0.321581
O O2 0.247614 0.128914 0.262446
O O3 0.143922 0.008378 0.182310
O O4 0.193691 0.959520 0.367341
O O5 0.942132 0.864709 0.500000
O O6 0.052696 0.913761 0.618696
O O7 0.000068 0.726325 0.631506
O O8 0.725320 0.192223 0.834322
O O9 0.593238 0.291287 0.872935
O O10 0.602707 0.136893 0.734912
O O11 0.614454 0.047408 0.893243
O O12 0.156349 0.672511 0.875209
O O13 0.031906 0.612567 0.801228
O O14 0.051676 0.609638 0.000000
O O15 0.355184 0.310103 0.500000
O O16 0.346032 0.278903 0.295224
O O17 0.905152 0.952973 0.000000
O O18 0.000000 0.000000 0.135691
O O19 0.500000 0.000000 0.649502
#
# Coordination Sequence:
#
# PCOD9426872 Si02
#       8
#     8   8   8   8   8   8   8   8
#     4  11  23  41  65  92 131 169 214 272 327 397
#     4  11  21  40  67  94 123 163 215 275 329 386
#     4  10  22  42  64  94 132 173 215 275 322 387
#     4  11  24  41  65  93 127 175 222 263 331 403
#     4  11  24  41  65  93 126 168 214 270 330 391
#     4  11  23  42  64  90 133 171 212 272 329 386
#     4  10  20  34  60  95 129 165 205 258 320 373
#     4  10  21  41  64  89 127 165 215 270 322 379
#
# _framework density 22.850396
#
# number of rings (size 3 to 8) (size 9 to 14) (size 15 to 20)
#    0.000    1.375    3.750    2.625    0.000    7.500 
#    0.000    1.875    0.000    0.000    0.000    0.000 
#    0.000    0.000    0.000    0.000    0.000    0.000 
#
# Total GULP energy -356450.238032 kJ/mol
# GULP energy per Si atom -5569.534969 kJ/mol
# Density = 2.279839 g / cm^3
# Si number density = 22.850396 Si / 1000 Ang^3
#
#
#
# Elastic Constant Matrix: (Units=GPa)
#
#
# Indices 1 2 3 4 5 6 
#
# 1 74.7842 9.3120 14.7686 0.0000 0.0000 0.0000
# 2 9.3120 43.2131 17.0047 0.0000 0.0000 0.0000
# 3 14.7686 17.0047 91.5847 0.0000 0.0000 0.0000
# 4 0.0000 0.0000 0.0000 20.4469 0.0000 0.0000
# 5 0.0000 0.0000 0.0000 0.0000 -18.2421 0.0000
# 6 0.0000 0.0000 0.0000 0.0000 0.0000 38.6000
#
#
#
# Elastic Compliance Matrix: (Units=1/GPa)
#
#
# Indices 1 2 3 4 5 6 
#
# 1 0.014020 -0.002300 -0.001834 0.000000 0.000000 0.000000
# 2 -0.002300 0.025342 -0.004335 0.000000 0.000000 0.000000
# 3 -0.001834 -0.004335 0.012019 0.000000 0.000000 0.000000
# 4 0.000000 0.000000 0.000000 0.048907 0.000000 0.000000
# 5 0.000000 0.000000 0.000000 0.000000 -0.054818 0.000000
# 6 0.000000 0.000000 0.000000 0.000000 0.000000 0.025907
#
#
# Mechanical properties :
#
#
# Convention : Reuss Voigt Hill
#
# Bulk Modulus (GPa) = 29.03094 32.41695 30.72394
# Shear Modulus (GPa) = 50.10229 19.39407 34.74818
#
# Velocity S-wave (km/s) = 4.68762 2.91648 3.90382
# Velocity P-wave (km/s) = 6.48312 5.05554 5.81332
#
# Compressibility (1/GPa) = 0.03444601
#
# Stress axis : x y z
#
# Youngs Moduli (GPa) = 71.32512 39.45964 83.19891
#
# Poissons Ratio (x) = 0.09074 0.15258
# Poissons Ratio (y) = 0.16402 0.36063
# Poissons Ratio (z) = 0.13080 0.17104
#
# Static dielectric constant tensor:
#      x y z
#    x 1.889350 0.000000 0.000000 
#    y 0.000000 2.108910 0.000000 
#    z 0.000000 0.000000 1.805930 
# 
# From -- ./inp_files/19524.got.cif
#   From: 2010.05.17/outbox.cif.g08.bks.cpg/sg55_10_cif.got.tgz:19524.got - 2010.06.03 13:27:54.
