data_PCOD9426236
_publ_section_title
;
Structure prediction by ZEFSAII (Michael W. Deem and Ramdas Pophale) SiO2 
 PCOD9426236
Probable space group: P B A M
;
_chemical_formula_sum "Si O2"
_cell_formula_units_Z 64
_cell_length_a 22.403931
_cell_length_b 15.773437
_cell_length_c 9.548582
_cell_angle_alpha 90.000000
_cell_angle_beta 90.000000
_cell_angle_gamma 90.000000
_cell_volume 3374.344692
_symmetry_space_group_name_H-M "P B A M"
_symmetry_group_IT_number 55
_symmetry_cell_setting 'orthorhombic'
loop_
_space_group_symop_operation_xyz
x,y,z
-x,-y,z
1/2+x,1/2-y,-z
1/2-x,1/2+y,-z
-x,-y,-z
x,y,-z
1/2-x,1/2+y,z
1/2+x,1/2-y,z
loop_
_atom_site_type_symbol
_atom_site_label
_atom_site_fract_x
_atom_site_fract_y
_atom_site_fract_z
Si Si1 0.228009 0.540733 0.343340
Si Si2 0.662395 0.837504 0.155091
Si Si3 0.349238 0.872635 0.344754
Si Si4 0.049964 0.926944 0.332679
Si Si5 0.171926 0.964901 0.165393
Si Si6 0.963880 0.585644 0.166250
Si Si7 0.240452 0.303272 0.847077
Si Si8 0.039418 0.757249 0.835630
O O1 0.243724 0.569832 0.500000
O O2 0.175595 0.595536 0.274112
O O3 0.198845 0.448104 0.354061
O O4 0.285072 0.532923 0.241707
O O5 0.721764 0.781595 0.151053
O O6 0.607147 0.775796 0.182285
O O7 0.652395 0.876578 0.000000
O O8 0.368701 0.848347 0.500000
O O9 0.403872 0.905347 0.253567
O O10 0.311639 0.801240 0.265556
O O11 0.061186 0.917214 0.500000
O O12 0.110486 0.952819 0.249928
O O13 0.029049 0.837764 0.263662
O O14 0.000000 0.000000 0.314809
O O15 0.210415 0.877658 0.172713
O O16 0.162156 0.982858 0.000000
O O17 0.000000 0.500000 0.204762
O O18 0.000416 0.672892 0.190415
O O19 0.951863 0.579832 0.000000
O O20 0.212876 0.319372 0.000000
O O21 0.032096 0.781646 0.000000
#
# Coordination Sequence:
#
# PCOD9426236 Si02
#       8
#     8   8   8   8   8   8   8   8
#     4  10  21  35  54  86 120 152 189 234 292 358
#     4  10  19  35  58  86 114 144 191 242 291 351
#     4  10  21  36  54  79 115 153 188 228 285 351
#     4  11  24  41  61  86 118 158 202 252 309 366
#     4  10  19  37  62  85 110 147 192 244 297 347
#     4  10  21  38  62  89 120 159 201 248 298 352
#     4   9  18  34  58  82 108 141 185 236 287 342
#     4  10  21  39  63  91 119 155 207 256 299 357
#
# _framework density 18.966646999999998
#
# number of rings (size 3 to 8) (size 9 to 14) (size 15 to 20)
#    0.000    2.000    1.250    2.250    0.000    5.750 
#    2.250    0.000    0.000    0.000    0.000    0.000 
#    0.000    0.000    0.000    0.000    0.000    0.000 
#
# Total GULP energy -356856.786285 kJ/mol
# GULP energy per Si atom -5575.887286 kJ/mol
# Density = 1.892348 g / cm^3
# Si number density = 18.966647 Si / 1000 Ang^3
#
#
#
# Elastic Constant Matrix: (Units=GPa)
#
#
# Indices 1 2 3 4 5 6 
#
# 1 80.5005 19.5704 61.5207 0.0000 0.0000 0.0000
# 2 19.5704 55.8138 49.6897 0.0000 0.0000 0.0000
# 3 61.5207 49.6897 125.8921 0.0000 0.0000 0.0000
# 4 0.0000 0.0000 0.0000 13.9922 0.0000 0.0000
# 5 0.0000 0.0000 0.0000 0.0000 25.4896 0.0000
# 6 0.0000 0.0000 0.0000 0.0000 0.0000 20.2585
#
#
#
# Elastic Compliance Matrix: (Units=1/GPa)
#
#
# Indices 1 2 3 4 5 6 
#
# 1 0.020071 0.002612 -0.010839 0.000000 0.000000 0.000000
# 2 0.002612 0.027963 -0.012314 0.000000 0.000000 0.000000
# 3 -0.010839 -0.012314 0.018100 0.000000 0.000000 0.000000
# 4 0.000000 0.000000 0.000000 0.071468 0.000000 0.000000
# 5 0.000000 0.000000 0.000000 0.000000 0.039232 0.000000
# 6 0.000000 0.000000 0.000000 0.000000 0.000000 0.049362
#
#
# Mechanical properties :
#
#
# Convention : Reuss Voigt Hill
#
# Bulk Modulus (GPa) = 39.91483 58.19645 49.05564
# Shear Modulus (GPa) = 18.14031 20.70978 19.42505
#
# Velocity S-wave (km/s) = 3.09598 3.30798 3.20374
# Velocity P-wave (km/s) = 5.81984 6.73354 6.29329
#
# Compressibility (1/GPa) = 0.02505334
#
# Stress axis : x y z
#
# Youngs Moduli (GPa) = 49.82336 35.76111 55.24711
#
# Poissons Ratio (x) = -0.09342 0.59884
# Poissons Ratio (y) = -0.13016 0.68030
# Poissons Ratio (z) = 0.54005 0.44035
#
# Static dielectric constant tensor:
#      x y z
#    x 1.638740 0.000000 0.000000 
#    y 0.000000 1.677090 0.000000 
#    z 0.000000 0.000000 1.689790 
# 
# From -- ./inp_files/9014.got.cif
#   From: 2010.05.17/outbox.cif.g08.bks.cpg/sg55_5_cif.got.tgz:9014.got - 2010.06.03 13:27:54.
