data_PCOD9426791
_publ_section_title
;
Structure prediction by ZEFSAII (Michael W. Deem and Ramdas Pophale) SiO2 
 PCOD9426791
Probable space group: P B A M
;
_chemical_formula_sum "Si O2"
_cell_formula_units_Z 36
_cell_length_a 24.784391
_cell_length_b 4.832639
_cell_length_c 11.480649
_cell_angle_alpha 90.000000
_cell_angle_beta 90.000000
_cell_angle_gamma 90.000000
_cell_volume 1375.083420
_symmetry_space_group_name_H-M "P B A M"
_symmetry_group_IT_number 55
_symmetry_cell_setting 'orthorhombic'
loop_
_space_group_symop_operation_xyz
x,y,z
-x,-y,z
1/2+x,1/2-y,-z
1/2-x,1/2+y,-z
-x,-y,-z
x,y,-z
1/2-x,1/2+y,z
1/2+x,1/2-y,z
loop_
_atom_site_type_symbol
_atom_site_label
_atom_site_fract_x
_atom_site_fract_y
_atom_site_fract_z
Si Si1 0.168215 0.945287 0.780046
Si Si2 0.324242 0.978088 0.628652
Si Si3 0.719604 0.258794 0.000000
Si Si4 0.560236 0.115503 0.624693
Si Si5 0.437644 0.585240 0.129318
O O1 0.169676 0.164450 0.672663
O O2 0.193099 0.122065 0.884511
O O3 0.109846 0.869150 0.838113
O O4 0.198594 0.679567 0.727591
O O5 0.299863 0.996597 0.500000
O O6 0.387064 0.078941 0.619679
O O7 0.776378 0.429275 0.000000
O O8 0.564748 0.278976 0.500000
O O9 0.564409 0.239694 0.753052
O O10 0.500000 0.000000 0.621695
O O11 0.500000 0.500000 0.123443
O O12 0.425360 0.703621 0.000000
#
# Coordination Sequence:
#
# PCOD9426791 Si02
#       5
#     8   8   4   8   8
#     4  11  22  42  65  95 129 167 213 259 317 377
#     4  10  21  37  64  94 128 168 209 259 317 376
#     4  12  26  46  71  96 123 164 214 266 320 382
#     4   9  18  32  50  81 123 174 223 259 298 364
#     4  10  20  34  54  88 129 169 209 259 318 374
#
# _framework density 26.180228
#
# number of rings (size 3 to 8) (size 9 to 14) (size 15 to 20)
#    0.000    1.778    1.111    3.333    0.000    1.778 
#    2.000    0.000    0.000   13.333    0.000    0.000 
#    0.000    0.000    0.000    0.000    0.000    0.000 
#
# Total GULP energy -200581.746909 kJ/mol
# GULP energy per Si atom -5571.715192 kJ/mol
# Density = 2.612064 g / cm^3
# Si number density = 26.180228 Si / 1000 Ang^3
#
#
#
# Elastic Constant Matrix: (Units=GPa)
#
#
# Indices 1 2 3 4 5 6 
#
# 1 63.6040 -8.3065 5.4978 0.0000 0.0000 0.0000
# 2 -8.3065 71.9060 35.3223 0.0000 0.0000 0.0000
# 3 5.4978 35.3223 272.4142 0.0000 0.0000 0.0000
# 4 0.0000 0.0000 0.0000 40.4571 0.0000 0.0000
# 5 0.0000 0.0000 0.0000 0.0000-5805.5950 0.0000
# 6 0.0000 0.0000 0.0000 0.0000 0.0000 18.2543
#
#
#
# Elastic Compliance Matrix: (Units=1/GPa)
#
#
# Indices 1 2 3 4 5 6 
#
# 1 0.016055 0.002151 -0.000603 0.000000 0.000000 0.000000
# 2 0.002151 0.015141 -0.002007 0.000000 0.000000 0.000000
# 3 -0.000603 -0.002007 0.003943 0.000000 0.000000 0.000000
# 4 0.000000 0.000000 0.000000 0.024718 0.000000 0.000000
# 5 0.000000 0.000000 0.000000 0.000000 -0.000172 0.000000
# 6 0.000000 0.000000 0.000000 0.000000 0.000000 0.054782
#
#
# Mechanical properties :
#
#
# Convention : Reuss Voigt Hill
#
# Bulk Modulus (GPa) = 29.22072 52.55016 40.88544
# Shear Modulus (GPa) = 39.43477 -1124.34935 -542.45729
#
# Velocity S-wave (km/s) = 3.88529 -20.74602 -14.41010
# Velocity P-wave (km/s) = 5.59580 23.53183 16.16221
#
# Compressibility (1/GPa) = 0.03422229
#
# Stress axis : x y z
#
# Youngs Moduli (GPa) = 62.28478 66.04477 253.59841
#
# Poissons Ratio (x) = -0.14205 0.15290
# Poissons Ratio (y) = -0.13397 0.50889
# Poissons Ratio (z) = 0.03755 0.13253
#
# Static dielectric constant tensor:
#      x y z
#    x 2.234870 0.000000 0.000000 
#    y 0.000000 2.086650 0.000000 
#    z 0.000000 0.000000 2.066300 
# 
# From -- ./inp_files/16086.got.cif
#   From: 2010.05.17/outbox.cif.g08.bks.cpg/sg55_9_cif.got.tgz:16086.got - 2010.06.03 13:27:54.
