data_PCOD9426932
_publ_section_title
;
Structure prediction by ZEFSAII (Michael W. Deem and Ramdas Pophale) SiO2 
 PCOD9426932
Probable space group: P B A M
;
_chemical_formula_sum "Si O2"
_cell_formula_units_Z 64
_cell_length_a 14.537244
_cell_length_b 25.153218
_cell_length_c 9.137538
_cell_angle_alpha 90.000000
_cell_angle_beta 90.000000
_cell_angle_gamma 90.000000
_cell_volume 3341.218141
_symmetry_space_group_name_H-M "P B A M"
_symmetry_group_IT_number 55
_symmetry_cell_setting 'orthorhombic'
loop_
_space_group_symop_operation_xyz
x,y,z
-x,-y,z
1/2+x,1/2-y,-z
1/2-x,1/2+y,-z
-x,-y,-z
x,y,-z
1/2-x,1/2+y,z
1/2+x,1/2-y,z
loop_
_atom_site_type_symbol
_atom_site_label
_atom_site_fract_x
_atom_site_fract_y
_atom_site_fract_z
Si Si1 0.553030 0.782056 0.830563
Si Si2 0.368908 0.623137 0.675479
Si Si3 0.251017 0.337898 0.173842
Si Si4 0.630881 0.056692 0.172554
Si Si5 0.054435 0.828031 0.324695
Si Si6 0.032936 0.608043 0.671887
Si Si7 0.224125 0.221566 0.168403
Si Si8 0.781490 0.456622 0.673135
O O1 0.525809 0.728429 0.746461
O O2 0.521464 0.836004 0.753661
O O3 0.664809 0.782541 0.827137
O O4 0.523481 0.780662 0.000000
O O5 0.361453 0.623707 0.500000
O O6 0.476042 0.629029 0.713253
O O7 0.319495 0.675671 0.735826
O O8 0.312349 0.571478 0.725031
O O9 0.187904 0.388884 0.194748
O O10 0.346394 0.342559 0.260220
O O11 0.203354 0.282031 0.216519
O O12 0.271862 0.332676 0.000000
O O13 0.535600 0.065376 0.257197
O O14 0.688055 0.007914 0.237436
O O15 0.614490 0.049522 0.000000
O O16 0.059436 0.822493 0.500000
O O17 0.013712 0.613840 0.500000
O O18 0.136862 0.586718 0.688374
O O19 0.194659 0.214539 0.000000
O O20 0.774842 0.469840 0.500000
#
# Coordination Sequence:
#
# PCOD9426932 Si02
#       8
#     8   8   8   8   8   8   8   8
#     4  10  20  35  55  83 120 156 189 233 285 342
#     4  10  21  37  57  85 118 150 190 239 288 340
#     4   9  21  41  58  81 116 153 192 241 294 344
#     4  11  24  40  60  85 115 152 198 246 292 348
#     4  10  21  36  58  87 117 153 195 240 291 347
#     4  11  22  37  59  86 117 156 195 236 289 348
#     4   9  18  33  55  81 111 149 188 228 284 342
#     4  10  22  41  60  82 117 154 192 239 289 344
#
# _framework density 19.154691
#
# number of rings (size 3 to 8) (size 9 to 14) (size 15 to 20)
#    0.000    2.000    1.250    2.625    1.750    7.000 
#    0.000    0.625    0.000    3.750    0.000    0.000 
#    0.000    0.000    0.000    0.000    0.000    0.000 
#
# Total GULP energy -357535.438342 kJ/mol
# GULP energy per Si atom -5586.491224 kJ/mol
# Density = 1.911109 g / cm^3
# Si number density = 19.154691 Si / 1000 Ang^3
#
#
#
# Elastic Constant Matrix: (Units=GPa)
#
#
# Indices 1 2 3 4 5 6 
#
# 1 26.8577 -0.8272 14.8642 0.0000 0.0000 0.0000
# 2 -0.8272 44.8964 24.7764 0.0000 0.0000 0.0000
# 3 14.8642 24.7764 51.2955 0.0000 0.0000 0.0000
# 4 0.0000 0.0000 0.0000 33.4173 0.0000 0.0000
# 5 0.0000 0.0000 0.0000 0.0000 21.8542 0.0000
# 6 0.0000 0.0000 0.0000 0.0000 0.0000 26.7643
#
#
#
# Elastic Compliance Matrix: (Units=1/GPa)
#
#
# Indices 1 2 3 4 5 6 
#
# 1 0.048535 0.011801 -0.019765 0.000000 0.000000 0.000000
# 2 0.011801 0.033238 -0.019474 0.000000 0.000000 0.000000
# 3 -0.019765 -0.019474 0.034628 0.000000 0.000000 0.000000
# 4 0.000000 0.000000 0.000000 0.029925 0.000000 0.000000
# 5 0.000000 0.000000 0.000000 0.000000 0.045758 0.000000
# 6 0.000000 0.000000 0.000000 0.000000 0.000000 0.037363
#
#
# Mechanical properties :
#
#
# Convention : Reuss Voigt Hill
#
# Bulk Modulus (GPa) = 16.25299 22.29737 19.27518
# Shear Modulus (GPa) = 16.40256 22.02290 19.21273
#
# Velocity S-wave (km/s) = 2.92947 3.39446 3.17050
# Velocity P-wave (km/s) = 4.46609 5.19895 4.84639
#
# Compressibility (1/GPa) = 0.06152715
#
# Stress axis : x y z
#
# Youngs Moduli (GPa) = 20.60357 30.08620 28.87805
#
# Poissons Ratio (x) = -0.35506 0.57076
# Poissons Ratio (y) = -0.24315 0.56237
# Poissons Ratio (z) = 0.40722 0.58590
#
# Static dielectric constant tensor:
#      x y z
#    x 1.692340 0.000000 0.000000 
#    y 0.000000 1.654780 0.000000 
#    z 0.000000 0.000000 1.639570 
# 
# From -- ./inp_files/6562.got.cif
#   From: 2010.05.17/outbox.cif.g08.bks.cpg/sg55_4_cif.got.tgz:6562.got - 2010.06.03 13:27:54.
