data_PCOD9426631
_publ_section_title
;
Structure prediction by ZEFSAII (Michael W. Deem and Ramdas Pophale) SiO2 
 PCOD9426631
Probable space group: P B A M
;
_chemical_formula_sum "Si O2"
_cell_formula_units_Z 64
_cell_length_a 22.013651
_cell_length_b 15.647831
_cell_length_c 7.798600
_cell_angle_alpha 90.000000
_cell_angle_beta 90.000000
_cell_angle_gamma 90.000000
_cell_volume 2686.351694
_symmetry_space_group_name_H-M "P B A M"
_symmetry_group_IT_number 55
_symmetry_cell_setting 'orthorhombic'
loop_
_space_group_symop_operation_xyz
x,y,z
-x,-y,z
1/2+x,1/2-y,-z
1/2-x,1/2+y,-z
-x,-y,-z
x,y,-z
1/2-x,1/2+y,z
1/2+x,1/2-y,z
loop_
_atom_site_type_symbol
_atom_site_label
_atom_site_fract_x
_atom_site_fract_y
_atom_site_fract_z
Si Si1 0.692135 0.572268 0.293390
Si Si2 0.854147 0.820580 0.793048
Si Si3 0.593279 0.148033 0.793125
Si Si4 0.930876 0.467801 0.688057
Si Si5 0.038294 0.704567 0.189470
Si Si6 0.164967 0.744498 0.701365
Si Si7 0.933013 0.975401 0.206082
Si Si8 0.735534 0.916131 0.696284
O O1 0.698865 0.574613 0.500000
O O2 0.694524 0.669116 0.225748
O O3 0.624784 0.533083 0.260343
O O4 0.743461 0.506676 0.224220
O O5 0.860294 0.721821 0.746685
O O6 0.913355 0.877954 0.751782
O O7 0.798380 0.864069 0.700381
O O8 0.845681 0.826213 0.000000
O O9 0.605986 0.053419 0.725709
O O10 0.527719 0.185662 0.731993
O O11 0.588139 0.141458 0.000000
O O12 0.916381 0.432411 0.500000
O O13 0.933428 0.390846 0.818203
O O14 0.000000 0.500000 0.684893
O O15 0.092214 0.754633 0.280148
O O16 0.029182 0.741503 0.000000
O O17 0.179627 0.741295 0.500000
O O18 0.189410 0.653895 0.773503
O O19 0.935367 0.981758 0.000000
O O20 0.000000 0.000000 0.272542
O O21 0.717142 0.933503 0.500000
#
# Coordination Sequence:
#
# PCOD9426631 Si02
#       8
#     8   8   8   8   8   8   8   8
#     4   9  19  36  56  77 105 141 178 224 278 325
#     4   9  18  33  52  76 106 139 175 221 266 315
#     4   9  18  32  51  76 110 144 176 217 267 323
#     4   9  17  31  50  72 103 140 176 214 258 309
#     4  10  20  33  53  79 109 143 178 218 271 324
#     4  10  21  37  56  79 108 141 181 231 278 325
#     4   9  18  31  52  79 110 143 176 214 263 324
#     4   9  19  38  57  74 103 140 182 226 273 325
#
# _framework density 23.824134000000001
#
# number of rings (size 3 to 8) (size 9 to 14) (size 15 to 20)
#    0.000    2.750    0.000    0.750    1.750    3.750 
#    2.250    0.000    0.000    0.000    0.000    0.000 
#    0.000    0.000    0.000    0.000    0.000    0.000 
#
# Total GULP energy -356891.132717 kJ/mol
# GULP energy per Si atom -5576.423949 kJ/mol
# Density = 2.376991 g / cm^3
# Si number density = 23.824134 Si / 1000 Ang^3
#
#
#
# Elastic Constant Matrix: (Units=GPa)
#
#
# Indices 1 2 3 4 5 6 
#
# 1 68.5492 -9.0999 -5.8258 0.0000 0.0000 0.0000
# 2 -9.0999 33.9557 -3.9476 0.0000 0.0000 0.0000
# 3 -5.8258 -3.9476 37.0168 0.0000 0.0000 0.0000
# 4 0.0000 0.0000 0.0000 11.5601 0.0000 0.0000
# 5 0.0000 0.0000 0.0000 0.0000 10.8571 0.0000
# 6 0.0000 0.0000 0.0000 0.0000 0.0000 21.2897
#
#
#
# Elastic Compliance Matrix: (Units=1/GPa)
#
#
# Indices 1 2 3 4 5 6 
#
# 1 0.015429 0.004473 0.002905 0.000000 0.000000 0.000000
# 2 0.004473 0.031116 0.004022 0.000000 0.000000 0.000000
# 3 0.002905 0.004022 0.027901 0.000000 0.000000 0.000000
# 4 0.000000 0.000000 0.000000 0.086505 0.000000 0.000000
# 5 0.000000 0.000000 0.000000 0.000000 0.092105 0.000000
# 6 0.000000 0.000000 0.000000 0.000000 0.000000 0.046971
#
#
# Mechanical properties :
#
#
# Convention : Reuss Voigt Hill
#
# Bulk Modulus (GPa) = 10.28321 11.30835 10.79578
# Shear Modulus (GPa) = 16.14766 19.30104 17.72435
#
# Velocity S-wave (km/s) = 2.60626 2.84940 2.73053
# Velocity P-wave (km/s) = 3.65820 3.94744 3.80557
#
# Compressibility (1/GPa) = 0.09724587
#
# Stress axis : x y z
#
# Youngs Moduli (GPa) = 64.81436 32.13744 35.84106
#
# Poissons Ratio (x) = -0.14374 -0.10412
# Poissons Ratio (y) = -0.28988 -0.14416
# Poissons Ratio (z) = -0.18830 -0.12926
#
# Static dielectric constant tensor:
#      x y z
#    x 1.950730 0.000000 0.000000 
#    y 0.000000 1.942340 0.000000 
#    z 0.000000 0.000000 1.888140 
# 
# From -- ./inp_files/9696.got.cif
#   From: 2010.05.17/outbox.cif.g08.bks.cpg/sg55_5_cif.got.tgz:9696.got - 2010.06.03 13:27:54.
