data_PCOD9426582
_publ_section_title
;
Structure prediction by ZEFSAII (Michael W. Deem and Ramdas Pophale) SiO2 
 PCOD9426582
Probable space group: P B A M
;
_chemical_formula_sum "Si O2"
_cell_formula_units_Z 56
_cell_length_a 23.671359
_cell_length_b 8.493645
_cell_length_c 13.460448
_cell_angle_alpha 90.000000
_cell_angle_beta 90.000000
_cell_angle_gamma 90.000000
_cell_volume 2706.305449
_symmetry_space_group_name_H-M "P B A M"
_symmetry_group_IT_number 55
_symmetry_cell_setting 'orthorhombic'
loop_
_space_group_symop_operation_xyz
x,y,z
-x,-y,z
1/2+x,1/2-y,-z
1/2-x,1/2+y,-z
-x,-y,-z
x,y,-z
1/2-x,1/2+y,z
1/2+x,1/2-y,z
loop_
_atom_site_type_symbol
_atom_site_label
_atom_site_fract_x
_atom_site_fract_y
_atom_site_fract_z
Si Si1 0.480769 0.681671 0.118088
Si Si2 0.797163 0.640327 0.386475
Si Si3 0.871306 0.668561 0.201374
Si Si4 0.775183 0.828657 0.883608
Si Si5 0.916269 0.314487 0.781050
Si Si6 0.673739 0.646638 0.117391
Si Si7 0.826043 0.270511 0.386209
O O1 0.500000 0.500000 0.125794
O O2 0.416867 0.711971 0.155345
O O3 0.518386 0.784325 0.195725
O O4 0.485068 0.727124 0.000000
O O5 0.806254 0.696473 0.500000
O O6 0.842893 0.707503 0.308308
O O7 0.807487 0.453436 0.383614
O O8 0.731725 0.676454 0.361599
O O9 0.816123 0.679924 0.131541
O O10 0.899213 0.496259 0.204136
O O11 0.714298 0.784760 0.842531
O O12 0.805126 0.981653 0.839769
O O13 0.768548 0.855093 0.000000
O O14 0.888693 0.200693 0.863094
O O15 0.881666 0.257423 0.683096
O O16 0.680967 0.637901 0.000000
O O17 0.840854 0.229713 0.500000
#
# Coordination Sequence:
#
# PCOD9426582 Si02
#       7
#     8   8   8   8   8   8   8
#     4  11  25  43  60  79 108 148 191 235 282 333
#     4   9  19  36  58  86 118 149 182 223 275 333
#     4  11  22  36  57  82 108 143 186 231 279 330
#     4  10  20  33  50  75 108 143 178 221 275 333
#     4  11  22  36  57  82 108 143 186 231 279 330
#     4  10  20  33  50  75 108 143 178 221 275 333
#     4   9  19  36  58  86 118 149 182 223 275 333
#
# _framework density 20.692416000000001
#
# number of rings (size 3 to 8) (size 9 to 14) (size 15 to 20)
#    0.000    1.857    0.000    3.857    0.000   10.857 
#    0.000    0.714    0.000    4.286    0.000    0.000 
#    0.000    0.000    0.000    0.000    0.000    0.000 
#
# Total GULP energy -312237.263611 kJ/mol
# GULP energy per Si atom -5575.665422 kJ/mol
# Density = 2.064532 g / cm^3
# Si number density = 20.692416 Si / 1000 Ang^3
#
#
#
# Elastic Constant Matrix: (Units=GPa)
#
#
# Indices 1 2 3 4 5 6 
#
# 1 87.9137 9.4988 19.8752 0.0000 0.0000 0.0000
# 2 9.4988 44.5166 18.8529 0.0000 0.0000 0.0000
# 3 19.8752 18.8529 111.4436 0.0000 0.0000 0.0000
# 4 0.0000 0.0000 0.0000 22.4377 0.0000 0.0000
# 5 0.0000 0.0000 0.0000 0.0000 29.5918 0.0000
# 6 0.0000 0.0000 0.0000 0.0000 0.0000 31.2732
#
#
#
# Elastic Compliance Matrix: (Units=1/GPa)
#
#
# Indices 1 2 3 4 5 6 
#
# 1 0.011982 -0.001779 -0.001836 0.000000 0.000000 0.000000
# 2 -0.001779 0.024461 -0.003821 0.000000 0.000000 0.000000
# 3 -0.001836 -0.003821 0.009947 0.000000 0.000000 0.000000
# 4 0.000000 0.000000 0.000000 0.044568 0.000000 0.000000
# 5 0.000000 0.000000 0.000000 0.000000 0.033793 0.000000
# 6 0.000000 0.000000 0.000000 0.000000 0.000000 0.031976
#
#
# Mechanical properties :
#
#
# Convention : Reuss Voigt Hill
#
# Bulk Modulus (GPa) = 31.72742 37.81418 34.77080
# Shear Modulus (GPa) = 27.45663 29.70370 28.58016
#
# Velocity S-wave (km/s) = 3.64661 3.79289 3.72047
# Velocity P-wave (km/s) = 5.75295 6.12335 5.94104
#
# Compressibility (1/GPa) = 0.03151847
#
# Stress axis : x y z
#
# Youngs Moduli (GPa) = 83.45789 40.88098 100.53343
#
# Poissons Ratio (x) = 0.07273 0.18457
# Poissons Ratio (y) = 0.14849 0.38412
# Poissons Ratio (z) = 0.15322 0.15620
#
# Static dielectric constant tensor:
#      x y z
#    x 1.726730 0.000000 0.000000 
#    y 0.000000 1.781930 0.000000 
#    z 0.000000 0.000000 1.787520 
# 
# From -- ./inp_files/19767.got.cif
#   From: 2010.05.17/outbox.cif.g08.bks.cpg/sg55_10_cif.got.tgz:19767.got - 2010.06.03 13:27:54.
