data_PCOD9426022
_publ_section_title
;
Structure prediction by ZEFSAII (Michael W. Deem and Ramdas Pophale) SiO2 
 PCOD9426022
Probable space group: P B A M
;
_chemical_formula_sum "Si O2"
_cell_formula_units_Z 48
_cell_length_a 9.365806
_cell_length_b 27.649227
_cell_length_c 8.375540
_cell_angle_alpha 90.000000
_cell_angle_beta 90.000000
_cell_angle_gamma 90.000000
_cell_volume 2168.907192
_symmetry_space_group_name_H-M "P B A M"
_symmetry_group_IT_number 55
_symmetry_cell_setting 'orthorhombic'
loop_
_space_group_symop_operation_xyz
x,y,z
-x,-y,z
1/2+x,1/2-y,-z
1/2-x,1/2+y,-z
-x,-y,-z
x,y,-z
1/2-x,1/2+y,z
1/2+x,1/2-y,z
loop_
_atom_site_type_symbol
_atom_site_label
_atom_site_fract_x
_atom_site_fract_y
_atom_site_fract_z
Si Si1 0.428881 0.814480 0.000000
Si Si2 0.065139 0.614146 0.748609
Si Si3 0.961008 0.111197 0.683565
Si Si4 0.800875 0.810660 0.676983
Si Si5 0.303739 0.936360 0.811445
Si Si6 0.688101 0.458901 0.179738
Si Si7 0.202457 0.743710 0.000000
O O1 0.476900 0.847617 0.145868
O O2 0.267627 0.796958 0.000000
O O3 0.534192 0.767714 0.000000
O O4 0.174611 0.649572 0.660413
O O5 0.176801 0.576991 0.826637
O O6 0.935565 0.579222 0.699621
O O7 0.914694 0.111846 0.500000
O O8 0.054087 0.159459 0.711864
O O9 0.070159 0.066790 0.712738
O O10 0.824747 0.101477 0.791811
O O11 0.814069 0.786698 0.500000
O O12 0.761222 0.779986 0.834113
O O13 0.241502 0.988765 0.767319
O O14 0.347998 0.939147 0.000000
O O15 0.629388 0.463018 0.000000
#
# Coordination Sequence:
#
# PCOD9426022 Si02
#       7
#     4   8   8   8   8   8   4
#     4  10  20  38  59  91 112 150 191 233 304 362
#     4  10  19  36  60  83 119 152 190 244 293 352
#     4  10  22  36  52  78 117 163 203 247 296 344
#     4   9  21  41  63  87 117 159 200 237 298 366
#     4  11  21  31  53  87 117 152 202 248 290 340
#     4  10  19  34  55  80 114 159 203 242 289 345
#     4  10  22  38  66  89 119 150 190 245 299 366
#
# _framework density 22.130960999999999
#
# number of rings (size 3 to 8) (size 9 to 14) (size 15 to 20)
#    0.000    2.000    1.667    1.500    4.667    6.000 
#    0.000    3.333    0.000    5.000    0.000    0.000 
#    0.000    0.000    0.000    0.000    0.000    0.000 
#
# Total GULP energy -267449.792501 kJ/mol
# GULP energy per Si atom -5571.870677 kJ/mol
# Density = 2.208059 g / cm^3
# Si number density = 22.130961 Si / 1000 Ang^3
#
#
#
# Elastic Constant Matrix: (Units=GPa)
#
#
# Indices 1 2 3 4 5 6 
#
# 1 69.1622 8.1091 0.5401 0.0000 0.0000 0.0000
# 2 8.1091 31.9686 10.9483 0.0000 0.0000 0.0000
# 3 0.5401 10.9483 63.0427 0.0000 0.0000 0.0000
# 4 0.0000 0.0000 0.0000 1.5038 0.0000 0.0000
# 5 0.0000 0.0000 0.0000 0.0000 33.3662 0.0000
# 6 0.0000 0.0000 0.0000 0.0000 0.0000 34.7093
#
#
#
# Elastic Compliance Matrix: (Units=1/GPa)
#
#
# Indices 1 2 3 4 5 6 
#
# 1 0.014921 -0.003978 0.000563 0.000000 0.000000 0.000000
# 2 -0.003978 0.034319 -0.005926 0.000000 0.000000 0.000000
# 3 0.000563 -0.005926 0.016887 0.000000 0.000000 0.000000
# 4 0.000000 0.000000 0.000000 0.664992 0.000000 0.000000
# 5 0.000000 0.000000 0.000000 0.000000 0.029970 0.000000
# 6 0.000000 0.000000 0.000000 0.000000 0.000000 0.028811
#
#
# Mechanical properties :
#
#
# Convention : Reuss Voigt Hill
#
# Bulk Modulus (GPa) = 21.07693 22.59651 21.83672
# Shear Modulus (GPa) = 6.06505 23.55424 14.80965
#
# Velocity S-wave (km/s) = 1.65725 3.26592 2.58966
# Velocity P-wave (km/s) = 3.63406 4.94511 4.33939
#
# Compressibility (1/GPa) = 0.04744524
#
# Stress axis : x y z
#
# Youngs Moduli (GPa) = 67.02090 29.13831 59.21862
#
# Poissons Ratio (x) = 0.11590 -0.03334
# Poissons Ratio (y) = 0.26658 0.35093
# Poissons Ratio (z) = -0.03773 0.17267
#
# Static dielectric constant tensor:
#      x y z
#    x 1.799870 0.000000 0.000000 
#    y 0.000000 1.815350 0.000000 
#    z 0.000000 0.000000 1.819120 
# 
# From -- ./inp_files/2963.got.cif
#   From: 2010.05.17/outbox.cif.g08.bks.cpg/sg55_2_cif.got.tgz:2963.got - 2010.06.03 13:27:54.
