data_PCOD9426102
_publ_section_title
;
Structure prediction by ZEFSAII (Michael W. Deem and Ramdas Pophale) SiO2 
 PCOD9426102
Probable space group: P B A M
;
_chemical_formula_sum "Si O2"
_cell_formula_units_Z 56
_cell_length_a 22.411648
_cell_length_b 15.004626
_cell_length_c 8.486834
_cell_angle_alpha 90.000000
_cell_angle_beta 90.000000
_cell_angle_gamma 90.000000
_cell_volume 2853.938927
_symmetry_space_group_name_H-M "P B A M"
_symmetry_group_IT_number 55
_symmetry_cell_setting 'orthorhombic'
loop_
_space_group_symop_operation_xyz
x,y,z
-x,-y,z
1/2+x,1/2-y,-z
1/2-x,1/2+y,-z
-x,-y,-z
x,y,-z
1/2-x,1/2+y,z
1/2+x,1/2-y,z
loop_
_atom_site_type_symbol
_atom_site_label
_atom_site_fract_x
_atom_site_fract_y
_atom_site_fract_z
Si Si1 0.115666 0.288537 0.312430
Si Si2 0.217646 0.410958 0.187724
Si Si3 0.386462 0.213695 0.810786
Si Si4 0.143575 0.904797 0.809017
Si Si5 0.722864 0.898251 0.686132
Si Si6 0.498490 0.102674 0.690476
Si Si7 0.856890 0.897753 0.187836
O O1 0.121761 0.296290 0.500000
O O2 0.174172 0.331428 0.234261
O O3 0.110642 0.185480 0.265881
O O4 0.058271 0.345302 0.260982
O O5 0.286465 0.393041 0.232295
O O6 0.199271 0.502431 0.273606
O O7 0.215643 0.425541 0.000000
O O8 0.391003 0.316755 0.756758
O O9 0.325227 0.172082 0.746324
O O10 0.441077 0.154278 0.753110
O O11 0.384143 0.212295 0.000000
O O12 0.124494 0.003301 0.755124
O O13 0.140904 0.907227 0.000000
O O14 0.732003 0.889104 0.500000
O O15 0.786444 0.889582 0.772323
O O16 0.496059 0.102918 0.500000
O O17 0.500000 0.000000 0.743316
O O18 0.864447 0.892964 0.000000
#
# Coordination Sequence:
#
# PCOD9426102 Si02
#       7
#     8   8   8   8   8   8   8
#     4  11  22  36  56  83 114 148 188 234 286 337
#     4  10  19  34  57  84 115 150 187 227 278 338
#     4  11  21  36  59  84 109 142 190 237 281 335
#     4   8  18  35  55  81 111 142 178 228 278 324
#     4  11  21  34  54  84 120 151 183 227 283 339
#     4  10  23  42  59  78 110 148 184 227 281 339
#     4  10  20  37  58  81 113 150 189 230 277 334
#
# _framework density 19.622004
#
# number of rings (size 3 to 8) (size 9 to 14) (size 15 to 20)
#    0.000    1.857    0.000    5.571    0.000    3.714 
#    0.000    8.571    0.000    4.286    0.000    0.000 
#    0.000    0.000    0.000    0.000    0.000    0.000 
#
# Total GULP energy -312864.541655 kJ/mol
# GULP energy per Si atom -5586.866815 kJ/mol
# Density = 1.957734 g / cm^3
# Si number density = 19.622004 Si / 1000 Ang^3
#
#
#
# Elastic Constant Matrix: (Units=GPa)
#
#
# Indices 1 2 3 4 5 6 
#
# 1 31.5440 46.4194 4.5301 0.0000 0.0000 0.0000
# 2 46.4194 171.4189 7.8489 0.0000 0.0000 0.0000
# 3 4.5301 7.8489 27.3474 0.0000 0.0000 0.0000
# 4 0.0000 0.0000 0.0000 20.4055 0.0000 0.0000
# 5 0.0000 0.0000 0.0000 0.0000 22.0067 0.0000
# 6 0.0000 0.0000 0.0000 0.0000 0.0000 33.7165
#
#
#
# Elastic Compliance Matrix: (Units=1/GPa)
#
#
# Indices 1 2 3 4 5 6 
#
# 1 0.053306 -0.014218 -0.004750 0.000000 0.000000 0.000000
# 2 -0.014218 0.009703 -0.000430 0.000000 0.000000 0.000000
# 3 -0.004750 -0.000430 0.037477 0.000000 0.000000 0.000000
# 4 0.000000 0.000000 0.000000 0.049006 0.000000 0.000000
# 5 0.000000 0.000000 0.000000 0.000000 0.045441 0.000000
# 6 0.000000 0.000000 0.000000 0.000000 0.000000 0.029659
#
#
# Mechanical properties :
#
#
# Convention : Reuss Voigt Hill
#
# Bulk Modulus (GPa) = 16.20952 38.65636 27.43294
# Shear Modulus (GPa) = 17.60869 26.65986 22.13428
#
# Velocity S-wave (km/s) = 2.99891 3.69002 3.36226
# Velocity P-wave (km/s) = 4.50223 6.15615 5.39297
#
# Compressibility (1/GPa) = 0.06169215
#
# Stress axis : x y z
#
# Youngs Moduli (GPa) = 18.75953 103.05663 26.68326
#
# Poissons Ratio (x) = 1.46522 0.12674
# Poissons Ratio (y) = 0.26672 0.01147
# Poissons Ratio (z) = 0.08910 0.04429
#
# Static dielectric constant tensor:
#      x y z
#    x 1.654540 0.000000 0.000000 
#    y 0.000000 1.716560 0.000000 
#    z 0.000000 0.000000 1.664760 
# 
# From -- ./inp_files/8746.got.cif
#   From: 2010.05.17/outbox.cif.g08.bks.cpg/sg55_5_cif.got.tgz:8746.got - 2010.06.03 13:27:54.
