data_PCOD9426319
_publ_section_title
;
Structure prediction by ZEFSAII (Michael W. Deem and Ramdas Pophale) SiO2 
 PCOD9426319
Probable space group: P B A M
;
_chemical_formula_sum "Si O2"
_cell_formula_units_Z 64
_cell_length_a 20.244112
_cell_length_b 10.102918
_cell_length_c 18.469629
_cell_angle_alpha 90.000000
_cell_angle_beta 90.000000
_cell_angle_gamma 90.000000
_cell_volume 3777.493548
_symmetry_space_group_name_H-M "P B A M"
_symmetry_group_IT_number 55
_symmetry_cell_setting 'orthorhombic'
loop_
_space_group_symop_operation_xyz
x,y,z
-x,-y,z
1/2+x,1/2-y,-z
1/2-x,1/2+y,-z
-x,-y,-z
x,y,-z
1/2-x,1/2+y,z
1/2+x,1/2-y,z
loop_
_atom_site_type_symbol
_atom_site_label
_atom_site_fract_x
_atom_site_fract_y
_atom_site_fract_z
Si Si1 0.430021 0.669938 0.915192
Si Si2 0.684444 0.759616 0.801693
Si Si3 0.062487 0.595856 0.585883
Si Si4 0.584204 0.645867 0.084032
Si Si5 0.824055 0.017040 0.691890
Si Si6 0.938956 0.093488 0.586570
Si Si7 0.171686 0.500538 0.697610
Si Si8 0.162774 0.238692 0.211282
O O1 0.412796 0.513539 0.907164
O O2 0.508185 0.684312 0.900391
O O3 0.387366 0.745504 0.855548
O O4 0.418247 0.704667 0.000000
O O5 0.636651 0.719518 0.866388
O O6 0.675518 0.648302 0.740467
O O7 0.666946 0.897896 0.764560
O O8 0.762314 0.760935 0.819574
O O9 0.077983 0.589003 0.500000
O O10 0.049114 0.750885 0.603334
O O11 0.122185 0.544197 0.635006
O O12 0.000000 0.500000 0.598788
O O13 0.596812 0.674654 0.000000
O O14 0.747689 0.993548 0.670733
O O15 0.845938 0.895935 0.743003
O O16 0.873720 0.041573 0.626439
O O17 0.931646 0.082833 0.500000
O O18 0.000000 0.000000 0.608781
O O19 0.156954 0.357516 0.731418
#
# Coordination Sequence:
#
# PCOD9426319 Si02
#       8
#     8   8   8   8   8   8   8   8
#     4   9  18  34  55  81 108 138 183 231 272 321
#     4  10  19  36  55  78 111 143 182 226 272 327
#     4  10  22  40  58  80 115 151 181 224 282 335
#     4   9  18  33  56  81 106 141 184 227 272 324
#     4  10  20  37  59  80 107 145 186 231 272 320
#     4  10  22  39  59  84 111 144 189 233 271 323
#     4  10  22  37  55  83 113 144 184 226 278 333
#     4  10  21  34  55  83 111 144 181 227 274 325
#
# _framework density 16.942450000000001
#
# number of rings (size 3 to 8) (size 9 to 14) (size 15 to 20)
#    0.000    2.250    2.500    0.750    1.750    3.000 
#    0.000    0.625    0.000    1.500    0.000    0.000 
#    0.000    0.000    0.000    0.000    0.000    0.000 
#
# Total GULP energy -356904.223337 kJ/mol
# GULP energy per Si atom -5576.628490 kJ/mol
# Density = 1.690389 g / cm^3
# Si number density = 16.942450 Si / 1000 Ang^3
#
#
#
# Elastic Constant Matrix: (Units=GPa)
#
#
# Indices 1 2 3 4 5 6 
#
# 1 97.2623 26.0553 69.4364 0.0000 0.0000 0.0000
# 2 26.0553 49.8171 19.6147 0.0000 0.0000 0.0000
# 3 69.4364 19.6147 61.9692 0.0000 0.0000 0.0000
# 4 0.0000 0.0000 0.0000 19.3945 0.0000 0.0000
# 5 0.0000 0.0000 0.0000 0.0000 58.2277 0.0000
# 6 0.0000 0.0000 0.0000 0.0000 0.0000 25.4751
#
#
#
# Elastic Compliance Matrix: (Units=1/GPa)
#
#
# Indices 1 2 3 4 5 6 
#
# 1 0.052417 -0.004901 -0.057183 0.000000 0.000000 0.000000
# 2 -0.004901 0.023389 -0.001912 0.000000 0.000000 0.000000
# 3 -0.057183 -0.001912 0.080815 0.000000 0.000000 0.000000
# 4 0.000000 0.000000 0.000000 0.051561 0.000000 0.000000
# 5 0.000000 0.000000 0.000000 0.000000 0.017174 0.000000
# 6 0.000000 0.000000 0.000000 0.000000 0.000000 0.039254
#
#
# Mechanical properties :
#
#
# Convention : Reuss Voigt Hill
#
# Bulk Modulus (GPa) = 34.92655 48.80682 41.86669
# Shear Modulus (GPa) = 12.43331 26.88226 19.65779
#
# Velocity S-wave (km/s) = 2.71192 3.98764 3.40997
# Velocity P-wave (km/s) = 5.51956 7.07613 6.34575
#
# Compressibility (1/GPa) = 0.02863151
#
# Stress axis : x y z
#
# Youngs Moduli (GPa) = 19.07764 42.75437 12.37390
#
# Poissons Ratio (x) = 0.20952 0.70757
# Poissons Ratio (y) = 0.09349 0.02366
# Poissons Ratio (z) = 1.09091 0.08176
#
# Static dielectric constant tensor:
#      x y z
#    x 1.567120 0.000000 0.000000 
#    y 0.000000 1.572150 0.000000 
#    z 0.000000 0.000000 1.544580 
# 
# From -- ./inp_files/23069.got.cif
#   From: 2010.05.17/outbox.cif.g08.bks.cpg/sg55_12_cif.got.tgz:23069.got - 2010.06.03 13:27:54.
