data_PCOD9426670
_publ_section_title
;
Structure prediction by ZEFSAII (Michael W. Deem and Ramdas Pophale) SiO2 
 PCOD9426670
Probable space group: P B A M
;
_chemical_formula_sum "Si O2"
_cell_formula_units_Z 58
_cell_length_a 29.569247
_cell_length_b 12.049727
_cell_length_c 7.597508
_cell_angle_alpha 90.000000
_cell_angle_beta 90.000000
_cell_angle_gamma 90.000000
_cell_volume 2707.002387
_symmetry_space_group_name_H-M "P B A M"
_symmetry_group_IT_number 55
_symmetry_cell_setting 'orthorhombic'
loop_
_space_group_symop_operation_xyz
x,y,z
-x,-y,z
1/2+x,1/2-y,-z
1/2-x,1/2+y,-z
-x,-y,-z
x,y,-z
1/2-x,1/2+y,z
1/2+x,1/2-y,z
loop_
_atom_site_type_symbol
_atom_site_label
_atom_site_fract_x
_atom_site_fract_y
_atom_site_fract_z
Si Si1 0.791220 0.317354 0.785182
Si Si2 0.190294 0.134260 0.211565
Si Si3 0.610324 0.206515 0.702566
Si Si4 0.932800 0.238538 0.786242
Si Si5 0.029052 0.144117 0.201323
Si Si6 0.653980 0.602005 0.785097
Si Si7 0.121219 0.549336 0.212313
Si Si8 0.000000 0.000000 0.500000
O O1 0.741192 0.346601 0.722715
O O2 0.808994 0.195115 0.735197
O O3 0.829820 0.404587 0.729399
O O4 0.790585 0.318765 0.000000
O O5 0.157963 0.237317 0.250990
O O6 0.167631 0.019964 0.276567
O O7 0.193139 0.124392 0.000000
O O8 0.601081 0.226682 0.500000
O O9 0.570435 0.270843 0.800194
O O10 0.611639 0.075556 0.734402
O O11 0.894427 0.151165 0.728879
O O12 0.915714 0.359767 0.728499
O O13 0.983062 0.205168 0.733175
O O14 0.932906 0.238871 0.000000
O O15 0.033929 0.047486 0.342846
O O16 0.023584 0.105712 0.000000
O O17 0.652565 0.599246 0.000000
O O18 0.121430 0.552186 0.000000
#
# Coordination Sequence:
#
# PCOD9426670 Si02
#       8
#     8   8   8   8   8   8   8   2
#     4   8  16  31  57  91 117 147 200 259 313 379
#     4  10  20  33  58  87 116 158 204 256 319 383
#     4  12  26  42  55  88 129 168 213 268 323 389
#     4   8  17  35  62  91 119 161 211 260 313 377
#     4  11  24  44  68  95 130 174 218 267 326 380
#     4   8  15  29  52  87 119 142 189 254 306 367
#     4   9  18  38  65  91 122 159 210 269 322 385
#     4  12  26  44  64 100 132 168 218 260 314 394
#
# _framework density 21.425913999999999
#
# number of rings (size 3 to 8) (size 9 to 14) (size 15 to 20)
#    0.000    2.483    0.690    3.103    3.862    0.552 
#    1.241    3.448    0.000    0.828    0.000    0.000 
#    0.000    0.000    0.000    0.000    0.000    0.000 
#
# Total GULP energy -323448.897314 kJ/mol
# GULP energy per Si atom -5576.705126 kJ/mol
# Density = 2.137715 g / cm^3
# Si number density = 21.425914 Si / 1000 Ang^3
#
#
#
# Elastic Constant Matrix: (Units=GPa)
#
#
# Indices 1 2 3 4 5 6 
#
# 1 99.5299 36.1152 14.6030 0.0000 0.0000 0.0000
# 2 36.1152 93.6101 6.2933 0.0000 0.0000 0.0000
# 3 14.6030 6.2933 71.7641 0.0000 0.0000 0.0000
# 4 0.0000 0.0000 0.0000 32.9613 0.0000 0.0000
# 5 0.0000 0.0000 0.0000 0.0000 22.0036 0.0000
# 6 0.0000 0.0000 0.0000 0.0000 0.0000 21.7497
#
#
#
# Elastic Compliance Matrix: (Units=1/GPa)
#
#
# Indices 1 2 3 4 5 6 
#
# 1 0.011973 -0.004482 -0.002043 0.000000 0.000000 0.000000
# 2 -0.004482 0.012424 -0.000177 0.000000 0.000000 0.000000
# 3 -0.002043 -0.000177 0.014366 0.000000 0.000000 0.000000
# 4 0.000000 0.000000 0.000000 0.030339 0.000000 0.000000
# 5 0.000000 0.000000 0.000000 0.000000 0.045447 0.000000
# 6 0.000000 0.000000 0.000000 0.000000 0.000000 0.045978
#
#
# Mechanical properties :
#
#
# Convention : Reuss Voigt Hill
#
# Bulk Modulus (GPa) = 39.43637 42.10302 40.76969
# Shear Modulus (GPa) = 27.41462 29.20242 28.30852
#
# Velocity S-wave (km/s) = 3.58090 3.69582 3.63881
# Velocity P-wave (km/s) = 5.96180 6.15673 6.06004
#
# Compressibility (1/GPa) = 0.02535731
#
# Stress axis : x y z
#
# Youngs Moduli (GPa) = 83.51874 80.49125 69.60926
#
# Poissons Ratio (x) = 0.36076 0.14224
# Poissons Ratio (y) = 0.37433 0.01235
# Poissons Ratio (z) = 0.17066 0.01428
#
# Static dielectric constant tensor:
#      x y z
#    x 1.800980 0.000000 0.000000 
#    y 0.000000 1.775780 0.000000 
#    z 0.000000 0.000000 2.058600 
# 
# From -- ./inp_files/10705.got.cif
#   From: 2010.05.17/outbox.cif.g08.bks.cpg/sg55_6_cif.got.tgz:10705.got - 2010.06.03 13:27:54.
