data_PCOD9426109
_publ_section_title
;
Structure prediction by ZEFSAII (Michael W. Deem and Ramdas Pophale) SiO2 
 PCOD9426109
Probable space group: P B A M
;
_chemical_formula_sum "Si O2"
_cell_formula_units_Z 56
_cell_length_a 19.732242
_cell_length_b 18.083780
_cell_length_c 8.749591
_cell_angle_alpha 90.000000
_cell_angle_beta 90.000000
_cell_angle_gamma 90.000000
_cell_volume 3122.147383
_symmetry_space_group_name_H-M "P B A M"
_symmetry_group_IT_number 55
_symmetry_cell_setting 'orthorhombic'
loop_
_space_group_symop_operation_xyz
x,y,z
-x,-y,z
1/2+x,1/2-y,-z
1/2-x,1/2+y,-z
-x,-y,-z
x,y,-z
1/2-x,1/2+y,z
1/2+x,1/2-y,z
loop_
_atom_site_type_symbol
_atom_site_label
_atom_site_fract_x
_atom_site_fract_y
_atom_site_fract_z
Si Si1 0.835226 0.473071 0.314997
Si Si2 0.382105 0.716154 0.183479
Si Si3 0.899766 0.627659 0.683945
Si Si4 0.427475 0.464073 0.683011
Si Si5 0.689574 0.432515 0.816453
Si Si6 0.460462 0.308465 0.182787
Si Si7 0.555693 0.848750 0.315605
O O1 0.831142 0.473614 0.500000
O O2 0.862040 0.553558 0.265010
O O3 0.762468 0.454223 0.247315
O O4 0.890046 0.410638 0.271737
O O5 0.368709 0.796325 0.253748
O O6 0.332628 0.650300 0.232186
O O7 0.459393 0.693691 0.225260
O O8 0.379825 0.722180 0.000000
O O9 0.897869 0.629400 0.500000
O O10 0.979285 0.627168 0.728972
O O11 0.500000 0.500000 0.726849
O O12 0.421966 0.465917 0.500000
O O13 0.367449 0.511589 0.755588
O O14 0.427522 0.380078 0.741569
O O15 0.689791 0.434520 0.000000
O O16 0.430886 0.230902 0.241513
O O17 0.455495 0.313284 0.000000
O O18 0.556649 0.841314 0.500000
#
# Coordination Sequence:
#
# PCOD9426109 Si02
#       7
#     8   8   8   8   8   8   8
#     4  10  21  38  57  83 116 150 190 236 284 337
#     4   9  19  35  55  80 110 144 183 227 277 333
#     4   9  18  34  60  87 110 143 189 235 281 333
#     4  11  22  36  59  86 111 143 187 235 281 334
#     4  11  23  39  57  79 113 155 192 230 282 340
#     4  10  19  34  57  85 115 144 182 230 280 333
#     4   9  18  35  59  85 114 148 187 235 286 334
#
# _framework density 17.936373
#
# number of rings (size 3 to 8) (size 9 to 14) (size 15 to 20)
#    0.000    2.143    1.429    1.714    0.000    5.143 
#    2.571    0.000    0.000    4.286    0.000    0.000 
#    0.000    0.000    0.000    0.000    0.000    0.000 
#
# Total GULP energy -312643.913846 kJ/mol
# GULP energy per Si atom -5582.927033 kJ/mol
# Density = 1.789555 g / cm^3
# Si number density = 17.936373 Si / 1000 Ang^3
#
#
#
# Elastic Constant Matrix: (Units=GPa)
#
#
# Indices 1 2 3 4 5 6 
#
# 1 116.1883 107.1059 35.6366 0.0000 0.0000 0.0000
# 2 107.1059 202.7456 45.9662 0.0000 0.0000 0.0000
# 3 35.6366 45.9662 23.8866 0.0000 0.0000 0.0000
# 4 0.0000 0.0000 0.0000-6342.3881 0.0000 0.0000
# 5 0.0000 0.0000 0.0000 0.0000 23.3442 0.0000
# 6 0.0000 0.0000 0.0000 0.0000 0.0000 17.0593
#
#
#
# Elastic Compliance Matrix: (Units=1/GPa)
#
#
# Indices 1 2 3 4 5 6 
#
# 1 0.019987 -0.006738 -0.016852 0.000000 0.000000 0.000000
# 2 -0.006738 0.011021 -0.011156 0.000000 0.000000 0.000000
# 3 -0.016852 -0.011156 0.088475 0.000000 0.000000 0.000000
# 4 0.000000 0.000000 0.000000 -0.000158 0.000000 0.000000
# 5 0.000000 0.000000 0.000000 0.000000 0.042837 0.000000
# 6 0.000000 0.000000 0.000000 0.000000 0.000000 0.058619
#
#
# Mechanical properties :
#
#
# Convention : Reuss Voigt Hill
#
# Bulk Modulus (GPa) = 20.00403 80.02643 50.01523
# Shear Modulus (GPa) = 16.28998 -1250.12280 -616.91641
#
# Velocity S-wave (km/s) = 3.01692 -26.42895 -18.56593
# Velocity P-wave (km/s) = 4.82833 29.77592 20.77610
#
# Compressibility (1/GPa) = 0.04998993
#
# Stress axis : x y z
#
# Youngs Moduli (GPa) = 50.03339 90.73590 11.30263
#
# Poissons Ratio (x) = 0.61135 0.19048
# Poissons Ratio (y) = 0.33711 0.12609
# Poissons Ratio (z) = 0.84318 1.01227
#
# Static dielectric constant tensor:
#      x y z
#    x 1.589410 0.000000 0.000000 
#    y 0.000000 1.600150 0.000000 
#    z 0.000000 0.000000 1.602470 
# 
# From -- ./inp_files/6167.got.cif
#   From: 2010.05.17/outbox.cif.g08.bks.cpg/sg55_4_cif.got.tgz:6167.got - 2010.06.03 13:27:54.
