data_PCOD9426404
_publ_section_title
;
Structure prediction by ZEFSAII (Michael W. Deem and Ramdas Pophale) SiO2 
 PCOD9426404
Probable space group: P B A M
;
_chemical_formula_sum "Si O2"
_cell_formula_units_Z 64
_cell_length_a 15.558216
_cell_length_b 7.593383
_cell_length_c 23.681332
_cell_angle_alpha 90.000000
_cell_angle_beta 90.000000
_cell_angle_gamma 90.000000
_cell_volume 2797.700553
_symmetry_space_group_name_H-M "P B A M"
_symmetry_group_IT_number 55
_symmetry_cell_setting 'orthorhombic'
loop_
_space_group_symop_operation_xyz
x,y,z
-x,-y,z
1/2+x,1/2-y,-z
1/2-x,1/2+y,-z
-x,-y,-z
x,y,-z
1/2-x,1/2+y,z
1/2+x,1/2-y,z
loop_
_atom_site_type_symbol
_atom_site_label
_atom_site_fract_x
_atom_site_fract_y
_atom_site_fract_z
Si Si1 0.125074 0.719648 0.233341
Si Si2 0.637817 0.189497 0.110335
Si Si3 0.814801 0.312055 0.933853
Si Si4 0.964420 0.188866 0.869777
Si Si5 0.522908 0.288798 0.564762
Si Si6 0.818443 0.870237 0.227042
Si Si7 0.368898 0.226147 0.640165
Si Si8 0.326801 0.640907 0.354748
O O1 0.054498 0.695417 0.185592
O O2 0.215249 0.625123 0.221195
O O3 0.099919 0.675063 0.297097
O O4 0.147126 0.929743 0.227850
O O5 0.714614 0.283608 0.076911
O O6 0.540353 0.229720 0.093124
O O7 0.647034 0.255724 0.175106
O O8 0.656490 0.987960 0.097642
O O9 0.875556 0.168410 0.903766
O O10 0.831524 0.320712 0.000000
O O11 0.000000 0.000000 0.852211
O O12 0.500000 0.500000 0.564945
O O13 0.535860 0.236857 0.500000
O O14 0.441412 0.195283 0.593765
O O15 0.608026 0.264469 0.602714
O O16 0.835631 0.794245 0.289891
O O17 0.273807 0.150624 0.629562
O O18 0.353349 0.436575 0.644072
#
# Coordination Sequence:
#
# PCOD9426404 Si02
#       8
#     8   8   8   8   8   8   8   8
#     4  10  20  36  60  93 124 159 201 257 319 377
#     4  12  24  43  69  94 125 163 207 259 315 374
#     4  12  28  49  69  93 127 167 209 255 311 374
#     4  12  25  41  67  99 125 162 208 257 314 380
#     4   9  18  33  55  84 119 164 211 247 295 370
#     4  10  19  36  62  89 126 157 200 253 318 373
#     4   9  19  34  57  83 120 158 204 250 310 358
#     4   9  19  34  56  87 117 159 200 257 303 362
#
# _framework density 22.875927999999998
#
# number of rings (size 3 to 8) (size 9 to 14) (size 15 to 20)
#    0.000    1.625    2.500    2.250    1.750    2.750 
#    0.000    0.625    0.000    0.750    0.000    0.000 
#    0.000    0.000    0.000    0.000    0.000    0.000 
#
# Total GULP energy -357927.876745 kJ/mol
# GULP energy per Si atom -5592.623074 kJ/mol
# Density = 2.282386 g / cm^3
# Si number density = 22.875928 Si / 1000 Ang^3
#
#
#
# Elastic Constant Matrix: (Units=GPa)
#
#
# Indices 1 2 3 4 5 6 
#
# 1 99.5265 9.5246 48.1118 0.0000 0.0000 0.0000
# 2 9.5246 21.0236 3.4166 0.0000 0.0000 0.0000
# 3 48.1118 3.4166 126.8327 0.0000 0.0000 0.0000
# 4 0.0000 0.0000 0.0000 11.1410 0.0000 0.0000
# 5 0.0000 0.0000 0.0000 0.0000 12.8242 0.0000
# 6 0.0000 0.0000 0.0000 0.0000 0.0000 33.2515
#
#
#
# Elastic Compliance Matrix: (Units=1/GPa)
#
#
# Indices 1 2 3 4 5 6 
#
# 1 0.012814 -0.005037 -0.004725 0.000000 0.000000 0.000000
# 2 -0.005037 0.049755 0.000571 0.000000 0.000000 0.000000
# 3 -0.004725 0.000571 0.009661 0.000000 0.000000 0.000000
# 4 0.000000 0.000000 0.000000 0.089759 0.000000 0.000000
# 5 0.000000 0.000000 0.000000 0.000000 0.077978 0.000000
# 6 0.000000 0.000000 0.000000 0.000000 0.000000 0.030074
#
#
# Mechanical properties :
#
#
# Convention : Reuss Voigt Hill
#
# Bulk Modulus (GPa) = 18.57125 41.05430 29.81277
# Shear Modulus (GPa) = 16.31998 23.86532 20.09265
#
# Velocity S-wave (km/s) = 2.67388 3.23344 2.96688
# Velocity P-wave (km/s) = 4.20341 5.65028 4.97968
#
# Compressibility (1/GPa) = 0.05384668
#
# Stress axis : x y z
#
# Youngs Moduli (GPa) = 78.04141 20.09845 103.50498
#
# Poissons Ratio (x) = 0.10124 0.48906
# Poissons Ratio (y) = 0.39312 -0.05905
# Poissons Ratio (z) = 0.36874 -0.01147
#
# Static dielectric constant tensor:
#      x y z
#    x 1.881360 0.000000 0.000000 
#    y 0.000000 1.904290 0.000000 
#    z 0.000000 0.000000 1.823800 
# 
# From -- ./inp_files/23626.got.cif
#   From: 2010.05.17/outbox.cif.g08.bks.cpg/sg55_12_cif.got.tgz:23626.got - 2010.06.03 13:27:54.
