data_PCOD9426846
_publ_section_title
;
Structure prediction by ZEFSAII (Michael W. Deem and Ramdas Pophale) SiO2 
 PCOD9426846
Probable space group: P B A M
;
_chemical_formula_sum "Si O2"
_cell_formula_units_Z 56
_cell_length_a 9.485059
_cell_length_b 21.924761
_cell_length_c 13.810858
_cell_angle_alpha 90.000000
_cell_angle_beta 90.000000
_cell_angle_gamma 90.000000
_cell_volume 2872.073597
_symmetry_space_group_name_H-M "P B A M"
_symmetry_group_IT_number 55
_symmetry_cell_setting 'orthorhombic'
loop_
_space_group_symop_operation_xyz
x,y,z
-x,-y,z
1/2+x,1/2-y,-z
1/2-x,1/2+y,-z
-x,-y,-z
x,y,-z
1/2-x,1/2+y,z
1/2+x,1/2-y,z
loop_
_atom_site_type_symbol
_atom_site_label
_atom_site_fract_x
_atom_site_fract_y
_atom_site_fract_z
Si Si1 0.325564 0.683168 0.385743
Si Si2 0.419804 0.564071 0.889323
Si Si3 0.566975 0.160846 0.108605
Si Si4 0.560921 0.762261 0.718627
Si Si5 0.659474 0.633422 0.216652
Si Si6 0.117781 0.542923 0.110750
Si Si7 0.464595 0.429483 0.386437
O O1 0.300508 0.690067 0.500000
O O2 0.177159 0.693625 0.330671
O O3 0.439926 0.734007 0.350940
O O4 0.404521 0.617823 0.370801
O O5 0.500000 0.500000 0.891059
O O6 0.517646 0.612430 0.837115
O O7 0.269480 0.549825 0.842067
O O8 0.395857 0.584662 0.000000
O O9 0.515922 0.207910 0.189443
O O10 0.708168 0.127501 0.146329
O O11 0.447971 0.109416 0.103551
O O12 0.588883 0.186018 0.000000
O O13 0.647309 0.703612 0.754762
O O14 0.657625 0.593898 0.314746
O O15 0.000000 0.500000 0.157342
O O16 0.141334 0.518279 0.000000
O O17 0.500000 0.500000 0.365200
O O18 0.426931 0.424852 0.500000
#
# Coordination Sequence:
#
# PCOD9426846 Si02
#       7
#     8   8   8   8   8   8   8
#     4  10  21  41  68  93 124 161 205 265 322 389
#     4  10  20  34  57  86 115 155 210 259 303 367
#     4  11  24  40  56  82 126 167 206 263 316 365
#     4  11  23  41  59  93 122 162 215 254 314 389
#     4  11  22  38  60  87 121 165 214 258 308 389
#     4   9  19  35  55  80 114 158 203 252 309 362
#     4   9  20  39  66  99 128 157 203 269 336 387
#
# _framework density 19.498107000000001
#
# number of rings (size 3 to 8) (size 9 to 14) (size 15 to 20)
#    0.000    1.857    1.429    2.143    4.000    4.000 
#    0.000    0.000    0.000    0.000    0.000    3.000 
#    0.000    0.000    0.000    0.000    0.000    0.000 
#
# Total GULP energy -312400.881250 kJ/mol
# GULP energy per Si atom -5578.587165 kJ/mol
# Density = 1.945373 g / cm^3
# Si number density = 19.498107 Si / 1000 Ang^3
#
#
#
# Elastic Constant Matrix: (Units=GPa)
#
#
# Indices 1 2 3 4 5 6 
#
# 1 122.9532 25.2230 47.3418 0.0000 0.0000 0.0000
# 2 25.2230 82.7842 39.0676 0.0000 0.0000 0.0000
# 3 47.3418 39.0676 112.6390 0.0000 0.0000 0.0000
# 4 0.0000 0.0000 0.0000 29.3348 0.0000 0.0000
# 5 0.0000 0.0000 0.0000 0.0000 34.8670 0.0000
# 6 0.0000 0.0000 0.0000 0.0000 0.0000 21.3318
#
#
#
# Elastic Compliance Matrix: (Units=1/GPa)
#
#
# Indices 1 2 3 4 5 6 
#
# 1 0.009810 -0.001247 -0.003691 0.000000 0.000000 0.000000
# 2 -0.001247 0.014602 -0.004540 0.000000 0.000000 0.000000
# 3 -0.003691 -0.004540 0.012004 0.000000 0.000000 0.000000
# 4 0.000000 0.000000 0.000000 0.034089 0.000000 0.000000
# 5 0.000000 0.000000 0.000000 0.000000 0.028680 0.000000
# 6 0.000000 0.000000 0.000000 0.000000 0.000000 0.046878
#
#
# Mechanical properties :
#
#
# Convention : Reuss Voigt Hill
#
# Bulk Modulus (GPa) = 57.27472 60.18236 58.72854
# Shear Modulus (GPa) = 29.26704 30.88965 30.07834
#
# Velocity S-wave (km/s) = 3.87850 3.98457 3.93189
# Velocity P-wave (km/s) = 7.03529 7.21816 7.12731
#
# Compressibility (1/GPa) = 0.01745971
#
# Stress axis : x y z
#
# Youngs Moduli (GPa) = 101.93627 68.48214 83.30679
#
# Poissons Ratio (x) = 0.08542 0.30744
# Poissons Ratio (y) = 0.12715 0.37825
# Poissons Ratio (z) = 0.37620 0.31094
#
# Static dielectric constant tensor:
#      x y z
#    x 1.731200 0.000000 0.000000 
#    y 0.000000 1.676910 0.000000 
#    z 0.000000 0.000000 1.725180 
# 
# From -- ./inp_files/17654.got.cif
#   From: 2010.05.17/outbox.cif.g08.bks.cpg/sg55_9_cif.got.tgz:17654.got - 2010.06.03 13:27:54.
