data_PCOD9426573
_publ_section_title
;
Structure prediction by ZEFSAII (Michael W. Deem and Ramdas Pophale) SiO2 
 PCOD9426573
Probable space group: P B A M
;
_chemical_formula_sum "Si O2"
_cell_formula_units_Z 64
_cell_length_a 18.129155
_cell_length_b 19.962139
_cell_length_c 7.612240
_cell_angle_alpha 90.000000
_cell_angle_beta 90.000000
_cell_angle_gamma 90.000000
_cell_volume 2754.844627
_symmetry_space_group_name_H-M "P B A M"
_symmetry_group_IT_number 55
_symmetry_cell_setting 'orthorhombic'
loop_
_space_group_symop_operation_xyz
x,y,z
-x,-y,z
1/2+x,1/2-y,-z
1/2-x,1/2+y,-z
-x,-y,-z
x,y,-z
1/2-x,1/2+y,z
1/2+x,1/2-y,z
loop_
_atom_site_type_symbol
_atom_site_label
_atom_site_fract_x
_atom_site_fract_y
_atom_site_fract_z
Si Si1 0.774190 0.550539 0.215814
Si Si2 0.000588 0.904772 0.204719
Si Si3 0.718015 0.801755 0.708006
Si Si4 0.877429 0.989444 0.785907
Si Si5 0.583719 0.724075 0.700224
Si Si6 0.989935 0.647554 0.214496
Si Si7 0.174188 0.309087 0.788848
Si Si8 0.624990 0.934616 0.208298
O O1 0.702040 0.510885 0.278091
O O2 0.775067 0.628088 0.270319
O O3 0.842754 0.504780 0.275123
O O4 0.775062 0.551473 0.000000
O O5 0.033100 0.831993 0.217737
O O6 0.918559 0.921312 0.272136
O O7 0.063651 0.954544 0.272850
O O8 0.996099 0.921352 0.000000
O O9 0.707288 0.805420 0.500000
O O10 0.661211 0.745753 0.783633
O O11 0.796628 0.764931 0.736753
O O12 0.686571 0.874233 0.770296
O O13 0.869734 0.989740 0.000000
O O14 0.596577 0.703166 0.500000
O O15 0.537028 0.790992 0.713686
O O16 0.043331 0.586382 0.271989
O O17 0.906618 0.664591 0.268958
O O18 0.989552 0.647079 0.000000
O O19 0.172937 0.307495 0.000000
O O20 0.617364 0.942709 0.000000
#
# Coordination Sequence:
#
# PCOD9426573 Si02
#       8
#     8   8   8   8   8   8   8   8
#     4   9  17  30  51  78 104 131 169 217 263 307
#     4   9  16  28  48  71  98 132 166 203 248 302
#     4  10  21  36  53  75 105 139 174 213 257 307
#     4   8  15  27  44  70 100 129 163 202 249 304
#     4  10  20  33  50  72  99 132 168 207 253 301
#     4   9  19  34  51  74 101 130 168 210 254 305
#     4  10  20  34  55  81 105 132 170 215 260 308
#     4   9  18  34  55  77 104 138 173 213 261 309
#
# _framework density 23.231798999999999
#
# number of rings (size 3 to 8) (size 9 to 14) (size 15 to 20)
#    0.000    2.750    0.000    2.250    0.000    4.500 
#    0.000    6.875    0.000    1.500    0.000    4.375 
#    0.000    0.000    0.000    0.000    0.000    0.000 
#
# Total GULP energy -356353.380324 kJ/mol
# GULP energy per Si atom -5568.021568 kJ/mol
# Density = 2.317892 g / cm^3
# Si number density = 23.231799 Si / 1000 Ang^3
#
#
#
# Elastic Constant Matrix: (Units=GPa)
#
#
# Indices 1 2 3 4 5 6 
#
# 1 55.0905 -17.8606 -5.6896 0.0000 0.0000 0.0000
# 2 -17.8606 34.7273 -14.4333 0.0000 0.0000 0.0000
# 3 -5.6896 -14.4333 42.1224 0.0000 0.0000 0.0000
# 4 0.0000 0.0000 0.0000 43.4785 0.0000 0.0000
# 5 0.0000 0.0000 0.0000 0.0000 -0.0070 0.0000
# 6 0.0000 0.0000 0.0000 0.0000 0.0000 20.8450
#
#
#
# Elastic Compliance Matrix: (Units=1/GPa)
#
#
# Indices 1 2 3 4 5 6 
#
# 1 0.024304 0.016167 0.008822 0.000000 0.000000 0.000000
# 2 0.016167 0.044331 0.017374 0.000000 0.000000 0.000000
# 3 0.008822 0.017374 0.030885 0.000000 0.000000 0.000000
# 4 0.000000 0.000000 0.000000 0.023000 0.000000 0.000000
# 5 0.000000 0.000000 0.000000 0.000000********** 0.000000
# 6 0.000000 0.000000 0.000000 0.000000 0.000000 0.047973
#
#
# Mechanical properties :
#
#
# Convention : Reuss Voigt Hill
#
# Bulk Modulus (GPa) = 5.42747 6.21924 5.82336
# Shear Modulus (GPa) = -0.03505 24.19155 12.07825
#
# Velocity S-wave (km/s) = -0.12297 3.23044 2.28261
# Velocity P-wave (km/s) = 1.52353 4.07396 3.07557
#
# Compressibility (1/GPa) = 0.18424775
#
# Stress axis : x y z
#
# Youngs Moduli (GPa) = 41.14470 22.55734 32.37792
#
# Poissons Ratio (x) = -0.36468 -0.28565
# Poissons Ratio (y) = -0.66518 -0.56253
# Poissons Ratio (z) = -0.36300 -0.39191
#
# Static dielectric constant tensor:
#      x y z
#    x 1.968960 0.000000 0.000000 
#    y 0.000000 1.974600 0.000000 
#    z 0.000000 0.000000 1.899300 
# 
# From -- ./inp_files/7952.got.cif
#   From: 2010.05.17/outbox.cif.g08.bks.cpg/sg55_4_cif.got.tgz:7952.got - 2010.06.03 13:27:54.
