data_PCOD9426917
_publ_section_title
;
Structure prediction by ZEFSAII (Michael W. Deem and Ramdas Pophale) SiO2 
 PCOD9426917
Probable space group: P B A M
;
_chemical_formula_sum "Si O2"
_cell_formula_units_Z 56
_cell_length_a 19.304095
_cell_length_b 16.215641
_cell_length_c 9.108741
_cell_angle_alpha 90.000000
_cell_angle_beta 90.000000
_cell_angle_gamma 90.000000
_cell_volume 2851.293477
_symmetry_space_group_name_H-M "P B A M"
_symmetry_group_IT_number 55
_symmetry_cell_setting 'orthorhombic'
loop_
_space_group_symop_operation_xyz
x,y,z
-x,-y,z
1/2+x,1/2-y,-z
1/2-x,1/2+y,-z
-x,-y,-z
x,y,-z
1/2-x,1/2+y,z
1/2+x,1/2-y,z
loop_
_atom_site_type_symbol
_atom_site_label
_atom_site_fract_x
_atom_site_fract_y
_atom_site_fract_z
Si Si1 0.386541 0.867361 0.671272
Si Si2 0.147442 0.562442 0.670851
Si Si3 0.921778 0.001153 0.668704
Si Si4 0.111885 0.805318 0.667662
Si Si5 0.785929 0.968429 0.831446
Si Si6 0.031052 0.672467 0.174897
Si Si7 0.251866 0.334063 0.830565
O O1 0.390441 0.843709 0.500000
O O2 0.457761 0.849383 0.753561
O O3 0.321805 0.824901 0.752071
O O4 0.372038 0.965541 0.677504
O O5 0.146906 0.586223 0.500000
O O6 0.223749 0.571634 0.739513
O O7 0.090162 0.611950 0.761474
O O8 0.923349 0.969842 0.500000
O O9 0.900775 0.097108 0.664131
O O10 0.861462 0.957031 0.760034
O O11 0.000000 0.000000 0.728318
O O12 0.108283 0.775346 0.500000
O O13 0.055274 0.761554 0.768032
O O14 0.187030 0.791395 0.739280
O O15 0.769629 0.067380 0.830370
O O16 0.784586 0.941092 0.000000
O O17 0.028061 0.667688 0.000000
O O18 0.250774 0.307262 0.000000
#
# Coordination Sequence:
#
# PCOD9426917 Si02
#       7
#     8   8   8   8   8   8   8
#     4  10  20  35  56  81 107 139 181 223 265 318
#     4  10  20  35  55  78 106 141 181 222 266 322
#     4   9  18  34  57  82 106 136 177 224 270 317
#     4  10  20  36  56  77 105 141 179 218 267 326
#     4   9  17  30  51  79 107 134 168 212 261 312
#     4  12  24  36  52  77 111 145 179 223 273 323
#     4   9  17  32  54  78 103 132 170 214 259 310
#
# _framework density 19.64021
#
# number of rings (size 3 to 8) (size 9 to 14) (size 15 to 20)
#    0.000    2.143    0.000    3.857    0.000    7.714 
#    0.000    1.429    0.000    1.714    0.000    0.000 
#    0.000    0.000    0.000    0.000    0.000    0.000 
#
# Total GULP energy -312725.802910 kJ/mol
# GULP energy per Si atom -5584.389338 kJ/mol
# Density = 1.959551 g / cm^3
# Si number density = 19.640210 Si / 1000 Ang^3
#
#
#
# Elastic Constant Matrix: (Units=GPa)
#
#
# Indices 1 2 3 4 5 6 
#
# 1 169.7044 2.1147 84.8899 0.0000 0.0000 0.0000
# 2 2.1147 6.3653 5.0216 0.0000 0.0000 0.0000
# 3 84.8899 5.0216 165.0203 0.0000 0.0000 0.0000
# 4 0.0000 0.0000 0.0000 17.0068 0.0000 0.0000
# 5 0.0000 0.0000 0.0000 0.0000 12.5249 0.0000
# 6 0.0000 0.0000 0.0000 0.0000 0.0000 -1.3255
#
#
#
# Elastic Compliance Matrix: (Units=1/GPa)
#
#
# Indices 1 2 3 4 5 6 
#
# 1 0.007937 0.000599 -0.004101 0.000000 0.000000 0.000000
# 2 0.000599 0.161012 -0.005208 0.000000 0.000000 0.000000
# 3 -0.004101 -0.005208 0.008328 0.000000 0.000000 0.000000
# 4 0.000000 0.000000 0.000000 0.058800 0.000000 0.000000
# 5 0.000000 0.000000 0.000000 0.000000 0.079841 0.000000
# 6 0.000000 0.000000 0.000000 0.000000 0.000000 -0.754422
#
#
# Mechanical properties :
#
#
# Convention : Reuss Voigt Hill
#
# Bulk Modulus (GPa) = 6.25560 58.34915 32.30237
# Shear Modulus (GPa) = -13.59441 22.24548 4.32554
#
# Velocity S-wave (km/s) = -2.63377 3.36914 1.48565
# Velocity P-wave (km/s) = 2.46109 6.70137 4.40746
#
# Compressibility (1/GPa) = 0.15985680
#
# Stress axis : x y z
#
# Youngs Moduli (GPa) = 125.99995 6.21071 120.07789
#
# Poissons Ratio (x) = -0.00372 0.49243
# Poissons Ratio (y) = -0.07541 0.62531
# Poissons Ratio (z) = 0.51672 0.03234
#
# Static dielectric constant tensor:
#      x y z
#    x 1.659460 0.000000 0.000000 
#    y 0.000000 1.715320 0.000000 
#    z 0.000000 0.000000 1.663450 
# 
# From -- ./inp_files/8895.got.cif
#   From: 2010.05.17/outbox.cif.g08.bks.cpg/sg55_5_cif.got.tgz:8895.got - 2010.06.03 13:27:54.
