data_PCOD9426576
_publ_section_title
;
Structure prediction by ZEFSAII (Michael W. Deem and Ramdas Pophale) SiO2 
 PCOD9426576
Probable space group: P B A M
;
_chemical_formula_sum "Si O2"
_cell_formula_units_Z 48
_cell_length_a 7.133523
_cell_length_b 31.148712
_cell_length_c 9.933373
_cell_angle_alpha 90.000000
_cell_angle_beta 90.000000
_cell_angle_gamma 90.000000
_cell_volume 2207.196012
_symmetry_space_group_name_H-M "P B A M"
_symmetry_group_IT_number 55
_symmetry_cell_setting 'orthorhombic'
loop_
_space_group_symop_operation_xyz
x,y,z
-x,-y,z
1/2+x,1/2-y,-z
1/2-x,1/2+y,-z
-x,-y,-z
x,y,-z
1/2-x,1/2+y,z
1/2+x,1/2-y,z
loop_
_atom_site_type_symbol
_atom_site_label
_atom_site_fract_x
_atom_site_fract_y
_atom_site_fract_z
Si Si1 0.554741 0.118219 0.845161
Si Si2 0.186595 0.211148 0.651441
Si Si3 0.602685 0.360021 0.149376
Si Si4 0.373237 0.807892 0.346079
Si Si5 0.399999 0.546104 0.846405
Si Si6 0.558789 0.950977 0.349146
O O1 0.328846 0.129210 0.847017
O O2 0.658856 0.156200 0.766225
O O3 0.568638 0.076130 0.752502
O O4 0.610510 0.112723 0.000000
O O5 0.108917 0.212452 0.500000
O O6 0.076439 0.177043 0.741489
O O7 0.400643 0.195807 0.645546
O O8 0.191028 0.260476 0.697834
O O9 0.504568 0.406712 0.165257
O O10 0.560346 0.343626 0.000000
O O11 0.309366 0.817426 0.500000
O O12 0.500000 0.500000 0.839222
O O13 0.258584 0.547545 0.722564
O O14 0.316117 0.547005 0.000000
O O15 0.562078 0.932010 0.500000
O O16 0.500000 0.000000 0.357764
#
# Coordination Sequence:
#
# PCOD9426576 Si02
#       6
#     8   8   8   8   8   8
#     4   9  17  30  49  70  91 121 159 194 232 280
#     4   9  17  29  46  66  89 119 151 185 227 273
#     4   8  15  28  46  67  90 118 153 190 226 271
#     4   9  17  30  47  67  91 119 152 189 230 277
#     4   9  18  33  52  73  98 128 162 200 241 286
#     4  10  20  33  50  73  99 127 161 200 240 284
#
# _framework density 21.747049000000001
#
# number of rings (size 3 to 8) (size 9 to 14) (size 15 to 20)
#    0.000    3.000    0.000    2.000    0.000    6.333 
#    0.000    1.667    0.000    6.000    0.000    0.000 
#    0.000    0.000    0.000    0.000    0.000    0.000 
#
# Total GULP energy -267630.491423 kJ/mol
# GULP energy per Si atom -5575.635238 kJ/mol
# Density = 2.169755 g / cm^3
# Si number density = 21.747049 Si / 1000 Ang^3
#
#
#
# Elastic Constant Matrix: (Units=GPa)
#
#
# Indices 1 2 3 4 5 6 
#
# 1 35.1862 -9.7932 9.3666 0.0000 0.0000 0.0000
# 2 -9.7932 132.5744 90.7652 0.0000 0.0000 0.0000
# 3 9.3666 90.7652 158.8895 0.0000 0.0000 0.0000
# 4 0.0000 0.0000 0.0000 27.1348 0.0000 0.0000
# 5 0.0000 0.0000 0.0000 0.0000 6.9277 0.0000
# 6 0.0000 0.0000 0.0000 0.0000 0.0000 25.0183
#
#
#
# Elastic Compliance Matrix: (Units=1/GPa)
#
#
# Indices 1 2 3 4 5 6 
#
# 1 0.031453 0.005901 -0.005225 0.000000 0.000000 0.000000
# 2 0.005901 0.013495 -0.008057 0.000000 0.000000 0.000000
# 3 -0.005225 -0.008057 0.011204 0.000000 0.000000 0.000000
# 4 0.000000 0.000000 0.000000 0.036853 0.000000 0.000000
# 5 0.000000 0.000000 0.000000 0.000000 0.144349 0.000000
# 6 0.000000 0.000000 0.000000 0.000000 0.000000 0.039971
#
#
# Mechanical properties :
#
#
# Convention : Reuss Voigt Hill
#
# Bulk Modulus (GPa) = 24.16026 56.36969 40.26498
# Shear Modulus (GPa) = 16.34612 27.57026 21.95819
#
# Velocity S-wave (km/s) = 2.74459 3.56444 3.18104
# Velocity P-wave (km/s) = 4.60190 6.55112 5.66104
#
# Compressibility (1/GPa) = 0.04139028
#
# Stress axis : x y z
#
# Youngs Moduli (GPa) = 31.79304 74.10326 89.25364
#
# Poissons Ratio (x) = -0.43725 0.46634
# Poissons Ratio (y) = -0.18760 0.71908
# Poissons Ratio (z) = 0.16612 0.59702
#
# Static dielectric constant tensor:
#      x y z
#    x 1.895290 0.000000 0.000000 
#    y 0.000000 1.808290 0.000000 
#    z 0.000000 0.000000 1.766760 
# 
# From -- ./inp_files/4047.got.cif
#   From: 2010.05.17/outbox.cif.g08.bks.cpg/sg55_3_cif.got.tgz:4047.got - 2010.06.03 13:27:54.
