data_PCOD9426237
_publ_section_title
;
Structure prediction by ZEFSAII (Michael W. Deem and Ramdas Pophale) SiO2 
 PCOD9426237
Probable space group: P B A M
;
_chemical_formula_sum "Si O2"
_cell_formula_units_Z 64
_cell_length_a 18.580040
_cell_length_b 9.709867
_cell_length_c 19.001635
_cell_angle_alpha 90.000000
_cell_angle_beta 90.000000
_cell_angle_gamma 90.000000
_cell_volume 3428.079598
_symmetry_space_group_name_H-M "P B A M"
_symmetry_group_IT_number 55
_symmetry_cell_setting 'orthorhombic'
loop_
_space_group_symop_operation_xyz
x,y,z
-x,-y,z
1/2+x,1/2-y,-z
1/2-x,1/2+y,-z
-x,-y,-z
x,y,-z
1/2-x,1/2+y,z
1/2+x,1/2-y,z
loop_
_atom_site_type_symbol
_atom_site_label
_atom_site_fract_x
_atom_site_fract_y
_atom_site_fract_z
Si Si1 0.487266 0.341595 0.917938
Si Si2 0.786109 0.481520 0.181074
Si Si3 0.161778 0.814792 0.150737
Si Si4 0.247306 0.014067 0.653276
Si Si5 0.454010 0.705320 0.320488
Si Si6 0.602860 0.596238 0.300195
Si Si7 0.440969 0.880042 0.182100
Si Si8 0.326285 0.774122 0.583359
O O1 0.500000 0.500000 0.896940
O O2 0.402840 0.313249 0.904521
O O3 0.535176 0.240625 0.870770
O O4 0.504791 0.325326 0.000000
O O5 0.796055 0.328542 0.152081
O O6 0.719340 0.562316 0.146897
O O7 0.770889 0.471824 0.265224
O O8 0.860969 0.562342 0.169874
O O9 0.122445 0.833634 0.226442
O O10 0.225271 0.159933 0.620209
O O11 0.174620 0.921828 0.654910
O O12 0.304260 0.925449 0.610010
O O13 0.537712 0.678620 0.335135
O O14 0.423880 0.560879 0.288967
O O15 0.444536 0.819247 0.260724
O O16 0.405591 0.740265 0.387249
O O17 0.500000 0.000000 0.174593
O O18 0.321508 0.762829 0.500000
#
# Coordination Sequence:
#
# PCOD9426237 Si02
#       8
#     8   8   8   8   8   8   8   8
#     4  11  25  44  66  92 127 168 205 247 309 382
#     4  11  23  37  63  97 120 158 208 268 305 354
#     4  11  22  39  61  94 126 155 206 254 309 362
#     4  10  20  36  57  83 116 152 202 248 299 361
#     4  10  19  35  58  87 112 152 199 253 306 357
#     4   9  18  33  60  86 112 147 198 257 298 350
#     4  12  22  39  64  95 122 159 206 261 310 361
#     4  11  22  36  55  81 118 159 197 246 308 371
#
# _framework density 18.669345
#
# number of rings (size 3 to 8) (size 9 to 14) (size 15 to 20)
#    0.000    1.375    3.750    2.625    5.250    0.250 
#    0.000    6.875    0.000    0.375    0.000    0.000 
#    0.000    0.000    0.000    0.000    0.000    0.000 
#
# Total GULP energy -357455.540708 kJ/mol
# GULP energy per Si atom -5585.242824 kJ/mol
# Density = 1.862685 g / cm^3
# Si number density = 18.669345 Si / 1000 Ang^3
#
#
#
# Elastic Constant Matrix: (Units=GPa)
#
#
# Indices 1 2 3 4 5 6 
#
# 1 79.3904 13.0731 -1.3593 0.0000 0.0000 0.0000
# 2 13.0731 69.1330 18.1575 0.0000 0.0000 0.0000
# 3 -1.3593 18.1575 39.2269 0.0000 0.0000 0.0000
# 4 0.0000 0.0000 0.0000 16.9298 0.0000 0.0000
# 5 0.0000 0.0000 0.0000 0.0000 11.2293 0.0000
# 6 0.0000 0.0000 0.0000 0.0000 0.0000 30.2198
#
#
#
# Elastic Compliance Matrix: (Units=1/GPa)
#
#
# Indices 1 2 3 4 5 6 
#
# 1 0.013114 -0.002959 0.001824 0.000000 0.000000 0.000000
# 2 -0.002959 0.017134 -0.008034 0.000000 0.000000 0.000000
# 3 0.001824 -0.008034 0.029275 0.000000 0.000000 0.000000
# 4 0.000000 0.000000 0.000000 0.059067 0.000000 0.000000
# 5 0.000000 0.000000 0.000000 0.000000 0.089053 0.000000
# 6 0.000000 0.000000 0.000000 0.000000 0.000000 0.033091
#
#
# Mechanical properties :
#
#
# Convention : Reuss Voigt Hill
#
# Bulk Modulus (GPa) = 24.28002 27.49921 25.88962
# Shear Modulus (GPa) = 18.32841 22.20105 20.26473
#
# Velocity S-wave (km/s) = 3.13667 3.45218 3.29820
# Velocity P-wave (km/s) = 5.11388 5.53639 5.32932
#
# Compressibility (1/GPa) = 0.04118613
#
# Stress axis : x y z
#
# Youngs Moduli (GPa) = 76.25162 58.36187 34.15928
#
# Poissons Ratio (x) = 0.17270 -0.06231
# Poissons Ratio (y) = 0.22563 0.27443
# Poissons Ratio (z) = -0.13909 0.46887
#
# Static dielectric constant tensor:
#      x y z
#    x 1.666140 0.000000 0.000000 
#    y 0.000000 1.651210 0.000000 
#    z 0.000000 0.000000 1.603190 
# 
# From -- ./inp_files/23064.got.cif
#   From: 2010.05.17/outbox.cif.g08.bks.cpg/sg55_12_cif.got.tgz:23064.got - 2010.06.03 13:27:54.
