data_PCOD9426818
_publ_section_title
;
Structure prediction by ZEFSAII (Michael W. Deem and Ramdas Pophale) SiO2 
 PCOD9426818
Probable space group: P B A M
;
_chemical_formula_sum "Si O2"
_cell_formula_units_Z 44
_cell_length_a 10.044743
_cell_length_b 14.906857
_cell_length_c 13.520633
_cell_angle_alpha 90.000000
_cell_angle_beta 90.000000
_cell_angle_gamma 90.000000
_cell_volume 2024.519385
_symmetry_space_group_name_H-M "P B A M"
_symmetry_group_IT_number 55
_symmetry_cell_setting 'orthorhombic'
loop_
_space_group_symop_operation_xyz
x,y,z
-x,-y,z
1/2+x,1/2-y,-z
1/2-x,1/2+y,-z
-x,-y,-z
x,y,-z
1/2-x,1/2+y,z
1/2+x,1/2-y,z
loop_
_atom_site_type_symbol
_atom_site_label
_atom_site_fract_x
_atom_site_fract_y
_atom_site_fract_z
Si Si1 0.149470 0.353149 0.000000
Si Si2 0.438160 0.083983 0.835665
Si Si3 0.861113 0.600831 0.500000
Si Si4 0.264619 0.757703 0.339220
Si Si5 0.271022 0.525946 0.000000
Si Si6 0.679969 0.892336 0.500000
Si Si7 0.030247 0.174600 0.000000
Si Si8 0.970355 0.228141 0.219222
O O1 0.274916 0.418274 0.000000
O O2 0.057441 0.383597 0.908430
O O3 0.156378 0.246717 0.000000
O O4 0.411965 0.170783 0.774457
O O5 0.500000 0.000000 0.779099
O O6 0.315683 0.056469 0.904938
O O7 0.824519 0.663821 0.592491
O O8 0.790802 0.501209 0.500000
O O9 0.020801 0.599954 0.500000
O O10 0.228914 0.670827 0.407969
O O11 0.380483 0.728868 0.261197
O O12 0.140887 0.812384 0.289361
O O13 0.407055 0.577565 0.000000
O O14 0.963888 0.196765 0.105484
#
# Coordination Sequence:
#
# PCOD9426818 Si02
#       8
#     4   8   4   8   4   4   4   8
#     4   7  14  27  45  74 105 146 218 278 297 336
#     4   8  15  28  50  81 111 154 219 273 301 351
#     4  10  22  45  76 103 124 165 217 274 340 426
#     4  11  23  41  66 105 136 162 211 289 330 390
#     4   9  14  29  52  75 109 161 227 278 311 339
#     4  10  22  45  76 101 126 167 217 266 350 418
#     4  10  20  34  55  87 130 190 226 253 316 389
#     4  11  22  36  59  93 139 178 218 262 322 380
#
# _framework density 21.733554000000002
#
# number of rings (size 3 to 8) (size 9 to 14) (size 15 to 20)
#    0.000    2.364    1.818    2.727    0.000    2.182 
#    0.000    3.636    0.000    2.182    0.000   39.455 
#    0.000    0.000    0.000    0.000    0.000    0.000 
#
# Total GULP energy -245046.852408 kJ/mol
# GULP energy per Si atom -5569.246646 kJ/mol
# Density = 2.168409 g / cm^3
# Si number density = 21.733554 Si / 1000 Ang^3
#
#
#
# Elastic Constant Matrix: (Units=GPa)
#
#
# Indices 1 2 3 4 5 6 
#
# 1 82.2730 19.4036 35.3340 0.0000 0.0000 0.0000
# 2 19.4036 111.6281 22.4809 0.0000 0.0000 0.0000
# 3 35.3340 22.4809 104.0062 0.0000 0.0000 0.0000
# 4 0.0000 0.0000 0.0000 -0.5945 0.0000 0.0000
# 5 0.0000 0.0000 0.0000 0.0000 38.6128 0.0000
# 6 0.0000 0.0000 0.0000 0.0000 0.0000 33.2334
#
#
#
# Elastic Compliance Matrix: (Units=1/GPa)
#
#
# Indices 1 2 3 4 5 6 
#
# 1 0.014499 -0.001598 -0.004580 0.000000 0.000000 0.000000
# 2 -0.001598 0.009542 -0.001520 0.000000 0.000000 0.000000
# 3 -0.004580 -0.001520 0.011499 0.000000 0.000000 0.000000
# 4 0.000000 0.000000 0.000000 -1.682142 0.000000 0.000000
# 5 0.000000 0.000000 0.000000 0.000000 0.025898 0.000000
# 6 0.000000 0.000000 0.000000 0.000000 0.000000 0.030090
#
#
# Mechanical properties :
#
#
# Convention : Reuss Voigt Hill
#
# Bulk Modulus (GPa) = 49.64116 50.26046 49.95081
# Shear Modulus (GPa) = -3.18775 28.96293 12.88759
#
# Velocity S-wave (km/s) = -1.21241 3.65449 2.43776
# Velocity P-wave (km/s) = 4.57498 6.40180 5.56388
#
# Compressibility (1/GPa) = 0.02014457
#
# Stress axis : x y z
#
# Youngs Moduli (GPa) = 68.97236 104.79868 86.96157
#
# Poissons Ratio (x) = 0.16745 0.39830
# Poissons Ratio (y) = 0.11020 0.13216
# Poissons Ratio (z) = 0.31591 0.15926
#
# Static dielectric constant tensor:
#      x y z
#    x 1.899170 0.000000 0.000000 
#    y 0.000000 1.868960 0.000000 
#    z 0.000000 0.000000 1.634000 
# 
# From -- ./inp_files/17303.got.cif
#   From: 2010.05.17/outbox.cif.g08.bks.cpg/sg55_9_cif.got.tgz:17303.got - 2010.06.03 13:27:54.
