data_PCOD9426865
_publ_section_title
;
Structure prediction by ZEFSAII (Michael W. Deem and Ramdas Pophale) SiO2 
 PCOD9426865
Probable space group: P B A M
;
_chemical_formula_sum "Si O2"
_cell_formula_units_Z 48
_cell_length_a 21.025142
_cell_length_b 9.875328
_cell_length_c 10.937921
_cell_angle_alpha 90.000000
_cell_angle_beta 90.000000
_cell_angle_gamma 90.000000
_cell_volume 2271.042435
_symmetry_space_group_name_H-M "P B A M"
_symmetry_group_IT_number 55
_symmetry_cell_setting 'orthorhombic'
loop_
_space_group_symop_operation_xyz
x,y,z
-x,-y,z
1/2+x,1/2-y,-z
1/2-x,1/2+y,-z
-x,-y,-z
x,y,-z
1/2-x,1/2+y,z
1/2+x,1/2-y,z
loop_
_atom_site_type_symbol
_atom_site_label
_atom_site_fract_x
_atom_site_fract_y
_atom_site_fract_z
Si Si1 0.695138 0.818031 0.360286
Si Si2 0.547977 0.125180 0.632782
Si Si3 0.750505 0.073767 0.220720
Si Si4 0.623163 0.178455 0.868511
Si Si5 0.110161 0.999595 0.135337
Si Si6 0.564051 0.667976 0.361207
O O1 0.706243 0.857630 0.500000
O O2 0.731710 0.679156 0.327943
O O3 0.620625 0.779388 0.346434
O O4 0.721020 0.935358 0.273014
O O5 0.581384 0.129114 0.500000
O O6 0.592652 0.114074 0.748688
O O7 0.503278 0.257104 0.644019
O O8 0.500000 0.000000 0.631344
O O9 0.697655 0.146571 0.139383
O O10 0.816368 0.044685 0.152011
O O11 0.610142 0.338287 0.860250
O O12 0.598229 0.129179 0.000000
O O13 0.073432 0.935443 0.250173
O O14 0.087094 0.956240 0.000000
O O15 0.571846 0.610942 0.500000
#
# Coordination Sequence:
#
# PCOD9426865 Si02
#       6
#     8   8   8   8   8   8
#     4  10  20  34  59  89 121 156 200 254 306 364
#     4  10  22  42  65  89 121 160 203 254 310 365
#     4  11  20  39  57  87 123 163 204 249 309 367
#     4  11  24  40  61  91 123 161 208 254 304 368
#     4  10  22  40  60  87 122 162 203 249 308 367
#     4   9  20  39  61  88 119 156 202 249 303 362
#
# _framework density 21.135669
#
# number of rings (size 3 to 8) (size 9 to 14) (size 15 to 20)
#    0.000    1.833    1.667    2.000    0.000    5.667 
#    0.000    7.500    0.000    0.000    0.000    0.000 
#    0.000    0.000    0.000    0.000    0.000    0.000 
#
# Total GULP energy -268183.871292 kJ/mol
# GULP energy per Si atom -5587.163985 kJ/mol
# Density = 2.108756 g / cm^3
# Si number density = 21.135669 Si / 1000 Ang^3
#
#
#
# Elastic Constant Matrix: (Units=GPa)
#
#
# Indices 1 2 3 4 5 6 
#
# 1 49.3689 -1.4658 37.2426 0.0000 0.0000 0.0000
# 2 -1.4658 54.0992 25.9150 0.0000 0.0000 0.0000
# 3 37.2426 25.9150 160.6563 0.0000 0.0000 0.0000
# 4 0.0000 0.0000 0.0000 -38.4004 0.0000 0.0000
# 5 0.0000 0.0000 0.0000 0.0000 22.2509 0.0000
# 6 0.0000 0.0000 0.0000 0.0000 0.0000 26.2867
#
#
#
# Elastic Compliance Matrix: (Units=1/GPa)
#
#
# Indices 1 2 3 4 5 6 
#
# 1 0.025242 0.003779 -0.006461 0.000000 0.000000 0.000000
# 2 0.003779 0.020598 -0.004199 0.000000 0.000000 0.000000
# 3 -0.006461 -0.004199 0.008400 0.000000 0.000000 0.000000
# 4 0.000000 0.000000 0.000000 -0.026041 0.000000 0.000000
# 5 0.000000 0.000000 0.000000 0.000000 0.044942 0.000000
# 6 0.000000 0.000000 0.000000 0.000000 0.000000 0.038042
#
#
# Mechanical properties :
#
#
# Convention : Reuss Voigt Hill
#
# Bulk Modulus (GPa) = 24.70469 43.05645 33.88057
# Shear Modulus (GPa) = 36.11768 15.52297 25.82033
#
# Velocity S-wave (km/s) = 4.13831 2.71300 3.49900
# Velocity P-wave (km/s) = 5.87777 5.49814 5.69112
#
# Compressibility (1/GPa) = 0.04047814
#
# Stress axis : x y z
#
# Youngs Moduli (GPa) = 39.61670 48.54788 119.05465
#
# Poissons Ratio (x) = -0.18346 0.76922
# Poissons Ratio (y) = -0.14971 0.49987
# Poissons Ratio (z) = 0.25596 0.20384
#
# Static dielectric constant tensor:
#      x y z
#    x 1.757950 0.000000 0.000000 
#    y 0.000000 1.745860 0.000000 
#    z 0.000000 0.000000 1.768470 
# 
# From -- ./inp_files/15619.got.cif
#   From: 2010.05.17/outbox.cif.g08.bks.cpg/sg55_8_cif.got.tgz:15619.got - 2010.06.03 13:27:54.
