data_PCOD9426564
_publ_section_title
;
Structure prediction by ZEFSAII (Michael W. Deem and Ramdas Pophale) SiO2 
 PCOD9426564
Probable space group: P B A M
;
_chemical_formula_sum "Si O2"
_cell_formula_units_Z 58
_cell_length_a 28.322686
_cell_length_b 12.119732
_cell_length_c 7.511718
_cell_angle_alpha 90.000000
_cell_angle_beta 90.000000
_cell_angle_gamma 90.000000
_cell_volume 2578.497589
_symmetry_space_group_name_H-M "P B A M"
_symmetry_group_IT_number 55
_symmetry_cell_setting 'orthorhombic'
loop_
_space_group_symop_operation_xyz
x,y,z
-x,-y,z
1/2+x,1/2-y,-z
1/2-x,1/2+y,-z
-x,-y,-z
x,y,-z
1/2-x,1/2+y,z
1/2+x,1/2-y,z
loop_
_atom_site_type_symbol
_atom_site_label
_atom_site_fract_x
_atom_site_fract_y
_atom_site_fract_z
Si Si1 0.811585 0.524516 0.293302
Si Si2 0.440353 0.344386 0.284866
Si Si3 0.708857 0.587071 0.282827
Si Si4 0.000000 0.500000 0.500000
Si Si5 0.505872 0.160544 0.206265
Si Si6 0.889732 0.693566 0.206711
Si Si7 0.883009 0.949571 0.715257
Si Si8 0.849276 0.294539 0.716666
O O1 0.802790 0.497284 0.500000
O O2 0.760261 0.552540 0.216356
O O3 0.845914 0.629219 0.287669
O O4 0.837857 0.416912 0.218232
O O5 0.442187 0.346609 0.500000
O O6 0.487577 0.286050 0.219763
O O7 0.424515 0.466475 0.226993
O O8 0.398065 0.262144 0.225947
O O9 0.709698 0.586790 0.500000
O O10 0.666737 0.504601 0.229840
O O11 0.692318 0.709724 0.231704
O O12 0.021319 0.582072 0.657906
O O13 0.559511 0.156099 0.279594
O O14 0.503261 0.128252 0.000000
O O15 0.886656 0.824766 0.223714
O O16 0.889991 0.664258 0.000000
O O17 0.883692 0.948195 0.500000
O O18 0.851844 0.295086 0.500000
#
# Coordination Sequence:
#
# PCOD9426564 Si02
#       8
#     8   8   8   2   8   8   8   8
#     4  10  20  32  59  86 115 157 204 254 311 374
#     4   9  18  37  62  91 123 165 211 264 312 375
#     4   8  16  32  55  91 118 147 201 260 307 368
#     4  12  26  44  72  88 132 168 218 256 314 382
#     4  11  26  43  65  97 130 170 216 265 324 377
#     4  11  26  42  55  86 129 164 204 260 321 383
#     4   9  19  37  65  91 123 161 212 263 316 377
#     4   8  16  30  53  86 120 148 192 252 312 367
#
# _framework density 22.49372
#
# number of rings (size 3 to 8) (size 9 to 14) (size 15 to 20)
#    0.000    2.483    0.690    2.276    5.793    1.103 
#    0.000    3.448    0.000    1.655    0.000    0.000 
#    0.000    0.000    0.000    0.000    0.000    0.000 
#
# Total GULP energy -323402.938402 kJ/mol
# GULP energy per Si atom -5575.912731 kJ/mol
# Density = 2.244252 g / cm^3
# Si number density = 22.493720 Si / 1000 Ang^3
#
#
#
# Elastic Constant Matrix: (Units=GPa)
#
#
# Indices 1 2 3 4 5 6 
#
# 1 48.7943 7.7780 -1.6346 0.0000 0.0000 0.0000
# 2 7.7780 110.1955 -0.8568 0.0000 0.0000 0.0000
# 3 -1.6346 -0.8568 83.6709 0.0000 0.0000 0.0000
# 4 0.0000 0.0000 0.0000 3.5727 0.0000 0.0000
# 5 0.0000 0.0000 0.0000 0.0000 -18.0252 0.0000
# 6 0.0000 0.0000 0.0000 0.0000 0.0000 20.9556
#
#
#
# Elastic Compliance Matrix: (Units=1/GPa)
#
#
# Indices 1 2 3 4 5 6 
#
# 1 0.020740 -0.001461 0.000390 0.000000 0.000000 0.000000
# 2 -0.001461 0.009178 0.000065 0.000000 0.000000 0.000000
# 3 0.000390 0.000065 0.011960 0.000000 0.000000 0.000000
# 4 0.000000 0.000000 0.000000 0.279904 0.000000 0.000000
# 5 0.000000 0.000000 0.000000 0.000000 -0.055478 0.000000
# 6 0.000000 0.000000 0.000000 0.000000 0.000000 0.047720
#
#
# Mechanical properties :
#
#
# Convention : Reuss Voigt Hill
#
# Bulk Modulus (GPa) = 25.08277 28.13710 26.60993
# Shear Modulus (GPa) = 15.18262 17.12553 16.15408
#
# Velocity S-wave (km/s) = 2.60084 2.76225 2.68276
# Velocity P-wave (km/s) = 4.49381 4.76543 4.63162
#
# Compressibility (1/GPa) = 0.03986801
#
# Stress axis : x y z
#
# Youngs Moduli (GPa) = 48.21563 108.95137 83.61285
#
# Poissons Ratio (x) = 0.15917 -0.03263
# Poissons Ratio (y) = 0.07044 -0.00547
# Poissons Ratio (z) = -0.01881 -0.00713
#
# Static dielectric constant tensor:
#      x y z
#    x 1.861970 0.000000 0.000000 
#    y 0.000000 1.849230 0.000000 
#    z 0.000000 0.000000 1.869880 
# 
# From -- ./inp_files/10661.got.cif
#   From: 2010.05.17/outbox.cif.g08.bks.cpg/sg55_6_cif.got.tgz:10661.got - 2010.06.03 13:27:54.
