data_PCOD9426416
_publ_section_title
;
Structure prediction by ZEFSAII (Michael W. Deem and Ramdas Pophale) SiO2 
 PCOD9426416
Probable space group: P B A M
;
_chemical_formula_sum "Si O2"
_cell_formula_units_Z 48
_cell_length_a 14.959297
_cell_length_b 11.584188
_cell_length_c 13.392551
_cell_angle_alpha 90.000000
_cell_angle_beta 90.000000
_cell_angle_gamma 90.000000
_cell_volume 2320.812691
_symmetry_space_group_name_H-M "P B A M"
_symmetry_group_IT_number 55
_symmetry_cell_setting 'orthorhombic'
loop_
_space_group_symop_operation_xyz
x,y,z
-x,-y,z
1/2+x,1/2-y,-z
1/2-x,1/2+y,-z
-x,-y,-z
x,y,-z
1/2-x,1/2+y,z
1/2+x,1/2-y,z
loop_
_atom_site_type_symbol
_atom_site_label
_atom_site_fract_x
_atom_site_fract_y
_atom_site_fract_z
Si Si1 0.042980 0.125970 0.891902
Si Si2 0.669931 0.180611 0.662461
Si Si3 0.012175 0.773986 0.679160
Si Si4 0.279083 0.615571 0.793950
Si Si5 0.090652 0.546974 0.239585
Si Si6 0.838889 0.050958 0.609505
O O1 0.148636 0.106198 0.880025
O O2 0.011034 0.195703 0.794856
O O3 0.021567 0.178533 0.000000
O O4 0.000000 0.000000 0.886451
O O5 0.583432 0.252896 0.625963
O O6 0.712188 0.254933 0.752350
O O7 0.756571 0.141426 0.603044
O O8 0.624578 0.062352 0.698051
O O9 0.066088 0.653923 0.687862
O O10 0.072214 0.876047 0.635141
O O11 0.177812 0.585389 0.821332
O O12 0.313153 0.534123 0.701174
O O13 0.000000 0.500000 0.188453
O O14 0.847012 0.995158 0.500000
#
# Coordination Sequence:
#
# PCOD9426416 Si02
#       6
#     8   8   8   8   8   8
#     4  10  20  36  61  89 118 153 194 242 302 368
#     4   9  20  35  57  80 112 162 196 242 297 363
#     4  10  19  38  60  83 120 154 196 252 305 358
#     4  10  19  37  59  83 120 153 197 250 301 353
#     4   9  18  35  61  84 114 161 198 235 303 360
#     4  11  22  35  55  86 117 155 205 249 302 355
#
# _framework density 20.682410000000001
#
# number of rings (size 3 to 8) (size 9 to 14) (size 15 to 20)
#    0.000    2.167    3.333    0.000    0.000    1.333 
#    0.000    6.667    0.000   43.500    0.000    0.000 
#    0.000    0.000    0.000    0.000    0.000    0.000 
#
# Total GULP energy -267313.097933 kJ/mol
# GULP energy per Si atom -5569.022874 kJ/mol
# Density = 2.063534 g / cm^3
# Si number density = 20.682410 Si / 1000 Ang^3
#
#
#
# Elastic Constant Matrix: (Units=GPa)
#
#
# Indices 1 2 3 4 5 6 
#
# 1 117.1231 22.1388 9.3491 0.0000 0.0000 0.0000
# 2 22.1388 60.3909 17.5458 0.0000 0.0000 0.0000
# 3 9.3491 17.5458 81.0751 0.0000 0.0000 0.0000
# 4 0.0000 0.0000 0.0000 -10.7111 0.0000 0.0000
# 5 0.0000 0.0000 0.0000 0.0000 -158.7932 0.0000
# 6 0.0000 0.0000 0.0000 0.0000 0.0000 43.7092
#
#
#
# Elastic Compliance Matrix: (Units=1/GPa)
#
#
# Indices 1 2 3 4 5 6 
#
# 1 0.009183 -0.003264 -0.000353 0.000000 0.000000 0.000000
# 2 -0.003264 0.018830 -0.003699 0.000000 0.000000 0.000000
# 3 -0.000353 -0.003699 0.013175 0.000000 0.000000 0.000000
# 4 0.000000 0.000000 0.000000 -0.093361 0.000000 0.000000
# 5 0.000000 0.000000 0.000000 0.000000 -0.006297 0.000000
# 6 0.000000 0.000000 0.000000 0.000000 0.000000 0.022878
#
#
# Mechanical properties :
#
#
# Convention : Reuss Voigt Hill
#
# Bulk Modulus (GPa) = 37.65361 39.62851 38.64106
# Shear Modulus (GPa) = -412.94048 -11.18867 -212.06458
#
# Velocity S-wave (km/s) = -14.14536 -2.32841 -10.13688
# Velocity P-wave (km/s) = 15.76525 3.46026 10.87589
#
# Compressibility (1/GPa) = 0.02655788
#
# Stress axis : x y z
#
# Youngs Moduli (GPa) = 108.89519 53.10688 75.89934
#
# Poissons Ratio (x) = 0.17334 0.02676
# Poissons Ratio (y) = 0.35544 0.28073
# Poissons Ratio (z) = 0.03839 0.19643
#
# Static dielectric constant tensor:
#      x y z
#    x 1.799400 0.000000 0.000000 
#    y 0.000000 1.756970 0.000000 
#    z 0.000000 0.000000 1.738270 
# 
# From -- ./inp_files/18280.got.cif
#   From: 2010.05.17/outbox.cif.g08.bks.cpg/sg55_10_cif.got.tgz:18280.got - 2010.06.03 13:27:54.
