data_PCOD9426180
_publ_section_title
;
Structure prediction by ZEFSAII (Michael W. Deem and Ramdas Pophale) SiO2 
 PCOD9426180
Probable space group: P B A M
;
_chemical_formula_sum "Si O2"
_cell_formula_units_Z 64
_cell_length_a 15.281394
_cell_length_b 22.080146
_cell_length_c 8.999635
_cell_angle_alpha 90.000000
_cell_angle_beta 90.000000
_cell_angle_gamma 90.000000
_cell_volume 3036.615539
_symmetry_space_group_name_H-M "P B A M"
_symmetry_group_IT_number 55
_symmetry_cell_setting 'orthorhombic'
loop_
_space_group_symop_operation_xyz
x,y,z
-x,-y,z
1/2+x,1/2-y,-z
1/2-x,1/2+y,-z
-x,-y,-z
x,y,-z
1/2-x,1/2+y,z
1/2+x,1/2-y,z
loop_
_atom_site_type_symbol
_atom_site_label
_atom_site_fract_x
_atom_site_fract_y
_atom_site_fract_z
Si Si1 0.731540 0.516017 0.179369
Si Si2 0.327450 0.767760 0.324398
Si Si3 0.455652 0.436710 0.819678
Si Si4 0.523745 0.930614 0.155156
Si Si5 0.627693 0.100672 0.672672
Si Si6 0.781900 0.389903 0.167661
Si Si7 0.637759 0.773105 0.672710
Si Si8 0.480967 0.697650 0.820987
O O1 0.646265 0.555040 0.220100
O O2 0.815261 0.549739 0.246724
O O3 0.720942 0.444782 0.224627
O O4 0.738241 0.514669 0.000000
O O5 0.349032 0.761509 0.500000
O O6 0.354308 0.833073 0.265646
O O7 0.222559 0.769446 0.314644
O O8 0.385572 0.717761 0.239700
O O9 0.500000 0.500000 0.769295
O O10 0.494615 0.371458 0.772863
O O11 0.462102 0.436527 0.000000
O O12 0.475194 0.906663 0.298425
O O13 0.626135 0.924558 0.155535
O O14 0.500000 0.000000 0.149361
O O15 0.491316 0.901026 0.000000
O O16 0.648984 0.098741 0.500000
O O17 0.814736 0.333568 0.264060
O O18 0.754084 0.370976 0.000000
O O19 0.613835 0.781265 0.500000
O O20 0.555006 0.744643 0.758834
O O21 0.481761 0.700185 0.000000
#
# Coordination Sequence:
#
# PCOD9426180 Si02
#       8
#     8   8   8   8   8   8   8   8
#     4  10  20  37  61  87 120 158 193 245 305 359
#     4  10  24  43  62  87 122 169 209 248 306 364
#     4   9  20  38  63  93 122 151 192 247 308 359
#     4  10  19  35  54  79 115 152 189 231 291 351
#     4  11  22  36  57  85 117 154 201 243 290 354
#     4  10  21  36  59  89 119 155 202 248 297 357
#     4  11  24  42  63  86 125 169 205 252 308 366
#     4  11  23  40  66  97 124 160 209 260 309 367
#
# _framework density 21.076097000000001
#
# number of rings (size 3 to 8) (size 9 to 14) (size 15 to 20)
#    0.000    1.750    1.250    2.625    1.750    5.250 
#    0.000    0.625    0.000    1.875    0.000    0.000 
#    0.000    0.000    0.000    0.000    0.000    0.000 
#
# Total GULP energy -356650.306587 kJ/mol
# GULP energy per Si atom -5572.661040 kJ/mol
# Density = 2.102813 g / cm^3
# Si number density = 21.076097 Si / 1000 Ang^3
#
#
#
# Elastic Constant Matrix: (Units=GPa)
#
#
# Indices 1 2 3 4 5 6 
#
# 1 49.4977 -7.9060 11.4803 0.0000 0.0000 0.0000
# 2 -7.9060 51.5681 13.0987 0.0000 0.0000 0.0000
# 3 11.4803 13.0987 38.7616 0.0000 0.0000 0.0000
# 4 0.0000 0.0000 0.0000 7.4766 0.0000 0.0000
# 5 0.0000 0.0000 0.0000 0.0000 23.9751 0.0000
# 6 0.0000 0.0000 0.0000 0.0000 0.0000 27.5998
#
#
#
# Elastic Compliance Matrix: (Units=1/GPa)
#
#
# Indices 1 2 3 4 5 6 
#
# 1 0.023174 0.005794 -0.008822 0.000000 0.000000 0.000000
# 2 0.005794 0.022661 -0.009374 0.000000 0.000000 0.000000
# 3 -0.008822 -0.009374 0.031579 0.000000 0.000000 0.000000
# 4 0.000000 0.000000 0.000000 0.133750 0.000000 0.000000
# 5 0.000000 0.000000 0.000000 0.000000 0.041710 0.000000
# 6 0.000000 0.000000 0.000000 0.000000 0.000000 0.036232
#
#
# Mechanical properties :
#
#
# Convention : Reuss Voigt Hill
#
# Bulk Modulus (GPa) = 19.00735 19.24148 19.12442
# Shear Modulus (GPa) = 15.08534 20.02060 17.55297
#
# Velocity S-wave (km/s) = 2.67826 3.08542 2.88902
# Velocity P-wave (km/s) = 4.31302 4.67359 4.49692
#
# Compressibility (1/GPa) = 0.05261123
#
# Stress axis : x y z
#
# Youngs Moduli (GPa) = 43.15102 44.12845 31.66647
#
# Poissons Ratio (x) = -0.25567 0.27935
# Poissons Ratio (y) = -0.25000 0.29684
# Poissons Ratio (z) = 0.38066 0.41365
#
# Static dielectric constant tensor:
#      x y z
#    x 1.799100 0.000000 0.000000 
#    y 0.000000 1.891480 0.000000 
#    z 0.000000 0.000000 1.767720 
# 
# From -- ./inp_files/6722.got.cif
#   From: 2010.05.17/outbox.cif.g08.bks.cpg/sg55_4_cif.got.tgz:6722.got - 2010.06.03 13:27:54.
