data_PCOD9426622
_publ_section_title
;
Structure prediction by ZEFSAII (Michael W. Deem and Ramdas Pophale) SiO2 
 PCOD9426622
Probable space group: P B A M
;
_chemical_formula_sum "Si O2"
_cell_formula_units_Z 56
_cell_length_a 16.443772
_cell_length_b 20.839530
_cell_length_c 7.484192
_cell_angle_alpha 90.000000
_cell_angle_beta 90.000000
_cell_angle_gamma 90.000000
_cell_volume 2564.686506
_symmetry_space_group_name_H-M "P B A M"
_symmetry_group_IT_number 55
_symmetry_cell_setting 'orthorhombic'
loop_
_space_group_symop_operation_xyz
x,y,z
-x,-y,z
1/2+x,1/2-y,-z
1/2-x,1/2+y,-z
-x,-y,-z
x,y,-z
1/2-x,1/2+y,z
1/2+x,1/2-y,z
loop_
_atom_site_type_symbol
_atom_site_label
_atom_site_fract_x
_atom_site_fract_y
_atom_site_fract_z
Si Si1 0.825817 0.193488 0.783666
Si Si2 0.065414 0.050584 0.287864
Si Si3 0.837246 0.337250 0.781283
Si Si4 0.485509 0.686991 0.293047
Si Si5 0.520962 0.168009 0.205817
Si Si6 0.181735 0.400366 0.780675
Si Si7 0.749262 0.965506 0.785097
O O1 0.806488 0.266695 0.728683
O O2 0.757545 0.143835 0.724437
O O3 0.916955 0.178073 0.720571
O O4 0.828787 0.192027 0.000000
O O5 0.049385 0.056211 0.500000
O O6 0.054881 0.122851 0.215562
O O7 0.156545 0.026635 0.261852
O O8 0.000000 0.000000 0.215032
O O9 0.784766 0.397429 0.719828
O O10 0.930846 0.342710 0.718169
O O11 0.837828 0.337412 0.000000
O O12 0.462589 0.693476 0.500000
O O13 0.464325 0.755396 0.208129
O O14 0.597107 0.129911 0.283101
O O15 0.515169 0.147243 0.000000
O O16 0.197867 0.473183 0.724023
O O17 0.181304 0.398878 0.000000
O O18 0.744001 0.964381 0.000000
#
# Coordination Sequence:
#
# PCOD9426622 Si02
#       7
#     8   8   8   8   8   8   8
#     4   9  17  32  52  74 103 135 169 211 262 310
#     4  10  22  38  53  72 105 142 173 212 266 318
#     4   8  16  30  49  75 104 133 167 208 256 305
#     4  10  20  34  52  76 102 131 176 220 255 308
#     4   9  18  34  55  76 103 139 171 209 264 309
#     4   9  18  31  52  80 105 132 173 217 255 306
#     4  10  20  33  52  80 107 135 175 216 253 307
#
# _framework density 21.835027
#
# number of rings (size 3 to 8) (size 9 to 14) (size 15 to 20)
#    0.000    2.714    0.000    2.143    2.000    2.000 
#    0.000    7.143    0.000    0.000    0.000    5.000 
#    0.000    0.000    0.000    0.000    0.000    0.000 
#
# Total GULP energy -312720.422415 kJ/mol
# GULP energy per Si atom -5584.293257 kJ/mol
# Density = 2.178533 g / cm^3
# Si number density = 21.835027 Si / 1000 Ang^3
#
#
#
# Elastic Constant Matrix: (Units=GPa)
#
#
# Indices 1 2 3 4 5 6 
#
# 1 25.3133 15.1467 -3.0262 0.0000 0.0000 0.0000
# 2 15.1467 75.6416 0.9031 0.0000 0.0000 0.0000
# 3 -3.0262 0.9031 56.3904 0.0000 0.0000 0.0000
# 4 0.0000 0.0000 0.0000 -23.3220 0.0000 0.0000
# 5 0.0000 0.0000 0.0000 0.0000 34.9516 0.0000
# 6 0.0000 0.0000 0.0000 0.0000 0.0000 39.4532
#
#
#
# Elastic Compliance Matrix: (Units=1/GPa)
#
#
# Indices 1 2 3 4 5 6 
#
# 1 0.045253 -0.009092 0.002574 0.000000 0.000000 0.000000
# 2 -0.009092 0.015050 -0.000729 0.000000 0.000000 0.000000
# 3 0.002574 -0.000729 0.017883 0.000000 0.000000 0.000000
# 4 0.000000 0.000000 0.000000 -0.042878 0.000000 0.000000
# 5 0.000000 0.000000 0.000000 0.000000 0.028611 0.000000
# 6 0.000000 0.000000 0.000000 0.000000 0.000000 0.025347
#
#
# Mechanical properties :
#
#
# Convention : Reuss Voigt Hill
#
# Bulk Modulus (GPa) = 15.70063 20.37696 18.03880
# Shear Modulus (GPa) = 40.00295 19.83801 29.92048
#
# Velocity S-wave (km/s) = 4.28489 3.01747 3.70577
# Velocity P-wave (km/s) = 5.62908 4.63602 5.15651
#
# Compressibility (1/GPa) = 0.06369171
#
# Stress axis : x y z
#
# Youngs Moduli (GPa) = 22.09785 66.44682 55.91804
#
# Poissons Ratio (x) = 0.60416 -0.14394
# Poissons Ratio (y) = 0.20092 0.04076
# Poissons Ratio (z) = -0.05688 0.04844
#
# Static dielectric constant tensor:
#      x y z
#    x 1.752440 0.000000 0.000000 
#    y 0.000000 1.781300 0.000000 
#    z 0.000000 0.000000 1.835650 
# 
# From -- ./inp_files/5975.got.cif
#   From: 2010.05.17/outbox.cif.g08.bks.cpg/sg55_3_cif.got.tgz:5975.got - 2010.06.03 13:27:54.
