data_PCOD9426968
_publ_section_title
;
Structure prediction by ZEFSAII (Michael W. Deem and Ramdas Pophale) SiO2 
 PCOD9426968
Probable space group: P B A M
;
_chemical_formula_sum "Si O2"
_cell_formula_units_Z 48
_cell_length_a 10.247832
_cell_length_b 22.583193
_cell_length_c 10.987295
_cell_angle_alpha 90.000000
_cell_angle_beta 90.000000
_cell_angle_gamma 90.000000
_cell_volume 2542.776144
_symmetry_space_group_name_H-M "P B A M"
_symmetry_group_IT_number 55
_symmetry_cell_setting 'orthorhombic'
loop_
_space_group_symop_operation_xyz
x,y,z
-x,-y,z
1/2+x,1/2-y,-z
1/2-x,1/2+y,-z
-x,-y,-z
x,y,-z
1/2-x,1/2+y,z
1/2+x,1/2-y,z
loop_
_atom_site_type_symbol
_atom_site_label
_atom_site_fract_x
_atom_site_fract_y
_atom_site_fract_z
Si Si1 0.403696 0.153390 0.870991
Si Si2 0.197538 0.390585 0.864557
Si Si3 0.759528 0.394652 0.364230
Si Si4 0.819772 0.225301 0.221897
Si Si5 0.916789 0.786347 0.361152
Si Si6 0.650385 0.023140 0.361665
O O1 0.556616 0.141056 0.868850
O O2 0.346893 0.125497 0.748536
O O3 0.367687 0.222259 0.865325
O O4 0.352315 0.128401 0.000000
O O5 0.298652 0.337835 0.839845
O O6 0.189203 0.434653 0.749663
O O7 0.218757 0.417441 0.000000
O O8 0.814387 0.380104 0.500000
O O9 0.629986 0.354951 0.352820
O O10 0.756817 0.465338 0.359033
O O11 0.684973 0.248298 0.281596
O O12 0.935487 0.220665 0.319617
O O13 0.902310 0.767214 0.500000
O O14 0.657171 0.048783 0.500000
O O15 0.500000 0.000000 0.345961
#
# Coordination Sequence:
#
# PCOD9426968 Si02
#       6
#     8   8   8   8   8   8
#     4  10  20  35  56  84 117 154 192 237 291 348
#     4  11  23  37  58  89 120 157 201 247 296 352
#     4   9  19  37  58  85 117 152 195 245 300 350
#     4  11  21  40  56  87 122 157 196 239 301 357
#     4  10  21  36  60  88 119 154 195 246 298 360
#     4  10  20  36  59  87 120 159 202 252 303 351
#
# _framework density 18.877005
#
# number of rings (size 3 to 8) (size 9 to 14) (size 15 to 20)
#    0.000    1.833    3.333    1.000    0.000    3.000 
#    0.000    1.667    0.000    4.000    0.000    0.000 
#    0.000    0.000    0.000    0.000    0.000    0.000 
#
# Total GULP energy -267428.277356 kJ/mol
# GULP energy per Si atom -5571.422445 kJ/mol
# Density = 1.883404 g / cm^3
# Si number density = 18.877005 Si / 1000 Ang^3
#
#
#
# Elastic Constant Matrix: (Units=GPa)
#
#
# Indices 1 2 3 4 5 6 
#
# 1 27.4047 15.2707 17.2315 0.0000 0.0000 0.0000
# 2 15.2707 79.0760 66.3662 0.0000 0.0000 0.0000
# 3 17.2315 66.3662 153.4317 0.0000 0.0000 0.0000
# 4 0.0000 0.0000 0.0000 -2.9816 0.0000 0.0000
# 5 0.0000 0.0000 0.0000 0.0000 29.2921 0.0000
# 6 0.0000 0.0000 0.0000 0.0000 0.0000 20.8098
#
#
#
# Elastic Compliance Matrix: (Units=1/GPa)
#
#
# Indices 1 2 3 4 5 6 
#
# 1 0.041226 -0.006398 -0.001862 0.000000 0.000000 0.000000
# 2 -0.006398 0.020846 -0.008298 0.000000 0.000000 0.000000
# 3 -0.001862 -0.008298 0.010316 0.000000 0.000000 0.000000
# 4 0.000000 0.000000 0.000000 -0.335390 0.000000 0.000000
# 5 0.000000 0.000000 0.000000 0.000000 0.034139 0.000000
# 6 0.000000 0.000000 0.000000 0.000000 0.000000 0.048054
#
#
# Mechanical properties :
#
#
# Convention : Reuss Voigt Hill
#
# Bulk Modulus (GPa) = 25.46435 50.84989 38.15712
# Shear Modulus (GPa) = -37.14718 20.16034 -8.49342
#
# Velocity S-wave (km/s) = -4.44086 3.27155 -2.12347
# Velocity P-wave (km/s) = 3.57437 6.42391 3.77429
#
# Compressibility (1/GPa) = 0.03927059
#
# Stress axis : x y z
#
# Youngs Moduli (GPa) = 24.25628 47.97027 96.93529
#
# Poissons Ratio (x) = 0.30693 0.18054
# Poissons Ratio (y) = 0.15520 0.80441
# Poissons Ratio (z) = 0.04518 0.39808
#
# Static dielectric constant tensor:
#      x y z
#    x 1.633180 0.000000 0.000000 
#    y 0.000000 1.667750 0.000000 
#    z 0.000000 0.000000 1.697640 
# 
# From -- ./inp_files/4084.got.cif
#   From: 2010.05.17/outbox.cif.g08.bks.cpg/sg55_3_cif.got.tgz:4084.got - 2010.06.03 13:27:54.
