data_PCOD9426838
_publ_section_title
;
Structure prediction by ZEFSAII (Michael W. Deem and Ramdas Pophale) SiO2 
 PCOD9426838
Probable space group: P B A M
;
_chemical_formula_sum "Si O2"
_cell_formula_units_Z 56
_cell_length_a 21.942611
_cell_length_b 14.841703
_cell_length_c 8.844507
_cell_angle_alpha 90.000000
_cell_angle_beta 90.000000
_cell_angle_gamma 90.000000
_cell_volume 2880.352700
_symmetry_space_group_name_H-M "P B A M"
_symmetry_group_IT_number 55
_symmetry_cell_setting 'orthorhombic'
loop_
_space_group_symop_operation_xyz
x,y,z
-x,-y,z
1/2+x,1/2-y,-z
1/2-x,1/2+y,-z
-x,-y,-z
x,y,-z
1/2-x,1/2+y,z
1/2+x,1/2-y,z
loop_
_atom_site_type_symbol
_atom_site_label
_atom_site_fract_x
_atom_site_fract_y
_atom_site_fract_z
Si Si1 0.070593 0.517535 0.181481
Si Si2 0.122248 0.700737 0.676530
Si Si3 0.721133 0.672796 0.179071
Si Si4 0.527062 0.634392 0.326306
Si Si5 0.375046 0.484972 0.177876
Si Si6 0.853246 0.645694 0.678271
Si Si7 0.403047 0.678249 0.823892
O O1 0.096746 0.610612 0.247497
O O2 0.112300 0.436095 0.240115
O O3 0.000000 0.500000 0.227208
O O4 0.072434 0.521192 0.000000
O O5 0.135410 0.684412 0.500000
O O6 0.181243 0.744450 0.756469
O O7 0.070083 0.777536 0.685572
O O8 0.680917 0.582478 0.202574
O O9 0.785010 0.659328 0.260848
O O10 0.730404 0.685084 0.000000
O O11 0.506401 0.625764 0.500000
O O12 0.569623 0.551391 0.278581
O O13 0.471344 0.646917 0.213171
O O14 0.362366 0.589720 0.207453
O O15 0.392198 0.477937 0.000000
O O16 0.853299 0.630015 0.500000
O O17 0.887700 0.737751 0.720222
O O18 0.396630 0.703347 0.000000
#
# Coordination Sequence:
#
# PCOD9426838 Si02
#       7
#     8   8   8   8   8   8   8
#     4  11  24  42  65  92 121 159 207 255 307 368
#     4  10  21  38  61  89 121 157 197 244 300 357
#     4  10  21  41  64  86 116 154 200 246 293 354
#     4  10  20  34  56  88 123 154 187 232 286 344
#     4   9  20  37  59  85 114 152 193 235 282 339
#     4  12  26  42  60  85 119 155 196 250 306 358
#     4  11  22  37  57  83 116 153 194 237 286 345
#
# _framework density 19.442062
#
# number of rings (size 3 to 8) (size 9 to 14) (size 15 to 20)
#    0.000    1.571    0.000    4.714    0.000    9.714 
#    0.000    4.286    0.000    0.000    0.000    0.000 
#    0.000    0.000    0.000    0.000    0.000    0.000 
#
# Total GULP energy -313057.502485 kJ/mol
# GULP energy per Si atom -5590.312544 kJ/mol
# Density = 1.939781 g / cm^3
# Si number density = 19.442062 Si / 1000 Ang^3
#
#
#
# Elastic Constant Matrix: (Units=GPa)
#
#
# Indices 1 2 3 4 5 6 
#
# 1 69.9713 29.0729 23.4443 0.0000 0.0000 0.0000
# 2 29.0729 114.2554 36.1547 0.0000 0.0000 0.0000
# 3 23.4443 36.1547 67.3270 0.0000 0.0000 0.0000
# 4 0.0000 0.0000 0.0000 28.0933 0.0000 0.0000
# 5 0.0000 0.0000 0.0000 0.0000 29.7739 0.0000
# 6 0.0000 0.0000 0.0000 0.0000 0.0000 15.9855
#
#
#
# Elastic Compliance Matrix: (Units=1/GPa)
#
#
# Indices 1 2 3 4 5 6 
#
# 1 0.016966 -0.002949 -0.004324 0.000000 0.000000 0.000000
# 2 -0.002949 0.011057 -0.004911 0.000000 0.000000 0.000000
# 3 -0.004324 -0.004911 0.018996 0.000000 0.000000 0.000000
# 4 0.000000 0.000000 0.000000 0.035596 0.000000 0.000000
# 5 0.000000 0.000000 0.000000 0.000000 0.033586 0.000000
# 6 0.000000 0.000000 0.000000 0.000000 0.000000 0.062557
#
#
# Mechanical properties :
#
#
# Convention : Reuss Voigt Hill
#
# Bulk Modulus (GPa) = 44.14861 47.65528 45.90194
# Shear Modulus (GPa) = 23.73334 25.62932 24.68133
#
# Velocity S-wave (km/s) = 3.49767 3.63470 3.56684
# Velocity P-wave (km/s) = 6.25050 6.49456 6.37370
#
# Compressibility (1/GPa) = 0.02265077
#
# Stress axis : x y z
#
# Youngs Moduli (GPa) = 58.94280 90.44437 52.64355
#
# Poissons Ratio (x) = 0.26669 0.22765
# Poissons Ratio (y) = 0.17380 0.25851
# Poissons Ratio (z) = 0.25489 0.44414
#
# Static dielectric constant tensor:
#      x y z
#    x 1.598750 0.000000 0.000000 
#    y 0.000000 1.678520 0.000000 
#    z 0.000000 0.000000 1.649740 
# 
# From -- ./inp_files/8772.got.cif
#   From: 2010.05.17/outbox.cif.g08.bks.cpg/sg55_5_cif.got.tgz:8772.got - 2010.06.03 13:27:54.
