data_PCOD9426919
_publ_section_title
;
Structure prediction by ZEFSAII (Michael W. Deem and Ramdas Pophale) SiO2 
 PCOD9426919
Probable space group: P B A M
;
_chemical_formula_sum "Si O2"
_cell_formula_units_Z 64
_cell_length_a 12.546397
_cell_length_b 29.443919
_cell_length_c 9.689060
_cell_angle_alpha 90.000000
_cell_angle_beta 90.000000
_cell_angle_gamma 90.000000
_cell_volume 3579.285040
_symmetry_space_group_name_H-M "P B A M"
_symmetry_group_IT_number 55
_symmetry_cell_setting 'orthorhombic'
loop_
_space_group_symop_operation_xyz
x,y,z
-x,-y,z
1/2+x,1/2-y,-z
1/2-x,1/2+y,-z
-x,-y,-z
x,y,-z
1/2-x,1/2+y,z
1/2+x,1/2-y,z
loop_
_atom_site_type_symbol
_atom_site_label
_atom_site_fract_x
_atom_site_fract_y
_atom_site_fract_z
Si Si1 0.711697 0.819940 0.156675
Si Si2 0.625970 0.504957 0.166124
Si Si3 0.780618 0.681531 0.656098
Si Si4 0.288075 0.076322 0.163226
Si Si5 0.761568 0.577914 0.664868
Si Si6 0.590935 0.754561 0.656404
Si Si7 0.902014 0.747207 0.842433
Si Si8 0.004058 0.554525 0.658472
O O1 0.745656 0.871435 0.184959
O O2 0.630480 0.800326 0.268797
O O3 0.809588 0.784872 0.159246
O O4 0.667151 0.818686 0.000000
O O5 0.500000 0.500000 0.200123
O O6 0.695386 0.459681 0.199357
O O7 0.684046 0.545539 0.248379
O O8 0.632735 0.512336 0.000000
O O9 0.826440 0.679999 0.500000
O O10 0.739779 0.631178 0.687434
O O11 0.685749 0.718075 0.654581
O O12 0.861631 0.701421 0.767957
O O13 0.396738 0.068779 0.247707
O O14 0.309827 0.070228 0.000000
O O15 0.752053 0.567999 0.500000
O O16 0.886232 0.570542 0.703068
O O17 0.557014 0.762862 0.500000
O O18 0.498002 0.735099 0.750428
O O19 0.932531 0.738966 0.000000
O O20 0.020794 0.569987 0.500000
O O21 0.000000 0.500000 0.658711
#
# Coordination Sequence:
#
# PCOD9426919 Si02
#       8
#     8   8   8   8   8   8   8   8
#     4   9  20  37  54  78 109 142 182 226 271 323
#     4  10  22  39  58  82 113 148 186 228 275 329
#     4   9  20  37  55  79 110 145 184 227 273 324
#     4  10  21  37  57  82 112 145 185 229 274 327
#     4  10  21  38  58  82 113 146 185 230 277 330
#     4  10  20  35  55  78 108 143 182 226 272 323
#     4  10  20  35  56  80 110 145 182 225 274 325
#     4  10  20  35  56  83 114 145 180 227 280 331
#
# _framework density 17.880666999999999
#
# number of rings (size 3 to 8) (size 9 to 14) (size 15 to 20)
#    0.000    2.250    1.250    0.750    1.750    4.000 
#    0.000    1.250    0.000    0.000    0.000    0.000 
#    0.000    0.000    0.000    0.000    0.000    0.000 
#
# Total GULP energy -356805.237206 kJ/mol
# GULP energy per Si atom -5575.081831 kJ/mol
# Density = 1.783997 g / cm^3
# Si number density = 17.880667 Si / 1000 Ang^3
#
#
#
# Elastic Constant Matrix: (Units=GPa)
#
#
# Indices 1 2 3 4 5 6 
#
# 1 89.6788 34.5004 48.9057 0.0000 0.0000 0.0000
# 2 34.5004 114.1496 42.8833 0.0000 0.0000 0.0000
# 3 48.9057 42.8833 94.1951 0.0000 0.0000 0.0000
# 4 0.0000 0.0000 0.0000 24.3329 0.0000 0.0000
# 5 0.0000 0.0000 0.0000 0.0000 27.0875 0.0000
# 6 0.0000 0.0000 0.0000 0.0000 0.0000 3.3413
#
#
#
# Elastic Compliance Matrix: (Units=1/GPa)
#
#
# Indices 1 2 3 4 5 6 
#
# 1 0.015948 -0.002062 -0.007341 0.000000 0.000000 0.000000
# 2 -0.002062 0.010834 -0.003862 0.000000 0.000000 0.000000
# 3 -0.007341 -0.003862 0.016186 0.000000 0.000000 0.000000
# 4 0.000000 0.000000 0.000000 0.041097 0.000000 0.000000
# 5 0.000000 0.000000 0.000000 0.000000 0.036917 0.000000
# 6 0.000000 0.000000 0.000000 0.000000 0.000000 0.299282
#
#
# Mechanical properties :
#
#
# Convention : Reuss Voigt Hill
#
# Bulk Modulus (GPa) = 60.83541 61.17803 61.00672
# Shear Modulus (GPa) = 11.05526 22.40128 16.72827
#
# Velocity S-wave (km/s) = 2.48922 3.54336 3.06200
# Velocity P-wave (km/s) = 6.50834 7.14349 6.83330
#
# Compressibility (1/GPa) = 0.01643780
#
# Stress axis : x y z
#
# Youngs Moduli (GPa) = 62.70507 92.29781 61.78207
#
# Poissons Ratio (x) = 0.19033 0.45355
# Poissons Ratio (y) = 0.12930 0.23859
# Poissons Ratio (z) = 0.46033 0.35644
#
# Static dielectric constant tensor:
#      x y z
#    x 1.618820 0.000000 0.000000 
#    y 0.000000 1.597170 0.000000 
#    z 0.000000 0.000000 1.622020 
# 
# From -- ./inp_files/4709.got.cif
#   From: 2010.05.17/outbox.cif.g08.bks.cpg/sg55_3_cif.got.tgz:4709.got - 2010.06.03 13:27:54.
