data_PCOD9426755
_publ_section_title
;
Structure prediction by ZEFSAII (Michael W. Deem and Ramdas Pophale) SiO2 
 PCOD9426755
Probable space group: P B A M
;
_chemical_formula_sum "Si O2"
_cell_formula_units_Z 48
_cell_length_a 7.979266
_cell_length_b 31.779364
_cell_length_c 7.735980
_cell_angle_alpha 90.000000
_cell_angle_beta 90.000000
_cell_angle_gamma 90.000000
_cell_volume 1961.658854
_symmetry_space_group_name_H-M "P B A M"
_symmetry_group_IT_number 55
_symmetry_cell_setting 'orthorhombic'
loop_
_space_group_symop_operation_xyz
x,y,z
-x,-y,z
1/2+x,1/2-y,-z
1/2-x,1/2+y,-z
-x,-y,-z
x,y,-z
1/2-x,1/2+y,z
1/2+x,1/2-y,z
loop_
_atom_site_type_symbol
_atom_site_label
_atom_site_fract_x
_atom_site_fract_y
_atom_site_fract_z
Si Si1 0.035121 0.182047 0.801974
Si Si2 0.983594 0.681665 0.500000
Si Si3 0.857809 0.529245 0.699419
Si Si4 0.858224 0.102483 0.795531
Si Si5 0.383477 0.128282 0.196627
Si Si6 0.671624 0.450860 0.208945
Si Si7 0.829058 0.764650 0.500000
O O1 0.892292 0.149811 0.734757
O O2 0.073509 0.219218 0.670564
O O3 0.206025 0.154000 0.805599
O O4 0.000666 0.195818 0.000000
O O5 0.001451 0.651935 0.666615
O O6 0.832563 0.714484 0.500000
O O7 0.150275 0.711794 0.500000
O O8 0.900531 0.535707 0.500000
O O9 0.805734 0.574407 0.770921
O O10 0.703644 0.496550 0.715804
O O11 0.000000 0.500000 0.786325
O O12 0.008253 0.073327 0.724428
O O13 0.886430 0.106108 0.000000
O O14 0.325194 0.081212 0.246029
O O15 0.448144 0.129222 0.000000
O O16 0.659242 0.454944 0.000000
#
# Coordination Sequence:
#
# PCOD9426755 Si02
#       7
#     8   4   8   8   8   8   4
#     4   8  16  32  54  79 104 131 170 217 258 301
#     4  10  20  34  54  79 106 137 167 204 259 310
#     4  11  24  35  44  70 110 145 172 205 254 310
#     4   9  18  34  56  78  97 126 175 225 259 296
#     4   8  16  32  54  79 104 131 170 217 258 301
#     4   9  18  34  56  78  97 126 175 225 259 296
#     4  10  20  34  54  79 106 137 167 204 259 310
#
# _framework density 24.469087999999999
#
# number of rings (size 3 to 8) (size 9 to 14) (size 15 to 20)
#    0.000    2.833    0.000    3.000    2.333    4.667 
#    0.000    1.667    0.000    2.000    0.000    0.000 
#    0.000    0.000    0.000    0.000    0.000    0.000 
#
# Total GULP energy -268348.743422 kJ/mol
# GULP energy per Si atom -5590.598821 kJ/mol
# Density = 2.441340 g / cm^3
# Si number density = 24.469088 Si / 1000 Ang^3
#
#
#
# Elastic Constant Matrix: (Units=GPa)
#
#
# Indices 1 2 3 4 5 6 
#
# 1 76.1858 15.5622 6.2553 0.0000 0.0000 0.0000
# 2 15.5622 127.3114 50.9554 0.0000 0.0000 0.0000
# 3 6.2553 50.9554 93.9733 0.0000 0.0000 0.0000
# 4 0.0000 0.0000 0.0000 11.7216 0.0000 0.0000
# 5 0.0000 0.0000 0.0000 0.0000 15.3860 0.0000
# 6 0.0000 0.0000 0.0000 0.0000 0.0000 44.1842
#
#
#
# Elastic Compliance Matrix: (Units=1/GPa)
#
#
# Indices 1 2 3 4 5 6 
#
# 1 0.013462 -0.001644 -0.000005 0.000000 0.000000 0.000000
# 2 -0.001644 0.010233 -0.005439 0.000000 0.000000 0.000000
# 3 -0.000005 -0.005439 0.013591 0.000000 0.000000 0.000000
# 4 0.000000 0.000000 0.000000 0.085312 0.000000 0.000000
# 5 0.000000 0.000000 0.000000 0.000000 0.064994 0.000000
# 6 0.000000 0.000000 0.000000 0.000000 0.000000 0.022633
#
#
# Mechanical properties :
#
#
# Convention : Reuss Voigt Hill
#
# Bulk Modulus (GPa) = 43.27065 49.22407 46.24736
# Shear Modulus (GPa) = 21.54219 29.23821 25.39020
#
# Velocity S-wave (km/s) = 2.97035 3.46049 3.22474
# Velocity P-wave (km/s) = 5.43011 6.01059 5.72771
#
# Compressibility (1/GPa) = 0.02311035
#
# Stress axis : x y z
#
# Youngs Moduli (GPa) = 74.28355 97.72687 73.57879
#
# Poissons Ratio (x) = 0.16062 0.00036
# Poissons Ratio (y) = 0.12209 0.40020
# Poissons Ratio (z) = 0.00036 0.53154
#
# Static dielectric constant tensor:
#      x y z
#    x 2.095050 0.000000 0.000000 
#    y 0.000000 1.894520 0.000000 
#    z 0.000000 0.000000 1.860920 
# 
# From -- ./inp_files/2916.got.cif
#   From: 2010.05.17/outbox.cif.g08.bks.cpg/sg55_2_cif.got.tgz:2916.got - 2010.06.03 13:27:54.
