data_PCOD9426119
_publ_section_title
;
Structure prediction by ZEFSAII (Michael W. Deem and Ramdas Pophale) SiO2 
 PCOD9426119
Probable space group: P B A M
;
_chemical_formula_sum "Si O2"
_cell_formula_units_Z 64
_cell_length_a 12.973919
_cell_length_b 28.401098
_cell_length_c 9.136893
_cell_angle_alpha 90.000000
_cell_angle_beta 90.000000
_cell_angle_gamma 90.000000
_cell_volume 3366.703354
_symmetry_space_group_name_H-M "P B A M"
_symmetry_group_IT_number 55
_symmetry_cell_setting 'orthorhombic'
loop_
_space_group_symop_operation_xyz
x,y,z
-x,-y,z
1/2+x,1/2-y,-z
1/2-x,1/2+y,-z
-x,-y,-z
x,y,-z
1/2-x,1/2+y,z
1/2+x,1/2-y,z
loop_
_atom_site_type_symbol
_atom_site_label
_atom_site_fract_x
_atom_site_fract_y
_atom_site_fract_z
Si Si1 0.925828 0.167483 0.672650
Si Si2 0.380284 0.512279 0.834890
Si Si3 0.303563 0.424309 0.329932
Si Si4 0.770738 0.912214 0.327094
Si Si5 0.770742 0.713966 0.175290
Si Si6 0.338172 0.690375 0.674735
Si Si7 0.112045 0.378153 0.174047
Si Si8 0.541987 0.948298 0.675022
O O1 0.913948 0.178570 0.500000
O O2 0.897945 0.112205 0.688271
O O3 0.837627 0.195245 0.760378
O O4 0.042709 0.179173 0.714632
O O5 0.500000 0.500000 0.838807
O O6 0.331131 0.476001 0.721188
O O7 0.355893 0.563516 0.773440
O O8 0.339035 0.506553 0.000000
O O9 0.271580 0.423184 0.500000
O O10 0.213086 0.405934 0.227090
O O11 0.795454 0.917720 0.500000
O O12 0.770907 0.856497 0.297508
O O13 0.662681 0.938534 0.297821
O O14 0.797939 0.764438 0.240352
O O15 0.859981 0.675747 0.215548
O O16 0.764381 0.715168 0.000000
O O17 0.335207 0.699413 0.500000
O O18 0.019369 0.405431 0.251167
O O19 0.099625 0.380335 0.000000
O O20 0.525836 0.946165 0.500000
O O21 0.500000 0.000000 0.723455
#
# Coordination Sequence:
#
# PCOD9426119 Si02
#       8
#     8   8   8   8   8   8   8   8
#     4   9  19  36  58  82 108 143 187 233 282 334
#     4  11  23  36  53  81 115 148 181 220 272 333
#     4  10  19  34  58  83 108 141 183 229 274 323
#     4  10  22  39  58  83 114 148 192 240 281 333
#     4  10  22  38  57  84 115 148 189 237 290 349
#     4  10  21  38  59  83 112 147 190 239 288 336
#     4  10  21  37  57  82 112 146 187 233 282 338
#     4  10  21  37  58  85 117 154 194 236 286 343
#
# _framework density 19.009695000000001
#
# number of rings (size 3 to 8) (size 9 to 14) (size 15 to 20)
#    0.000    2.000    0.000    3.000    0.000    7.750 
#    0.000    3.750    0.000    0.000    0.000    0.000 
#    0.000    0.000    0.000    0.000    0.000    0.000 
#
# Total GULP energy -357224.001765 kJ/mol
# GULP energy per Si atom -5581.625028 kJ/mol
# Density = 1.896643 g / cm^3
# Si number density = 19.009695 Si / 1000 Ang^3
#
#
#
# Elastic Constant Matrix: (Units=GPa)
#
#
# Indices 1 2 3 4 5 6 
#
# 1 64.0589 34.1925 33.3011 0.0000 0.0000 0.0000
# 2 34.1925 115.8585 45.4188 0.0000 0.0000 0.0000
# 3 33.3011 45.4188 31.0924 0.0000 0.0000 0.0000
# 4 0.0000 0.0000 0.0000 25.8658 0.0000 0.0000
# 5 0.0000 0.0000 0.0000 0.0000 16.4577 0.0000
# 6 0.0000 0.0000 0.0000 0.0000 0.0000 27.3494
#
#
#
# Elastic Compliance Matrix: (Units=1/GPa)
#
#
# Indices 1 2 3 4 5 6 
#
# 1 0.041367 0.012075 -0.061945 0.000000 0.000000 0.000000
# 2 0.012075 0.023722 -0.047585 0.000000 0.000000 0.000000
# 3 -0.061945 -0.047585 0.168017 0.000000 0.000000 0.000000
# 4 0.000000 0.000000 0.000000 0.038661 0.000000 0.000000
# 5 0.000000 0.000000 0.000000 0.000000 0.060762 0.000000
# 6 0.000000 0.000000 0.000000 0.000000 0.000000 0.036564
#
#
# Mechanical properties :
#
#
# Convention : Reuss Voigt Hill
#
# Bulk Modulus (GPa) = 26.17968 48.53717 37.35843
# Shear Modulus (GPa) = 8.66951 20.47441 14.57196
#
# Velocity S-wave (km/s) = 2.13787 3.28541 2.77167
# Velocity P-wave (km/s) = 4.46045 6.32298 5.47155
#
# Compressibility (1/GPa) = 0.03819757
#
# Stress axis : x y z
#
# Youngs Moduli (GPa) = 24.17363 42.15550 5.95178
#
# Poissons Ratio (x) = -0.50903 0.36868
# Poissons Ratio (y) = -0.29190 0.28321
# Poissons Ratio (z) = 1.49743 2.00595
#
# Static dielectric constant tensor:
#      x y z
#    x 1.670170 0.000000 0.000000 
#    y 0.000000 1.659890 0.000000 
#    z 0.000000 0.000000 1.634870 
# 
# From -- ./inp_files/4700.got.cif
#   From: 2010.05.17/outbox.cif.g08.bks.cpg/sg55_3_cif.got.tgz:4700.got - 2010.06.03 13:27:54.
