data_PCOD9426164
_publ_section_title
;
Structure prediction by ZEFSAII (Michael W. Deem and Ramdas Pophale) SiO2 
 PCOD9426164
Probable space group: P B A M
;
_chemical_formula_sum "Si O2"
_cell_formula_units_Z 64
_cell_length_a 15.685148
_cell_length_b 24.798614
_cell_length_c 7.653438
_cell_angle_alpha 90.000000
_cell_angle_beta 90.000000
_cell_angle_gamma 90.000000
_cell_volume 2976.957249
_symmetry_space_group_name_H-M "P B A M"
_symmetry_group_IT_number 55
_symmetry_cell_setting 'orthorhombic'
loop_
_space_group_symop_operation_xyz
x,y,z
-x,-y,z
1/2+x,1/2-y,-z
1/2-x,1/2+y,-z
-x,-y,-z
x,y,-z
1/2-x,1/2+y,z
1/2+x,1/2-y,z
loop_
_atom_site_type_symbol
_atom_site_label
_atom_site_fract_x
_atom_site_fract_y
_atom_site_fract_z
Si Si1 0.829999 0.366652 0.289098
Si Si2 0.017635 0.941141 0.295934
Si Si3 0.139063 0.133082 0.207433
Si Si4 0.589292 0.250000 0.792175
Si Si5 0.639063 0.133082 0.792567
Si Si6 0.170001 0.866651 0.289098
Si Si7 0.517635 0.941141 0.295934
Si Si8 0.388729 0.250000 0.289025
O O1 0.836377 0.364772 0.500000
O O2 0.735319 0.384744 0.241909
O O3 0.903890 0.406359 0.221961
O O4 0.846597 0.305484 0.224780
O O5 0.039257 0.949760 0.500000
O O6 0.096110 0.906359 0.221961
O O7 0.932680 0.905390 0.285362
O O8 0.000000 0.000000 0.217471
O O9 0.127388 0.194153 0.277883
O O10 0.123919 0.133990 0.000000
O O11 0.627388 0.194153 0.722117
O O12 0.488190 0.250000 0.759941
O O13 0.604951 0.250000 0.000000
O O14 0.735319 0.115256 0.758091
O O15 0.567320 0.094610 0.714638
O O16 0.623919 0.133990 0.000000
O O17 0.163622 0.864772 0.500000
O O18 0.153403 0.805484 0.224780
O O19 0.539256 0.949760 0.500000
O O20 0.500000 0.000000 0.217471
O O21 0.383571 0.250000 0.500000
#
# Coordination Sequence:
#
# PCOD9426164 Si02
#       8
#     8   8   8   8   8   8   8   8
#     4  10  21  37  59  87 116 148 190 239 289 342
#     4  10  22  41  63  85 113 152 198 247 293 338
#     4  11  23  38  59  87 119 155 191 233 289 350
#     4  10  21  36  56  85 119 153 185 227 289 350
#     4  11  23  38  59  87 119 155 191 233 289 350
#     4  10  21  37  59  87 116 148 190 239 289 342
#     4  10  22  41  63  85 113 152 198 247 293 338
#     4  10  19  34  60  89 113 147 193 239 287 340
#
# _framework density 21.498460000000001
#
# number of rings (size 3 to 8) (size 9 to 14) (size 15 to 20)
#    0.000    1.750    2.500    1.500    0.000    4.500 
#    0.000    5.000    0.000    0.000    0.000    0.000 
#    0.000    0.000    0.000    0.000    0.000    0.000 
#
# Total GULP energy -357685.226101 kJ/mol
# GULP energy per Si atom -5588.831658 kJ/mol
# Density = 2.144953 g / cm^3
# Si number density = 21.498460 Si / 1000 Ang^3
#
#
#
# Elastic Constant Matrix: (Units=GPa)
#
#
# Indices 1 2 3 4 5 6 
#
# 1 132.3150 50.2835 -32.9391 0.0000 0.0000 0.0000
# 2 50.2835 139.2026 -4.8404 0.0000 0.0000 0.0000
# 3 -32.9391 -4.8404 37.1386 0.0000 0.0000 0.0000
# 4 0.0000 0.0000 0.0000 -14.0545 0.0000 0.0000
# 5 0.0000 0.0000 0.0000 0.0000 44.8663 0.0000
# 6 0.0000 0.0000 0.0000 0.0000 0.0000 -4.0211
#
#
#
# Elastic Compliance Matrix: (Units=1/GPa)
#
#
# Indices 1 2 3 4 5 6 
#
# 1 0.011385 -0.003778 0.009605 0.000000 0.000000 0.000000
# 2 -0.003778 0.008471 -0.002247 0.000000 0.000000 0.000000
# 3 0.009605 -0.002247 0.035152 0.000000 0.000000 0.000000
# 4 0.000000 0.000000 0.000000 -0.071152 0.000000 0.000000
# 5 0.000000 0.000000 0.000000 0.000000 0.022288 0.000000
# 6 0.000000 0.000000 0.000000 0.000000 0.000000 -0.248691
#
#
# Mechanical properties :
#
#
# Convention : Reuss Voigt Hill
#
# Bulk Modulus (GPa) = 16.08599 37.07380 26.57990
# Shear Modulus (GPa) = -21.83564 25.10162 1.63299
#
# Velocity S-wave (km/s) = -3.19044 3.42072 0.87249
# Velocity P-wave (km/s) = 2.46439 5.73447 3.66134
#
# Compressibility (1/GPa) = 0.06216589
#
# Stress axis : x y z
#
# Youngs Moduli (GPa) = 87.83679 118.05656 28.44777
#
# Poissons Ratio (x) = 0.44607 -0.27324
# Poissons Ratio (y) = 0.33189 0.06393
# Poissons Ratio (z) = -0.84367 0.26530
#
# Static dielectric constant tensor:
#      x y z
#    x 1.728720 0.000000 0.000000 
#    y 0.000000 1.795320 0.000000 
#    z 0.000000 0.000000 2.145800 
# 
# From -- ./inp_files/6518.got.cif
#   From: 2010.05.17/outbox.cif.g08.bks.cpg/sg55_4_cif.got.tgz:6518.got - 2010.06.03 13:27:54.
