data_PCOD9426775
_publ_section_title
;
Structure prediction by ZEFSAII (Michael W. Deem and Ramdas Pophale) SiO2 
 PCOD9426775
Probable space group: P B A M
;
_chemical_formula_sum "Si O2"
_cell_formula_units_Z 40
_cell_length_a 8.359451
_cell_length_b 12.506895
_cell_length_c 16.998355
_cell_angle_alpha 90.000000
_cell_angle_beta 90.000000
_cell_angle_gamma 90.000000
_cell_volume 1777.191205
_symmetry_space_group_name_H-M "P B A M"
_symmetry_group_IT_number 55
_symmetry_cell_setting 'orthorhombic'
loop_
_space_group_symop_operation_xyz
x,y,z
-x,-y,z
1/2+x,1/2-y,-z
1/2-x,1/2+y,-z
-x,-y,-z
x,y,-z
1/2-x,1/2+y,z
1/2+x,1/2-y,z
loop_
_atom_site_type_symbol
_atom_site_label
_atom_site_fract_x
_atom_site_fract_y
_atom_site_fract_z
Si Si1 0.944663 0.711626 0.909193
Si Si2 0.326598 0.258530 0.318485
Si Si3 0.446014 0.877014 0.409846
Si Si4 0.842948 0.429018 0.804334
Si Si5 0.628589 0.621984 0.171002
O O1 0.810087 0.001814 0.822679
O O2 0.795600 0.679761 0.855145
O O3 0.003906 0.831207 0.891221
O O4 0.906925 0.695255 0.000000
O O5 0.412571 0.207787 0.393818
O O6 0.184651 0.333853 0.348317
O O7 0.300581 0.153551 0.264504
O O8 0.421036 0.333257 0.256482
O O9 0.390104 0.870293 0.500000
O O10 0.500000 0.000000 0.397389
O O11 0.910933 0.365093 0.879938
O O12 0.000000 0.500000 0.781122
#
# Coordination Sequence:
#
# PCOD9426775 Si02
#       5
#     8   8   8   8   8
#     4  10  20  34  54  81 114 154 200 247 298 352
#     4  11  20  39  64  87 120 157 199 245 293 360
#     4  11  24  42  65  93 124 157 194 244 304 359
#     4   9  19  35  58  86 112 153 206 250 297 349
#     4  10  20  35  55  80 111 149 195 243 293 348
#
# _framework density 22.507425999999999
#
# number of rings (size 3 to 8) (size 9 to 14) (size 15 to 20)
#    0.000    1.800    0.000    6.600    0.000    4.400 
#    0.000   14.000    0.000   13.200    0.000    0.000 
#    0.000    0.000    0.000    0.000    0.000    0.000 
#
# Total GULP energy -223278.816859 kJ/mol
# GULP energy per Si atom -5581.970421 kJ/mol
# Density = 2.245620 g / cm^3
# Si number density = 22.507426 Si / 1000 Ang^3
#
#
#
# Elastic Constant Matrix: (Units=GPa)
#
#
# Indices 1 2 3 4 5 6 
#
# 1 39.5446 32.3631 9.9200 0.0000 0.0000 0.0000
# 2 32.3631 94.1607 41.2100 0.0000 0.0000 0.0000
# 3 9.9200 41.2100 107.2357 0.0000 0.0000 0.0000
# 4 0.0000 0.0000 0.0000 23.6434 0.0000 0.0000
# 5 0.0000 0.0000 0.0000 0.0000 19.7889 0.0000
# 6 0.0000 0.0000 0.0000 0.0000 0.0000 55.3282
#
#
#
# Elastic Compliance Matrix: (Units=1/GPa)
#
#
# Indices 1 2 3 4 5 6 
#
# 1 0.035437 -0.012917 0.001686 0.000000 0.000000 0.000000
# 2 -0.012917 0.017476 -0.005521 0.000000 0.000000 0.000000
# 3 0.001686 -0.005521 0.011291 0.000000 0.000000 0.000000
# 4 0.000000 0.000000 0.000000 0.042295 0.000000 0.000000
# 5 0.000000 0.000000 0.000000 0.000000 0.050533 0.000000
# 6 0.000000 0.000000 0.000000 0.000000 0.000000 0.018074
#
#
# Mechanical properties :
#
#
# Convention : Reuss Voigt Hill
#
# Bulk Modulus (GPa) = 32.57464 45.32525 38.94994
# Shear Modulus (GPa) = 22.84730 30.24861 26.54796
#
# Velocity S-wave (km/s) = 3.18952 3.66995 3.43814
# Velocity P-wave (km/s) = 5.29795 6.17574 5.75361
#
# Compressibility (1/GPa) = 0.03069873
#
# Stress axis : x y z
#
# Youngs Moduli (GPa) = 28.21939 57.22060 88.56620
#
# Poissons Ratio (x) = 0.73915 -0.14932
# Poissons Ratio (y) = 0.36452 0.48898
# Poissons Ratio (z) = -0.04758 0.31592
#
# Static dielectric constant tensor:
#      x y z
#    x 1.913700 0.000000 0.000000 
#    y 0.000000 1.884970 0.000000 
#    z 0.000000 0.000000 1.759730 
# 
# From -- ./inp_files/20611.got.cif
#   From: 2010.05.17/outbox.cif.g08.bks.cpg/sg55_11_cif.got.tgz:20611.got - 2010.06.03 13:27:54.
