data_PCOD9426311
_publ_section_title
;
Structure prediction by ZEFSAII (Michael W. Deem and Ramdas Pophale) SiO2 
 PCOD9426311
Probable space group: P B A M
;
_chemical_formula_sum "Si O2"
_cell_formula_units_Z 58
_cell_length_a 22.070196
_cell_length_b 15.887552
_cell_length_c 7.484593
_cell_angle_alpha 90.000000
_cell_angle_beta 90.000000
_cell_angle_gamma 90.000000
_cell_volume 2624.408068
_symmetry_space_group_name_H-M "P B A M"
_symmetry_group_IT_number 55
_symmetry_cell_setting 'orthorhombic'
loop_
_space_group_symop_operation_xyz
x,y,z
-x,-y,z
1/2+x,1/2-y,-z
1/2-x,1/2+y,-z
-x,-y,-z
x,y,-z
1/2-x,1/2+y,z
1/2+x,1/2-y,z
loop_
_atom_site_type_symbol
_atom_site_label
_atom_site_fract_x
_atom_site_fract_y
_atom_site_fract_z
Si Si1 0.500000 0.000000 0.000000
Si Si2 0.271784 0.698616 0.280489
Si Si3 0.401299 0.633411 0.293715
Si Si4 0.869594 0.051291 0.204156
Si Si5 0.738487 0.111132 0.295490
Si Si6 0.968664 0.187339 0.714388
Si Si7 0.041942 0.615611 0.712324
Si Si8 0.175940 0.556030 0.718011
O O1 0.505623 0.072048 0.841313
O O2 0.269574 0.697266 0.500000
O O3 0.338095 0.668325 0.220490
O O4 0.261868 0.794591 0.219393
O O5 0.221011 0.631043 0.223745
O O6 0.402071 0.661471 0.500000
O O7 0.397610 0.532697 0.286648
O O8 0.464638 0.664181 0.215285
O O9 0.807276 0.078190 0.295329
O O10 0.917484 0.126375 0.211344
O O11 0.854556 0.031468 0.000000
O O12 0.717243 0.120712 0.500000
O O13 0.698772 0.035016 0.216856
O O14 0.967963 0.173388 0.500000
O O15 0.955064 0.284849 0.744329
O O16 0.031248 0.602379 0.500000
O O17 0.106962 0.576076 0.766169
O O18 0.178522 0.555178 0.500000
#
# Coordination Sequence:
#
# PCOD9426311 Si02
#       8
#     2   8   8   8   8   8   8   8
#     4  12  26  44  68  98 126 180 210 274 340 376
#     4   9  17  32  59  92 119 151 204 264 317 375
#     4  10  20  38  63  90 121 162 213 266 320 386
#     4  12  24  37  57  90 131 170 206 260 329 393
#     4  10  19  35  63  90 118 160 211 261 316 384
#     4  10  22  40  66  92 121 166 219 269 319 385
#     4  10  23  44  68  97 131 172 226 275 324 395
#     4   9  17  34  61  89 121 160 206 266 318 371
#
# _framework density 22.100223
#
# number of rings (size 3 to 8) (size 9 to 14) (size 15 to 20)
#    0.000    1.931    1.379    2.690    0.966    5.517 
#    1.241    4.828    0.000    0.000    0.000    0.000 
#    0.000    0.000    0.000    0.000    0.000    0.000 
#
# Total GULP energy -323562.554675 kJ/mol
# GULP energy per Si atom -5578.664736 kJ/mol
# Density = 2.204992 g / cm^3
# Si number density = 22.100223 Si / 1000 Ang^3
#
#
#
# Elastic Constant Matrix: (Units=GPa)
#
#
# Indices 1 2 3 4 5 6 
#
# 1 33.2737 35.4817 13.2757 0.0000 0.0000 0.0000
# 2 35.4817 101.6549 3.9815 0.0000 0.0000 0.0000
# 3 13.2757 3.9815 67.9961 0.0000 0.0000 0.0000
# 4 0.0000 0.0000 0.0000 82.9907 0.0000 0.0000
# 5 0.0000 0.0000 0.0000 0.0000 4.4782 0.0000
# 6 0.0000 0.0000 0.0000 0.0000 0.0000 31.2989
#
#
#
# Elastic Compliance Matrix: (Units=1/GPa)
#
#
# Indices 1 2 3 4 5 6 
#
# 1 0.053173 -0.018195 -0.009316 0.000000 0.000000 0.000000
# 2 -0.018195 0.016086 0.002610 0.000000 0.000000 0.000000
# 3 -0.009316 0.002610 0.016373 0.000000 0.000000 0.000000
# 4 0.000000 0.000000 0.000000 0.012050 0.000000 0.000000
# 5 0.000000 0.000000 0.000000 0.000000 0.223306 0.000000
# 6 0.000000 0.000000 0.000000 0.000000 0.000000 0.031950
#
#
# Mechanical properties :
#
#
# Convention : Reuss Voigt Hill
#
# Bulk Modulus (GPa) = 27.90918 34.26694 31.08806
# Shear Modulus (GPa) = 12.05747 33.76595 22.91171
#
# Velocity S-wave (km/s) = 2.33830 3.91302 3.22330
# Velocity P-wave (km/s) = 4.46610 5.99621 5.28681
#
# Compressibility (1/GPa) = 0.03583051
#
# Stress axis : x y z
#
# Youngs Moduli (GPa) = 18.80667 62.16748 61.07696
#
# Poissons Ratio (x) = 1.13111 0.56901
# Poissons Ratio (y) = 0.34218 -0.15944
# Poissons Ratio (z) = 0.17521 -0.16229
#
# Static dielectric constant tensor:
#      x y z
#    x 1.800410 0.000000 0.000000 
#    y 0.000000 1.787060 0.000000 
#    z 0.000000 0.000000 1.774800 
# 
# From -- ./inp_files/9574.got.cif
#   From: 2010.05.17/outbox.cif.g08.bks.cpg/sg55_5_cif.got.tgz:9574.got - 2010.06.03 13:27:54.
