data_PCOD9426524
_publ_section_title
;
Structure prediction by ZEFSAII (Michael W. Deem and Ramdas Pophale) SiO2 
 PCOD9426524
Probable space group: P B A M
;
_chemical_formula_sum "Si O2"
_cell_formula_units_Z 48
_cell_length_a 27.414290
_cell_length_b 5.261038
_cell_length_c 17.068724
_cell_angle_alpha 90.000000
_cell_angle_beta 90.000000
_cell_angle_gamma 90.000000
_cell_volume 2461.781463
_symmetry_space_group_name_H-M "P B A M"
_symmetry_group_IT_number 55
_symmetry_cell_setting 'orthorhombic'
loop_
_space_group_symop_operation_xyz
x,y,z
-x,-y,z
1/2+x,1/2-y,-z
1/2-x,1/2+y,-z
-x,-y,-z
x,y,-z
1/2-x,1/2+y,z
1/2+x,1/2-y,z
loop_
_atom_site_type_symbol
_atom_site_label
_atom_site_fract_x
_atom_site_fract_y
_atom_site_fract_z
Si Si1 0.052582 0.466439 0.321589
Si Si2 0.717435 0.905750 0.588700
Si Si3 0.418145 0.486550 0.592137
Si Si4 0.651656 0.223276 0.693053
Si Si5 0.692876 0.459636 0.844255
Si Si6 0.302718 0.040384 0.090853
O O1 0.099830 0.375486 0.272684
O O2 0.000000 0.500000 0.282733
O O3 0.951303 0.769312 0.383504
O O4 0.066731 0.728842 0.364300
O O5 0.696833 0.924216 0.500000
O O6 0.742552 0.632529 0.596243
O O7 0.678720 0.986391 0.653797
O O8 0.417907 0.448851 0.500000
O O9 0.365783 0.584898 0.624568
O O10 0.683930 0.364961 0.756850
O O11 0.749775 0.492190 0.867724
O O12 0.670847 0.732377 0.864303
O O13 0.673327 0.233199 0.898733
O O14 0.295425 0.105811 0.000000
#
# Coordination Sequence:
#
# PCOD9426524 Si02
#       6
#     8   8   8   8   8   8
#     4  10  23  39  57  79 109 141 187 248 297 337
#     4  10  23  37  51  69 102 147 190 229 268 311
#     4  10  22  37  56  77 107 141 185 240 286 329
#     4  10  25  35  56  79 112 140 194 225 280 329
#     4  10  20  31  55  76 109 143 175 213 262 324
#     4  10  20  36  55  81 111 143 177 217 267 321
#
# _framework density 19.498076000000001
#
# number of rings (size 3 to 8) (size 9 to 14) (size 15 to 20)
#    1.000    1.000    0.000    4.000    9.333    2.000 
#    0.000    0.000    0.000    0.000    0.000    0.000 
#    0.000    7.333    0.000    0.000    0.000    0.000 
#
# Total GULP energy -267490.592762 kJ/mol
# GULP energy per Si atom -5572.720683 kJ/mol
# Density = 1.945370 g / cm^3
# Si number density = 19.498076 Si / 1000 Ang^3
#
#
#
# Elastic Constant Matrix: (Units=GPa)
#
#
# Indices 1 2 3 4 5 6 
#
# 1 41.9250 -5.5968 9.2884 0.0000 0.0000 0.0000
# 2 -5.5968 110.2839 -19.4893 0.0000 0.0000 0.0000
# 3 9.2884 -19.4893 28.7786 0.0000 0.0000 0.0000
# 4 0.0000 0.0000 0.0000 21.0761 0.0000 0.0000
# 5 0.0000 0.0000 0.0000 0.0000 10.1293 0.0000
# 6 0.0000 0.0000 0.0000 0.0000 0.0000 10.9693
#
#
#
# Elastic Compliance Matrix: (Units=1/GPa)
#
#
# Indices 1 2 3 4 5 6 
#
# 1 0.025692 -0.000184 -0.008417 0.000000 0.000000 0.000000
# 2 -0.000184 0.010302 0.007036 0.000000 0.000000 0.000000
# 3 -0.008417 0.007036 0.042229 0.000000 0.000000 0.000000
# 4 0.000000 0.000000 0.000000 0.047447 0.000000 0.000000
# 5 0.000000 0.000000 0.000000 0.000000 0.098723 0.000000
# 6 0.000000 0.000000 0.000000 0.000000 0.000000 0.091164
#
#
# Mechanical properties :
#
#
# Convention : Reuss Voigt Hill
#
# Bulk Modulus (GPa) = 13.31665 16.59911 14.95788
# Shear Modulus (GPa) = 14.54684 21.55396 18.05040
#
# Velocity S-wave (km/s) = 2.73438 3.32842 3.04592
# Velocity P-wave (km/s) = 4.10045 4.82731 4.47865
#
# Compressibility (1/GPa) = 0.07509395
#
# Stress axis : x y z
#
# Youngs Moduli (GPa) = 38.92219 97.07303 23.68032
#
# Poissons Ratio (x) = 0.01781 0.19931
# Poissons Ratio (y) = 0.00714 -0.16661
# Poissons Ratio (z) = 0.32759 -0.68297
#
# Static dielectric constant tensor:
#      x y z
#    x 1.809540 0.000000 0.000000 
#    y 0.000000 1.783570 0.000000 
#    z 0.000000 0.000000 1.684600 
# 
# From -- ./inp_files/20054.got.cif
#   From: 2010.05.17/outbox.cif.g08.bks.cpg/sg55_11_cif.got.tgz:20054.got - 2010.06.03 13:27:54.
