data_PCOD9426099
_publ_section_title
;
Structure prediction by ZEFSAII (Michael W. Deem and Ramdas Pophale) SiO2 
 PCOD9426099
Probable space group: P B A M
;
_chemical_formula_sum "Si O2"
_cell_formula_units_Z 48
_cell_length_a 16.682894
_cell_length_b 7.860778
_cell_length_c 16.218729
_cell_angle_alpha 90.000000
_cell_angle_beta 90.000000
_cell_angle_gamma 90.000000
_cell_volume 2126.932654
_symmetry_space_group_name_H-M "P B A M"
_symmetry_group_IT_number 55
_symmetry_cell_setting 'orthorhombic'
loop_
_space_group_symop_operation_xyz
x,y,z
-x,-y,z
1/2+x,1/2-y,-z
1/2-x,1/2+y,-z
-x,-y,-z
x,y,-z
1/2-x,1/2+y,z
1/2+x,1/2-y,z
loop_
_atom_site_type_symbol
_atom_site_label
_atom_site_fract_x
_atom_site_fract_y
_atom_site_fract_z
Si Si1 0.626404 0.377943 0.000000
Si Si2 0.124626 0.109500 0.179857
Si Si3 0.041965 0.227352 0.342147
Si Si4 0.625090 0.906548 0.342785
Si Si5 0.300207 0.242582 0.000000
Si Si6 0.300792 0.230800 0.820244
Si Si7 0.212567 0.730085 0.500000
Si Si8 0.122883 0.089269 0.500000
O O1 0.585632 0.361960 0.910792
O O2 0.703550 0.254561 0.000000
O O3 0.664953 0.567390 0.000000
O O4 0.066033 0.147020 0.254866
O O5 0.204246 0.227360 0.185607
O O6 0.161146 0.918949 0.185530
O O7 0.089421 0.405772 0.348582
O O8 0.071460 0.115232 0.418187
O O9 0.949299 0.276268 0.348100
O O10 0.666602 0.877503 0.255243
O O11 0.684206 0.865799 0.417559
O O12 0.322466 0.162123 0.088061
O O13 0.307968 0.732830 0.500000
O O14 0.169777 0.912028 0.500000
#
# Coordination Sequence:
#
# PCOD9426099 Si02
#       8
#     4   8   8   8   4   8   4   4
#     4   8  16  30  51  80 111 145 185 233 281 324
#     4  10  19  34  57  84 114 148 190 235 280 331
#     4  11  24  41  59  82 115 151 186 228 279 332
#     4  11  24  41  59  82 115 151 186 228 279 332
#     4   8  16  30  51  80 111 145 185 233 281 324
#     4  10  19  34  57  84 114 148 190 235 280 331
#     4  12  25  42  65  89 113 143 183 228 275 330
#     4  12  25  42  65  89 113 143 183 228 275 330
#
# _framework density 22.567710999999999
#
# number of rings (size 3 to 8) (size 9 to 14) (size 15 to 20)
#    0.000    1.667    0.000    5.000    0.000    6.000 
#    0.000    0.833    0.000    5.000    0.000    0.000 
#    0.000    0.000    0.000    0.000    0.000    0.000 
#
# Total GULP energy -268571.473395 kJ/mol
# GULP energy per Si atom -5595.239029 kJ/mol
# Density = 2.251635 g / cm^3
# Si number density = 22.567711 Si / 1000 Ang^3
#
#
#
# Elastic Constant Matrix: (Units=GPa)
#
#
# Indices 1 2 3 4 5 6 
#
# 1 68.3787 13.2951 53.3424 0.0000 0.0000 0.0000
# 2 13.2951 70.3619 36.1821 0.0000 0.0000 0.0000
# 3 53.3424 36.1821 203.4968 0.0000 0.0000 0.0000
# 4 0.0000 0.0000 0.0000 0.5761 0.0000 0.0000
# 5 0.0000 0.0000 0.0000 0.0000 -42.1075 0.0000
# 6 0.0000 0.0000 0.0000 0.0000 0.0000 41.9994
#
#
#
# Elastic Compliance Matrix: (Units=1/GPa)
#
#
# Indices 1 2 3 4 5 6 
#
# 1 0.018461 -0.001100 -0.004643 0.000000 0.000000 0.000000
# 2 -0.001100 0.015708 -0.002504 0.000000 0.000000 0.000000
# 3 -0.004643 -0.002504 0.006577 0.000000 0.000000 0.000000
# 4 0.000000 0.000000 0.000000 1.735929 0.000000 0.000000
# 5 0.000000 0.000000 0.000000 0.000000 -0.023749 0.000000
# 6 0.000000 0.000000 0.000000 0.000000 0.000000 0.023810
#
#
# Mechanical properties :
#
#
# Convention : Reuss Voigt Hill
#
# Bulk Modulus (GPa) = 41.23937 60.87519 51.05728
# Shear Modulus (GPa) = 2.77575 16.05480 9.41527
#
# Velocity S-wave (km/s) = 1.11024 2.67011 2.04477
# Velocity P-wave (km/s) = 4.46730 6.04475 5.31488
#
# Compressibility (1/GPa) = 0.02424867
#
# Stress axis : x y z
#
# Youngs Moduli (GPa) = 54.16895 63.66173 152.05526
#
# Poissons Ratio (x) = 0.07006 0.70606
# Poissons Ratio (y) = 0.05961 0.38082
# Poissons Ratio (z) = 0.25153 0.15944
#
# Static dielectric constant tensor:
#      x y z
#    x 1.780980 0.000000 0.000000 
#    y 0.000000 1.851700 0.000000 
#    z 0.000000 0.000000 1.827450 
# 
# From -- ./inp_files/19419.got.cif
#   From: 2010.05.17/outbox.cif.g08.bks.cpg/sg55_10_cif.got.tgz:19419.got - 2010.06.03 13:27:54.
