data_PCOD9426419
_publ_section_title
;
Structure prediction by ZEFSAII (Michael W. Deem and Ramdas Pophale) SiO2 
 PCOD9426419
Probable space group: P B A M
;
_chemical_formula_sum "Si O2"
_cell_formula_units_Z 58
_cell_length_a 17.323976
_cell_length_b 14.392892
_cell_length_c 11.526973
_cell_angle_alpha 90.000000
_cell_angle_beta 90.000000
_cell_angle_gamma 90.000000
_cell_volume 2874.159834
_symmetry_space_group_name_H-M "P B A M"
_symmetry_group_IT_number 55
_symmetry_cell_setting 'orthorhombic'
loop_
_space_group_symop_operation_xyz
x,y,z
-x,-y,z
1/2+x,1/2-y,-z
1/2-x,1/2+y,-z
-x,-y,-z
x,y,-z
1/2-x,1/2+y,z
1/2+x,1/2-y,z
loop_
_atom_site_type_symbol
_atom_site_label
_atom_site_fract_x
_atom_site_fract_y
_atom_site_fract_z
Si Si1 0.224335 0.471602 0.870165
Si Si2 0.644868 0.099978 0.367490
Si Si3 0.817483 0.348086 0.233556
Si Si4 0.996311 0.852119 0.303371
Si Si5 0.130852 0.847167 0.866685
Si Si6 0.000000 0.000000 0.500000
Si Si7 0.469821 0.138455 0.631666
Si Si8 0.166220 0.177637 0.630676
O O1 0.184032 0.437041 0.750319
O O2 0.211957 0.581895 0.864368
O O3 0.311323 0.434012 0.858858
O O4 0.197439 0.438824 0.000000
O O5 0.666129 0.066695 0.500000
O O6 0.552326 0.089059 0.354160
O O7 0.662378 0.210606 0.369230
O O8 0.829337 0.242085 0.194015
O O9 0.899774 0.382065 0.282598
O O10 0.750668 0.351584 0.330132
O O11 0.022483 0.924519 0.399085
O O12 0.903754 0.859143 0.290478
O O13 0.048912 0.865036 0.191911
O O14 0.011513 0.747778 0.350041
O O15 0.120147 0.822586 0.000000
O O16 0.443778 0.123756 0.500000
O O17 0.148016 0.143872 0.500000
#
# Coordination Sequence:
#
# PCOD9426419 Si02
#       8
#     8   8   8   8   8   2   8   8
#     4  11  24  42  61  91 123 161 212 264 314 373
#     4   9  19  39  63  87 120 160 203 252 305 369
#     4  11  22  37  65  90 121 163 209 254 320 370
#     4  10  21  36  60  90 125 165 199 252 311 373
#     4  10  23  45  62  83 124 168 214 258 310 375
#     4  12  20  36  62  96 132 154 202 254 318 366
#     4   9  18  38  59  88 126 162 202 248 312 367
#     4  10  19  37  59  92 126 158 203 252 313 379
#
# _framework density 20.17981
#
# number of rings (size 3 to 8) (size 9 to 14) (size 15 to 20)
#    0.000    1.931    2.759    1.655    1.931    1.655 
#    1.241   10.690    0.000    0.000    0.000    0.000 
#    0.000    0.000    0.000    0.000    0.000    0.000 
#
# Total GULP energy -322936.885146 kJ/mol
# GULP energy per Si atom -5567.877330 kJ/mol
# Density = 2.013388 g / cm^3
# Si number density = 20.179810 Si / 1000 Ang^3
#
#
#
# Elastic Constant Matrix: (Units=GPa)
#
#
# Indices 1 2 3 4 5 6 
#
# 1 86.8957 11.4147 50.3509 0.0000 0.0000 0.0000
# 2 11.4147 32.2934 5.2259 0.0000 0.0000 0.0000
# 3 50.3509 5.2259 92.5847 0.0000 0.0000 0.0000
# 4 0.0000 0.0000 0.0000 23.8255 0.0000 0.0000
# 5 0.0000 0.0000 0.0000 0.0000 25.0373 0.0000
# 6 0.0000 0.0000 0.0000 0.0000 0.0000 18.2318
#
#
#
# Elastic Compliance Matrix: (Units=1/GPa)
#
#
# Indices 1 2 3 4 5 6 
#
# 1 0.017478 -0.004682 -0.009241 0.000000 0.000000 0.000000
# 2 -0.004682 0.032506 0.000712 0.000000 0.000000 0.000000
# 3 -0.009241 0.000712 0.015786 0.000000 0.000000 0.000000
# 4 0.000000 0.000000 0.000000 0.041972 0.000000 0.000000
# 5 0.000000 0.000000 0.000000 0.000000 0.039940 0.000000
# 6 0.000000 0.000000 0.000000 0.000000 0.000000 0.054849
#
#
# Mechanical properties :
#
#
# Convention : Reuss Voigt Hill
#
# Bulk Modulus (GPa) = 25.41489 38.41741 31.91615
# Shear Modulus (GPa) = 20.65523 23.07107 21.86315
#
# Velocity S-wave (km/s) = 3.20278 3.38490 3.29510
# Velocity P-wave (km/s) = 5.12822 5.86137 5.50701
#
# Compressibility (1/GPa) = 0.03934702
#
# Stress axis : x y z
#
# Youngs Moduli (GPa) = 57.21640 30.76352 63.34677
#
# Poissons Ratio (x) = 0.14405 0.58536
# Poissons Ratio (y) = 0.26791 -0.04508
# Poissons Ratio (z) = 0.52871 -0.02189
#
# Static dielectric constant tensor:
#      x y z
#    x 1.708100 0.000000 0.000000 
#    y 0.000000 1.786910 0.000000 
#    z 0.000000 0.000000 1.693330 
# 
# From -- ./inp_files/14927.got.cif
#   From: 2010.05.17/outbox.cif.g08.bks.cpg/sg55_8_cif.got.tgz:14927.got - 2010.06.03 13:27:54.
