data_PCOD9426630
_publ_section_title
;
Structure prediction by ZEFSAII (Michael W. Deem and Ramdas Pophale) SiO2 
 PCOD9426630
Probable space group: P B A M
;
_chemical_formula_sum "Si O2"
_cell_formula_units_Z 64
_cell_length_a 12.066267
_cell_length_b 18.701627
_cell_length_c 15.082190
_cell_angle_alpha 90.000000
_cell_angle_beta 90.000000
_cell_angle_gamma 90.000000
_cell_volume 3403.429270
_symmetry_space_group_name_H-M "P B A M"
_symmetry_group_IT_number 55
_symmetry_cell_setting 'orthorhombic'
loop_
_space_group_symop_operation_xyz
x,y,z
-x,-y,z
1/2+x,1/2-y,-z
1/2-x,1/2+y,-z
-x,-y,-z
x,y,-z
1/2-x,1/2+y,z
1/2+x,1/2-y,z
loop_
_atom_site_type_symbol
_atom_site_label
_atom_site_fract_x
_atom_site_fract_y
_atom_site_fract_z
Si Si1 0.690612 0.727834 0.398107
Si Si2 0.188246 0.853861 0.102264
Si Si3 0.879543 0.464025 0.729711
Si Si4 0.493555 0.171039 0.659528
Si Si5 0.744047 0.480880 0.099753
Si Si6 0.073568 0.137141 0.897832
Si Si7 0.168406 0.254754 0.770621
Si Si8 0.796168 0.583038 0.400220
O O1 0.726248 0.739964 0.500000
O O2 0.570668 0.763323 0.385081
O O3 0.771757 0.760163 0.323253
O O4 0.700803 0.642021 0.382818
O O5 0.233711 0.934290 0.110075
O O6 0.249649 0.803082 0.170977
O O7 0.056999 0.858266 0.118405
O O8 0.205549 0.830228 0.000000
O O9 0.822862 0.452531 0.823745
O O10 0.808947 0.519590 0.670143
O O11 0.000000 0.500000 0.741929
O O12 0.903679 0.389375 0.681999
O O13 0.557875 0.200617 0.745810
O O14 0.590615 0.130385 0.605875
O O15 0.625406 0.441928 0.108193
O O16 0.784712 0.465347 0.000000
O O17 0.135937 0.186556 0.827708
O O18 0.092845 0.161223 0.000000
O O19 0.785295 0.554902 0.500000
#
# Coordination Sequence:
#
# PCOD9426630 Si02
#       8
#     8   8   8   8   8   8   8   8
#     4  10  20  34  52  76 107 142 179 220 267 320
#     4  10  20  36  57  79 106 141 180 224 273 324
#     4  10  20  34  52  78 109 142 181 226 278 330
#     4  10  20  33  53  78 109 141 177 222 274 331
#     4  10  20  35  54  76 105 141 183 225 264 319
#     4  10  21  36  56  81 108 143 185 225 270 326
#     4  11  21  36  55  80 111 141 177 224 276 327
#     4   9  19  34  53  78 107 140 180 226 274 325
#
# _framework density 18.804563000000002
#
# number of rings (size 3 to 8) (size 9 to 14) (size 15 to 20)
#    0.000    2.000    0.000    4.875    0.000    5.000 
#    0.000    2.500    0.000    0.000    0.000    0.000 
#    0.000   25.000    0.000    0.000    0.000    0.000 
#
# Total GULP energy -357004.022964 kJ/mol
# GULP energy per Si atom -5578.187859 kJ/mol
# Density = 1.876176 g / cm^3
# Si number density = 18.804563 Si / 1000 Ang^3
#
#
#
# Elastic Constant Matrix: (Units=GPa)
#
#
# Indices 1 2 3 4 5 6 
#
# 1 34.9663 22.5066 23.3127 0.0000 0.0000 0.0000
# 2 22.5066 46.4270 18.3691 0.0000 0.0000 0.0000
# 3 23.3127 18.3691 81.5936 0.0000 0.0000 0.0000
# 4 0.0000 0.0000 0.0000 10.5554 0.0000 0.0000
# 5 0.0000 0.0000 0.0000 0.0000 24.2939 0.0000
# 6 0.0000 0.0000 0.0000 0.0000 0.0000 32.7112
#
#
#
# Elastic Compliance Matrix: (Units=1/GPa)
#
#
# Indices 1 2 3 4 5 6 
#
# 1 0.047031 -0.019192 -0.009117 0.000000 0.000000 0.000000
# 2 -0.019192 0.031477 -0.001603 0.000000 0.000000 0.000000
# 3 -0.009117 -0.001603 0.015222 0.000000 0.000000 0.000000
# 4 0.000000 0.000000 0.000000 0.094738 0.000000 0.000000
# 5 0.000000 0.000000 0.000000 0.000000 0.041163 0.000000
# 6 0.000000 0.000000 0.000000 0.000000 0.000000 0.030571
#
#
# Mechanical properties :
#
#
# Convention : Reuss Voigt Hill
#
# Bulk Modulus (GPa) = 29.49349 32.37375 30.93362
# Shear Modulus (GPa) = 15.09086 20.09866 17.59476
#
# Velocity S-wave (km/s) = 2.83593 3.27282 3.06218
# Velocity P-wave (km/s) = 5.14214 5.61561 5.38409
#
# Compressibility (1/GPa) = 0.03390579
#
# Stress axis : x y z
#
# Youngs Moduli (GPa) = 21.26270 31.76894 65.69633
#
# Poissons Ratio (x) = 0.60972 0.59894
# Poissons Ratio (y) = 0.40808 0.10530
# Poissons Ratio (z) = 0.19385 0.05092
#
# Static dielectric constant tensor:
#      x y z
#    x 1.649400 0.000000 0.000000 
#    y 0.000000 1.649650 0.000000 
#    z 0.000000 0.000000 1.654880 
# 
# From -- ./inp_files/18551.got.cif
#   From: 2010.05.17/outbox.cif.g08.bks.cpg/sg55_10_cif.got.tgz:18551.got - 2010.06.03 13:27:54.
