data_PCOD9426132
_publ_section_title
;
Structure prediction by ZEFSAII (Michael W. Deem and Ramdas Pophale) SiO2 
 PCOD9426132
Probable space group: P B A M
;
_chemical_formula_sum "Si O2"
_cell_formula_units_Z 40
_cell_length_a 25.032374
_cell_length_b 8.586931
_cell_length_c 7.664370
_cell_angle_alpha 90.000000
_cell_angle_beta 90.000000
_cell_angle_gamma 90.000000
_cell_volume 1647.466052
_symmetry_space_group_name_H-M "P B A M"
_symmetry_group_IT_number 55
_symmetry_cell_setting 'orthorhombic'
loop_
_space_group_symop_operation_xyz
x,y,z
-x,-y,z
1/2+x,1/2-y,-z
1/2-x,1/2+y,-z
-x,-y,-z
x,y,-z
1/2-x,1/2+y,z
1/2+x,1/2-y,z
loop_
_atom_site_type_symbol
_atom_site_label
_atom_site_fract_x
_atom_site_fract_y
_atom_site_fract_z
Si Si1 0.729456 0.649958 0.705932
Si Si2 0.022037 0.834811 0.713348
Si Si3 0.672048 0.330664 0.198767
Si Si4 0.372412 0.171421 0.713539
Si Si5 0.575051 0.142611 0.700740
O O1 0.737768 0.672896 0.500000
O O2 0.786176 0.687521 0.789506
O O3 0.703673 0.480582 0.731235
O O4 0.685393 0.773037 0.773189
O O5 0.020195 0.834468 0.500000
O O6 0.082533 0.797405 0.761243
O O7 0.980777 0.702136 0.775224
O O8 0.000000 0.000000 0.772968
O O9 0.617954 0.282557 0.295467
O O10 0.657623 0.360548 0.000000
O O11 0.368692 0.165798 0.500000
O O12 0.395336 0.007133 0.777859
O O13 0.563771 0.100080 0.500000
#
# Coordination Sequence:
#
# PCOD9426132 Si02
#       5
#     8   8   8   8   8
#     4  11  22  39  62  85 112 150 198 242 287 348
#     4   9  16  28  51  85 119 148 185 238 294 342
#     4  12  25  40  58  84 119 153 190 239 296 348
#     4   9  18  32  55  87 115 143 187 244 294 338
#     4  10  19  34  58  85 115 152 194 237 285 347
#
# _framework density 24.279710000000001
#
# number of rings (size 3 to 8) (size 9 to 14) (size 15 to 20)
#    0.000    1.800    0.000    5.400    0.000    7.200 
#    0.000    1.000    0.000    9.000    0.000    0.000 
#    0.000    0.000    0.000    0.000    0.000    0.000 
#
# Total GULP energy -223790.807680 kJ/mol
# GULP energy per Si atom -5594.770192 kJ/mol
# Density = 2.422445 g / cm^3
# Si number density = 24.279710 Si / 1000 Ang^3
#
#
#
# Elastic Constant Matrix: (Units=GPa)
#
#
# Indices 1 2 3 4 5 6 
#
# 1 91.5172 -14.8122 -5.2289 0.0000 0.0000 0.0000
# 2 -14.8122 60.5526 -6.0822 0.0000 0.0000 0.0000
# 3 -5.2289 -6.0822 58.1844 0.0000 0.0000 0.0000
# 4 0.0000 0.0000 0.0000 0.8631 0.0000 0.0000
# 5 0.0000 0.0000 0.0000 0.0000 -55.8456 0.0000
# 6 0.0000 0.0000 0.0000 0.0000 0.0000 41.6055
#
#
#
# Elastic Compliance Matrix: (Units=1/GPa)
#
#
# Indices 1 2 3 4 5 6 
#
# 1 0.011480 0.002943 0.001339 0.000000 0.000000 0.000000
# 2 0.002943 0.017444 0.002088 0.000000 0.000000 0.000000
# 3 0.001339 0.002088 0.017525 0.000000 0.000000 0.000000
# 4 0.000000 0.000000 0.000000 1.158552 0.000000 0.000000
# 5 0.000000 0.000000 0.000000 0.000000 -0.017907 0.000000
# 6 0.000000 0.000000 0.000000 0.000000 0.000000 0.024035
#
#
# Mechanical properties :
#
#
# Convention : Reuss Voigt Hill
#
# Bulk Modulus (GPa) = 16.89506 17.55639 17.22573
# Shear Modulus (GPa) = 4.10469 13.08311 8.59390
#
# Velocity S-wave (km/s) = 1.30163 2.32383 1.88341
# Velocity P-wave (km/s) = 3.03852 3.80090 3.44089
#
# Compressibility (1/GPa) = 0.05918888
#
# Stress axis : x y z
#
# Youngs Moduli (GPa) = 87.11029 57.32596 57.06016
#
# Poissons Ratio (x) = -0.16869 -0.07642
# Poissons Ratio (y) = -0.25633 -0.11914
# Poissons Ratio (z) = -0.11666 -0.11969
#
# Static dielectric constant tensor:
#      x y z
#    x 1.873790 0.000000 0.000000 
#    y 0.000000 1.968490 0.000000 
#    z 0.000000 0.000000 1.927260 
# 
# From -- ./inp_files/2280.got.cif
#   From: 2010.05.17/outbox.cif.g08.bks.cpg/sg55_2_cif.got.tgz:2280.got - 2010.06.03 13:27:54.
