data_PCOD9426029
_publ_section_title
;
Structure prediction by ZEFSAII (Michael W. Deem and Ramdas Pophale) SiO2 
 PCOD9426029
Probable space group: P B A M
;
_chemical_formula_sum "Si O2"
_cell_formula_units_Z 64
_cell_length_a 15.898968
_cell_length_b 24.640274
_cell_length_c 7.516191
_cell_angle_alpha 90.000000
_cell_angle_beta 90.000000
_cell_angle_gamma 90.000000
_cell_volume 2944.504863
_symmetry_space_group_name_H-M "P B A M"
_symmetry_group_IT_number 55
_symmetry_cell_setting 'orthorhombic'
loop_
_space_group_symop_operation_xyz
x,y,z
-x,-y,z
1/2+x,1/2-y,-z
1/2-x,1/2+y,-z
-x,-y,-z
x,y,-z
1/2-x,1/2+y,z
1/2+x,1/2-y,z
loop_
_atom_site_type_symbol
_atom_site_label
_atom_site_fract_x
_atom_site_fract_y
_atom_site_fract_z
Si Si1 0.846716 0.361145 0.209792
Si Si2 0.999365 0.937304 0.282093
Si Si3 0.158218 0.134291 0.285357
Si Si4 0.586843 0.251025 0.715700
Si Si5 0.651993 0.133972 0.715621
Si Si6 0.163689 0.875603 0.295871
Si Si7 0.508213 0.939397 0.210707
Si Si8 0.389437 0.256896 0.207295
O O1 0.751906 0.381254 0.230266
O O2 0.916016 0.402377 0.284664
O O3 0.854963 0.299910 0.283177
O O4 0.865695 0.355200 0.000000
O O5 0.998987 0.935183 0.500000
O O6 0.083131 0.906353 0.218157
O O7 0.915704 0.905628 0.223952
O O8 0.000000 0.000000 0.229898
O O9 0.156589 0.134529 0.500000
O O10 0.136358 0.195409 0.224831
O O11 0.585946 0.251112 0.500000
O O12 0.627915 0.194713 0.775869
O O13 0.490304 0.254632 0.775667
O O14 0.655655 0.135842 0.500000
O O15 0.743812 0.116779 0.783233
O O16 0.578049 0.093329 0.766773
O O17 0.168958 0.894652 0.500000
O O18 0.144276 0.811432 0.295775
O O19 0.500000 0.000000 0.285482
O O20 0.525378 0.945310 0.000000
O O21 0.366263 0.261398 0.000000
#
# Coordination Sequence:
#
# PCOD9426029 Si02
#       8
#     8   8   8   8   8   8   8   8
#     4  10  22  38  55  81 112 144 183 228 278 327
#     4   9  18  34  56  81 110 145 184 225 272 325
#     4  10  20  35  58  86 111 145 185 222 276 335
#     4  10  19  34  55  83 114 143 178 224 284 337
#     4  10  21  35  58  87 112 142 183 235 284 327
#     4  10  20  37  58  82 115 148 181 228 281 333
#     4  10  22  41  60  77 109 155 193 230 280 333
#     4  11  21  34  56  84 111 146 186 224 274 334
#
# _framework density 21.735403000000002
#
# number of rings (size 3 to 8) (size 9 to 14) (size 15 to 20)
#    0.000    2.000    2.500    1.125    0.000    4.750 
#    0.000    1.250    0.000    1.500    0.000    0.000 
#    0.000    0.000    0.000    0.000    0.000    0.000 
#
# Total GULP energy -357670.824465 kJ/mol
# GULP energy per Si atom -5588.606632 kJ/mol
# Density = 2.168593 g / cm^3
# Si number density = 21.735403 Si / 1000 Ang^3
#
#
#
# Elastic Constant Matrix: (Units=GPa)
#
#
# Indices 1 2 3 4 5 6 
#
# 1 171.0425 84.2799 -20.9287 0.0000 0.0000 0.0000
# 2 84.2799 168.1655 -3.4080 0.0000 0.0000 0.0000
# 3 -20.9287 -3.4080 53.4918 0.0000 0.0000 0.0000
# 4 0.0000 0.0000 0.0000 -0.1676 0.0000 0.0000
# 5 0.0000 0.0000 0.0000 0.0000 28.6064 0.0000
# 6 0.0000 0.0000 0.0000 0.0000 0.0000 -0.4952
#
#
#
# Elastic Compliance Matrix: (Units=1/GPa)
#
#
# Indices 1 2 3 4 5 6 
#
# 1 0.008204 -0.004052 0.002952 0.000000 0.000000 0.000000
# 2 -0.004052 0.007955 -0.001078 0.000000 0.000000 0.000000
# 3 0.002952 -0.001078 0.019781 0.000000 0.000000 0.000000
# 4 0.000000 0.000000 0.000000 -5.967220 0.000000 0.000000
# 5 0.000000 0.000000 0.000000 0.000000 0.034957 0.000000
# 6 0.000000 0.000000 0.000000 0.000000 0.000000 -2.019318
#
#
# Mechanical properties :
#
#
# Convention : Reuss Voigt Hill
#
# Bulk Modulus (GPa) = 31.66262 56.95403 44.30832
# Shear Modulus (GPa) = -0.63285 27.77250 13.56982
#
# Velocity S-wave (km/s) = -0.54018 3.57845 2.50135
# Velocity P-wave (km/s) = 3.76960 6.58285 5.36394
#
# Compressibility (1/GPa) = 0.03158299
#
# Stress axis : x y z
#
# Youngs Moduli (GPa) = 121.88837 125.70116 50.55449
#
# Poissons Ratio (x) = 0.50933 -0.14923
# Poissons Ratio (y) = 0.49388 0.05452
# Poissons Ratio (z) = -0.35979 0.13557
#
# Static dielectric constant tensor:
#      x y z
#    x 1.758660 0.000000 0.000000 
#    y 0.000000 1.764150 0.000000 
#    z 0.000000 0.000000 1.782610 
# 
# From -- ./inp_files/6515.got.cif
#   From: 2010.05.17/outbox.cif.g08.bks.cpg/sg55_4_cif.got.tgz:6515.got - 2010.06.03 13:27:54.
