data_PCOD9426004
_publ_section_title
;
Structure prediction by ZEFSAII (Michael W. Deem and Ramdas Pophale) SiO2 
 PCOD9426004
Probable space group: P B A M
;
_chemical_formula_sum "Si O2"
_cell_formula_units_Z 20
_cell_length_a 5.023395
_cell_length_b 17.069993
_cell_length_c 10.173439
_cell_angle_alpha 90.000000
_cell_angle_beta 90.000000
_cell_angle_gamma 90.000000
_cell_volume 872.365451
_symmetry_space_group_name_H-M "P B A M"
_symmetry_group_IT_number 55
_symmetry_cell_setting 'orthorhombic'
loop_
_space_group_symop_operation_xyz
x,y,z
-x,-y,z
1/2+x,1/2-y,-z
1/2-x,1/2+y,-z
-x,-y,-z
x,y,-z
1/2-x,1/2+y,z
1/2+x,1/2-y,z
loop_
_atom_site_type_symbol
_atom_site_label
_atom_site_fract_x
_atom_site_fract_y
_atom_site_fract_z
Si Si1 0.119330 0.306558 0.650609
Si Si2 0.879452 0.081592 0.148756
Si Si3 0.783376 0.803762 0.000000
O O1 0.132351 0.335518 0.500000
O O2 0.347788 0.240870 0.667373
O O3 0.183200 0.375977 0.751591
O O4 0.121601 0.141868 0.119739
O O5 0.765425 0.067764 0.000000
O O6 0.000000 0.000000 0.196414
O O7 0.988393 0.730014 0.000000
#
# Coordination Sequence:
#
# PCOD9426004 Si02
#       3
#     8   8   4
#     4  10  21  38  60  84 110 147 192 231 273 331
#     4   9  20  37  56  86 116 147 184 230 282 334
#     4  10  19  34  55  76 104 142 180 220 265 316
#
# _framework density 22.926171
#
# number of rings (size 3 to 8) (size 9 to 14) (size 15 to 20)
#    1.200    1.200    0.000    2.400    0.000    0.800 
#    0.000   10.000    0.000    7.200    0.000    0.000 
#    0.000    0.000    0.000    0.000    0.000    0.000 
#
# Total GULP energy -111804.757808 kJ/mol
# GULP energy per Si atom -5590.237890 kJ/mol
# Density = 2.287399 g / cm^3
# Si number density = 22.926171 Si / 1000 Ang^3
#
#
#
# Elastic Constant Matrix: (Units=GPa)
#
#
# Indices 1 2 3 4 5 6 
#
# 1 93.1187 7.5985 14.3325 0.0000 0.0000 0.0000
# 2 7.5985 80.9927 13.7882 0.0000 0.0000 0.0000
# 3 14.3325 13.7882 93.7981 0.0000 0.0000 0.0000
# 4 0.0000 0.0000 0.0000 35.3926 0.0000 0.0000
# 5 0.0000 0.0000 0.0000 0.0000 15.6957 0.0000
# 6 0.0000 0.0000 0.0000 0.0000 0.0000 11.1415
#
#
#
# Elastic Compliance Matrix: (Units=1/GPa)
#
#
# Indices 1 2 3 4 5 6 
#
# 1 0.011044 -0.000768 -0.001575 0.000000 0.000000 0.000000
# 2 -0.000768 0.012717 -0.001752 0.000000 0.000000 0.000000
# 3 -0.001575 -0.001752 0.011159 0.000000 0.000000 0.000000
# 4 0.000000 0.000000 0.000000 0.028255 0.000000 0.000000
# 5 0.000000 0.000000 0.000000 0.000000 0.063712 0.000000
# 6 0.000000 0.000000 0.000000 0.000000 0.000000 0.089755
#
#
# Mechanical properties :
#
#
# Convention : Reuss Voigt Hill
#
# Bulk Modulus (GPa) = 37.40973 37.70533 37.55753
# Shear Modulus (GPa) = 21.39118 27.92530 24.65824
#
# Velocity S-wave (km/s) = 3.05789 3.49385 3.28312
# Velocity P-wave (km/s) = 5.36848 5.72347 5.54881
#
# Compressibility (1/GPa) = 0.02673101
#
# Stress axis : x y z
#
# Youngs Moduli (GPa) = 90.54678 78.63424 89.61089
#
# Poissons Ratio (x) = 0.06039 0.14111
# Poissons Ratio (y) = 0.06954 0.15700
# Poissons Ratio (z) = 0.14258 0.13777
#
# Static dielectric constant tensor:
#      x y z
#    x 1.866560 0.000000 0.000000 
#    y 0.000000 1.820200 0.000000 
#    z 0.000000 0.000000 1.944080 
# 
# From -- ./inp_files/10982.got.cif
#   From: 2010.05.17/outbox.cif.g08.bks.cpg/sg55_6_cif.got.tgz:10982.got - 2010.06.03 13:27:54.
