data_PCOD9426264
_publ_section_title
;
Structure prediction by ZEFSAII (Michael W. Deem and Ramdas Pophale) SiO2 
 PCOD9426264
Probable space group: P B A M
;
_chemical_formula_sum "Si O2"
_cell_formula_units_Z 64
_cell_length_a 14.221844
_cell_length_b 9.466161
_cell_length_c 22.391058
_cell_angle_alpha 90.000000
_cell_angle_beta 90.000000
_cell_angle_gamma 90.000000
_cell_volume 3014.424508
_symmetry_space_group_name_H-M "P B A M"
_symmetry_group_IT_number 55
_symmetry_cell_setting 'orthorhombic'
loop_
_space_group_symop_operation_xyz
x,y,z
-x,-y,z
1/2+x,1/2-y,-z
1/2-x,1/2+y,-z
-x,-y,-z
x,y,-z
1/2-x,1/2+y,z
1/2+x,1/2-y,z
loop_
_atom_site_type_symbol
_atom_site_label
_atom_site_fract_x
_atom_site_fract_y
_atom_site_fract_z
Si Si1 0.066535 0.360223 0.359211
Si Si2 0.713675 0.675796 0.336746
Si Si3 0.750275 0.950448 0.254735
Si Si4 0.951792 0.150599 0.569867
Si Si5 0.777683 0.959262 0.119979
Si Si6 0.845943 0.243031 0.068917
Si Si7 0.536375 0.346155 0.879424
Si Si8 0.434282 0.865965 0.771509
O O1 0.180839 0.367488 0.360152
O O2 0.044956 0.296909 0.293123
O O3 0.000000 0.500000 0.360685
O O4 0.030209 0.264145 0.412157
O O5 0.720069 0.816737 0.295225
O O6 0.681924 0.546173 0.294593
O O7 0.639400 0.685509 0.389982
O O8 0.787481 0.915866 0.189331
O O9 0.666444 0.059545 0.237729
O O10 0.928010 0.155615 0.500000
O O11 0.000000 0.000000 0.582938
O O12 0.683076 0.895009 0.094105
O O13 0.865347 0.880514 0.088709
O O14 0.791629 0.124324 0.108069
O O15 0.955476 0.213632 0.078507
O O16 0.820610 0.228120 0.000000
O O17 0.500000 0.500000 0.857458
O O18 0.550915 0.238840 0.825420
O O19 0.500000 0.000000 0.780788
#
# Coordination Sequence:
#
# PCOD9426264 Si02
#       8
#     8   8   8   8   8   8   8   8
#     4  10  22  40  63  92 122 163 214 261 320 389
#     4  11  22  41  65  94 132 169 207 268 332 385
#     4  11  22  38  65  97 127 161 208 259 326 396
#     4  11  25  42  61  90 127 169 218 264 314 385
#     4  11  22  40  62  89 123 157 201 260 314 372
#     4  11  24  41  62  87 119 164 210 252 309 376
#     4  10  23  38  59  89 120 159 206 253 309 377
#     4  10  19  35  59  89 124 155 196 258 319 377
#
# _framework density 21.231249999999999
#
# number of rings (size 3 to 8) (size 9 to 14) (size 15 to 20)
#    0.000    1.375    0.000    7.125    0.000    7.000 
#    0.000    3.125    0.000    4.125    0.000    0.000 
#    0.000    0.000    0.000    0.000    0.000    0.000 
#
# Total GULP energy -357213.412123 kJ/mol
# GULP energy per Si atom -5581.459564 kJ/mol
# Density = 2.118293 g / cm^3
# Si number density = 21.231250 Si / 1000 Ang^3
#
#
#
# Elastic Constant Matrix: (Units=GPa)
#
#
# Indices 1 2 3 4 5 6 
#
# 1 72.7576 4.4251 22.9935 0.0000 0.0000 0.0000
# 2 4.4251 53.6478 32.8449 0.0000 0.0000 0.0000
# 3 22.9935 32.8449 95.0618 0.0000 0.0000 0.0000
# 4 0.0000 0.0000 0.0000 20.3653 0.0000 0.0000
# 5 0.0000 0.0000 0.0000 0.0000 23.3983 0.0000
# 6 0.0000 0.0000 0.0000 0.0000 0.0000 29.7222
#
#
#
# Elastic Compliance Matrix: (Units=1/GPa)
#
#
# Indices 1 2 3 4 5 6 
#
# 1 0.014947 0.001244 -0.004045 0.000000 0.000000 0.000000
# 2 0.001244 0.023744 -0.008505 0.000000 0.000000 0.000000
# 3 -0.004045 -0.008505 0.014436 0.000000 0.000000 0.000000
# 4 0.000000 0.000000 0.000000 0.049103 0.000000 0.000000
# 5 0.000000 0.000000 0.000000 0.000000 0.042738 0.000000
# 6 0.000000 0.000000 0.000000 0.000000 0.000000 0.033645
#
#
# Mechanical properties :
#
#
# Convention : Reuss Voigt Hill
#
# Bulk Modulus (GPa) = 32.77037 37.99935 35.38486
# Shear Modulus (GPa) = 23.65206 25.44407 24.54806
#
# Velocity S-wave (km/s) = 3.34132 3.46558 3.40402
# Velocity P-wave (km/s) = 5.50948 5.82670 5.67031
#
# Compressibility (1/GPa) = 0.03051537
#
# Stress axis : x y z
#
# Youngs Moduli (GPa) = 66.90309 42.11520 69.26945
#
# Poissons Ratio (x) = -0.05237 0.28020
# Poissons Ratio (y) = -0.08320 0.58912
# Poissons Ratio (z) = 0.27063 0.35818
#
# Static dielectric constant tensor:
#      x y z
#    x 1.872430 0.000000 0.000000 
#    y 0.000000 1.763990 0.000000 
#    z 0.000000 0.000000 1.763680 
# 
# From -- ./inp_files/23618.got.cif
#   From: 2010.05.17/outbox.cif.g08.bks.cpg/sg55_12_cif.got.tgz:23618.got - 2010.06.03 13:27:54.
