data_PCOD9426807
_publ_section_title
;
Structure prediction by ZEFSAII (Michael W. Deem and Ramdas Pophale) SiO2 
 PCOD9426807
Probable space group: P B A M
;
_chemical_formula_sum "Si O2"
_cell_formula_units_Z 64
_cell_length_a 13.147255
_cell_length_b 28.516010
_cell_length_c 9.177126
_cell_angle_alpha 90.000000
_cell_angle_beta 90.000000
_cell_angle_gamma 90.000000
_cell_volume 3440.571118
_symmetry_space_group_name_H-M "P B A M"
_symmetry_group_IT_number 55
_symmetry_cell_setting 'orthorhombic'
loop_
_space_group_symop_operation_xyz
x,y,z
-x,-y,z
1/2+x,1/2-y,-z
1/2-x,1/2+y,-z
-x,-y,-z
x,y,-z
1/2-x,1/2+y,z
1/2+x,1/2-y,z
loop_
_atom_site_type_symbol
_atom_site_label
_atom_site_fract_x
_atom_site_fract_y
_atom_site_fract_z
Si Si1 0.359429 0.136905 0.329514
Si Si2 0.312396 0.697003 0.823854
Si Si3 0.245179 0.540183 0.669866
Si Si4 0.758610 0.198899 0.822774
Si Si5 0.529233 0.653584 0.177236
Si Si6 0.604181 0.026482 0.829274
Si Si7 0.042873 0.051329 0.175841
Si Si8 0.067582 0.363283 0.171860
O O1 0.356237 0.148536 0.500000
O O2 0.268630 0.162018 0.245128
O O3 0.337902 0.081431 0.314158
O O4 0.467142 0.149636 0.260035
O O5 0.275966 0.748979 0.779604
O O6 0.426563 0.681541 0.779885
O O7 0.308631 0.694257 0.000000
O O8 0.269648 0.535290 0.500000
O O9 0.196021 0.493589 0.735367
O O10 0.345123 0.554665 0.757462
O O11 0.868011 0.179506 0.771662
O O12 0.667533 0.164356 0.780288
O O13 0.763225 0.198896 0.000000
O O14 0.518671 0.598514 0.220004
O O15 0.531927 0.653881 0.000000
O O16 0.588313 0.081563 0.812659
O O17 0.500000 0.000000 0.789659
O O18 0.624725 0.016302 0.000000
O O19 0.048382 0.051847 0.000000
O O20 0.000000 0.000000 0.218991
O O21 0.049898 0.353457 0.000000
#
# Coordination Sequence:
#
# PCOD9426807 Si02
#       8
#     8   8   8   8   8   8   8   8
#     4  11  23  38  57  83 117 154 194 240 287 344
#     4  10  20  36  62  87 111 146 190 242 291 346
#     4  11  23  37  55  80 115 155 193 235 284 345
#     4   9  20  35  58  90 117 145 188 241 296 345
#     4   9  18  34  55  87 120 143 182 239 291 341
#     4  10  20  34  55  84 115 147 188 236 284 338
#     4  10  21  36  59  84 111 150 192 238 289 340
#     4  10  21  37  60  87 117 153 193 242 290 343
#
# _framework density 18.601562999999999
#
# number of rings (size 3 to 8) (size 9 to 14) (size 15 to 20)
#    0.000    2.000    2.500    0.750    3.500    2.000 
#    0.000    0.625    0.000    1.500    0.000    0.000 
#    0.000    0.000    0.000    0.000    0.000    0.000 
#
# Total GULP energy -357084.046547 kJ/mol
# GULP energy per Si atom -5579.438227 kJ/mol
# Density = 1.855923 g / cm^3
# Si number density = 18.601563 Si / 1000 Ang^3
#
#
#
# Elastic Constant Matrix: (Units=GPa)
#
#
# Indices 1 2 3 4 5 6 
#
# 1 139.2344 59.7998 33.4543 0.0000 0.0000 0.0000
# 2 59.7998 87.2862 29.9153 0.0000 0.0000 0.0000
# 3 33.4543 29.9153 14.0962 0.0000 0.0000 0.0000
# 4 0.0000 0.0000 0.0000 6.5613 0.0000 0.0000
# 5 0.0000 0.0000 0.0000 0.0000 -0.0997 0.0000
# 6 0.0000 0.0000 0.0000 0.0000 0.0000 25.3824
#
#
#
# Elastic Compliance Matrix: (Units=1/GPa)
#
#
# Indices 1 2 3 4 5 6 
#
# 1 0.018325 0.008622 -0.061790 0.000000 0.000000 0.000000
# 2 0.008622 0.046075 -0.118244 0.000000 0.000000 0.000000
# 3 -0.061790 -0.118244 0.468527 0.000000 0.000000 0.000000
# 4 0.000000 0.000000 0.000000 0.152408 0.000000 0.000000
# 5 0.000000 0.000000 0.000000 0.000000-10.027262 0.000000
# 6 0.000000 0.000000 0.000000 0.000000 0.000000 0.039397
#
#
# Mechanical properties :
#
#
# Convention : Reuss Voigt Hill
#
# Bulk Modulus (GPa) = 5.26029 54.10618 29.68323
# Shear Modulus (GPa) = -0.56203 14.19862 6.81830
#
# Velocity S-wave (km/s) = -0.55027 2.76579 1.91661
# Velocity P-wave (km/s) = 1.55894 6.27292 4.57055
#
# Compressibility (1/GPa) = 0.19010364
#
# Stress axis : x y z
#
# Youngs Moduli (GPa) = 54.56899 21.70381 2.13435
#
# Poissons Ratio (x) = -0.18714 0.13188
# Poissons Ratio (y) = -0.47051 0.25237
# Poissons Ratio (z) = 3.37181 2.56635
#
# Static dielectric constant tensor:
#      x y z
#    x 1.622180 0.000000 0.000000 
#    y 0.000000 1.666750 0.000000 
#    z 0.000000 0.000000 1.612310 
# 
# From -- ./inp_files/4490.got.cif
#   From: 2010.05.17/outbox.cif.g08.bks.cpg/sg55_3_cif.got.tgz:4490.got - 2010.06.03 13:27:54.
