data_PCOD9426158
_publ_section_title
;
Structure prediction by ZEFSAII (Michael W. Deem and Ramdas Pophale) SiO2 
 PCOD9426158
Probable space group: P B A M
;
_chemical_formula_sum "Si O2"
_cell_formula_units_Z 56
_cell_length_a 8.151313
_cell_length_b 22.066477
_cell_length_c 14.952278
_cell_angle_alpha 90.000000
_cell_angle_beta 90.000000
_cell_angle_gamma 90.000000
_cell_volume 2689.477620
_symmetry_space_group_name_H-M "P B A M"
_symmetry_group_IT_number 55
_symmetry_cell_setting 'orthorhombic'
loop_
_space_group_symop_operation_xyz
x,y,z
-x,-y,z
1/2+x,1/2-y,-z
1/2-x,1/2+y,-z
-x,-y,-z
x,y,-z
1/2-x,1/2+y,z
1/2+x,1/2-y,z
loop_
_atom_site_type_symbol
_atom_site_label
_atom_site_fract_x
_atom_site_fract_y
_atom_site_fract_z
Si Si1 0.037630 0.846072 0.592009
Si Si2 0.793110 0.081912 0.264838
Si Si3 0.902627 0.161972 0.103839
Si Si4 0.809374 0.478085 0.604372
Si Si5 0.729489 0.281218 0.821228
Si Si6 0.852997 0.733934 0.371097
Si Si7 0.064073 0.638880 0.309954
O O1 0.043225 0.882092 0.500000
O O2 0.064159 0.885286 0.678572
O O3 0.197406 0.802349 0.595761
O O4 0.889044 0.799856 0.592727
O O5 0.838199 0.105732 0.165169
O O6 0.610108 0.108590 0.282544
O O7 0.779129 0.017531 0.317351
O O8 0.806405 0.225644 0.123052
O O9 0.088293 0.181166 0.129674
O O10 0.889055 0.146656 0.000000
O O11 0.751275 0.482513 0.500000
O O12 0.821909 0.410067 0.641900
O O13 0.000000 0.500000 0.601220
O O14 0.658913 0.246347 0.734678
O O15 0.854645 0.328896 0.775698
O O16 0.008677 0.690128 0.380428
#
# Coordination Sequence:
#
# PCOD9426158 Si02
#       7
#     8   8   8   8   8   8   8
#     4  11  20  30  50  77 110 150 186 224 278 343
#     4  10  19  38  58  83 116 153 195 245 293 332
#     4  12  23  37  63  88 114 151 196 243 303 367
#     4   9  19  35  60  90 117 157 206 240 277 339
#     4  12  19  39  57  85 123 151 186 241 304 354
#     4  11  18  33  51  77 113 152 179 227 284 344
#     4  10  19  34  60  81 116 158 188 236 290 347
#
# _framework density 20.821888000000001
#
# number of rings (size 3 to 8) (size 9 to 14) (size 15 to 20)
#    0.000    1.286    7.143    1.286    0.000    4.000 
#    0.000    1.429    0.000    7.286    0.000    0.000 
#    0.000    0.000    0.000    0.000    0.000    0.000 
#
# Total GULP energy -312086.325725 kJ/mol
# GULP energy per Si atom -5572.970102 kJ/mol
# Density = 2.077450 g / cm^3
# Si number density = 20.821888 Si / 1000 Ang^3
#
#
#
# Elastic Constant Matrix: (Units=GPa)
#
#
# Indices 1 2 3 4 5 6 
#
# 1 69.6159 28.2913 14.3118 0.0000 0.0000 0.0000
# 2 28.2913 89.2615 39.5533 0.0000 0.0000 0.0000
# 3 14.3118 39.5533 146.5070 0.0000 0.0000 0.0000
# 4 0.0000 0.0000 0.0000 17.2843 0.0000 0.0000
# 5 0.0000 0.0000 0.0000 0.0000 3.7019 0.0000
# 6 0.0000 0.0000 0.0000 0.0000 0.0000 29.6986
#
#
#
# Elastic Compliance Matrix: (Units=1/GPa)
#
#
# Indices 1 2 3 4 5 6 
#
# 1 0.016495 -0.005127 -0.000227 0.000000 0.000000 0.000000
# 2 -0.005127 0.014319 -0.003365 0.000000 0.000000 0.000000
# 3 -0.000227 -0.003365 0.007756 0.000000 0.000000 0.000000
# 4 0.000000 0.000000 0.000000 0.057856 0.000000 0.000000
# 5 0.000000 0.000000 0.000000 0.000000 0.270132 0.000000
# 6 0.000000 0.000000 0.000000 0.000000 0.000000 0.033672
#
#
# Mechanical properties :
#
#
# Convention : Reuss Voigt Hill
#
# Bulk Modulus (GPa) = 47.32263 52.18857 49.75560
# Shear Modulus (GPa) = 11.77265 25.01882 18.39574
#
# Velocity S-wave (km/s) = 2.38039 3.47012 2.97556
# Velocity P-wave (km/s) = 5.50742 6.41672 5.97938
#
# Compressibility (1/GPa) = 0.02113154
#
# Stress axis : x y z
#
# Youngs Moduli (GPa) = 60.62456 69.83606 128.92826
#
# Poissons Ratio (x) = 0.35808 0.02927
# Poissons Ratio (y) = 0.31085 0.43384
# Poissons Ratio (z) = 0.01377 0.23500
#
# Static dielectric constant tensor:
#      x y z
#    x 1.809260 0.000000 0.000000 
#    y 0.000000 1.808550 0.000000 
#    z 0.000000 0.000000 1.726190 
# 
# From -- ./inp_files/17614.got.cif
#   From: 2010.05.17/outbox.cif.g08.bks.cpg/sg55_9_cif.got.tgz:17614.got - 2010.06.03 13:27:54.
