data_PCOD9426833
_publ_section_title
;
Structure prediction by ZEFSAII (Michael W. Deem and Ramdas Pophale) SiO2 
 PCOD9426833
Probable space group: P B A M
;
_chemical_formula_sum "Si O2"
_cell_formula_units_Z 64
_cell_length_a 12.627175
_cell_length_b 28.973160
_cell_length_c 8.129399
_cell_angle_alpha 90.000000
_cell_angle_beta 90.000000
_cell_angle_gamma 90.000000
_cell_volume 2974.133809
_symmetry_space_group_name_H-M "P B A M"
_symmetry_group_IT_number 55
_symmetry_cell_setting 'orthorhombic'
loop_
_space_group_symop_operation_xyz
x,y,z
-x,-y,z
1/2+x,1/2-y,-z
1/2-x,1/2+y,-z
-x,-y,-z
x,y,-z
1/2-x,1/2+y,z
1/2+x,1/2-y,z
loop_
_atom_site_type_symbol
_atom_site_label
_atom_site_fract_x
_atom_site_fract_y
_atom_site_fract_z
Si Si1 0.418779 0.787051 0.803325
Si Si2 0.864943 0.814962 0.198268
Si Si3 0.813134 0.619235 0.696126
Si Si4 0.643955 0.556102 0.189003
Si Si5 0.873395 0.341352 0.196282
Si Si6 0.980959 0.432645 0.310111
Si Si7 0.274016 0.029122 0.694123
Si Si8 0.079520 0.087212 0.695163
O O1 0.396702 0.735679 0.741229
O O2 0.348527 0.828566 0.731587
O O3 0.539836 0.801877 0.774775
O O4 0.400505 0.787226 0.000000
O O5 0.742767 0.824696 0.240462
O O6 0.928506 0.858814 0.264664
O O7 0.874901 0.815357 0.000000
O O8 0.805068 0.613387 0.500000
O O9 0.703914 0.604212 0.778076
O O10 0.907008 0.584837 0.761387
O O11 0.711924 0.518528 0.287070
O O12 0.522027 0.560329 0.237971
O O13 0.651347 0.543064 0.000000
O O14 0.911278 0.385704 0.297308
O O15 0.876238 0.352743 0.000000
O O16 0.004248 0.444868 0.500000
O O17 0.894728 0.468817 0.238642
O O18 0.287308 0.038102 0.500000
O O19 0.190646 0.066810 0.763454
O O20 0.081252 0.080746 0.500000
#
# Coordination Sequence:
#
# PCOD9426833 Si02
#       8
#     8   8   8   8   8   8   8   8
#     4   9  19  35  55  83 119 158 198 239 291 347
#     4  10  20  34  56  86 118 155 199 242 291 348
#     4  10  21  39  61  85 117 155 199 246 296 351
#     4  12  26  41  59  84 120 159 196 241 300 364
#     4   9  17  31  52  78 111 149 189 237 285 335
#     4   9  18  35  60  86 112 148 190 237 288 342
#     4  10  21  39  62  88 117 152 194 243 298 352
#     4  11  23  40  62  86 117 153 198 249 296 350
#
# _framework density 21.518868999999999
#
# number of rings (size 3 to 8) (size 9 to 14) (size 15 to 20)
#    0.000    2.000    1.250    2.250    0.000    5.500 
#    0.000    5.000    0.000    0.000    0.000    0.000 
#    0.000    0.000    0.000    0.000    0.000    0.000 
#
# Total GULP energy -357378.664209 kJ/mol
# GULP energy per Si atom -5584.041628 kJ/mol
# Density = 2.146989 g / cm^3
# Si number density = 21.518869 Si / 1000 Ang^3
#
#
#
# Elastic Constant Matrix: (Units=GPa)
#
#
# Indices 1 2 3 4 5 6 
#
# 1 78.3767 7.6754 8.0994 0.0000 0.0000 0.0000
# 2 7.6754 82.7283 -3.4317 0.0000 0.0000 0.0000
# 3 8.0994 -3.4317 18.2803 0.0000 0.0000 0.0000
# 4 0.0000 0.0000 0.0000 29.5939 0.0000 0.0000
# 5 0.0000 0.0000 0.0000 0.0000 16.5690 0.0000
# 6 0.0000 0.0000 0.0000 0.0000 0.0000 30.0548
#
#
#
# Elastic Compliance Matrix: (Units=1/GPa)
#
#
# Indices 1 2 3 4 5 6 
#
# 1 0.013558 -0.001519 -0.006292 0.000000 0.000000 0.000000
# 2 -0.001519 0.012353 0.002992 0.000000 0.000000 0.000000
# 3 -0.006292 0.002992 0.058053 0.000000 0.000000 0.000000
# 4 0.000000 0.000000 0.000000 0.033791 0.000000 0.000000
# 5 0.000000 0.000000 0.000000 0.000000 0.060354 0.000000
# 6 0.000000 0.000000 0.000000 0.000000 0.000000 0.033273
#
#
# Mechanical properties :
#
#
# Convention : Reuss Voigt Hill
#
# Bulk Modulus (GPa) = 13.45431 22.67461 18.06446
# Shear Modulus (GPa) = 20.34220 26.37968 23.36094
#
# Velocity S-wave (km/s) = 3.07794 3.50506 3.29842
# Velocity P-wave (km/s) = 4.34713 5.19043 4.78738
#
# Compressibility (1/GPa) = 0.07432565
#
# Stress axis : x y z
#
# Youngs Moduli (GPa) = 73.75791 80.95338 17.22554
#
# Poissons Ratio (x) = 0.12296 0.10839
# Poissons Ratio (y) = 0.11203 -0.05154
# Poissons Ratio (z) = 0.46410 -0.24221
#
# Static dielectric constant tensor:
#      x y z
#    x 1.787900 0.000000 0.000000 
#    y 0.000000 1.804530 0.000000 
#    z 0.000000 0.000000 1.759920 
# 
# From -- ./inp_files/4513.got.cif
#   From: 2010.05.17/outbox.cif.g08.bks.cpg/sg55_3_cif.got.tgz:4513.got - 2010.06.03 13:27:54.
