data_PCOD9426769
_publ_section_title
;
Structure prediction by ZEFSAII (Michael W. Deem and Ramdas Pophale) SiO2 
 PCOD9426769
Probable space group: P B A M
;
_chemical_formula_sum "Si O2"
_cell_formula_units_Z 48
_cell_length_a 29.318086
_cell_length_b 10.599444
_cell_length_c 7.794420
_cell_angle_alpha 90.000000
_cell_angle_beta 90.000000
_cell_angle_gamma 90.000000
_cell_volume 2422.158189
_symmetry_space_group_name_H-M "P B A M"
_symmetry_group_IT_number 55
_symmetry_cell_setting 'orthorhombic'
loop_
_space_group_symop_operation_xyz
x,y,z
-x,-y,z
1/2+x,1/2-y,-z
1/2-x,1/2+y,-z
-x,-y,-z
x,y,-z
1/2-x,1/2+y,z
1/2+x,1/2-y,z
loop_
_atom_site_type_symbol
_atom_site_label
_atom_site_fract_x
_atom_site_fract_y
_atom_site_fract_z
Si Si1 0.697207 0.991045 0.203320
Si Si2 0.549741 0.646637 0.706180
Si Si3 0.300908 0.502206 0.208072
Si Si4 0.145408 0.256425 0.703582
Si Si5 0.645269 0.745013 0.794273
Si Si6 0.052068 0.144314 0.709855
O O1 0.748748 0.001728 0.271328
O O2 0.669463 0.871049 0.273571
O O3 0.669635 0.119897 0.225611
O O4 0.702306 0.969601 0.000000
O O5 0.548386 0.643119 0.500000
O O6 0.591731 0.733391 0.757258
O O7 0.498838 0.683338 0.764644
O O8 0.558702 0.501911 0.763553
O O9 0.324982 0.631863 0.259629
O O10 0.329380 0.381087 0.270809
O O11 0.300710 0.497367 0.000000
O O12 0.142488 0.273048 0.500000
O O13 0.094331 0.227956 0.770141
O O14 0.650013 0.744860 0.000000
O O15 0.052824 0.145015 0.500000
#
# Coordination Sequence:
#
# PCOD9426769 Si02
#       6
#     8   8   8   8   8   8
#     4  10  22  39  55  74 109 152 183 211 260 325
#     4   9  16  32  56  77 103 139 175 214 266 322
#     4  10  20  37  59  78 102 143 185 217 260 318
#     4  11  21  35  56  84 111 135 175 227 269 308
#     4  10  20  34  54  81 107 135 180 227 262 306
#     4   8  16  31  53  79 105 137 173 213 265 323
#
# _framework density 19.817039999999999
#
# number of rings (size 3 to 8) (size 9 to 14) (size 15 to 20)
#    0.000    2.333    1.667    2.500    0.000    4.000 
#    0.000    5.833    0.000    5.000    0.000    0.000 
#    0.000    0.000    0.000    0.000    0.000    0.000 
#
# Total GULP energy -267902.343933 kJ/mol
# GULP energy per Si atom -5581.298832 kJ/mol
# Density = 1.977194 g / cm^3
# Si number density = 19.817040 Si / 1000 Ang^3
#
#
#
# Elastic Constant Matrix: (Units=GPa)
#
#
# Indices 1 2 3 4 5 6 
#
# 1 176.9751 66.4467 -4.8671 0.0000 0.0000 0.0000
# 2 66.4467 103.6788 -12.1315 0.0000 0.0000 0.0000
# 3 -4.8671 -12.1315 20.1016 0.0000 0.0000 0.0000
# 4 0.0000 0.0000 0.0000 -0.7800 0.0000 0.0000
# 5 0.0000 0.0000 0.0000 0.0000 20.6642 0.0000
# 6 0.0000 0.0000 0.0000 0.0000 0.0000 -0.7183
#
#
#
# Elastic Compliance Matrix: (Units=1/GPa)
#
#
# Indices 1 2 3 4 5 6 
#
# 1 0.007466 -0.004921 -0.001162 0.000000 0.000000 0.000000
# 2 -0.004921 0.013621 0.007029 0.000000 0.000000 0.000000
# 3 -0.001162 0.007029 0.053708 0.000000 0.000000 0.000000
# 4 0.000000 0.000000 0.000000 -1.282083 0.000000 0.000000
# 5 0.000000 0.000000 0.000000 0.000000 0.048393 0.000000
# 6 0.000000 0.000000 0.000000 0.000000 0.000000 -1.392127
#
#
# Mechanical properties :
#
#
# Convention : Reuss Voigt Hill
#
# Bulk Modulus (GPa) = 13.03987 44.40574 28.72280
# Shear Modulus (GPa) = -1.97836 20.58700 9.30432
#
# Velocity S-wave (km/s) = -1.00024 3.22662 2.16917
# Velocity P-wave (km/s) = 2.29357 6.02810 4.56061
#
# Compressibility (1/GPa) = 0.07668789
#
# Stress axis : x y z
#
# Youngs Moduli (GPa) = 133.93752 73.41353 18.61919
#
# Poissons Ratio (x) = 0.36127 0.02164
# Poissons Ratio (y) = 0.65910 -0.13088
# Poissons Ratio (z) = 0.15565 -0.51604
#
# Static dielectric constant tensor:
#      x y z
#    x 1.713440 0.000000 0.000000 
#    y 0.000000 1.661940 0.000000 
#    z 0.000000 0.000000 1.732200 
# 
# From -- ./inp_files/2825.got.cif
#   From: 2010.05.17/outbox.cif.g08.bks.cpg/sg55_2_cif.got.tgz:2825.got - 2010.06.03 13:27:54.
