data_PCOD9426333
_publ_section_title
;
Structure prediction by ZEFSAII (Michael W. Deem and Ramdas Pophale) SiO2 
 PCOD9426333
Probable space group: P B A M
;
_chemical_formula_sum "Si O2"
_cell_formula_units_Z 44
_cell_length_a 15.457382
_cell_length_b 5.018820
_cell_length_c 28.503876
_cell_angle_alpha 90.000000
_cell_angle_beta 90.000000
_cell_angle_gamma 90.000000
_cell_volume 2211.268503
_symmetry_space_group_name_H-M "P B A M"
_symmetry_group_IT_number 55
_symmetry_cell_setting 'orthorhombic'
loop_
_space_group_symop_operation_xyz
x,y,z
-x,-y,z
1/2+x,1/2-y,-z
1/2-x,1/2+y,-z
-x,-y,-z
x,y,-z
1/2-x,1/2+y,z
1/2+x,1/2-y,z
loop_
_atom_site_type_symbol
_atom_site_label
_atom_site_fract_x
_atom_site_fract_y
_atom_site_fract_z
Si Si1 0.689069 0.887983 0.288810
Si Si2 0.310456 0.164773 0.086448
Si Si3 0.562744 0.750913 0.000000
Si Si4 0.694030 0.538650 0.555582
Si Si5 0.557984 0.746107 0.628996
Si Si6 0.191321 0.752364 0.189039
O O1 0.768864 0.679246 0.291796
O O2 0.623467 0.836755 0.330524
O O3 0.646841 0.827167 0.237803
O O4 0.230131 0.370974 0.082781
O O5 0.350421 0.199287 0.138574
O O6 0.376439 0.233019 0.045564
O O7 0.500000 0.500000 0.000000
O O8 0.500000 0.000000 0.000000
O O9 0.676443 0.558670 0.500000
O O10 0.727137 0.242152 0.566310
O O11 0.613325 0.631492 0.585795
O O12 0.500000 0.500000 0.646359
O O13 0.500000 0.000000 0.615542
O O14 0.275426 0.555678 0.189639
#
# Coordination Sequence:
#
# PCOD9426333 Si02
#       6
#     8   8   4   8   8   8
#     4  10  19  36  58  78 104 141 180 217 257 309
#     4  10  19  36  58  78 100 136 181 219 257 309
#     4  12  24  36  50  78 112 140 170 212 268 318
#     4  10  21  39  61  81 103 139 184 222 260 312
#     4  12  24  36  53  82 115 143 173 215 266 315
#     4   8  16  30  54  80  98 126 177 225 255 295
#
# _framework density 19.898083
#
# number of rings (size 3 to 8) (size 9 to 14) (size 15 to 20)
#    0.000    1.818    0.000    4.909    0.000    0.727 
#    0.000    1.818    0.000    0.000    0.000    0.000 
#    0.000    0.000    0.000    0.000    0.000    0.000 
#
# Total GULP energy -245746.279551 kJ/mol
# GULP energy per Si atom -5585.142717 kJ/mol
# Density = 1.985279 g / cm^3
# Si number density = 19.898083 Si / 1000 Ang^3
#
#
#
# Elastic Constant Matrix: (Units=GPa)
#
#
# Indices 1 2 3 4 5 6 
#
# 1 32.9311 -8.1771 24.8704 0.0000 0.0000 0.0000
# 2 -8.1771 67.6239 -17.0888 0.0000 0.0000 0.0000
# 3 24.8704 -17.0888 70.0505 0.0000 0.0000 0.0000
# 4 0.0000 0.0000 0.0000 24.2142 0.0000 0.0000
# 5 0.0000 0.0000 0.0000 0.0000 -13.4376 0.0000
# 6 0.0000 0.0000 0.0000 0.0000 0.0000 -7.1179
#
#
#
# Elastic Compliance Matrix: (Units=1/GPa)
#
#
# Indices 1 2 3 4 5 6 
#
# 1 0.041613 0.001384 -0.014436 0.000000 0.000000 0.000000
# 2 0.001384 0.015805 0.003364 0.000000 0.000000 0.000000
# 3 -0.014436 0.003364 0.020222 0.000000 0.000000 0.000000
# 4 0.000000 0.000000 0.000000 0.041298 0.000000 0.000000
# 5 0.000000 0.000000 0.000000 0.000000 -0.074418 0.000000
# 6 0.000000 0.000000 0.000000 0.000000 0.000000 -0.140491
#
#
# Mechanical properties :
#
#
# Convention : Reuss Voigt Hill
#
# Bulk Modulus (GPa) = 17.16360 18.86829 18.01595
# Shear Modulus (GPa) = -87.45289 12.13181 -37.66054
#
# Velocity S-wave (km/s) = -6.63670 2.47188 -4.35520
# Velocity P-wave (km/s) = 7.07695 4.20119 4.02699
#
# Compressibility (1/GPa) = 0.05826284
#
# Stress axis : x y z
#
# Youngs Moduli (GPa) = 24.03111 63.27042 49.45210
#
# Poissons Ratio (x) = -0.08755 0.71391
# Poissons Ratio (y) = -0.03325 -0.16638
# Poissons Ratio (z) = 0.34692 -0.21287
#
# Static dielectric constant tensor:
#      x y z
#    x 1.654260 0.000000 0.000000 
#    y 0.000000 1.681930 0.000000 
#    z 0.000000 0.000000 1.739020 
# 
# From -- ./inp_files/23788.got.cif
#   From: 2010.05.17/outbox.cif.g08.bks.cpg/sg55_12_cif.got.tgz:23788.got - 2010.06.03 13:27:54.
