data_PCOD9426412
_publ_section_title
;
Structure prediction by ZEFSAII (Michael W. Deem and Ramdas Pophale) SiO2 
 PCOD9426412
Probable space group: P B A M
;
_chemical_formula_sum "Si O2"
_cell_formula_units_Z 54
_cell_length_a 5.459900
_cell_length_b 17.067664
_cell_length_c 27.632779
_cell_angle_alpha 90.000000
_cell_angle_beta 90.000000
_cell_angle_gamma 90.000000
_cell_volume 2575.036188
_symmetry_space_group_name_H-M "P B A M"
_symmetry_group_IT_number 55
_symmetry_cell_setting 'orthorhombic'
loop_
_space_group_symop_operation_xyz
x,y,z
-x,-y,z
1/2+x,1/2-y,-z
1/2-x,1/2+y,-z
-x,-y,-z
x,y,-z
1/2-x,1/2+y,z
1/2+x,1/2-y,z
loop_
_atom_site_type_symbol
_atom_site_label
_atom_site_fract_x
_atom_site_fract_y
_atom_site_fract_z
Si Si1 0.200834 0.205791 0.075034
Si Si2 0.000000 0.000000 0.500000
Si Si3 0.662997 0.076077 0.428796
Si Si4 0.240454 0.093381 0.724952
Si Si5 0.481640 0.202741 0.500000
Si Si6 0.249610 0.028240 0.055044
Si Si7 0.304876 0.703209 0.191157
Si Si8 0.259340 0.914570 0.685384
O O1 0.435490 0.259046 0.061994
O O2 0.241855 0.120977 0.053023
O O3 0.200785 0.194448 0.133210
O O4 0.912001 0.062203 0.457871
O O5 0.524032 0.148830 0.452553
O O6 0.706229 0.077118 0.371857
O O7 0.500000 0.000000 0.441620
O O8 0.211271 0.121346 0.779993
O O9 0.498365 0.125916 0.705883
O O10 0.999846 0.123989 0.697369
O O11 0.249649 0.000624 0.711548
O O12 0.211264 0.238083 0.500000
O O13 0.500000 0.000000 0.079028
O O14 0.249870 0.994453 0.000000
O O15 0.000000 0.000000 0.079420
O O16 0.561985 0.745923 0.203479
#
# Coordination Sequence:
#
# PCOD9426412 Si02
#       8
#     8   2   8   8   4   8   8   8
#     4  10  21  38  60  87 121 165 217 259 304 385
#     4  10  20  32  64  94 104 150 200 224 278 344
#     4  11  23  41  70  89 119 161 201 240 290 349
#     4  10  19  37  56  87 114 143 193 241 286 337
#     4  11  28  45  60  92 128 151 186 239 293 347
#     4  10  21  38  58  87 127 163 204 269 334 380
#     4  10  21  38  58  82 121 162 194 243 306 364
#     4  10  21  37  63  85 116 142 191 251 272 335
#
# _framework density 20.970580000000002
#
# number of rings (size 3 to 8) (size 9 to 14) (size 15 to 20)
#    0.000    1.778    1.481    3.556    4.148    0.593 
#    5.333    4.444    0.000    0.000    0.000    0.000 
#    0.000    0.000    0.000    0.000    0.000    0.000 
#
# Total GULP energy -300713.326509 kJ/mol
# GULP energy per Si atom -5568.765306 kJ/mol
# Density = 2.092285 g / cm^3
# Si number density = 20.970580 Si / 1000 Ang^3
#
#
#
# Elastic Constant Matrix: (Units=GPa)
#
#
# Indices 1 2 3 4 5 6 
#
# 1 154.8150 17.9230 7.4610 0.0000 0.0000 0.0000
# 2 17.9230 56.6982 15.9782 0.0000 0.0000 0.0000
# 3 7.4610 15.9782 64.0520 0.0000 0.0000 0.0000
# 4 0.0000 0.0000 0.0000 33.5805 0.0000 0.0000
# 5 0.0000 0.0000 0.0000 0.0000 -42.4042 0.0000
# 6 0.0000 0.0000 0.0000 0.0000 0.0000 32.1307
#
#
#
# Elastic Compliance Matrix: (Units=1/GPa)
#
#
# Indices 1 2 3 4 5 6 
#
# 1 0.006709 -0.002044 -0.000272 0.000000 0.000000 0.000000
# 2 -0.002044 0.019594 -0.004650 0.000000 0.000000 0.000000
# 3 -0.000272 -0.004650 0.016804 0.000000 0.000000 0.000000
# 4 0.000000 0.000000 0.000000 0.029779 0.000000 0.000000
# 5 0.000000 0.000000 0.000000 0.000000 -0.023583 0.000000
# 6 0.000000 0.000000 0.000000 0.000000 0.000000 0.031123
#
#
# Mechanical properties :
#
#
# Convention : Reuss Voigt Hill
#
# Bulk Modulus (GPa) = 34.27510 39.80995 37.04252
# Shear Modulus (GPa) = 48.03883 20.27494 34.15688
#
# Velocity S-wave (km/s) = 4.79139 3.11276 4.04022
# Velocity P-wave (km/s) = 6.85491 5.65190 6.28227
#
# Compressibility (1/GPa) = 0.02917570
#
# Stress axis : x y z
#
# Youngs Moduli (GPa) = 149.05177 51.03651 59.51022
#
# Poissons Ratio (x) = 0.10433 0.01616
# Poissons Ratio (y) = 0.30471 0.27670
# Poissons Ratio (z) = 0.04047 0.23730
#
# Static dielectric constant tensor:
#      x y z
#    x 1.851980 0.000000 0.000000 
#    y 0.000000 1.732210 0.000000 
#    z 0.000000 0.000000 1.785570 
# 
# From -- ./inp_files/24087.got.cif
#   From: 2010.05.17/outbox.cif.g08.bks.cpg/sg55_13_cif.got.tgz:24087.got - 2010.06.03 13:27:54.
