data_PCOD9426454
_publ_section_title
;
Structure prediction by ZEFSAII (Michael W. Deem and Ramdas Pophale) SiO2 
 PCOD9426454
Probable space group: P B A M
;
_chemical_formula_sum "Si O2"
_cell_formula_units_Z 48
_cell_length_a 19.714927
_cell_length_b 15.984095
_cell_length_c 7.787259
_cell_angle_alpha 90.000000
_cell_angle_beta 90.000000
_cell_angle_gamma 90.000000
_cell_volume 2453.962064
_symmetry_space_group_name_H-M "P B A M"
_symmetry_group_IT_number 55
_symmetry_cell_setting 'orthorhombic'
loop_
_space_group_symop_operation_xyz
x,y,z
-x,-y,z
1/2+x,1/2-y,-z
1/2-x,1/2+y,-z
-x,-y,-z
x,y,-z
1/2-x,1/2+y,z
1/2+x,1/2-y,z
loop_
_atom_site_type_symbol
_atom_site_label
_atom_site_fract_x
_atom_site_fract_y
_atom_site_fract_z
Si Si1 0.830181 0.655057 0.801392
Si Si2 0.821771 0.138301 0.205643
Si Si3 0.573762 0.100040 0.500000
Si Si4 0.076973 0.008494 0.296981
Si Si5 0.831635 0.335445 0.798349
Si Si6 0.923968 0.401935 0.500000
Si Si7 0.319811 0.652036 0.291766
O O1 0.756217 0.620817 0.743047
O O2 0.886318 0.625964 0.669734
O O3 0.828998 0.755963 0.787366
O O4 0.841113 0.631383 0.000000
O O5 0.878194 0.075408 0.275375
O O6 0.832322 0.236171 0.246025
O O7 0.823735 0.131213 0.000000
O O8 0.498591 0.137343 0.500000
O O9 0.569964 0.000894 0.500000
O O10 0.069602 0.024254 0.500000
O O11 0.123581 0.085537 0.232012
O O12 0.000000 0.000000 0.226238
O O13 0.883930 0.376756 0.670139
O O14 0.756609 0.371875 0.761809
O O15 0.846877 0.344665 0.000000
O O16 0.322005 0.658577 0.500000
#
# Coordination Sequence:
#
# PCOD9426454 Si02
#       7
#     8   8   4   8   8   4   8
#     4  10  22  41  66  93 122 162 211 261 310 366
#     4   9  21  38  59  91 122 158 207 251 299 363
#     4  11  26  43  62  91 123 156 211 262 322 378
#     4  10  23  37  56  92 131 166 201 245 307 372
#     4  10  22  41  65  94 123 160 212 260 308 368
#     4  11  26  43  62  91 121 162 205 262 326 374
#     4  10  19  37  63  92 127 164 210 256 301 364
#
# _framework density 19.560205
#
# number of rings (size 3 to 8) (size 9 to 14) (size 15 to 20)
#    0.000    2.000    1.667    1.500    4.667    4.333 
#    0.000    3.333    0.000    0.000    0.000    0.000 
#    0.000    0.000    0.000    0.000    0.000    0.000 
#
# Total GULP energy -267932.268657 kJ/mol
# GULP energy per Si atom -5581.922264 kJ/mol
# Density = 1.951568 g / cm^3
# Si number density = 19.560205 Si / 1000 Ang^3
#
#
#
# Elastic Constant Matrix: (Units=GPa)
#
#
# Indices 1 2 3 4 5 6 
#
# 1 190.6515 63.0792 56.6582 0.0000 0.0000 0.0000
# 2 63.0792 52.9883 14.5462 0.0000 0.0000 0.0000
# 3 56.6582 14.5462 81.3432 0.0000 0.0000 0.0000
# 4 0.0000 0.0000 0.0000 294.9860 0.0000 0.0000
# 5 0.0000 0.0000 0.0000 0.0000 -5.8205 0.0000
# 6 0.0000 0.0000 0.0000 0.0000 0.0000 45.9579
#
#
#
# Elastic Compliance Matrix: (Units=1/GPa)
#
#
# Indices 1 2 3 4 5 6 
#
# 1 0.010466 -0.010998 -0.005323 0.000000 0.000000 0.000000
# 2 -0.010998 0.031403 0.002045 0.000000 0.000000 0.000000
# 3 -0.005323 0.002045 0.015636 0.000000 0.000000 0.000000
# 4 0.000000 0.000000 0.000000 0.003390 0.000000 0.000000
# 5 0.000000 0.000000 0.000000 0.000000 -0.171806 0.000000
# 6 0.000000 0.000000 0.000000 0.000000 0.000000 0.021759
#
#
# Mechanical properties :
#
#
# Convention : Reuss Voigt Hill
#
# Bulk Modulus (GPa) = 34.54000 65.95001 50.24500
# Shear Modulus (GPa) = -98.13496 79.73798 -9.19849
#
# Velocity S-wave (km/s) = -7.09081 6.39171 -2.17091
# Velocity P-wave (km/s) = 7.02445 9.39476 4.41127
#
# Compressibility (1/GPa) = 0.02895194
#
# Stress axis : x y z
#
# Youngs Moduli (GPa) = 95.54976 31.84443 63.95631
#
# Poissons Ratio (x) = 0.35021 0.34045
# Poissons Ratio (y) = 1.05081 -0.13076
# Poissons Ratio (z) = 0.50862 -0.06511
#
# Static dielectric constant tensor:
#      x y z
#    x 1.707940 0.000000 0.000000 
#    y 0.000000 1.687760 0.000000 
#    z 0.000000 0.000000 1.663400 
# 
# From -- ./inp_files/5736.got.cif
#   From: 2010.05.17/outbox.cif.g08.bks.cpg/sg55_3_cif.got.tgz:5736.got - 2010.06.03 13:27:54.
