data_PCOD9426441
_publ_section_title
;
Structure prediction by ZEFSAII (Michael W. Deem and Ramdas Pophale) SiO2 
 PCOD9426441
Probable space group: P B A M
;
_chemical_formula_sum "Si O2"
_cell_formula_units_Z 56
_cell_length_a 22.140606
_cell_length_b 15.044709
_cell_length_c 8.096185
_cell_angle_alpha 90.000000
_cell_angle_beta 90.000000
_cell_angle_gamma 90.000000
_cell_volume 2696.830920
_symmetry_space_group_name_H-M "P B A M"
_symmetry_group_IT_number 55
_symmetry_cell_setting 'orthorhombic'
loop_
_space_group_symop_operation_xyz
x,y,z
-x,-y,z
1/2+x,1/2-y,-z
1/2-x,1/2+y,-z
-x,-y,-z
x,y,-z
1/2-x,1/2+y,z
1/2+x,1/2-y,z
loop_
_atom_site_type_symbol
_atom_site_label
_atom_site_fract_x
_atom_site_fract_y
_atom_site_fract_z
Si Si1 0.621700 0.900617 0.300028
Si Si2 0.597120 0.099443 0.298216
Si Si3 0.824336 0.070335 0.801867
Si Si4 0.239459 0.109685 0.196422
Si Si5 0.985978 0.279040 0.699512
Si Si6 0.538412 0.584186 0.800814
Si Si7 0.718816 0.194598 0.695516
O O1 0.624444 0.898149 0.500000
O O2 0.689570 0.894020 0.236355
O O3 0.577223 0.822458 0.243759
O O4 0.594407 0.996274 0.251032
O O5 0.596947 0.101499 0.500000
O O6 0.541063 0.159078 0.242715
O O7 0.660469 0.141270 0.240316
O O8 0.892419 0.081734 0.738578
O O9 0.780298 0.152138 0.763316
O O10 0.793270 0.979308 0.739126
O O11 0.827699 0.063332 0.000000
O O12 0.213985 0.201432 0.266980
O O13 0.231832 0.112240 0.000000
O O14 0.986056 0.281339 0.500000
O O15 0.990876 0.177816 0.754131
O O16 0.500000 0.500000 0.740552
O O17 0.540276 0.579247 0.000000
O O18 0.720597 0.182139 0.500000
#
# Coordination Sequence:
#
# PCOD9426441 Si02
#       7
#     8   8   8   8   8   8   8
#     4  10  19  37  62  88 118 153 192 233 287 348
#     4   9  19  36  58  87 119 149 187 238 289 342
#     4  10  22  41  61  84 116 154 194 239 290 343
#     4  11  23  37  58  86 119 154 191 237 291 346
#     4  10  21  37  60  88 116 151 191 236 290 343
#     4  10  23  42  61  81 112 154 197 240 288 342
#     4  11  22  37  60  88 118 153 195 241 290 344
#
# _framework density 20.765112999999999
#
# number of rings (size 3 to 8) (size 9 to 14) (size 15 to 20)
#    0.000    1.857    1.429    2.143    2.000    6.000 
#    0.000    1.429    0.000    1.714    0.000    0.000 
#    0.000    0.000    0.000    0.000    0.000    0.000 
#
# Total GULP energy -312975.309081 kJ/mol
# GULP energy per Si atom -5588.844805 kJ/mol
# Density = 2.071785 g / cm^3
# Si number density = 20.765113 Si / 1000 Ang^3
#
#
#
# Elastic Constant Matrix: (Units=GPa)
#
#
# Indices 1 2 3 4 5 6 
#
# 1 36.7664 -11.7960 7.6054 0.0000 0.0000 0.0000
# 2 -11.7960 91.2529 -2.0824 0.0000 0.0000 0.0000
# 3 7.6054 -2.0824 9.9429 0.0000 0.0000 0.0000
# 4 0.0000 0.0000 0.0000 23.3230 0.0000 0.0000
# 5 0.0000 0.0000 0.0000 0.0000 18.1055 0.0000
# 6 0.0000 0.0000 0.0000 0.0000 0.0000 32.7770
#
#
#
# Elastic Compliance Matrix: (Units=1/GPa)
#
#
# Indices 1 2 3 4 5 6 
#
# 1 0.033554 0.003770 -0.024876 0.000000 0.000000 0.000000
# 2 0.003770 0.011435 -0.000489 0.000000 0.000000 0.000000
# 3 -0.024876 -0.000489 0.119500 0.000000 0.000000 0.000000
# 4 0.000000 0.000000 0.000000 0.042876 0.000000 0.000000
# 5 0.000000 0.000000 0.000000 0.000000 0.055232 0.000000
# 6 0.000000 0.000000 0.000000 0.000000 0.000000 0.030509
#
#
# Mechanical properties :
#
#
# Convention : Reuss Voigt Hill
#
# Bulk Modulus (GPa) = 8.24412 13.93514 11.08963
# Shear Modulus (GPa) = 13.27212 24.45678 18.86445
#
# Velocity S-wave (km/s) = 2.53089 3.43561 3.01735
# Velocity P-wave (km/s) = 3.53827 4.73954 4.18226
#
# Compressibility (1/GPa) = 0.12129851
#
# Stress axis : x y z
#
# Youngs Moduli (GPa) = 29.80263 87.45299 8.36818
#
# Poissons Ratio (x) = -0.32968 0.20817
# Poissons Ratio (y) = -0.11235 0.00409
# Poissons Ratio (z) = 0.74138 0.04274
#
# Static dielectric constant tensor:
#      x y z
#    x 1.732080 0.000000 0.000000 
#    y 0.000000 1.716560 0.000000 
#    z 0.000000 0.000000 1.741250 
# 
# From -- ./inp_files/6146.got.cif
#   From: 2010.05.17/outbox.cif.g08.bks.cpg/sg55_4_cif.got.tgz:6146.got - 2010.06.03 13:27:54.
