data_PCOD9426318
_publ_section_title
;
Structure prediction by ZEFSAII (Michael W. Deem and Ramdas Pophale) SiO2 
 PCOD9426318
Probable space group: P B A M
;
_chemical_formula_sum "Si O2"
_cell_formula_units_Z 64
_cell_length_a 26.153982
_cell_length_b 13.151071
_cell_length_c 9.452637
_cell_angle_alpha 90.000000
_cell_angle_beta 90.000000
_cell_angle_gamma 90.000000
_cell_volume 3251.261665
_symmetry_space_group_name_H-M "P B A M"
_symmetry_group_IT_number 55
_symmetry_cell_setting 'orthorhombic'
loop_
_space_group_symop_operation_xyz
x,y,z
-x,-y,z
1/2+x,1/2-y,-z
1/2-x,1/2+y,-z
-x,-y,-z
x,y,-z
1/2-x,1/2+y,z
1/2+x,1/2-y,z
loop_
_atom_site_type_symbol
_atom_site_label
_atom_site_fract_x
_atom_site_fract_y
_atom_site_fract_z
Si Si1 0.846607 0.616688 0.671619
Si Si2 0.793116 0.826645 0.667853
Si Si3 0.617631 0.722336 0.829873
Si Si4 0.341357 0.488895 0.838395
Si Si5 0.515276 0.706702 0.343202
Si Si6 0.322259 0.111841 0.667211
Si Si7 0.453971 0.579739 0.849244
Si Si8 0.038196 0.420969 0.661824
O O1 0.847013 0.624592 0.500000
O O2 0.818752 0.720682 0.720644
O O3 0.820043 0.508248 0.705022
O O4 0.905678 0.604765 0.720633
O O5 0.803510 0.834276 0.500000
O O6 0.814185 0.927454 0.743384
O O7 0.732152 0.833179 0.686522
O O8 0.655906 0.628785 0.792197
O O9 0.562484 0.697907 0.763076
O O10 0.637330 0.826417 0.760569
O O11 0.614649 0.726937 0.000000
O O12 0.400527 0.523520 0.841101
O O13 0.321765 0.493357 0.000000
O O14 0.530393 0.672027 0.500000
O O15 0.466313 0.646870 0.285168
O O16 0.495693 0.820913 0.348537
O O17 0.336054 0.117820 0.500000
O O18 0.500000 0.500000 0.852479
O O19 0.455255 0.637578 0.000000
O O20 0.048490 0.459183 0.500000
O O21 0.000000 0.500000 0.735719
#
# Coordination Sequence:
#
# PCOD9426318 Si02
#       8
#     8   8   8   8   8   8   8   8
#     4   9  18  36  57  84 122 152 186 242 303 357
#     4  10  22  38  62  90 117 151 192 249 309 355
#     4  11  23  40  59  84 121 163 199 242 297 353
#     4  10  22  39  59  83 117 161 201 238 291 355
#     4  11  21  33  56  89 117 150 198 247 290 347
#     4  10  22  39  63  89 114 150 196 246 301 354
#     4  10  19  36  55  76 115 160 190 224 285 349
#     4   9  17  30  52  79 112 153 189 226 284 346
#
# _framework density 19.684664999999999
#
# number of rings (size 3 to 8) (size 9 to 14) (size 15 to 20)
#    0.000    2.000    1.250    2.250    1.750    5.250 
#    0.000    0.625    0.000    8.250    0.000    0.000 
#    0.000    0.000    0.000    0.000    0.000    0.000 
#
# Total GULP energy -356732.008301 kJ/mol
# GULP energy per Si atom -5573.937630 kJ/mol
# Density = 1.963986 g / cm^3
# Si number density = 19.684665 Si / 1000 Ang^3
#
#
#
# Elastic Constant Matrix: (Units=GPa)
#
#
# Indices 1 2 3 4 5 6 
#
# 1 53.7345 20.7721 22.0997 0.0000 0.0000 0.0000
# 2 20.7721 91.3566 23.7667 0.0000 0.0000 0.0000
# 3 22.0997 23.7667 41.4531 0.0000 0.0000 0.0000
# 4 0.0000 0.0000 0.0000 24.6855 0.0000 0.0000
# 5 0.0000 0.0000 0.0000 0.0000 8.6868 0.0000
# 6 0.0000 0.0000 0.0000 0.0000 0.0000 35.9668
#
#
#
# Elastic Compliance Matrix: (Units=1/GPa)
#
#
# Indices 1 2 3 4 5 6 
#
# 1 0.024326 -0.002535 -0.011515 0.000000 0.000000 0.000000
# 2 -0.002535 0.013129 -0.006176 0.000000 0.000000 0.000000
# 3 -0.011515 -0.006176 0.033803 0.000000 0.000000 0.000000
# 4 0.000000 0.000000 0.000000 0.040510 0.000000 0.000000
# 5 0.000000 0.000000 0.000000 0.000000 0.115117 0.000000
# 6 0.000000 0.000000 0.000000 0.000000 0.000000 0.027803
#
#
# Mechanical properties :
#
#
# Convention : Reuss Voigt Hill
#
# Bulk Modulus (GPa) = 32.46122 35.53570 33.99846
# Shear Modulus (GPa) = 16.37141 21.86155 19.11648
#
# Velocity S-wave (km/s) = 2.88702 3.33616 3.11969
# Velocity P-wave (km/s) = 5.25734 5.73861 5.50324
#
# Compressibility (1/GPa) = 0.03080599
#
# Stress axis : x y z
#
# Youngs Moduli (GPa) = 41.10829 76.16567 29.58276
#
# Poissons Ratio (x) = 0.19311 0.34065
# Poissons Ratio (y) = 0.10423 0.18270
# Poissons Ratio (z) = 0.47337 0.47039
#
# Static dielectric constant tensor:
#      x y z
#    x 1.698510 0.000000 0.000000 
#    y 0.000000 1.753940 0.000000 
#    z 0.000000 0.000000 1.714690 
# 
# From -- ./inp_files/10722.got.cif
#   From: 2010.05.17/outbox.cif.g08.bks.cpg/sg55_6_cif.got.tgz:10722.got - 2010.06.03 13:27:54.
