data_PCOD9426251
_publ_section_title
;
Structure prediction by ZEFSAII (Michael W. Deem and Ramdas Pophale) SiO2 
 PCOD9426251
Probable space group: P B A M
;
_chemical_formula_sum "Si O2"
_cell_formula_units_Z 32
_cell_length_a 9.084230
_cell_length_b 21.395150
_cell_length_c 7.591250
_cell_angle_alpha 90.000000
_cell_angle_beta 90.000000
_cell_angle_gamma 90.000000
_cell_volume 1475.423686
_symmetry_space_group_name_H-M "P B A M"
_symmetry_group_IT_number 55
_symmetry_cell_setting 'orthorhombic'
loop_
_space_group_symop_operation_xyz
x,y,z
-x,-y,z
1/2+x,1/2-y,-z
1/2-x,1/2+y,-z
-x,-y,-z
x,y,-z
1/2-x,1/2+y,z
1/2+x,1/2-y,z
loop_
_atom_site_type_symbol
_atom_site_label
_atom_site_fract_x
_atom_site_fract_y
_atom_site_fract_z
Si Si1 0.427797 0.316192 0.713423
Si Si2 0.087796 0.310531 0.284290
Si Si3 0.097862 0.057113 0.793936
Si Si4 0.565139 0.936202 0.295256
O O1 0.429739 0.316789 0.500000
O O2 0.511722 0.253756 0.773196
O O3 0.257802 0.314590 0.769206
O O4 0.509598 0.378587 0.773510
O O5 0.084076 0.309281 0.500000
O O6 0.999835 0.371719 0.221677
O O7 0.258972 0.062596 0.711729
O O8 0.123052 0.044458 0.000000
O O9 0.000000 0.000000 0.721432
O O10 0.518119 0.935876 0.500000
O O11 0.500000 0.000000 0.215808
#
# Coordination Sequence:
#
# PCOD9426251 Si02
#       4
#     8   8   8   8
#     4  10  19  35  59  83 110 143 180 223 271 323
#     4   9  18  33  57  88 114 138 175 227 278 320
#     4  11  24  39  54  77 111 148 185 226 273 322
#     4  10  20  36  60  87 111 140 182 226 272 329
#
# _framework density 21.688686000000001
#
# number of rings (size 3 to 8) (size 9 to 14) (size 15 to 20)
#    0.000    2.000    0.000    3.750    0.000    8.500 
#    0.000    6.250    0.000    0.000    0.000    0.000 
#    0.000    0.000    0.000    0.000    0.000    0.000 
#
# Total GULP energy -178895.576081 kJ/mol
# GULP energy per Si atom -5590.486753 kJ/mol
# Density = 2.163932 g / cm^3
# Si number density = 21.688686 Si / 1000 Ang^3
#
#
#
# Elastic Constant Matrix: (Units=GPa)
#
#
# Indices 1 2 3 4 5 6 
#
# 1 159.2006 105.3139 -20.9602 0.0000 0.0000 0.0000
# 2 105.3139 226.5308 -10.6903 0.0000 0.0000 0.0000
# 3 -20.9602 -10.6903 43.3547 0.0000 0.0000 0.0000
# 4 0.0000 0.0000 0.0000 -51.8854 0.0000 0.0000
# 5 0.0000 0.0000 0.0000 0.0000 -77.4657 0.0000
# 6 0.0000 0.0000 0.0000 0.0000 0.0000 50.2149
#
#
#
# Elastic Compliance Matrix: (Units=1/GPa)
#
#
# Indices 1 2 3 4 5 6 
#
# 1 0.009590 -0.004290 0.003579 0.000000 0.000000 0.000000
# 2 -0.004290 0.006385 -0.000499 0.000000 0.000000 0.000000
# 3 0.003579 -0.000499 0.024673 0.000000 0.000000 0.000000
# 4 0.000000 0.000000 0.000000 -0.019273 0.000000 0.000000
# 5 0.000000 0.000000 0.000000 0.000000 -0.012909 0.000000
# 6 0.000000 0.000000 0.000000 0.000000 0.000000 0.019914
#
#
# Mechanical properties :
#
#
# Convention : Reuss Voigt Hill
#
# Bulk Modulus (GPa) = 26.15928 64.04585 45.10257
# Shear Modulus (GPa) = 114.82890 7.86760 61.34825
#
# Velocity S-wave (km/s) = 7.28417 1.90667 5.32421
# Velocity P-wave (km/s) = 9.10126 5.86864 7.65747
#
# Compressibility (1/GPa) = 0.03822735
#
# Stress axis : x y z
#
# Youngs Moduli (GPa) = 104.27325 156.61552 40.53080
#
# Poissons Ratio (x) = 0.67181 -0.14505
# Poissons Ratio (y) = 0.44729 0.02024
# Poissons Ratio (z) = -0.37317 0.07822
#
# Static dielectric constant tensor:
#      x y z
#    x 1.717980 0.000000 0.000000 
#    y 0.000000 1.762310 0.000000 
#    z 0.000000 0.000000 1.818960 
# 
# From -- ./inp_files/1981.got.cif
#   From: 2010.05.17/outbox.cif.g08.bks.cpg/sg55_1_cif.got.tgz:1981.got - 2010.06.03 13:27:54.
