data_PCOD9426492
_publ_section_title
;
Structure prediction by ZEFSAII (Michael W. Deem and Ramdas Pophale) SiO2 
 PCOD9426492
Probable space group: P B A M
;
_chemical_formula_sum "Si O2"
_cell_formula_units_Z 58
_cell_length_a 18.058038
_cell_length_b 19.318806
_cell_length_c 7.520073
_cell_angle_alpha 90.000000
_cell_angle_beta 90.000000
_cell_angle_gamma 90.000000
_cell_volume 2623.450658
_symmetry_space_group_name_H-M "P B A M"
_symmetry_group_IT_number 55
_symmetry_cell_setting 'orthorhombic'
loop_
_space_group_symop_operation_xyz
x,y,z
-x,-y,z
1/2+x,1/2-y,-z
1/2-x,1/2+y,-z
-x,-y,-z
x,y,-z
1/2-x,1/2+y,z
1/2+x,1/2-y,z
loop_
_atom_site_type_symbol
_atom_site_label
_atom_site_fract_x
_atom_site_fract_y
_atom_site_fract_z
Si Si1 0.945282 0.688882 0.782858
Si Si2 0.926703 0.417783 0.215132
Si Si3 0.770114 0.348408 0.784516
Si Si4 0.364680 0.552925 0.784296
Si Si5 0.221290 0.303261 0.787737
Si Si6 0.015519 0.159319 0.202157
Si Si7 0.500000 0.000000 0.500000
Si Si8 0.139043 0.892626 0.298930
O O1 0.860916 0.678454 0.722919
O O2 0.970166 0.765106 0.720008
O O3 0.004308 0.631310 0.729213
O O4 0.947829 0.687384 0.000000
O O5 0.851298 0.376715 0.258450
O O6 0.938168 0.483217 0.340910
O O7 0.928224 0.431175 0.000000
O O8 0.706669 0.402337 0.730405
O O9 0.750182 0.271304 0.719759
O O10 0.767885 0.345560 0.000000
O O11 0.436522 0.596158 0.721967
O O12 0.362254 0.474989 0.717866
O O13 0.365811 0.547230 0.000000
O O14 0.282445 0.361120 0.753955
O O15 0.214189 0.295843 0.000000
O O16 0.929798 0.140253 0.196225
O O17 0.044079 0.165611 0.000000
O O18 0.124521 0.872085 0.500000
#
# Coordination Sequence:
#
# PCOD9426492 Si02
#       8
#     8   8   8   8   8   8   2   8
#     4   9  18  37  68  97 120 153 204 266 324 374
#     4  10  22  42  67  95 128 170 215 269 327 383
#     4   9  18  38  68  93 119 156 207 262 318 378
#     4  10  20  38  65  93 119 158 208 256 309 374
#     4  10  19  39  67  93 120 155 205 264 316 374
#     4  10  19  38  67  93 118 154 206 259 311 375
#     4  12  26  44  60  90 128 168 218 276 316 390
#     4  12  26  39  52  86 132 169 200 243 306 376
#
# _framework density 22.108287000000001
#
# number of rings (size 3 to 8) (size 9 to 14) (size 15 to 20)
#    0.000    1.931    1.379    2.690    0.000    5.517 
#    9.931    4.138    0.000    0.000    0.000    0.000 
#    0.000    0.000    0.000    0.000    0.000    0.000 
#
# Total GULP energy -323507.625581 kJ/mol
# GULP energy per Si atom -5577.717682 kJ/mol
# Density = 2.205797 g / cm^3
# Si number density = 22.108287 Si / 1000 Ang^3
#
#
#
# Elastic Constant Matrix: (Units=GPa)
#
#
# Indices 1 2 3 4 5 6 
#
# 1 123.0965 41.7783 7.2936 0.0000 0.0000 0.0000
# 2 41.7783 67.6894 -11.3620 0.0000 0.0000 0.0000
# 3 7.2936 -11.3620 70.0272 0.0000 0.0000 0.0000
# 4 0.0000 0.0000 0.0000 21.0387 0.0000 0.0000
# 5 0.0000 0.0000 0.0000 0.0000 -189.7500 0.0000
# 6 0.0000 0.0000 0.0000 0.0000 0.0000 -20.7155
#
#
#
# Elastic Compliance Matrix: (Units=1/GPa)
#
#
# Indices 1 2 3 4 5 6 
#
# 1 0.010604 -0.006919 -0.002227 0.000000 0.000000 0.000000
# 2 -0.006919 0.019701 0.003917 0.000000 0.000000 0.000000
# 3 -0.002227 0.003917 0.015148 0.000000 0.000000 0.000000
# 4 0.000000 0.000000 0.000000 0.047531 0.000000 0.000000
# 5 0.000000 0.000000 0.000000 0.000000 -0.005270 0.000000
# 6 0.000000 0.000000 0.000000 0.000000 0.000000 -0.048273
#
#
# Mechanical properties :
#
#
# Convention : Reuss Voigt Hill
#
# Bulk Modulus (GPa) = 28.57491 37.35919 32.96705
# Shear Modulus (GPa) = 81.21789 -23.01182 29.10303
#
# Velocity S-wave (km/s) = 6.06763 -3.22975 3.63214
# Velocity P-wave (km/s) = 7.87663 1.73971 5.70385
#
# Compressibility (1/GPa) = 0.03499574
#
# Stress axis : x y z
#
# Youngs Moduli (GPa) = 94.30617 50.75879 66.01673
#
# Poissons Ratio (x) = 0.35118 0.14702
# Poissons Ratio (y) = 0.65246 -0.25859
# Poissons Ratio (z) = 0.21002 -0.19883
#
# Static dielectric constant tensor:
#      x y z
#    x 1.834680 0.000000 0.000000 
#    y 0.000000 1.812440 0.000000 
#    z 0.000000 0.000000 1.880120 
# 
# From -- ./inp_files/7680.got.cif
#   From: 2010.05.17/outbox.cif.g08.bks.cpg/sg55_4_cif.got.tgz:7680.got - 2010.06.03 13:27:54.
