data_PCOD9426480
_publ_section_title
;
Structure prediction by ZEFSAII (Michael W. Deem and Ramdas Pophale) SiO2 
 PCOD9426480
Probable space group: P B A M
;
_chemical_formula_sum "Si O2"
_cell_formula_units_Z 44
_cell_length_a 9.813516
_cell_length_b 16.320046
_cell_length_c 12.164457
_cell_angle_alpha 90.000000
_cell_angle_beta 90.000000
_cell_angle_gamma 90.000000
_cell_volume 1948.223336
_symmetry_space_group_name_H-M "P B A M"
_symmetry_group_IT_number 55
_symmetry_cell_setting 'orthorhombic'
loop_
_space_group_symop_operation_xyz
x,y,z
-x,-y,z
1/2+x,1/2-y,-z
1/2-x,1/2+y,-z
-x,-y,-z
x,y,-z
1/2-x,1/2+y,z
1/2+x,1/2-y,z
loop_
_atom_site_type_symbol
_atom_site_label
_atom_site_fract_x
_atom_site_fract_y
_atom_site_fract_z
Si Si1 0.655498 0.591899 0.744158
Si Si2 0.737260 0.394409 0.500000
Si Si3 0.318762 0.077532 0.742386
Si Si4 0.080327 0.161312 0.870725
Si Si5 0.633779 0.576742 0.500000
Si Si6 0.119621 0.289977 0.500000
Si Si7 0.433031 0.822586 0.744337
O O1 0.745335 0.509827 0.754233
O O2 0.539018 0.599626 0.833825
O O3 0.583823 0.597449 0.623434
O O4 0.772001 0.660398 0.753666
O O5 0.816587 0.405780 0.387499
O O6 0.645894 0.477756 0.500000
O O7 0.678679 0.302504 0.500000
O O8 0.217817 0.138007 0.806738
O O9 0.473140 0.099491 0.774318
O O10 0.031880 0.248518 0.824201
O O11 0.101061 0.161527 0.000000
O O12 0.774374 0.632258 0.500000
O O13 0.044029 0.297562 0.383295
#
# Coordination Sequence:
#
# PCOD9426480 Si02
#       7
#     8   4   8   8   4   4   8
#     4  10  23  43  67  98 134 171 213 271 334 400
#     4  10  19  38  64 102 136 173 213 261 327 405
#     4  11  23  42  68  97 133 173 216 269 330 401
#     4  12  27  45  64  91 128 172 227 284 332 388
#     4   8  20  36  64 100 138 169 213 264 324 401
#     4  10  19  38  65 101 141 176 214 267 336 404
#     4  11  23  41  68 101 132 170 218 268 332 399
#
# _framework density 22.584679999999999
#
# number of rings (size 3 to 8) (size 9 to 14) (size 15 to 20)
#    0.000    1.455    1.818    2.727    2.545    5.818 
#    0.000    8.182    0.000    3.273    0.000    0.000 
#    0.000    0.000    0.000    0.000    0.000    0.000 
#
# Total GULP energy -245680.828629 kJ/mol
# GULP energy per Si atom -5583.655196 kJ/mol
# Density = 2.253328 g / cm^3
# Si number density = 22.584680 Si / 1000 Ang^3
#
#
#
# Elastic Constant Matrix: (Units=GPa)
#
#
# Indices 1 2 3 4 5 6 
#
# 1 71.2838 10.4894 10.7500 0.0000 0.0000 0.0000
# 2 10.4894 102.5091 5.1638 0.0000 0.0000 0.0000
# 3 10.7500 5.1638 103.6171 0.0000 0.0000 0.0000
# 4 0.0000 0.0000 0.0000 48.0586 0.0000 0.0000
# 5 0.0000 0.0000 0.0000 0.0000 -23.9972 0.0000
# 6 0.0000 0.0000 0.0000 0.0000 0.0000 16.0748
#
#
#
# Elastic Compliance Matrix: (Units=1/GPa)
#
#
# Indices 1 2 3 4 5 6 
#
# 1 0.014451 -0.001407 -0.001429 0.000000 0.000000 0.000000
# 2 -0.001407 0.009917 -0.000348 0.000000 0.000000 0.000000
# 3 -0.001429 -0.000348 0.009817 0.000000 0.000000 0.000000
# 4 0.000000 0.000000 0.000000 0.020808 0.000000 0.000000
# 5 0.000000 0.000000 0.000000 0.000000 -0.041672 0.000000
# 6 0.000000 0.000000 0.000000 0.000000 0.000000 0.062209
#
#
# Mechanical properties :
#
#
# Convention : Reuss Voigt Hill
#
# Bulk Modulus (GPa) = 35.95059 36.69072 36.32065
# Shear Modulus (GPa) = 54.84264 24.76104 39.80184
#
# Velocity S-wave (km/s) = 4.93314 3.31473 4.20258
# Velocity P-wave (km/s) = 6.95704 5.56157 6.29808
#
# Compressibility (1/GPa) = 0.02781596
#
# Stress axis : x y z
#
# Youngs Moduli (GPa) = 69.19959 100.83977 101.86889
#
# Poissons Ratio (x) = 0.14185 0.14558
# Poissons Ratio (y) = 0.09735 0.03548
# Poissons Ratio (z) = 0.09890 0.03512
#
# Static dielectric constant tensor:
#      x y z
#    x 1.901920 0.000000 0.000000 
#    y 0.000000 1.953960 0.000000 
#    z 0.000000 0.000000 1.774080 
# 
# From -- ./inp_files/13173.got.cif
#   From: 2010.05.17/outbox.cif.g08.bks.cpg/sg55_7_cif.got.tgz:13173.got - 2010.06.03 13:27:54.
