data_PCOD9426909
_publ_section_title
;
Structure prediction by ZEFSAII (Michael W. Deem and Ramdas Pophale) SiO2 
 PCOD9426909
Probable space group: P B A M
;
_chemical_formula_sum "Si O2"
_cell_formula_units_Z 58
_cell_length_a 29.587610
_cell_length_b 8.342919
_cell_length_c 12.400443
_cell_angle_alpha 90.000000
_cell_angle_beta 90.000000
_cell_angle_gamma 90.000000
_cell_volume 3061.012570
_symmetry_space_group_name_H-M "P B A M"
_symmetry_group_IT_number 55
_symmetry_cell_setting 'orthorhombic'
loop_
_space_group_symop_operation_xyz
x,y,z
-x,-y,z
1/2+x,1/2-y,-z
1/2-x,1/2+y,-z
-x,-y,-z
x,y,-z
1/2-x,1/2+y,z
1/2+x,1/2-y,z
loop_
_atom_site_type_symbol
_atom_site_label
_atom_site_fract_x
_atom_site_fract_y
_atom_site_fract_z
Si Si1 0.945140 0.857527 0.799482
Si Si2 0.697644 0.578664 0.376347
Si Si3 0.236391 0.210765 0.248183
Si Si4 0.500000 0.500000 0.000000
Si Si5 0.593700 0.596816 0.621181
Si Si6 0.308049 0.004143 0.872686
Si Si7 0.974289 0.347189 0.700908
Si Si8 0.411418 0.981583 0.872487
O O1 0.915749 0.703798 0.836506
O O2 0.963494 0.948221 0.904582
O O3 0.988322 0.779056 0.739600
O O4 0.920637 0.973730 0.714888
O O5 0.704081 0.528436 0.500000
O O6 0.734137 0.711154 0.343551
O O7 0.706487 0.431441 0.296075
O O8 0.646375 0.638280 0.365053
O O9 0.206552 0.346083 0.192088
O O10 0.273336 0.140212 0.165359
O O11 0.588045 0.527945 0.500000
O O12 0.562300 0.752823 0.631614
O O13 0.360599 0.041683 0.851088
O O14 0.303763 0.976233 0.000000
O O15 0.947869 0.417910 0.805011
O O16 0.000000 0.500000 0.650404
O O17 0.420966 0.993889 0.000000
#
# Coordination Sequence:
#
# PCOD9426909 Si02
#       8
#     8   8   8   2   8   8   8   8
#     4  11  22  37  58  84 112 148 188 232 280 330
#     4  10  21  37  60  84 109 143 184 231 280 328
#     4  10  20  36  58  81 113 143 182 232 275 333
#     4  12  20  36  60  84 112 144 190 238 280 328
#     4  11  23  40  59  82 114 150 190 232 275 332
#     4  10  20  35  54  81 113 151 184 223 275 337
#     4  10  22  36  55  80 111 146 187 229 277 328
#     4  10  21  35  56  83 115 147 187 233 284 332
#
# _framework density 18.947979
#
# number of rings (size 3 to 8) (size 9 to 14) (size 15 to 20)
#    0.000    1.655    2.069    2.483    0.966    2.207 
#    0.000    2.069    1.517   11.586    0.000    0.000 
#    0.000    0.000    0.000    0.000    0.000    0.000 
#
# Total GULP energy -323278.056669 kJ/mol
# GULP energy per Si atom -5573.759598 kJ/mol
# Density = 1.890485 g / cm^3
# Si number density = 18.947979 Si / 1000 Ang^3
#
#
#
# Elastic Constant Matrix: (Units=GPa)
#
#
# Indices 1 2 3 4 5 6 
#
# 1 70.5041 2.2939 15.0552 0.0000 0.0000 0.0000
# 2 2.2939 24.8144 -3.7703 0.0000 0.0000 0.0000
# 3 15.0552 -3.7703 66.8029 0.0000 0.0000 0.0000
# 4 0.0000 0.0000 0.0000 18.0048 0.0000 0.0000
# 5 0.0000 0.0000 0.0000 0.0000 30.8703 0.0000
# 6 0.0000 0.0000 0.0000 0.0000 0.0000 25.0983
#
#
#
# Elastic Compliance Matrix: (Units=1/GPa)
#
#
# Indices 1 2 3 4 5 6 
#
# 1 0.014990 -0.001915 -0.003486 0.000000 0.000000 0.000000
# 2 -0.001915 0.040893 0.002740 0.000000 0.000000 0.000000
# 3 -0.003486 0.002740 0.015910 0.000000 0.000000 0.000000
# 4 0.000000 0.000000 0.000000 0.055541 0.000000 0.000000
# 5 0.000000 0.000000 0.000000 0.000000 0.032394 0.000000
# 6 0.000000 0.000000 0.000000 0.000000 0.000000 0.039843
#
#
# Mechanical properties :
#
#
# Convention : Reuss Voigt Hill
#
# Bulk Modulus (GPa) = 15.04483 21.03101 18.03792
# Shear Modulus (GPa) = 22.02149 24.69751 23.35950
#
# Velocity S-wave (km/s) = 3.41281 3.61423 3.51497
# Velocity P-wave (km/s) = 4.84634 5.34232 5.10036
#
# Compressibility (1/GPa) = 0.06646801
#
# Stress axis : x y z
#
# Youngs Moduli (GPa) = 66.70950 24.45436 62.85446
#
# Poissons Ratio (x) = 0.04684 0.21914
# Poissons Ratio (y) = 0.12778 -0.17220
# Poissons Ratio (z) = 0.23258 -0.06700
#
# Static dielectric constant tensor:
#      x y z
#    x 1.646550 0.000000 0.000000 
#    y 0.000000 1.659380 0.000000 
#    z 0.000000 0.000000 1.624190 
# 
# From -- ./inp_files/12561.got.cif
#   From: 2010.05.17/outbox.cif.g08.bks.cpg/sg55_7_cif.got.tgz:12561.got - 2010.06.03 13:27:54.
