data_PCOD9426448
_publ_section_title
;
Structure prediction by ZEFSAII (Michael W. Deem and Ramdas Pophale) SiO2 
 PCOD9426448
Probable space group: P B A M
;
_chemical_formula_sum "Si O2"
_cell_formula_units_Z 64
_cell_length_a 9.834852
_cell_length_b 17.291752
_cell_length_c 14.970948
_cell_angle_alpha 90.000000
_cell_angle_beta 90.000000
_cell_angle_gamma 90.000000
_cell_volume 2545.986690
_symmetry_space_group_name_H-M "P B A M"
_symmetry_group_IT_number 55
_symmetry_cell_setting 'orthorhombic'
loop_
_space_group_symop_operation_xyz
x,y,z
-x,-y,z
1/2+x,1/2-y,-z
1/2-x,1/2+y,-z
-x,-y,-z
x,y,-z
1/2-x,1/2+y,z
1/2+x,1/2-y,z
loop_
_atom_site_type_symbol
_atom_site_label
_atom_site_fract_x
_atom_site_fract_y
_atom_site_fract_z
Si Si1 0.831059 0.839553 0.108060
Si Si2 0.438238 0.235403 0.891127
Si Si3 0.668941 0.339553 0.608060
Si Si4 0.650289 0.510766 0.147866
Si Si5 0.071581 0.423294 0.896078
Si Si6 0.938238 0.264597 0.391127
Si Si7 0.650289 0.510766 0.352134
Si Si8 0.571581 0.076706 0.603922
O O1 0.978192 0.810110 0.138471
O O2 0.717204 0.777251 0.134431
O O3 0.793552 0.923275 0.143722
O O4 0.829004 0.845296 0.000000
O O5 0.518389 0.158260 0.860635
O O6 0.441794 0.238319 0.000000
O O7 0.670996 0.345296 0.500000
O O8 0.521808 0.310110 0.638471
O O9 0.706448 0.423275 0.643722
O O10 0.782796 0.277251 0.634431
O O11 0.500000 0.500000 0.106125
O O12 0.766141 0.564955 0.107593
O O13 0.632237 0.535025 0.250000
O O14 0.000000 0.500000 0.856571
O O15 0.030140 0.421475 0.000000
O O16 0.941794 0.261681 0.500000
O O17 0.018389 0.341740 0.360635
O O18 0.500000 0.500000 0.393875
O O19 0.766141 0.564955 0.392408
O O20 0.530140 0.078525 0.500000
O O21 0.500000 0.000000 0.643429
#
# Coordination Sequence:
#
# PCOD9426448 Si02
#       8
#     8   8   8   8   8   8   8   8
#     4  10  20  38  60  86 117 149 190 239 290 343
#     4   9  19  34  58  90 117 143 184 239 291 346
#     4  10  20  38  60  86 117 149 190 239 290 343
#     4  11  25  41  56  82 120 158 200 242 284 341
#     4  10  19  37  63  88 113 146 192 242 292 345
#     4   9  19  34  58  90 117 143 184 239 291 346
#     4  11  25  41  56  82 120 158 200 242 284 341
#     4  10  19  37  63  88 113 146 192 242 292 345
#
# _framework density 25.137604
#
# number of rings (size 3 to 8) (size 9 to 14) (size 15 to 20)
#    0.000    2.000    2.500    0.750    3.500    2.500 
#    0.000    2.500    0.000    0.000    0.000    0.000 
#    0.000    0.000    0.000    0.000    0.000    0.000 
#
# Total GULP energy -357806.318304 kJ/mol
# GULP energy per Si atom -5590.723723 kJ/mol
# Density = 2.508039 g / cm^3
# Si number density = 25.137604 Si / 1000 Ang^3
#
#
#
# Elastic Constant Matrix: (Units=GPa)
#
#
# Indices 1 2 3 4 5 6 
#
# 1 99.6796 -3.8043 -4.6929 0.0000 0.0000 0.0000
# 2 -3.8043 37.8539 0.7730 0.0000 0.0000 0.0000
# 3 -4.6929 0.7730 70.0623 0.0000 0.0000 0.0000
# 4 0.0000 0.0000 0.0000 7.5666 0.0000 0.0000
# 5 0.0000 0.0000 0.0000 0.0000 42.5365 0.0000
# 6 0.0000 0.0000 0.0000 0.0000 0.0000 50.4203
#
#
#
# Elastic Compliance Matrix: (Units=1/GPa)
#
#
# Indices 1 2 3 4 5 6 
#
# 1 0.010102 0.001002 0.000666 0.000000 0.000000 0.000000
# 2 0.001002 0.026523 -0.000226 0.000000 0.000000 0.000000
# 3 0.000666 -0.000226 0.014320 0.000000 0.000000 0.000000
# 4 0.000000 0.000000 0.000000 0.132160 0.000000 0.000000
# 5 0.000000 0.000000 0.000000 0.000000 0.023509 0.000000
# 6 0.000000 0.000000 0.000000 0.000000 0.000000 0.019833
#
#
# Mechanical properties :
#
#
# Convention : Reuss Voigt Hill
#
# Bulk Modulus (GPa) = 18.57777 21.34971 19.96374
# Shear Modulus (GPa) = 20.70339 34.45934 27.58137
#
# Velocity S-wave (km/s) = 2.87296 3.70649 3.31602
# Velocity P-wave (km/s) = 4.29088 5.17967 4.75608
#
# Compressibility (1/GPa) = 0.05382778
#
# Stress axis : x y z
#
# Youngs Moduli (GPa) = 98.99320 37.70363 69.83197
#
# Poissons Ratio (x) = -0.03776 -0.04648
# Poissons Ratio (y) = -0.09915 0.01575
# Poissons Ratio (z) = -0.06589 0.00850
#
# Static dielectric constant tensor:
#      x y z
#    x 2.006980 0.000000 0.000000 
#    y 0.000000 1.961040 0.000000 
#    z 0.000000 0.000000 1.982310 
# 
# From -- ./inp_files/22707.got.cif
#   From: 2010.05.17/outbox.cif.g08.bks.cpg/sg55_12_cif.got.tgz:22707.got - 2010.06.03 13:27:54.
