data_PCOD9426200
_publ_section_title
;
Structure prediction by ZEFSAII (Michael W. Deem and Ramdas Pophale) SiO2 
 PCOD9426200
Probable space group: P B A M
;
_chemical_formula_sum "Si O2"
_cell_formula_units_Z 64
_cell_length_a 13.304521
_cell_length_b 28.173988
_cell_length_c 7.752420
_cell_angle_alpha 90.000000
_cell_angle_beta 90.000000
_cell_angle_gamma 90.000000
_cell_volume 2905.928082
_symmetry_space_group_name_H-M "P B A M"
_symmetry_group_IT_number 55
_symmetry_cell_setting 'orthorhombic'
loop_
_space_group_symop_operation_xyz
x,y,z
-x,-y,z
1/2+x,1/2-y,-z
1/2-x,1/2+y,-z
-x,-y,-z
x,y,-z
1/2-x,1/2+y,z
1/2+x,1/2-y,z
loop_
_atom_site_type_symbol
_atom_site_label
_atom_site_fract_x
_atom_site_fract_y
_atom_site_fract_z
Si Si1 0.356450 0.143217 0.201526
Si Si2 0.319690 0.708231 0.697996
Si Si3 0.231053 0.546576 0.291993
Si Si4 0.769148 0.193110 0.800427
Si Si5 0.516004 0.655536 0.296558
Si Si6 0.592177 0.034593 0.707689
Si Si7 0.037650 0.051749 0.289540
Si Si8 0.075653 0.357870 0.200601
O O1 0.263391 0.166975 0.296513
O O2 0.340564 0.086913 0.216858
O O3 0.466495 0.156285 0.272944
O O4 0.351070 0.156491 0.000000
O O5 0.338067 0.722754 0.500000
O O6 0.267490 0.752773 0.788638
O O7 0.423442 0.687255 0.774288
O O8 0.223784 0.549939 0.500000
O O9 0.192038 0.494487 0.244593
O O10 0.345292 0.555806 0.241833
O O11 0.877185 0.181113 0.722103
O O12 0.676119 0.163916 0.720355
O O13 0.779930 0.179290 0.000000
O O14 0.493136 0.651373 0.500000
O O15 0.515225 0.600839 0.231009
O O16 0.590020 0.041367 0.500000
O O17 0.583751 0.085624 0.790548
O O18 0.500000 0.000000 0.751881
O O19 0.030563 0.050366 0.500000
O O20 0.000000 0.000000 0.229056
O O21 0.073332 0.342757 0.000000
#
# Coordination Sequence:
#
# PCOD9426200 Si02
#       8
#     8   8   8   8   8   8   8   8
#     4  11  22  38  62  91 121 161 207 252 309 371
#     4  11  24  44  68  94 121 155 205 262 314 369
#     4  10  19  35  56  86 122 160 205 253 303 357
#     4  11  26  45  64  90 126 165 205 255 314 375
#     4  10  22  42  67  96 127 161 207 258 310 371
#     4  10  20  33  56  88 120 158 206 255 300 350
#     4   9  18  34  59  88 121 161 202 249 305 365
#     4  10  24  42  59  85 125 168 207 250 306 370
#
# _framework density 22.023945999999999
#
# number of rings (size 3 to 8) (size 9 to 14) (size 15 to 20)
#    0.000    1.750    2.500    1.125    3.500    3.250 
#    0.000    0.000    0.000    0.750    0.000    0.000 
#    0.000    0.000    0.000    0.000    0.000    0.000 
#
# Total GULP energy -357395.488424 kJ/mol
# GULP energy per Si atom -5584.304507 kJ/mol
# Density = 2.197382 g / cm^3
# Si number density = 22.023946 Si / 1000 Ang^3
#
#
#
# Elastic Constant Matrix: (Units=GPa)
#
#
# Indices 1 2 3 4 5 6 
#
# 1 156.1270 62.8952 2.7869 0.0000 0.0000 0.0000
# 2 62.8952 88.8579 -5.3746 0.0000 0.0000 0.0000
# 3 2.7869 -5.3746 30.3286 0.0000 0.0000 0.0000
# 4 0.0000 0.0000 0.0000 15.2124 0.0000 0.0000
# 5 0.0000 0.0000 0.0000 0.0000 3.3161 0.0000
# 6 0.0000 0.0000 0.0000 0.0000 0.0000 33.0851
#
#
#
# Elastic Compliance Matrix: (Units=1/GPa)
#
#
# Indices 1 2 3 4 5 6 
#
# 1 0.009078 -0.006546 -0.001994 0.000000 0.000000 0.000000
# 2 -0.006546 0.016096 0.003454 0.000000 0.000000 0.000000
# 3 -0.001994 0.003454 0.033768 0.000000 0.000000 0.000000
# 4 0.000000 0.000000 0.000000 0.065736 0.000000 0.000000
# 5 0.000000 0.000000 0.000000 0.000000 0.301563 0.000000
# 6 0.000000 0.000000 0.000000 0.000000 0.000000 0.030225
#
#
# Mechanical properties :
#
#
# Convention : Reuss Voigt Hill
#
# Bulk Modulus (GPa) = 20.50479 43.99203 32.24841
# Shear Modulus (GPa) = 10.35423 24.65643 17.50533
#
# Velocity S-wave (km/s) = 2.17061 3.34957 2.82233
# Velocity P-wave (km/s) = 3.95127 5.91417 5.02941
#
# Compressibility (1/GPa) = 0.04876909
#
# Stress axis : x y z
#
# Youngs Moduli (GPa) = 110.16080 62.12660 29.61423
#
# Poissons Ratio (x) = 0.40668 0.05906
# Poissons Ratio (y) = 0.72110 -0.10229
# Poissons Ratio (z) = 0.21968 -0.21458
#
# Static dielectric constant tensor:
#      x y z
#    x 1.811230 0.000000 0.000000 
#    y 0.000000 1.804400 0.000000 
#    z 0.000000 0.000000 1.826730 
# 
# From -- ./inp_files/4489.got.cif
#   From: 2010.05.17/outbox.cif.g08.bks.cpg/sg55_3_cif.got.tgz:4489.got - 2010.06.03 13:27:54.
