data_PCOD9426511
_publ_section_title
;
Structure prediction by ZEFSAII (Michael W. Deem and Ramdas Pophale) SiO2 
 PCOD9426511
Probable space group: P B A M
;
_chemical_formula_sum "Si O2"
_cell_formula_units_Z 64
_cell_length_a 10.011906
_cell_length_b 25.432243
_cell_length_c 14.345571
_cell_angle_alpha 90.000000
_cell_angle_beta 90.000000
_cell_angle_gamma 90.000000
_cell_volume 3652.744262
_symmetry_space_group_name_H-M "P B A M"
_symmetry_group_IT_number 55
_symmetry_cell_setting 'orthorhombic'
loop_
_space_group_symop_operation_xyz
x,y,z
-x,-y,z
1/2+x,1/2-y,-z
1/2-x,1/2+y,-z
-x,-y,-z
x,y,-z
1/2-x,1/2+y,z
1/2+x,1/2-y,z
loop_
_atom_site_type_symbol
_atom_site_label
_atom_site_fract_x
_atom_site_fract_y
_atom_site_fract_z
Si Si1 0.487983 0.437876 0.284544
Si Si2 0.710512 0.634508 0.389113
Si Si3 0.402213 0.375714 0.895890
Si Si4 0.511216 0.279935 0.611527
Si Si5 0.778634 0.857498 0.702384
Si Si6 0.841137 0.806781 0.894711
Si Si7 0.122961 0.316824 0.105847
Si Si8 0.488007 0.835690 0.698970
O O1 0.500000 0.500000 0.288347
O O2 0.378372 0.414446 0.355473
O O3 0.440123 0.416690 0.183671
O O4 0.629304 0.409034 0.303627
O O5 0.725967 0.634643 0.500000
O O6 0.619485 0.685444 0.363032
O O7 0.854092 0.638119 0.341229
O O8 0.505639 0.327039 0.889550
O O9 0.254989 0.352367 0.885375
O O10 0.416159 0.398176 0.000000
O O11 0.515352 0.274048 0.500000
O O12 0.639580 0.312904 0.645850
O O13 0.507602 0.223696 0.659868
O O14 0.774662 0.836985 0.809202
O O15 0.626581 0.862862 0.670607
O O16 0.836716 0.744278 0.881695
O O17 0.792707 0.818772 0.000000
O O18 0.027039 0.332432 0.189552
O O19 0.070299 0.321980 0.000000
#
# Coordination Sequence:
#
# PCOD9426511 Si02
#       8
#     8   8   8   8   8   8   8   8
#     4  10  21  41  63  80 101 137 186 240 291 330
#     4  10  22  39  58  81 109 144 184 225 274 329
#     4   9  18  34  54  80 109 143 190 225 255 317
#     4  10  21  36  54  78 113 152 183 211 253 319
#     4  10  22  34  54  83 112 143 185 227 266 320
#     4   9  18  30  48  76 112 150 183 213 249 306
#     4  10  20  30  48  77 114 153 177 205 259 323
#     4  12  21  32  54  82 116 148 174 214 265 324
#
# _framework density 17.521073999999999
#
# number of rings (size 3 to 8) (size 9 to 14) (size 15 to 20)
#    0.000    2.000    2.500    1.125    1.750    3.000 
#    0.000    0.625    0.000    0.750    0.000    1.750 
#    0.000    0.000    0.000    0.000    0.000    0.000 
#
# Total GULP energy -357193.905264 kJ/mol
# GULP energy per Si atom -5581.154770 kJ/mol
# Density = 1.748119 g / cm^3
# Si number density = 17.521074 Si / 1000 Ang^3
#
#
#
# Elastic Constant Matrix: (Units=GPa)
#
#
# Indices 1 2 3 4 5 6 
#
# 1 131.3395 47.0766 43.1876 0.0000 0.0000 0.0000
# 2 47.0766 92.9026 26.2815 0.0000 0.0000 0.0000
# 3 43.1876 26.2815 66.9716 0.0000 0.0000 0.0000
# 4 0.0000 0.0000 0.0000 7.6160 0.0000 0.0000
# 5 0.0000 0.0000 0.0000 0.0000 12.3390 0.0000
# 6 0.0000 0.0000 0.0000 0.0000 0.0000 5.2222
#
#
#
# Elastic Compliance Matrix: (Units=1/GPa)
#
#
# Indices 1 2 3 4 5 6 
#
# 1 0.010811 -0.003944 -0.005424 0.000000 0.000000 0.000000
# 2 -0.003944 0.013547 -0.002773 0.000000 0.000000 0.000000
# 3 -0.005424 -0.002773 0.019518 0.000000 0.000000 0.000000
# 4 0.000000 0.000000 0.000000 0.131302 0.000000 0.000000
# 5 0.000000 0.000000 0.000000 0.000000 0.081044 0.000000
# 6 0.000000 0.000000 0.000000 0.000000 0.000000 0.191490
#
#
# Mechanical properties :
#
#
# Convention : Reuss Voigt Hill
#
# Bulk Modulus (GPa) = 51.03601 58.25611 54.64606
# Shear Modulus (GPa) = 10.44879 16.67999 13.56439
#
# Velocity S-wave (km/s) = 2.44469 3.08879 2.78542
# Velocity P-wave (km/s) = 6.09592 6.78544 6.44990
#
# Compressibility (1/GPa) = 0.01959401
#
# Stress axis : x y z
#
# Youngs Moduli (GPa) = 92.49844 73.81781 51.23592
#
# Poissons Ratio (x) = 0.29113 0.27790
# Poissons Ratio (y) = 0.36480 0.14207
# Poissons Ratio (z) = 0.50171 0.20469
#
# Static dielectric constant tensor:
#      x y z
#    x 1.609890 0.000000 0.000000 
#    y 0.000000 1.543170 0.000000 
#    z 0.000000 0.000000 1.631010 
# 
# From -- ./inp_files/17804.got.cif
#   From: 2010.05.17/outbox.cif.g08.bks.cpg/sg55_9_cif.got.tgz:17804.got - 2010.06.03 13:27:54.
