data_PCOD9426238
_publ_section_title
;
Structure prediction by ZEFSAII (Michael W. Deem and Ramdas Pophale) SiO2 
 PCOD9426238
Probable space group: P B A M
;
_chemical_formula_sum "Si O2"
_cell_formula_units_Z 56
_cell_length_a 14.970769
_cell_length_b 21.399707
_cell_length_c 7.619727
_cell_angle_alpha 90.000000
_cell_angle_beta 90.000000
_cell_angle_gamma 90.000000
_cell_volume 2441.132474
_symmetry_space_group_name_H-M "P B A M"
_symmetry_group_IT_number 55
_symmetry_cell_setting 'orthorhombic'
loop_
_space_group_symop_operation_xyz
x,y,z
-x,-y,z
1/2+x,1/2-y,-z
1/2-x,1/2+y,-z
-x,-y,-z
x,y,-z
1/2-x,1/2+y,z
1/2+x,1/2-y,z
loop_
_atom_site_type_symbol
_atom_site_label
_atom_site_fract_x
_atom_site_fract_y
_atom_site_fract_z
Si Si1 0.081645 0.585452 0.798735
Si Si2 0.697640 0.799312 0.295894
Si Si3 0.912989 0.036959 0.215194
Si Si4 0.105835 0.224950 0.703896
Si Si5 0.588103 0.679244 0.201639
Si Si6 0.107137 0.369362 0.786918
Si Si7 0.280309 0.984413 0.213936
O O1 0.134185 0.650881 0.796664
O O2 0.146988 0.533724 0.719709
O O3 0.984130 0.597852 0.722819
O O4 0.065485 0.565824 0.000000
O O5 0.700934 0.817137 0.500000
O O6 0.799006 0.799468 0.225848
O O7 0.651912 0.731236 0.285524
O O8 0.910271 0.109045 0.273828
O O9 0.820812 0.004394 0.269876
O O10 0.915718 0.037993 0.000000
O O11 0.000000 0.000000 0.274923
O O12 0.098723 0.207047 0.500000
O O13 0.111825 0.299820 0.716100
O O14 0.014583 0.202454 0.791790
O O15 0.618083 0.675867 0.000000
O O16 0.188346 0.414633 0.740393
O O17 0.103435 0.364512 0.000000
O O18 0.280719 0.988205 0.000000
#
# Coordination Sequence:
#
# PCOD9426238 Si02
#       7
#     8   8   8   8   8   8   8
#     4  10  20  34  58  88 115 148 193 243 296 347
#     4  11  24  40  58  83 121 161 198 242 294 353
#     4   9  19  34  54  85 120 151 188 237 293 344
#     4  11  24  39  58  84 119 161 196 237 295 351
#     4  11  22  38  63  91 117 152 197 247 294 345
#     4  10  19  35  58  88 117 148 193 243 294 349
#     4   9  18  33  55  83 119 154 186 239 297 348
#
# _framework density 22.940172
#
# number of rings (size 3 to 8) (size 9 to 14) (size 15 to 20)
#    0.000    1.857    1.429    2.571    2.000    5.143 
#    0.000    0.714    0.000    5.143    0.000    0.000 
#    0.000    0.000    0.000    0.000    0.000    0.000 
#
# Total GULP energy -313091.266132 kJ/mol
# GULP energy per Si atom -5590.915467 kJ/mol
# Density = 2.288796 g / cm^3
# Si number density = 22.940172 Si / 1000 Ang^3
#
#
#
# Elastic Constant Matrix: (Units=GPa)
#
#
# Indices 1 2 3 4 5 6 
#
# 1 110.1757 -5.8113 -7.8141 0.0000 0.0000 0.0000
# 2 -5.8113 52.9929 -9.0932 0.0000 0.0000 0.0000
# 3 -7.8141 -9.0932 51.7066 0.0000 0.0000 0.0000
# 4 0.0000 0.0000 0.0000 39.8902 0.0000 0.0000
# 5 0.0000 0.0000 0.0000 0.0000 13.7959 0.0000
# 6 0.0000 0.0000 0.0000 0.0000 0.0000 29.2554
#
#
#
# Elastic Compliance Matrix: (Units=1/GPa)
#
#
# Indices 1 2 3 4 5 6 
#
# 1 0.009260 0.001295 0.001627 0.000000 0.000000 0.000000
# 2 0.001295 0.019639 0.003649 0.000000 0.000000 0.000000
# 3 0.001627 0.003649 0.020228 0.000000 0.000000 0.000000
# 4 0.000000 0.000000 0.000000 0.025069 0.000000 0.000000
# 5 0.000000 0.000000 0.000000 0.000000 0.072485 0.000000
# 6 0.000000 0.000000 0.000000 0.000000 0.000000 0.034182
#
#
# Mechanical properties :
#
#
# Convention : Reuss Voigt Hill
#
# Bulk Modulus (GPa) = 16.05946 18.82644 17.44295
# Shear Modulus (GPa) = 26.52856 32.42789 29.47822
#
# Velocity S-wave (km/s) = 3.40431 3.76385 3.58858
# Velocity P-wave (km/s) = 4.74007 5.20704 4.97903
#
# Compressibility (1/GPa) = 0.06226858
#
# Stress axis : x y z
#
# Youngs Moduli (GPa) = 107.99022 50.92003 49.43747
#
# Poissons Ratio (x) = -0.06593 -0.08044
# Poissons Ratio (y) = -0.13981 -0.18041
# Poissons Ratio (z) = -0.17571 -0.18582
#
# Static dielectric constant tensor:
#      x y z
#    x 1.836540 0.000000 0.000000 
#    y 0.000000 1.817310 0.000000 
#    z 0.000000 0.000000 1.903100 
# 
# From -- ./inp_files/6176.got.cif
#   From: 2010.05.17/outbox.cif.g08.bks.cpg/sg55_4_cif.got.tgz:6176.got - 2010.06.03 13:27:54.
