data_PCOD9426869
_publ_section_title
;
Structure prediction by ZEFSAII (Michael W. Deem and Ramdas Pophale) SiO2 
 PCOD9426869
Probable space group: P B A M
;
_chemical_formula_sum "Si O2"
_cell_formula_units_Z 64
_cell_length_a 8.792002
_cell_length_b 13.007906
_cell_length_c 26.128689
_cell_angle_alpha 90.000000
_cell_angle_beta 90.000000
_cell_angle_gamma 90.000000
_cell_volume 2988.221511
_symmetry_space_group_name_H-M "P B A M"
_symmetry_group_IT_number 55
_symmetry_cell_setting 'orthorhombic'
loop_
_space_group_symop_operation_xyz
x,y,z
-x,-y,z
1/2+x,1/2-y,-z
1/2-x,1/2+y,-z
-x,-y,-z
x,y,-z
1/2-x,1/2+y,z
1/2+x,1/2-y,z
loop_
_atom_site_type_symbol
_atom_site_label
_atom_site_fract_x
_atom_site_fract_y
_atom_site_fract_z
Si Si1 0.129607 0.290500 0.610546
Si Si2 0.351260 0.146296 0.675899
Si Si3 0.650939 0.431450 0.136612
Si Si4 0.158901 0.056954 0.751116
Si Si5 0.312234 0.807206 0.848230
Si Si6 0.329325 0.957837 0.057717
Si Si7 0.926906 0.110958 0.438803
Si Si8 0.467576 0.248428 0.778380
O O1 0.224632 0.215575 0.648067
O O2 0.259902 0.361172 0.584285
O O3 0.998847 0.356755 0.639430
O O4 0.037264 0.207340 0.575655
O O5 0.269056 0.048111 0.702438
O O6 0.401001 0.204928 0.726921
O O7 0.500000 0.500000 0.135075
O O8 0.723165 0.465950 0.191723
O O9 0.638794 0.309427 0.138818
O O10 0.734767 0.452307 0.083938
O O11 0.095574 0.172265 0.759519
O O12 0.000000 0.000000 0.742026
O O13 0.304780 0.868849 0.900463
O O14 0.450727 0.839650 0.811576
O O15 0.159830 0.800919 0.814257
O O16 0.500000 0.000000 0.056918
O O17 0.284042 0.930610 0.000000
O O18 0.912474 0.105789 0.500000
O O19 0.000000 0.000000 0.421799
#
# Coordination Sequence:
#
# PCOD9426869 Si02
#       8
#     8   8   8   8   8   8   8   8
#     4  10  22  39  67 101 150 179 226 292 350 401
#     4  11  19  37  60  94 136 178 207 268 343 400
#     4  10  21  40  61  87 115 152 204 258 306 389
#     4  10  20  34  60  88 127 169 220 260 315 404
#     4  11  21  37  63  82 116 158 204 255 318 391
#     4  11  25  41  58  85 119 149 200 273 331 382
#     4  10  22  44  75 102 138 195 247 295 347 403
#     4  11  19  36  60  86 119 166 207 251 312 403
#
# _framework density 21.417421999999998
#
# number of rings (size 3 to 8) (size 9 to 14) (size 15 to 20)
#    0.000    1.500    3.750    3.375    0.000    1.250 
#    0.000    5.625    5.500    6.750    0.000    0.000 
#    0.000    0.000    0.000    0.000    0.000    0.000 
#
# Total GULP energy -356688.831522 kJ/mol
# GULP energy per Si atom -5573.262993 kJ/mol
# Density = 2.136867 g / cm^3
# Si number density = 21.417422 Si / 1000 Ang^3
#
#
#
# Elastic Constant Matrix: (Units=GPa)
#
#
# Indices 1 2 3 4 5 6 
#
# 1 109.4973 15.3595 58.4324 0.0000 0.0000 0.0000
# 2 15.3595 40.4188 15.4856 0.0000 0.0000 0.0000
# 3 58.4324 15.4856 129.9619 0.0000 0.0000 0.0000
# 4 0.0000 0.0000 0.0000 28.4864 0.0000 0.0000
# 5 0.0000 0.0000 0.0000 0.0000 91.8894 0.0000
# 6 0.0000 0.0000 0.0000 0.0000 0.0000 36.4434
#
#
#
# Elastic Compliance Matrix: (Units=1/GPa)
#
#
# Indices 1 2 3 4 5 6 
#
# 1 0.012285 -0.002674 -0.005205 0.000000 0.000000 0.000000
# 2 -0.002674 0.026507 -0.001956 0.000000 0.000000 0.000000
# 3 -0.005205 -0.001956 0.010268 0.000000 0.000000 0.000000
# 4 0.000000 0.000000 0.000000 0.035104 0.000000 0.000000
# 5 0.000000 0.000000 0.000000 0.000000 0.010883 0.000000
# 6 0.000000 0.000000 0.000000 0.000000 0.000000 0.027440
#
#
# Mechanical properties :
#
#
# Convention : Reuss Voigt Hill
#
# Bulk Modulus (GPa) = 34.02612 50.93702 42.48157
# Shear Modulus (GPa) = 32.90472 44.07053 38.48763
#
# Velocity S-wave (km/s) = 3.92389 4.54110 4.24373
# Velocity P-wave (km/s) = 6.03745 7.16450 6.62499
#
# Compressibility (1/GPa) = 0.02938919
#
# Stress axis : x y z
#
# Youngs Moduli (GPa) = 81.39745 37.72644 97.39133
#
# Poissons Ratio (x) = 0.10089 0.50692
# Poissons Ratio (y) = 0.21769 0.19049
# Poissons Ratio (z) = 0.42367 0.07379
#
# Static dielectric constant tensor:
#      x y z
#    x 1.903460 0.000000 0.000000 
#    y 0.000000 1.883970 0.000000 
#    z 0.000000 0.000000 1.778980 
# 
# From -- ./inp_files/23491.got.cif
#   From: 2010.05.17/outbox.cif.g08.bks.cpg/sg55_12_cif.got.tgz:23491.got - 2010.06.03 13:27:54.
