data_PCOD9426757
_publ_section_title
;
Structure prediction by ZEFSAII (Michael W. Deem and Ramdas Pophale) SiO2 
 PCOD9426757
Probable space group: P B A M
;
_chemical_formula_sum "Si O2"
_cell_formula_units_Z 64
_cell_length_a 15.497956
_cell_length_b 25.488654
_cell_length_c 8.973823
_cell_angle_alpha 90.000000
_cell_angle_beta 90.000000
_cell_angle_gamma 90.000000
_cell_volume 3544.857852
_symmetry_space_group_name_H-M "P B A M"
_symmetry_group_IT_number 55
_symmetry_cell_setting 'orthorhombic'
loop_
_space_group_symop_operation_xyz
x,y,z
-x,-y,z
1/2+x,1/2-y,-z
1/2-x,1/2+y,-z
-x,-y,-z
x,y,-z
1/2-x,1/2+y,z
1/2+x,1/2-y,z
loop_
_atom_site_type_symbol
_atom_site_label
_atom_site_fract_x
_atom_site_fract_y
_atom_site_fract_z
Si Si1 0.129699 0.465871 0.821435
Si Si2 0.107735 0.688655 0.320838
Si Si3 0.045965 0.890960 0.175109
Si Si4 0.441560 0.078819 0.178194
Si Si5 0.013612 0.216763 0.320024
Si Si6 0.700060 0.320274 0.679187
Si Si7 0.148118 0.070632 0.825110
Si Si8 0.306494 0.460411 0.322834
O O1 0.112530 0.526861 0.780168
O O2 0.212042 0.444775 0.735567
O O3 0.041341 0.435049 0.789055
O O4 0.143658 0.464035 0.000000
O O5 0.103095 0.686170 0.500000
O O6 0.087971 0.631454 0.256797
O O7 0.037839 0.731596 0.270631
O O8 0.206645 0.703044 0.281032
O O9 0.029615 0.834512 0.248675
O O10 0.121130 0.922451 0.255839
O O11 0.955132 0.921883 0.188567
O O12 0.064930 0.885637 0.000000
O O13 0.433614 0.084738 0.000000
O O14 0.007417 0.213260 0.500000
O O15 0.115453 0.213784 0.280908
O O16 0.698001 0.327855 0.500000
O O17 0.689355 0.376787 0.756882
O O18 0.176257 0.018695 0.740031
O O19 0.170135 0.066202 0.000000
O O20 0.310200 0.460265 0.500000
#
# Coordination Sequence:
#
# PCOD9426757 Si02
#       8
#     8   8   8   8   8   8   8   8
#     4   9  19  37  56  77 110 146 179 219 269 320
#     4  10  20  34  55  82 109 142 183 227 275 326
#     4  10  21  37  55  75 105 142 181 226 273 320
#     4   9  19  36  58  80 106 142 180 224 272 319
#     4   9  19  37  55  75 108 145 181 228 276 320
#     4   9  18  34  55  78 106 142 181 224 274 324
#     4  10  20  34  54  79 107 140 180 226 270 318
#     4  12  23  33  51  81 111 144 180 216 266 330
#
# _framework density 18.054319
#
# number of rings (size 3 to 8) (size 9 to 14) (size 15 to 20)
#    0.000    2.250    0.000    3.750    0.000    7.000 
#    2.250    1.250    0.000    0.000    0.000    0.000 
#    0.000    0.000    0.000    0.000    0.000    0.000 
#
# Total GULP energy -357287.142738 kJ/mol
# GULP energy per Si atom -5582.611605 kJ/mol
# Density = 1.801323 g / cm^3
# Si number density = 18.054319 Si / 1000 Ang^3
#
#
#
# Elastic Constant Matrix: (Units=GPa)
#
#
# Indices 1 2 3 4 5 6 
#
# 1 112.7557 65.7175 43.5027 0.0000 0.0000 0.0000
# 2 65.7175 58.6512 21.8995 0.0000 0.0000 0.0000
# 3 43.5027 21.8995 41.5064 0.0000 0.0000 0.0000
# 4 0.0000 0.0000 0.0000 -9.1881 0.0000 0.0000
# 5 0.0000 0.0000 0.0000 0.0000 22.5500 0.0000
# 6 0.0000 0.0000 0.0000 0.0000 0.0000 17.2600
#
#
#
# Elastic Compliance Matrix: (Units=1/GPa)
#
#
# Indices 1 2 3 4 5 6 
#
# 1 0.035299 -0.032052 -0.020085 0.000000 0.000000 0.000000
# 2 -0.032052 0.050337 0.007035 0.000000 0.000000 0.000000
# 3 -0.020085 0.007035 0.041432 0.000000 0.000000 0.000000
# 4 0.000000 0.000000 0.000000 -0.108836 0.000000 0.000000
# 5 0.000000 0.000000 0.000000 0.000000 0.044346 0.000000
# 6 0.000000 0.000000 0.000000 0.000000 0.000000 0.057938
#
#
# Mechanical properties :
#
#
# Convention : Reuss Voigt Hill
#
# Bulk Modulus (GPa) = 27.12729 52.79475 39.96102
# Shear Modulus (GPa) = 22.42068 11.57727 16.99898
#
# Velocity S-wave (km/s) = 3.52781 2.53503 3.07179
# Velocity P-wave (km/s) = 5.62600 6.15420 5.89602
#
# Compressibility (1/GPa) = 0.03686325
#
# Stress axis : x y z
#
# Youngs Moduli (GPa) = 28.32942 19.86612 24.13569
#
# Poissons Ratio (x) = 0.63675 0.48478
# Poissons Ratio (y) = 0.90802 -0.16980
# Poissons Ratio (z) = 0.56901 -0.13976
#
# Static dielectric constant tensor:
#      x y z
#    x 1.640180 0.000000 0.000000 
#    y 0.000000 1.578550 0.000000 
#    z 0.000000 0.000000 1.597520 
# 
# From -- ./inp_files/6527.got.cif
#   From: 2010.05.17/outbox.cif.g08.bks.cpg/sg55_4_cif.got.tgz:6527.got - 2010.06.03 13:27:54.
