data_PCOD9426082
_publ_section_title
;
Structure prediction by ZEFSAII (Michael W. Deem and Ramdas Pophale) SiO2 
 PCOD9426082
Probable space group: P B A M
;
_chemical_formula_sum "Si O2"
_cell_formula_units_Z 48
_cell_length_a 14.248113
_cell_length_b 7.886995
_cell_length_c 19.936526
_cell_angle_alpha 90.000000
_cell_angle_beta 90.000000
_cell_angle_gamma 90.000000
_cell_volume 2240.363042
_symmetry_space_group_name_H-M "P B A M"
_symmetry_group_IT_number 55
_symmetry_cell_setting 'orthorhombic'
loop_
_space_group_symop_operation_xyz
x,y,z
-x,-y,z
1/2+x,1/2-y,-z
1/2-x,1/2+y,-z
-x,-y,-z
x,y,-z
1/2-x,1/2+y,z
1/2+x,1/2-y,z
loop_
_atom_site_type_symbol
_atom_site_label
_atom_site_fract_x
_atom_site_fract_y
_atom_site_fract_z
Si Si1 0.106298 0.156728 0.675173
Si Si2 0.107162 0.213426 0.821237
Si Si3 0.309890 0.093363 0.180461
Si Si4 0.041949 0.692818 0.076387
Si Si5 0.690843 0.718886 0.321725
Si Si6 0.041212 0.689080 0.423389
O O1 0.061390 0.184933 0.748495
O O2 0.197126 0.277911 0.669476
O O3 0.032494 0.195760 0.617586
O O4 0.150525 0.970226 0.676410
O O5 0.149685 0.403826 0.818324
O O6 0.197885 0.094771 0.828724
O O7 0.033853 0.202572 0.881009
O O8 0.362976 0.184778 0.119384
O O9 0.328654 0.187929 0.250963
O O10 0.000000 0.500000 0.074751
O O11 0.054619 0.749016 0.000000
O O12 0.637860 0.810645 0.382378
O O13 0.053162 0.745945 0.500000
O O14 0.000000 0.500000 0.423284
#
# Coordination Sequence:
#
# PCOD9426082 Si02
#       6
#     8   8   8   8   8   8
#     4  11  22  38  61  86 114 147 188 234 279 331
#     4  10  19  34  57  81 108 142 184 231 277 328
#     4  10  19  34  57  81 108 142 184 231 277 328
#     4   9  19  34  52  76 108 147 184 221 274 336
#     4  11  22  38  61  86 114 147 188 234 279 331
#     4  11  24  41  60  84 116 151 186 227 278 334
#
# _framework density 21.4251
#
# number of rings (size 3 to 8) (size 9 to 14) (size 15 to 20)
#    0.000    1.667    0.000    7.500    0.000    4.000 
#    0.000    2.500    0.000    7.000    0.000    0.000 
#    0.000    0.000    0.000    0.000    0.000    0.000 
#
# Total GULP energy -268549.058646 kJ/mol
# GULP energy per Si atom -5594.772055 kJ/mol
# Density = 2.137634 g / cm^3
# Si number density = 21.425100 Si / 1000 Ang^3
#
#
#
# Elastic Constant Matrix: (Units=GPa)
#
#
# Indices 1 2 3 4 5 6 
#
# 1 64.5220 -5.3450 56.7211 0.0000 0.0000 0.0000
# 2 -5.3450 65.7682 8.1651 0.0000 0.0000 0.0000
# 3 56.7211 8.1651 189.2662 0.0000 0.0000 0.0000
# 4 0.0000 0.0000 0.0000 15.6598 0.0000 0.0000
# 5 0.0000 0.0000 0.0000 0.0000 -3.8801 0.0000
# 6 0.0000 0.0000 0.0000 0.0000 0.0000 27.3688
#
#
#
# Elastic Compliance Matrix: (Units=1/GPa)
#
#
# Indices 1 2 3 4 5 6 
#
# 1 0.021461 0.002556 -0.006542 0.000000 0.000000 0.000000
# 2 0.002556 0.015591 -0.001439 0.000000 0.000000 0.000000
# 3 -0.006542 -0.001439 0.007306 0.000000 0.000000 0.000000
# 4 0.000000 0.000000 0.000000 0.063858 0.000000 0.000000
# 5 0.000000 0.000000 0.000000 0.000000 -0.257722 0.000000
# 6 0.000000 0.000000 0.000000 0.000000 0.000000 0.036538
#
#
# Mechanical properties :
#
#
# Convention : Reuss Voigt Hill
#
# Bulk Modulus (GPa) = 29.84173 48.73765 39.28969
# Shear Modulus (GPa) = -54.97610 25.16403 -14.90603
#
# Velocity S-wave (km/s) = -5.07103 3.43083 -2.64053
# Velocity P-wave (km/s) = 4.50872 6.20415 3.01355
#
# Compressibility (1/GPa) = 0.03351012
#
# Stress axis : x y z
#
# Youngs Moduli (GPa) = 46.59512 64.13837 136.86967
#
# Poissons Ratio (x) = -0.16396 0.89541
# Poissons Ratio (y) = -0.11911 0.19692
# Poissons Ratio (z) = 0.30483 0.09228
#
# Static dielectric constant tensor:
#      x y z
#    x 1.765320 0.000000 0.000000 
#    y 0.000000 1.829440 0.000000 
#    z 0.000000 0.000000 1.745970 
# 
# From -- ./inp_files/21501.got.cif
#   From: 2010.05.17/outbox.cif.g08.bks.cpg/sg55_11_cif.got.tgz:21501.got - 2010.06.03 13:27:54.
