data_PCOD9426435
_publ_section_title
;
Structure prediction by ZEFSAII (Michael W. Deem and Ramdas Pophale) SiO2 
 PCOD9426435
Probable space group: P B A M
;
_chemical_formula_sum "Si O2"
_cell_formula_units_Z 56
_cell_length_a 19.131745
_cell_length_b 14.034895
_cell_length_c 9.349376
_cell_angle_alpha 90.000000
_cell_angle_beta 90.000000
_cell_angle_gamma 90.000000
_cell_volume 2510.419950
_symmetry_space_group_name_H-M "P B A M"
_symmetry_group_IT_number 55
_symmetry_cell_setting 'orthorhombic'
loop_
_space_group_symop_operation_xyz
x,y,z
-x,-y,z
1/2+x,1/2-y,-z
1/2-x,1/2+y,-z
-x,-y,-z
x,y,-z
1/2-x,1/2+y,z
1/2+x,1/2-y,z
loop_
_atom_site_type_symbol
_atom_site_label
_atom_site_fract_x
_atom_site_fract_y
_atom_site_fract_z
Si Si1 0.796381 0.948813 0.165972
Si Si2 0.508450 0.723212 0.169333
Si Si3 0.147838 0.774405 0.662910
Si Si4 0.930379 0.936285 0.334867
Si Si5 0.077008 0.404017 0.164697
Si Si6 0.157045 0.544469 0.337059
Si Si7 0.282279 0.780491 0.161945
O O1 0.864115 0.980671 0.254164
O O2 0.723957 0.978870 0.238550
O O3 0.795764 0.832940 0.172978
O O4 0.799651 0.976601 0.000000
O O5 0.583542 0.700691 0.235287
O O6 0.452706 0.658917 0.252215
O O7 0.487379 0.833443 0.191303
O O8 0.505226 0.704005 0.000000
O O9 0.136511 0.807745 0.500000
O O10 0.149590 0.658616 0.662428
O O11 0.221907 0.806233 0.726555
O O12 0.912174 0.917532 0.500000
O O13 0.000000 0.000000 0.330542
O O14 0.090887 0.490692 0.270182
O O15 0.145685 0.336685 0.179338
O O16 0.074076 0.437456 0.000000
O O17 0.168753 0.513394 0.500000
O O18 0.256389 0.797826 0.000000
#
# Coordination Sequence:
#
# PCOD9426435 Si02
#       7
#     8   8   8   8   8   8   8
#     4  10  19  37  62  85 113 150 195 245 294 348
#     4  11  23  41  63  88 118 158 204 248 300 360
#     4  10  22  39  58  86 122 158 199 246 298 356
#     4  11  24  40  60  88 122 158 196 243 301 364
#     4  10  21  38  60  88 118 152 202 249 297 358
#     4  10  22  38  58  88 121 157 200 245 299 355
#     4   9  18  36  60  84 111 148 196 246 294 351
#
# _framework density 22.307024999999999
#
# number of rings (size 3 to 8) (size 9 to 14) (size 15 to 20)
#    0.000    1.857    1.429    2.143    0.000    6.857 
#    0.000    2.857    0.000    0.000    0.000    0.000 
#    0.000    0.000    0.000    0.000    0.000    0.000 
#
# Total GULP energy -313380.768516 kJ/mol
# GULP energy per Si atom -5596.085152 kJ/mol
# Density = 2.225625 g / cm^3
# Si number density = 22.307025 Si / 1000 Ang^3
#
#
#
# Elastic Constant Matrix: (Units=GPa)
#
#
# Indices 1 2 3 4 5 6 
#
# 1 88.8131 5.5876 57.3506 0.0000 0.0000 0.0000
# 2 5.5876 56.2622 28.9625 0.0000 0.0000 0.0000
# 3 57.3506 28.9625 149.0397 0.0000 0.0000 0.0000
# 4 0.0000 0.0000 0.0000 22.3811 0.0000 0.0000
# 5 0.0000 0.0000 0.0000 0.0000 23.4984 0.0000
# 6 0.0000 0.0000 0.0000 0.0000 0.0000 34.2526
#
#
#
# Elastic Compliance Matrix: (Units=1/GPa)
#
#
# Indices 1 2 3 4 5 6 
#
# 1 0.015121 0.001660 -0.006141 0.000000 0.000000 0.000000
# 2 0.001660 0.019932 -0.004512 0.000000 0.000000 0.000000
# 3 -0.006141 -0.004512 0.009949 0.000000 0.000000 0.000000
# 4 0.000000 0.000000 0.000000 0.044681 0.000000 0.000000
# 5 0.000000 0.000000 0.000000 0.000000 0.042556 0.000000
# 6 0.000000 0.000000 0.000000 0.000000 0.000000 0.029195
#
#
# Mechanical properties :
#
#
# Convention : Reuss Voigt Hill
#
# Bulk Modulus (GPa) = 37.01614 53.10184 45.05899
# Shear Modulus (GPa) = 26.53576 29.50737 28.02156
#
# Velocity S-wave (km/s) = 3.45276 3.64095 3.54810
# Velocity P-wave (km/s) = 5.70310 6.44454 6.08512
#
# Compressibility (1/GPa) = 0.02701524
#
# Stress axis : x y z
#
# Youngs Moduli (GPa) = 66.13469 50.17132 100.50825
#
# Poissons Ratio (x) = -0.08326 0.61721
# Poissons Ratio (y) = -0.10975 0.45348
# Poissons Ratio (z) = 0.40613 0.22637
#
# Static dielectric constant tensor:
#      x y z
#    x 1.792010 0.000000 0.000000 
#    y 0.000000 1.873940 0.000000 
#    z 0.000000 0.000000 1.764680 
# 
# From -- ./inp_files/6084.got.cif
#   From: 2010.05.17/outbox.cif.g08.bks.cpg/sg55_4_cif.got.tgz:6084.got - 2010.06.03 13:27:54.
