data_PCOD9426615
_publ_section_title
;
Structure prediction by ZEFSAII (Michael W. Deem and Ramdas Pophale) SiO2 
 PCOD9426615
Probable space group: P B A M
;
_chemical_formula_sum "Si O2"
_cell_formula_units_Z 56
_cell_length_a 15.922602
_cell_length_b 9.027225
_cell_length_c 20.492081
_cell_angle_alpha 90.000000
_cell_angle_beta 90.000000
_cell_angle_gamma 90.000000
_cell_volume 2945.468420
_symmetry_space_group_name_H-M "P B A M"
_symmetry_group_IT_number 55
_symmetry_cell_setting 'orthorhombic'
loop_
_space_group_symop_operation_xyz
x,y,z
-x,-y,z
1/2+x,1/2-y,-z
1/2-x,1/2+y,-z
-x,-y,-z
x,y,-z
1/2-x,1/2+y,z
1/2+x,1/2-y,z
loop_
_atom_site_type_symbol
_atom_site_label
_atom_site_fract_x
_atom_site_fract_y
_atom_site_fract_z
Si Si1 0.155095 0.157293 0.156327
Si Si2 0.858067 0.841052 0.302553
Si Si3 0.379022 0.128227 0.571501
Si Si4 0.661523 0.695351 0.161639
Si Si5 0.924290 0.702279 0.571703
Si Si6 0.314666 0.317702 0.692259
Si Si7 0.997562 0.180788 0.075666
O O1 0.111075 0.169394 0.228085
O O2 0.246945 0.231557 0.150634
O O3 0.087764 0.222157 0.105888
O O4 0.170269 0.981112 0.149892
O O5 0.913605 0.801504 0.364665
O O6 0.781976 0.725514 0.301568
O O7 0.825985 0.007338 0.314336
O O8 0.342518 0.166745 0.500000
O O9 0.478196 0.160250 0.568602
O O10 0.345321 0.224021 0.630766
O O11 0.372653 0.950977 0.580249
O O12 0.642538 0.723296 0.238453
O O13 0.582411 0.739132 0.116697
O O14 0.901428 0.766318 0.500000
O O15 0.989887 0.221376 0.000000
O O16 0.000000 0.000000 0.080032
#
# Coordination Sequence:
#
# PCOD9426615 Si02
#       7
#     8   8   8   8   8   8   8
#     4   9  19  35  55  80 111 143 180 224 268 317
#     4  10  20  33  52  75 102 134 174 219 263 312
#     4   9  19  35  52  72 101 135 171 214 264 315
#     4   9  19  35  55  80 111 143 180 224 268 317
#     4   9  19  35  52  72 101 135 171 214 264 315
#     4  10  20  33  52  75 102 134 174 219 263 312
#     4   9  18  34  57  83 110 145 182 214 263 327
#
# _framework density 19.012256000000001
#
# number of rings (size 3 to 8) (size 9 to 14) (size 15 to 20)
#    0.000    2.714    0.000    1.714    2.000    3.429 
#    0.000    2.143    0.000    0.857    0.000    0.000 
#    0.000    0.000    0.000    0.000    0.000    0.000 
#
# Total GULP energy -311841.528891 kJ/mol
# GULP energy per Si atom -5568.598730 kJ/mol
# Density = 1.896898 g / cm^3
# Si number density = 19.012256 Si / 1000 Ang^3
#
#
#
# Elastic Constant Matrix: (Units=GPa)
#
#
# Indices 1 2 3 4 5 6 
#
# 1 42.6039 5.0115 21.6512 0.0000 0.0000 0.0000
# 2 5.0115 17.0606 13.6256 0.0000 0.0000 0.0000
# 3 21.6512 13.6256 64.3023 0.0000 0.0000 0.0000
# 4 0.0000 0.0000 0.0000 14.7644 0.0000 0.0000
# 5 0.0000 0.0000 0.0000 0.0000 39.9616 0.0000
# 6 0.0000 0.0000 0.0000 0.0000 0.0000 106.4681
#
#
#
# Elastic Compliance Matrix: (Units=1/GPa)
#
#
# Indices 1 2 3 4 5 6 
#
# 1 0.028328 -0.000847 -0.009359 0.000000 0.000000 0.000000
# 2 -0.000847 0.070580 -0.014671 0.000000 0.000000 0.000000
# 3 -0.009359 -0.014671 0.021811 0.000000 0.000000 0.000000
# 4 0.000000 0.000000 0.000000 0.067730 0.000000 0.000000
# 5 0.000000 0.000000 0.000000 0.000000 0.025024 0.000000
# 6 0.000000 0.000000 0.000000 0.000000 0.000000 0.009392
#
#
# Mechanical properties :
#
#
# Convention : Reuss Voigt Hill
#
# Bulk Modulus (GPa) = 14.09109 22.72703 18.40906
# Shear Modulus (GPa) = 16.87625 37.81740 27.34682
#
# Velocity S-wave (km/s) = 2.98258 4.46478 3.79671
# Velocity P-wave (km/s) = 4.39189 6.20958 5.37808
#
# Compressibility (1/GPa) = 0.07096681
#
# Stress axis : x y z
#
# Youngs Moduli (GPa) = 35.30106 14.16829 45.84754
#
# Poissons Ratio (x) = 0.01200 0.42908
# Poissons Ratio (y) = 0.02989 0.67262
# Poissons Ratio (z) = 0.33037 0.20786
#
# Static dielectric constant tensor:
#      x y z
#    x 1.659500 0.000000 0.000000 
#    y 0.000000 1.656580 0.000000 
#    z 0.000000 0.000000 1.716450 
# 
# From -- ./inp_files/22969.got.cif
#   From: 2010.05.17/outbox.cif.g08.bks.cpg/sg55_12_cif.got.tgz:22969.got - 2010.06.03 13:27:54.
