data_PCOD9426586
_publ_section_title
;
Structure prediction by ZEFSAII (Michael W. Deem and Ramdas Pophale) SiO2 
 PCOD9426586
Probable space group: P B A M
;
_chemical_formula_sum "Si O2"
_cell_formula_units_Z 56
_cell_length_a 14.736506
_cell_length_b 21.702100
_cell_length_c 8.204376
_cell_angle_alpha 90.000000
_cell_angle_beta 90.000000
_cell_angle_gamma 90.000000
_cell_volume 2623.867143
_symmetry_space_group_name_H-M "P B A M"
_symmetry_group_IT_number 55
_symmetry_cell_setting 'orthorhombic'
loop_
_space_group_symop_operation_xyz
x,y,z
-x,-y,z
1/2+x,1/2-y,-z
1/2-x,1/2+y,-z
-x,-y,-z
x,y,-z
1/2-x,1/2+y,z
1/2+x,1/2-y,z
loop_
_atom_site_type_symbol
_atom_site_label
_atom_site_fract_x
_atom_site_fract_y
_atom_site_fract_z
Si Si1 0.584318 0.453692 0.308110
Si Si2 0.834455 0.350020 0.195966
Si Si3 0.986340 0.259693 0.189451
Si Si4 0.779524 0.481968 0.809646
Si Si5 0.188960 0.252904 0.310504
Si Si6 0.251013 0.884711 0.809852
Si Si7 0.938162 0.134637 0.686935
O O1 0.500000 0.500000 0.286539
O O2 0.609668 0.454176 0.500000
O O3 0.672174 0.469030 0.206551
O O4 0.537892 0.388882 0.265099
O O5 0.934388 0.322793 0.229733
O O6 0.822817 0.419541 0.261633
O O7 0.758739 0.300583 0.254562
O O8 0.823526 0.353245 0.000000
O O9 0.939594 0.207382 0.296889
O O10 0.093155 0.256061 0.217588
O O11 0.966413 0.245836 0.000000
O O12 0.794248 0.551490 0.744227
O O13 0.804817 0.485719 0.000000
O O14 0.169727 0.242222 0.500000
O O15 0.228530 0.321683 0.283980
O O16 0.142395 0.892148 0.794001
O O17 0.275279 0.876427 0.000000
O O18 0.923060 0.114910 0.500000
#
# Coordination Sequence:
#
# PCOD9426586 Si02
#       7
#     8   8   8   8   8   8   8
#     4  10  20  33  50  79 119 158 192 236 297 365
#     4  10  22  42  65  92 124 160 204 255 311 369
#     4  11  23  40  64  89 120 159 205 256 309 368
#     4  10  22  38  59  87 120 158 204 254 304 365
#     4  12  25  41  64  92 124 162 207 257 310 368
#     4  11  22  38  60  87 120 160 203 248 303 362
#     4  11  21  35  57  86 121 157 199 248 303 364
#
# _framework density 21.342544
#
# number of rings (size 3 to 8) (size 9 to 14) (size 15 to 20)
#    0.000    1.286    2.857    3.429    0.000    5.429 
#    0.000    0.714    0.000    4.286    0.000    0.000 
#    0.000    0.000    0.000    0.000    0.000    0.000 
#
# Total GULP energy -312599.000059 kJ/mol
# GULP energy per Si atom -5582.125001 kJ/mol
# Density = 2.129397 g / cm^3
# Si number density = 21.342544 Si / 1000 Ang^3
#
#
#
# Elastic Constant Matrix: (Units=GPa)
#
#
# Indices 1 2 3 4 5 6 
#
# 1 35.0620 -5.0757 -4.8982 0.0000 0.0000 0.0000
# 2 -5.0757 100.0478 -1.4137 0.0000 0.0000 0.0000
# 3 -4.8982 -1.4137 28.6140 0.0000 0.0000 0.0000
# 4 0.0000 0.0000 0.0000 9.1701 0.0000 0.0000
# 5 0.0000 0.0000 0.0000 0.0000 244.8065 0.0000
# 6 0.0000 0.0000 0.0000 0.0000 0.0000 28.8777
#
#
#
# Elastic Compliance Matrix: (Units=1/GPa)
#
#
# Indices 1 2 3 4 5 6 
#
# 1 0.029463 0.001567 0.005121 0.000000 0.000000 0.000000
# 2 0.001567 0.010086 0.000767 0.000000 0.000000 0.000000
# 3 0.005121 0.000767 0.035862 0.000000 0.000000 0.000000
# 4 0.000000 0.000000 0.000000 0.109050 0.000000 0.000000
# 5 0.000000 0.000000 0.000000 0.000000 0.004085 0.000000
# 6 0.000000 0.000000 0.000000 0.000000 0.000000 0.034629
#
#
# Mechanical properties :
#
#
# Convention : Reuss Voigt Hill
#
# Bulk Modulus (GPa) = 11.07169 15.66096 13.36632
# Shear Modulus (GPa) = 20.97560 68.24496 44.61028
#
# Velocity S-wave (km/s) = 3.13838 5.66087 4.57684
# Velocity P-wave (km/s) = 4.28152 7.07680 5.84861
#
# Compressibility (1/GPa) = 0.09032046
#
# Stress axis : x y z
#
# Youngs Moduli (GPa) = 33.94070 99.15171 27.88430
#
# Poissons Ratio (x) = -0.15538 -0.14279
# Poissons Ratio (y) = -0.05319 -0.02137
# Poissons Ratio (z) = -0.17381 -0.07600
#
# Static dielectric constant tensor:
#      x y z
#    x 1.763980 0.000000 0.000000 
#    y 0.000000 1.861000 0.000000 
#    z 0.000000 0.000000 1.724880 
# 
# From -- ./inp_files/6081.got.cif
#   From: 2010.05.17/outbox.cif.g08.bks.cpg/sg55_4_cif.got.tgz:6081.got - 2010.06.03 13:27:54.
