data_PCOD9426087
_publ_section_title
;
Structure prediction by ZEFSAII (Michael W. Deem and Ramdas Pophale) SiO2 
 PCOD9426087
Probable space group: P B A M
;
_chemical_formula_sum "Si O2"
_cell_formula_units_Z 64
_cell_length_a 12.986391
_cell_length_b 28.360909
_cell_length_c 9.496150
_cell_angle_alpha 90.000000
_cell_angle_beta 90.000000
_cell_angle_gamma 90.000000
_cell_volume 3497.487630
_symmetry_space_group_name_H-M "P B A M"
_symmetry_group_IT_number 55
_symmetry_cell_setting 'orthorhombic'
loop_
_space_group_symop_operation_xyz
x,y,z
-x,-y,z
1/2+x,1/2-y,-z
1/2-x,1/2+y,-z
-x,-y,-z
x,y,-z
1/2-x,1/2+y,z
1/2+x,1/2-y,z
loop_
_atom_site_type_symbol
_atom_site_label
_atom_site_fract_x
_atom_site_fract_y
_atom_site_fract_z
Si Si1 0.928590 0.202057 0.164181
Si Si2 0.648406 0.790582 0.331797
Si Si3 0.901264 0.935141 0.163185
Si Si4 0.874853 0.092863 0.831310
Si Si5 0.669849 0.066349 0.333193
Si Si6 0.340166 0.675442 0.159745
Si Si7 0.207102 0.539626 0.666076
Si Si8 0.960927 0.384626 0.670997
O O1 0.878201 0.240988 0.261986
O O2 0.893848 0.148536 0.195151
O O3 0.052120 0.202264 0.180025
O O4 0.904619 0.211413 0.000000
O O5 0.651107 0.787090 0.500000
O O6 0.756354 0.809316 0.271926
O O7 0.565468 0.831030 0.291245
O O8 0.867649 0.879972 0.168217
O O9 0.815850 0.961326 0.254282
O O10 0.020572 0.935119 0.210040
O O11 0.897042 0.950521 0.000000
O O12 0.773357 0.077794 0.750239
O O13 0.864011 0.087009 0.000000
O O14 0.684993 0.075753 0.500000
O O15 0.571321 0.095946 0.282209
O O16 0.650798 0.010454 0.318690
O O17 0.302632 0.684507 0.000000
O O18 0.226632 0.547416 0.500000
O O19 0.131977 0.581152 0.718691
O O20 0.961148 0.387688 0.500000
#
# Coordination Sequence:
#
# PCOD9426087 Si02
#       8
#     8   8   8   8   8   8   8   8
#     4   9  20  38  57  77 105 144 185 222 270 333
#     4  11  21  33  55  85 111 138 177 229 280 326
#     4   9  18  34  57  80 105 140 182 228 272 320
#     4   9  20  39  57  76 108 147 182 223 278 329
#     4  10  21  36  56  80 111 150 186 222 270 331
#     4   9  18  35  56  76 103 141 182 224 270 323
#     4  10  19  34  57  82 108 144 186 227 273 326
#     4   9  19  36  54  77 111 146 181 222 272 326
#
# _framework density 18.298850000000002
#
# number of rings (size 3 to 8) (size 9 to 14) (size 15 to 20)
#    0.000    2.500    1.250    2.250    0.000    5.000 
#    0.000    9.375    0.000    1.500    0.000    0.000 
#    0.000    0.000    0.000    0.000    0.000    0.000 
#
# Total GULP energy -357037.103074 kJ/mol
# GULP energy per Si atom -5578.704736 kJ/mol
# Density = 1.825720 g / cm^3
# Si number density = 18.298850 Si / 1000 Ang^3
#
#
#
# Elastic Constant Matrix: (Units=GPa)
#
#
# Indices 1 2 3 4 5 6 
#
# 1 77.6024 12.1213 22.5323 0.0000 0.0000 0.0000
# 2 12.1213 35.9170 18.7206 0.0000 0.0000 0.0000
# 3 22.5323 18.7206 28.7274 0.0000 0.0000 0.0000
# 4 0.0000 0.0000 0.0000 24.3493 0.0000 0.0000
# 5 0.0000 0.0000 0.0000 0.0000 33.2400 0.0000
# 6 0.0000 0.0000 0.0000 0.0000 0.0000 21.7025
#
#
#
# Elastic Compliance Matrix: (Units=1/GPa)
#
#
# Indices 1 2 3 4 5 6 
#
# 1 0.016764 0.001811 -0.014329 0.000000 0.000000 0.000000
# 2 0.001811 0.042359 -0.029024 0.000000 0.000000 0.000000
# 3 -0.014329 -0.029024 0.064963 0.000000 0.000000 0.000000
# 4 0.000000 0.000000 0.000000 0.041069 0.000000 0.000000
# 5 0.000000 0.000000 0.000000 0.000000 0.030084 0.000000
# 6 0.000000 0.000000 0.000000 0.000000 0.000000 0.046078
#
#
# Mechanical properties :
#
#
# Convention : Reuss Voigt Hill
#
# Bulk Modulus (GPa) = 24.38943 27.66613 26.02778
# Shear Modulus (GPa) = 14.78996 21.78320 18.28658
#
# Velocity S-wave (km/s) = 2.84605 3.45398 3.16465
# Velocity P-wave (km/s) = 4.91501 5.57302 5.25432
#
# Compressibility (1/GPa) = 0.04100136
#
# Stress axis : x y z
#
# Youngs Moduli (GPa) = 59.65246 23.60786 15.39343
#
# Poissons Ratio (x) = -0.04275 0.22057
# Poissons Ratio (y) = -0.10803 0.44678
# Poissons Ratio (z) = 0.85475 0.68520
#
# Static dielectric constant tensor:
#      x y z
#    x 1.615290 0.000000 0.000000 
#    y 0.000000 1.637010 0.000000 
#    z 0.000000 0.000000 1.607540 
# 
# From -- ./inp_files/4614.got.cif
#   From: 2010.05.17/outbox.cif.g08.bks.cpg/sg55_3_cif.got.tgz:4614.got - 2010.06.03 13:27:54.
