data_PCOD9426918
_publ_section_title
;
Structure prediction by ZEFSAII (Michael W. Deem and Ramdas Pophale) SiO2 
 PCOD9426918
Probable space group: P B A M
;
_chemical_formula_sum "Si O2"
_cell_formula_units_Z 48
_cell_length_a 17.985121
_cell_length_b 15.872446
_cell_length_c 7.477666
_cell_angle_alpha 90.000000
_cell_angle_beta 90.000000
_cell_angle_gamma 90.000000
_cell_volume 2134.633325
_symmetry_space_group_name_H-M "P B A M"
_symmetry_group_IT_number 55
_symmetry_cell_setting 'orthorhombic'
loop_
_space_group_symop_operation_xyz
x,y,z
-x,-y,z
1/2+x,1/2-y,-z
1/2-x,1/2+y,-z
-x,-y,-z
x,y,-z
1/2-x,1/2+y,z
1/2+x,1/2-y,z
loop_
_atom_site_type_symbol
_atom_site_label
_atom_site_fract_x
_atom_site_fract_y
_atom_site_fract_z
Si Si1 0.056286 0.431659 0.704754
Si Si2 0.525576 0.411429 0.206739
Si Si3 0.702398 0.773756 0.716495
Si Si4 0.777119 0.599083 0.281311
Si Si5 0.970707 0.265679 0.208563
Si Si6 0.196002 0.070692 0.716687
O O1 0.069163 0.460947 0.500000
O O2 0.138704 0.418728 0.781265
O O3 0.000000 0.500000 0.787905
O O4 0.014393 0.342627 0.704071
O O5 0.500000 0.500000 0.289020
O O6 0.493055 0.325470 0.285276
O O7 0.614217 0.409642 0.214289
O O8 0.499460 0.412447 0.000000
O O9 0.701781 0.773128 0.500000
O O10 0.743762 0.688508 0.776859
O O11 0.617406 0.776405 0.776411
O O12 0.747119 0.856554 0.773452
O O13 0.778779 0.601725 0.500000
O O14 0.725025 0.521153 0.228473
O O15 0.992533 0.267707 0.000000
O O16 0.192689 0.071577 0.500000
#
# Coordination Sequence:
#
# PCOD9426918 Si02
#       6
#     8   8   8   8   8   8
#     4  10  20  37  61  84 110 145 180 220 274 329
#     4  10  22  39  56  78 112 151 187 224 271 326
#     4  10  20  35  55  78 107 142 180 224 273 325
#     4   9  18  33  54  81 108 136 177 225 270 322
#     4  11  23  37  55  81 112 145 184 228 271 321
#     4  10  20  35  57  83 107 136 180 229 273 320
#
# _framework density 22.486298000000001
#
# number of rings (size 3 to 8) (size 9 to 14) (size 15 to 20)
#    0.000    2.000    0.000    3.500    0.000    6.667 
#    0.000    1.667    0.000    0.000    0.000    0.000 
#    0.000    0.000    0.000    0.000    0.000    0.000 
#
# Total GULP energy -268398.545339 kJ/mol
# GULP energy per Si atom -5591.636361 kJ/mol
# Density = 2.243512 g / cm^3
# Si number density = 22.486298 Si / 1000 Ang^3
#
#
#
# Elastic Constant Matrix: (Units=GPa)
#
#
# Indices 1 2 3 4 5 6 
#
# 1 73.4987 -9.6787 -21.2436 0.0000 0.0000 0.0000
# 2 -9.6787 101.1498 -6.9203 0.0000 0.0000 0.0000
# 3 -21.2436 -6.9203 65.2374 0.0000 0.0000 0.0000
# 4 0.0000 0.0000 0.0000 9.9861 0.0000 0.0000
# 5 0.0000 0.0000 0.0000 0.0000 17.7471 0.0000
# 6 0.0000 0.0000 0.0000 0.0000 0.0000 48.8431
#
#
#
# Elastic Compliance Matrix: (Units=1/GPa)
#
#
# Indices 1 2 3 4 5 6 
#
# 1 0.015346 0.001824 0.005191 0.000000 0.000000 0.000000
# 2 0.001824 0.010175 0.001673 0.000000 0.000000 0.000000
# 3 0.005191 0.001673 0.017196 0.000000 0.000000 0.000000
# 4 0.000000 0.000000 0.000000 0.100139 0.000000 0.000000
# 5 0.000000 0.000000 0.000000 0.000000 0.056347 0.000000
# 6 0.000000 0.000000 0.000000 0.000000 0.000000 0.020474
#
#
# Mechanical properties :
#
#
# Convention : Reuss Voigt Hill
#
# Bulk Modulus (GPa) = 16.64097 18.24451 17.44274
# Shear Modulus (GPa) = 22.48867 33.83049 28.15958
#
# Velocity S-wave (km/s) = 3.16588 3.88299 3.54262
# Velocity P-wave (km/s) = 4.55854 5.31363 4.95050
#
# Compressibility (1/GPa) = 0.06009264
#
# Stress axis : x y z
#
# Youngs Moduli (GPa) = 65.16312 98.27729 58.15174
#
# Poissons Ratio (x) = -0.17921 -0.30185
# Poissons Ratio (y) = -0.11883 -0.09730
# Poissons Ratio (z) = -0.33824 -0.16444
#
# Static dielectric constant tensor:
#      x y z
#    x 1.757210 0.000000 0.000000 
#    y 0.000000 1.739590 0.000000 
#    z 0.000000 0.000000 1.891440 
# 
# From -- ./inp_files/5649.got.cif
#   From: 2010.05.17/outbox.cif.g08.bks.cpg/sg55_3_cif.got.tgz:5649.got - 2010.06.03 13:27:54.
