data_PCOD9426129
_publ_section_title
;
Structure prediction by ZEFSAII (Michael W. Deem and Ramdas Pophale) SiO2 
 PCOD9426129
Probable space group: P B A M
;
_chemical_formula_sum "Si O2"
_cell_formula_units_Z 64
_cell_length_a 18.845150
_cell_length_b 20.510361
_cell_length_c 7.536627
_cell_angle_alpha 90.000000
_cell_angle_beta 90.000000
_cell_angle_gamma 90.000000
_cell_volume 2913.063320
_symmetry_space_group_name_H-M "P B A M"
_symmetry_group_IT_number 55
_symmetry_cell_setting 'orthorhombic'
loop_
_space_group_symop_operation_xyz
x,y,z
-x,-y,z
1/2+x,1/2-y,-z
1/2-x,1/2+y,-z
-x,-y,-z
x,y,-z
1/2-x,1/2+y,z
1/2+x,1/2-y,z
loop_
_atom_site_type_symbol
_atom_site_label
_atom_site_fract_x
_atom_site_fract_y
_atom_site_fract_z
Si Si1 0.332854 0.371754 0.713515
Si Si2 0.447286 0.943422 0.282744
Si Si3 0.286276 0.972955 0.717074
Si Si4 0.606651 0.325373 0.282093
Si Si5 0.515173 0.573656 0.716603
Si Si6 0.256717 0.119798 0.287173
Si Si7 0.972273 0.700714 0.296617
Si Si8 0.628685 0.771629 0.204949
O O1 0.332920 0.375863 0.500000
O O2 0.269009 0.417672 0.776669
O O3 0.408632 0.399675 0.776358
O O4 0.329720 0.295401 0.757889
O O5 0.450175 0.944554 0.500000
O O6 0.366524 0.957258 0.230555
O O7 0.470177 0.871732 0.220019
O O8 0.500000 0.000000 0.221504
O O9 0.284775 0.973212 0.500000
O O10 0.265563 0.045723 0.776933
O O11 0.606865 0.324200 0.500000
O O12 0.548086 0.378592 0.229373
O O13 0.684432 0.346643 0.222246
O O14 0.579360 0.255228 0.218043
O O15 0.500000 0.500000 0.773652
O O16 0.516431 0.573558 0.500000
O O17 0.250910 0.115605 0.500000
O O18 0.323382 0.166062 0.248950
O O19 0.948249 0.693054 0.500000
O O20 0.052660 0.727051 0.299737
O O21 0.610569 0.773510 0.000000
#
# Coordination Sequence:
#
# PCOD9426129 Si02
#       8
#     8   8   8   8   8   8   8   8
#     4  10  19  34  58  85 114 147 185 235 288 338
#     4   9  17  29  51  83 115 141 175 230 287 334
#     4   9  18  32  56  91 117 142 186 238 294 350
#     4   9  17  29  51  85 111 137 177 224 279 336
#     4   9  15  26  49  82 114 137 166 217 275 326
#     4  10  20  36  60  87 115 145 185 237 291 347
#     4  10  19  35  58  82 108 143 188 237 286 334
#     4  12  25  39  55  79 114 157 199 234 280 342
#
# _framework density 21.969999999999999
#
# number of rings (size 3 to 8) (size 9 to 14) (size 15 to 20)
#    0.000    2.250    1.250    2.625    1.750    5.000 
#    0.000    1.250    0.000    3.750    0.000    0.000 
#    0.000    0.000    0.000    0.000    0.000    0.000 
#
# Total GULP energy -357657.972833 kJ/mol
# GULP energy per Si atom -5588.405826 kJ/mol
# Density = 2.192000 g / cm^3
# Si number density = 21.970000 Si / 1000 Ang^3
#
#
#
# Elastic Constant Matrix: (Units=GPa)
#
#
# Indices 1 2 3 4 5 6 
#
# 1 87.3448 39.8509 -1.1386 0.0000 0.0000 0.0000
# 2 39.8509 171.7742 2.0488 0.0000 0.0000 0.0000
# 3 -1.1386 2.0488 55.0797 0.0000 0.0000 0.0000
# 4 0.0000 0.0000 0.0000 -206.7432 0.0000 0.0000
# 5 0.0000 0.0000 0.0000 0.0000 -26.9746 0.0000
# 6 0.0000 0.0000 0.0000 0.0000 0.0000 41.7591
#
#
#
# Elastic Compliance Matrix: (Units=1/GPa)
#
#
# Indices 1 2 3 4 5 6 
#
# 1 0.012812 -0.002977 0.000376 0.000000 0.000000 0.000000
# 2 -0.002977 0.006516 -0.000304 0.000000 0.000000 0.000000
# 3 0.000376 -0.000304 0.018175 0.000000 0.000000 0.000000
# 4 0.000000 0.000000 0.000000 -0.004837 0.000000 0.000000
# 5 0.000000 0.000000 0.000000 0.000000 -0.037072 0.000000
# 6 0.000000 0.000000 0.000000 0.000000 0.000000 0.023947
#
#
# Mechanical properties :
#
#
# Convention : Reuss Voigt Hill
#
# Bulk Modulus (GPa) = 31.55361 43.96897 37.76129
# Shear Modulus (GPa) = 139.21921 -20.16255 59.52833
#
# Velocity S-wave (km/s) = 7.96903 -3.03269 5.21096
# Velocity P-wave (km/s) = 9.95325 2.79171 7.30961
#
# Compressibility (1/GPa) = 0.03169209
#
# Stress axis : x y z
#
# Youngs Moduli (GPa) = 78.05222 153.47247 55.02195
#
# Poissons Ratio (x) = 0.45686 -0.02067
# Poissons Ratio (y) = 0.23235 0.01672
# Poissons Ratio (z) = -0.02932 0.04664
#
# Static dielectric constant tensor:
#      x y z
#    x 1.755600 0.000000 0.000000 
#    y 0.000000 1.781900 0.000000 
#    z 0.000000 0.000000 1.831050 
# 
# From -- ./inp_files/7977.got.cif
#   From: 2010.05.17/outbox.cif.g08.bks.cpg/sg55_4_cif.got.tgz:7977.got - 2010.06.03 13:27:54.
