data_PCOD9426096
_publ_section_title
;
Structure prediction by ZEFSAII (Michael W. Deem and Ramdas Pophale) SiO2 
 PCOD9426096
Probable space group: P B A M
;
_chemical_formula_sum "Si O2"
_cell_formula_units_Z 64
_cell_length_a 31.092125
_cell_length_b 11.378783
_cell_length_c 9.304924
_cell_angle_alpha 90.000000
_cell_angle_beta 90.000000
_cell_angle_gamma 90.000000
_cell_volume 3291.994118
_symmetry_space_group_name_H-M "P B A M"
_symmetry_group_IT_number 55
_symmetry_cell_setting 'orthorhombic'
loop_
_space_group_symop_operation_xyz
x,y,z
-x,-y,z
1/2+x,1/2-y,-z
1/2-x,1/2+y,-z
-x,-y,-z
x,y,-z
1/2-x,1/2+y,z
1/2+x,1/2-y,z
loop_
_atom_site_type_symbol
_atom_site_label
_atom_site_fract_x
_atom_site_fract_y
_atom_site_fract_z
Si Si1 0.565373 0.447706 0.664875
Si Si2 0.145714 0.233471 0.663035
Si Si3 0.484627 0.735901 0.166471
Si Si4 0.422484 0.149459 0.162439
Si Si5 0.778551 0.084604 0.174969
Si Si6 0.423407 0.915364 0.668998
Si Si7 0.769373 0.823327 0.827021
Si Si8 0.623599 0.621249 0.831099
O O1 0.554289 0.471889 0.500000
O O2 0.605224 0.354818 0.667280
O O3 0.527229 0.381684 0.747504
O O4 0.586062 0.557863 0.744078
O O5 0.163112 0.231322 0.500000
O O6 0.123597 0.358681 0.692728
O O7 0.182143 0.199182 0.774034
O O8 0.534010 0.774313 0.170945
O O9 0.457414 0.840446 0.239392
O O10 0.471907 0.721563 0.000000
O O11 0.383308 0.239319 0.181265
O O12 0.423965 0.047704 0.277891
O O13 0.420707 0.099085 0.000000
O O14 0.757191 0.207871 0.223365
O O15 0.828831 0.085120 0.217762
O O16 0.758278 0.958146 0.219654
O O17 0.777544 0.086760 0.000000
O O18 0.433356 0.903199 0.500000
O O19 0.767336 0.823477 0.000000
O O20 0.619135 0.590673 0.000000
#
# Coordination Sequence:
#
# PCOD9426096 Si02
#       8
#     8   8   8   8   8   8   8   8
#     4  10  20  35  56  81 108 142 188 233 276 331
#     4   9  19  35  54  79 107 138 180 224 267 325
#     4  10  20  35  55  80 110 145 187 234 284 334
#     4  10  22  36  53  80 112 147 188 233 281 337
#     4   9  19  34  56  85 113 141 183 233 282 334
#     4  10  21  36  55  80 112 147 185 232 281 334
#     4  10  19  34  57  84 110 142 182 228 278 334
#     4  10  20  37  57  78 109 148 186 229 281 334
#
# _framework density 19.441103999999999
#
# number of rings (size 3 to 8) (size 9 to 14) (size 15 to 20)
#    0.000    2.250    1.250    2.250    0.000    7.000 
#    0.000    6.250    0.000    0.000    0.000    0.000 
#    0.000    0.000    0.000    0.000    0.000    0.000 
#
# Total GULP energy -356992.570543 kJ/mol
# GULP energy per Si atom -5578.008915 kJ/mol
# Density = 1.939686 g / cm^3
# Si number density = 19.441104 Si / 1000 Ang^3
#
#
#
# Elastic Constant Matrix: (Units=GPa)
#
#
# Indices 1 2 3 4 5 6 
#
# 1 26.5992 33.4106 12.6837 0.0000 0.0000 0.0000
# 2 33.4106 108.5811 42.3143 0.0000 0.0000 0.0000
# 3 12.6837 42.3143 58.9507 0.0000 0.0000 0.0000
# 4 0.0000 0.0000 0.0000 16.0361 0.0000 0.0000
# 5 0.0000 0.0000 0.0000 0.0000 3.4568 0.0000
# 6 0.0000 0.0000 0.0000 0.0000 0.0000 22.7019
#
#
#
# Elastic Compliance Matrix: (Units=1/GPa)
#
#
# Indices 1 2 3 4 5 6 
#
# 1 0.061289 -0.019048 0.000486 0.000000 0.000000 0.000000
# 2 -0.019048 0.018706 -0.009329 0.000000 0.000000 0.000000
# 3 0.000486 -0.009329 0.023555 0.000000 0.000000 0.000000
# 4 0.000000 0.000000 0.000000 0.062359 0.000000 0.000000
# 5 0.000000 0.000000 0.000000 0.000000 0.289281 0.000000
# 6 0.000000 0.000000 0.000000 0.000000 0.000000 0.044049
#
#
# Mechanical properties :
#
#
# Convention : Reuss Voigt Hill
#
# Bulk Modulus (GPa) = 20.93443 41.21646 31.07544
# Shear Modulus (GPa) = 8.75740 15.48712 12.12226
#
# Velocity S-wave (km/s) = 2.12470 2.82550 2.49978
# Velocity P-wave (km/s) = 4.10008 5.64724 4.93467
#
# Compressibility (1/GPa) = 0.04776820
#
# Stress axis : x y z
#
# Youngs Moduli (GPa) = 16.31602 53.45764 42.45370
#
# Poissons Ratio (x) = 1.01827 -0.02062
# Poissons Ratio (y) = 0.31079 0.39605
# Poissons Ratio (z) = -0.00793 0.49870
#
# Static dielectric constant tensor:
#      x y z
#    x 1.669900 0.000000 0.000000 
#    y 0.000000 1.714030 0.000000 
#    z 0.000000 0.000000 1.657790 
# 
# From -- ./inp_files/10745.got.cif
#   From: 2010.05.17/outbox.cif.g08.bks.cpg/sg55_6_cif.got.tgz:10745.got - 2010.06.03 13:27:54.
