data_PCOD9426681
_publ_section_title
;
Structure prediction by ZEFSAII (Michael W. Deem and Ramdas Pophale) SiO2 
 PCOD9426681
Probable space group: P B A M
;
_chemical_formula_sum "Si O2"
_cell_formula_units_Z 64
_cell_length_a 20.921742
_cell_length_b 20.141463
_cell_length_c 8.847675
_cell_angle_alpha 90.000000
_cell_angle_beta 90.000000
_cell_angle_gamma 90.000000
_cell_volume 3728.361515
_symmetry_space_group_name_H-M "P B A M"
_symmetry_group_IT_number 55
_symmetry_cell_setting 'orthorhombic'
loop_
_space_group_symop_operation_xyz
x,y,z
-x,-y,z
1/2+x,1/2-y,-z
1/2-x,1/2+y,-z
-x,-y,-z
x,y,-z
1/2-x,1/2+y,z
1/2+x,1/2-y,z
loop_
_atom_site_type_symbol
_atom_site_label
_atom_site_fract_x
_atom_site_fract_y
_atom_site_fract_z
Si Si1 0.823727 0.578227 0.818957
Si Si2 0.430048 0.827407 0.319365
Si Si3 0.318521 0.076171 0.817849
Si Si4 0.319063 0.573434 0.681424
Si Si5 0.322405 0.428295 0.182612
Si Si6 0.433083 0.172883 0.817727
Si Si7 0.067451 0.826521 0.182054
Si Si8 0.069218 0.173677 0.682020
O O1 0.874279 0.625633 0.740397
O O2 0.834122 0.500567 0.780639
O O3 0.749948 0.593332 0.778025
O O4 0.830159 0.585035 0.000000
O O5 0.432836 0.830213 0.500000
O O6 0.498921 0.846895 0.251949
O O7 0.418612 0.750401 0.273872
O O8 0.250623 0.092874 0.743835
O O9 0.375319 0.125098 0.771227
O O10 0.311444 0.079816 0.000000
O O11 0.317183 0.571259 0.500000
O O12 0.333741 0.500247 0.745353
O O13 0.373558 0.625408 0.729215
O O14 0.375549 0.375151 0.229482
O O15 0.324195 0.435194 0.000000
O O16 0.420431 0.249683 0.774692
O O17 0.438061 0.169863 0.000000
O O18 0.999050 0.846333 0.249604
O O19 0.063607 0.828820 0.000000
O O20 0.064722 0.171422 0.500000
#
# Coordination Sequence:
#
# PCOD9426681 Si02
#       8
#     8   8   8   8   8   8   8   8
#     4   9  18  33  51  72 100 131 161 199 247 294
#     4  10  20  34  51  72 100 132 166 204 243 288
#     4   9  19  35  54  75 100 129 162 204 249 291
#     4  10  20  34  52  73  99 132 168 203 241 292
#     4   9  19  35  52  74 103 130 161 204 250 292
#     4   9  18  34  54  75  99 129 165 203 247 295
#     4   9  18  33  54  77  99 127 166 207 243 289
#     4   9  20  36  50  70 102 134 164 202 247 291
#
# _framework density 17.165717000000001
#
# number of rings (size 3 to 8) (size 9 to 14) (size 15 to 20)
#    0.000    2.750    0.000    1.500    0.000    6.500 
#    0.000    6.250    0.000    0.000    0.000    0.000 
#    0.000    0.000    0.000    0.000    0.000    0.000 
#
# Total GULP energy -356915.931438 kJ/mol
# GULP energy per Si atom -5576.811429 kJ/mol
# Density = 1.712665 g / cm^3
# Si number density = 17.165717 Si / 1000 Ang^3
#
#
#
# Elastic Constant Matrix: (Units=GPa)
#
#
# Indices 1 2 3 4 5 6 
#
# 1 192.0029 126.8511 46.6223 0.0000 0.0000 0.0000
# 2 126.8511 101.3645 34.9712 0.0000 0.0000 0.0000
# 3 46.6223 34.9712 16.7928 0.0000 0.0000 0.0000
# 4 0.0000 0.0000 0.0000 24.0497 0.0000 0.0000
# 5 0.0000 0.0000 0.0000 0.0000 3.5330 0.0000
# 6 0.0000 0.0000 0.0000 0.0000 0.0000 42.9403
#
#
#
# Elastic Compliance Matrix: (Units=1/GPa)
#
#
# Indices 1 2 3 4 5 6 
#
# 1 0.031717 -0.033076 -0.019175 0.000000 0.000000 0.000000
# 2 -0.033076 0.069537 -0.052981 0.000000 0.000000 0.000000
# 3 -0.019175 -0.052981 0.223120 0.000000 0.000000 0.000000
# 4 0.000000 0.000000 0.000000 0.041581 0.000000 0.000000
# 5 0.000000 0.000000 0.000000 0.000000 0.283049 0.000000
# 6 0.000000 0.000000 0.000000 0.000000 0.000000 0.023288
#
#
# Mechanical properties :
#
#
# Convention : Reuss Voigt Hill
#
# Bulk Modulus (GPa) = 8.77894 80.78328 44.78111
# Shear Modulus (GPa) = 5.43050 20.88562 13.15806
#
# Velocity S-wave (km/s) = 1.78057 3.49191 2.77163
# Velocity P-wave (km/s) = 3.05820 7.96373 6.03214
#
# Compressibility (1/GPa) = 0.11390894
#
# Stress axis : x y z
#
# Youngs Moduli (GPa) = 31.52920 14.38093 4.48189
#
# Poissons Ratio (x) = 0.47566 0.08594
# Poissons Ratio (y) = 1.04286 0.23746
# Poissons Ratio (z) = 0.60457 0.76192
#
# Static dielectric constant tensor:
#      x y z
#    x 1.555940 0.000000 0.000000 
#    y 0.000000 1.571910 0.000000 
#    z 0.000000 0.000000 1.576400 
# 
# From -- ./inp_files/7980.got.cif
#   From: 2010.05.17/outbox.cif.g08.bks.cpg/sg55_4_cif.got.tgz:7980.got - 2010.06.03 13:27:54.
