data_PCOD9426030
_publ_section_title
;
Structure prediction by ZEFSAII (Michael W. Deem and Ramdas Pophale) SiO2 
 PCOD9426030
Probable space group: P B A M
;
_chemical_formula_sum "Si O2"
_cell_formula_units_Z 64
_cell_length_a 15.248048
_cell_length_b 25.684453
_cell_length_c 8.323181
_cell_angle_alpha 90.000000
_cell_angle_beta 90.000000
_cell_angle_gamma 90.000000
_cell_volume 3259.672064
_symmetry_space_group_name_H-M "P B A M"
_symmetry_group_IT_number 55
_symmetry_cell_setting 'orthorhombic'
loop_
_space_group_symop_operation_xyz
x,y,z
-x,-y,z
1/2+x,1/2-y,-z
1/2-x,1/2+y,-z
-x,-y,-z
x,y,-z
1/2-x,1/2+y,z
1/2+x,1/2-y,z
loop_
_atom_site_type_symbol
_atom_site_label
_atom_site_fract_x
_atom_site_fract_y
_atom_site_fract_z
Si Si1 0.768536 0.161149 0.808032
Si Si2 0.798907 0.445916 0.307204
Si Si3 0.853093 0.872745 0.188318
Si Si4 0.056678 0.715739 0.192019
Si Si5 0.745329 0.274360 0.687643
Si Si6 0.469735 0.331160 0.804673
Si Si7 0.479483 0.105854 0.693767
Si Si8 0.662607 0.061217 0.305699
O O1 0.730632 0.214193 0.732727
O O2 0.715863 0.110034 0.760981
O O3 0.870491 0.156134 0.754742
O O4 0.768210 0.168101 0.000000
O O5 0.806488 0.447520 0.500000
O O6 0.711896 0.414350 0.265535
O O7 0.801824 0.505449 0.249314
O O8 0.885915 0.415772 0.247412
O O9 0.810956 0.815691 0.213500
O O10 0.952105 0.867849 0.254180
O O11 0.856793 0.884486 0.000000
O O12 0.013938 0.770720 0.240099
O O13 0.006231 0.663938 0.241245
O O14 0.152533 0.714415 0.272879
O O15 0.068883 0.716573 0.000000
O O16 0.729324 0.283188 0.500000
O O17 0.471549 0.333429 0.000000
O O18 0.476408 0.108637 0.500000
O O19 0.560508 0.069037 0.737930
O O20 0.667922 0.062754 0.500000
#
# Coordination Sequence:
#
# PCOD9426030 Si02
#       8
#     8   8   8   8   8   8   8   8
#     4  10  21  40  61  83 113 151 194 243 292 340
#     4  10  21  39  59  82 117 155 194 239 288 347
#     4  11  21  36  59  86 114 149 193 241 287 342
#     4  10  19  34  55  83 116 152 188 230 281 341
#     4  11  21  35  55  83 117 152 186 230 288 347
#     4   8  19  37  56  80 114 150 187 232 290 342
#     4  10  20  35  56  83 116 155 193 234 285 345
#     4  10  22  39  59  84 114 154 198 240 291 347
#
# _framework density 19.633876999999998
#
# number of rings (size 3 to 8) (size 9 to 14) (size 15 to 20)
#    0.000    2.000    1.250    3.375    1.750    2.500 
#    0.000    7.500    0.000    6.000    0.000    0.000 
#    0.000    0.000    0.000    0.000    0.000    0.000 
#
# Total GULP energy -357392.771961 kJ/mol
# GULP energy per Si atom -5584.262062 kJ/mol
# Density = 1.958919 g / cm^3
# Si number density = 19.633877 Si / 1000 Ang^3
#
#
#
# Elastic Constant Matrix: (Units=GPa)
#
#
# Indices 1 2 3 4 5 6 
#
# 1 16.2008 7.0439 -2.9783 0.0000 0.0000 0.0000
# 2 7.0439 82.6300 3.6493 0.0000 0.0000 0.0000
# 3 -2.9783 3.6493 16.4391 0.0000 0.0000 0.0000
# 4 0.0000 0.0000 0.0000 165.1956 0.0000 0.0000
# 5 0.0000 0.0000 0.0000 0.0000 19.1152 0.0000
# 6 0.0000 0.0000 0.0000 0.0000 0.0000 27.0294
#
#
#
# Elastic Compliance Matrix: (Units=1/GPa)
#
#
# Indices 1 2 3 4 5 6 
#
# 1 0.066954 -0.006305 0.013530 0.000000 0.000000 0.000000
# 2 -0.006305 0.012816 -0.003987 0.000000 0.000000 0.000000
# 3 0.013530 -0.003987 0.064167 0.000000 0.000000 0.000000
# 4 0.000000 0.000000 0.000000 0.006053 0.000000 0.000000
# 5 0.000000 0.000000 0.000000 0.000000 0.052314 0.000000
# 6 0.000000 0.000000 0.000000 0.000000 0.000000 0.036997
#
#
# Mechanical properties :
#
#
# Convention : Reuss Voigt Hill
#
# Bulk Modulus (GPa) = 6.64842 14.52218 10.58530
# Shear Modulus (GPa) = 17.67014 49.43839 33.55426
#
# Velocity S-wave (km/s) = 3.00323 5.02343 4.13849
# Velocity P-wave (km/s) = 3.92675 6.40773 5.31405
#
# Compressibility (1/GPa) = 0.15041177
#
# Stress axis : x y z
#
# Youngs Moduli (GPa) = 14.93564 78.02919 15.58435
#
# Poissons Ratio (x) = 0.49198 -0.21086
# Poissons Ratio (y) = 0.09417 0.06214
# Poissons Ratio (z) = -0.20208 0.31112
#
# Static dielectric constant tensor:
#      x y z
#    x 1.706440 0.000000 0.000000 
#    y 0.000000 1.672100 0.000000 
#    z 0.000000 0.000000 1.679680 
# 
# From -- ./inp_files/6659.got.cif
#   From: 2010.05.17/outbox.cif.g08.bks.cpg/sg55_4_cif.got.tgz:6659.got - 2010.06.03 13:27:54.
