data_PCOD9426507
_publ_section_title
;
Structure prediction by ZEFSAII (Michael W. Deem and Ramdas Pophale) SiO2 
 PCOD9426507
Probable space group: P B A M
;
_chemical_formula_sum "Si O2"
_cell_formula_units_Z 46
_cell_length_a 26.769432
_cell_length_b 5.215974
_cell_length_c 14.641348
_cell_angle_alpha 90.000000
_cell_angle_beta 90.000000
_cell_angle_gamma 90.000000
_cell_volume 2044.351821
_symmetry_space_group_name_H-M "P B A M"
_symmetry_group_IT_number 55
_symmetry_cell_setting 'orthorhombic'
loop_
_space_group_symop_operation_xyz
x,y,z
-x,-y,z
1/2+x,1/2-y,-z
1/2-x,1/2+y,-z
-x,-y,-z
x,y,-z
1/2-x,1/2+y,z
1/2+x,1/2-y,z
loop_
_atom_site_type_symbol
_atom_site_label
_atom_site_fract_x
_atom_site_fract_y
_atom_site_fract_z
Si Si1 0.713820 0.951210 0.500000
Si Si2 0.880202 0.405245 0.630557
Si Si3 0.766713 0.458908 0.894330
Si Si4 0.943918 0.909488 0.636380
Si Si5 0.567440 0.376633 0.145352
Si Si6 0.000000 0.000000 0.000000
Si Si7 0.874827 0.379616 0.849676
O O1 0.750785 0.703759 0.500000
O O2 0.673681 0.944231 0.416303
O O3 0.918926 0.637890 0.608094
O O4 0.873355 0.385871 0.739661
O O5 0.906486 0.135896 0.606709
O O6 0.767937 0.740831 0.850646
O O7 0.820507 0.332153 0.888317
O O8 0.753225 0.509165 0.000000
O O9 0.944632 0.885512 0.747344
O O10 0.000000 0.000000 0.609304
O O11 0.521732 0.315492 0.081126
O O12 0.588698 0.654837 0.118658
O O13 0.607800 0.161107 0.124221
#
# Coordination Sequence:
#
# PCOD9426507 Si02
#       7
#     4   8   8   8   8   2   8
#     4  12  26  46  69 100 131 160 198 270 332 378
#     4  10  23  40  65  92 125 159 210 249 315 389
#     4  10  21  35  53  76 105 141 190 241 288 342
#     4  10  19  41  62  91 128 172 203 253 303 365
#     4  10  23  35  57  86 123 160 206 250 299 354
#     4  12  24  38  56  94 120 164 216 258 304 354
#     4  10  22  40  58  84 117 162 198 249 302 363
#
# _framework density 22.501018999999999
#
# number of rings (size 3 to 8) (size 9 to 14) (size 15 to 20)
#    0.000    1.739    0.870    2.609    2.435    2.783 
#    0.000    2.609    0.000    0.000    0.000    0.000 
#    0.000    0.000    0.000    0.000    0.000    0.000 
#
# Total GULP energy -256155.912838 kJ/mol
# GULP energy per Si atom -5568.606801 kJ/mol
# Density = 2.244981 g / cm^3
# Si number density = 22.501019 Si / 1000 Ang^3
#
#
#
# Elastic Constant Matrix: (Units=GPa)
#
#
# Indices 1 2 3 4 5 6 
#
# 1 60.3301 37.0025 -3.8055 0.0000 0.0000 0.0000
# 2 37.0025 155.6244 19.1155 0.0000 0.0000 0.0000
# 3 -3.8055 19.1155 70.3724 0.0000 0.0000 0.0000
# 4 0.0000 0.0000 0.0000 -3.5905 0.0000 0.0000
# 5 0.0000 0.0000 0.0000 0.0000 47.7884 0.0000
# 6 0.0000 0.0000 0.0000 0.0000 0.0000 38.0999
#
#
#
# Elastic Compliance Matrix: (Units=1/GPa)
#
#
# Indices 1 2 3 4 5 6 
#
# 1 0.019799 -0.005006 0.002431 0.000000 0.000000 0.000000
# 2 -0.005006 0.007913 -0.002420 0.000000 0.000000 0.000000
# 3 0.002431 -0.002420 0.014999 0.000000 0.000000 0.000000
# 4 0.000000 0.000000 0.000000 -0.278514 0.000000 0.000000
# 5 0.000000 0.000000 0.000000 0.000000 0.020926 0.000000
# 6 0.000000 0.000000 0.000000 0.000000 0.000000 0.026247
#
#
# Mechanical properties :
#
#
# Convention : Reuss Voigt Hill
#
# Bulk Modulus (GPa) = 30.56260 43.43911 37.00086
# Shear Modulus (GPa) = -29.80946 32.06053 1.12554
#
# Velocity S-wave (km/s) = -3.64374 3.77881 0.70803
# Velocity P-wave (km/s) = 2.02242 6.19569 4.14104
#
# Compressibility (1/GPa) = 0.03271973
#
# Stress axis : x y z
#
# Youngs Moduli (GPa) = 50.50702 126.36930 66.67124
#
# Poissons Ratio (x) = 0.63263 -0.16205
# Poissons Ratio (y) = 0.25285 0.16136
# Poissons Ratio (z) = -0.12276 0.30584
#
# Static dielectric constant tensor:
#      x y z
#    x 1.921630 0.000000 0.000000 
#    y 0.000000 1.896590 0.000000 
#    z 0.000000 0.000000 1.847290 
# 
# From -- ./inp_files/22016.got.cif
#   From: 2010.05.17/outbox.cif.g08.bks.cpg/sg55_12_cif.got.tgz:22016.got - 2010.06.03 13:27:54.
