data_PCOD9426147
_publ_section_title
;
Structure prediction by ZEFSAII (Michael W. Deem and Ramdas Pophale) SiO2 
 PCOD9426147
Probable space group: P B A M
;
_chemical_formula_sum "Si O2"
_cell_formula_units_Z 48
_cell_length_a 28.850824
_cell_length_b 10.502452
_cell_length_c 8.716017
_cell_angle_alpha 90.000000
_cell_angle_beta 90.000000
_cell_angle_gamma 90.000000
_cell_volume 2640.991451
_symmetry_space_group_name_H-M "P B A M"
_symmetry_group_IT_number 55
_symmetry_cell_setting 'orthorhombic'
loop_
_space_group_symop_operation_xyz
x,y,z
-x,-y,z
1/2+x,1/2-y,-z
1/2-x,1/2+y,-z
-x,-y,-z
x,y,-z
1/2-x,1/2+y,z
1/2+x,1/2-y,z
loop_
_atom_site_type_symbol
_atom_site_label
_atom_site_fract_x
_atom_site_fract_y
_atom_site_fract_z
Si Si1 0.147306 0.759656 0.184157
Si Si2 0.050215 0.141577 0.317271
Si Si3 0.197620 0.496550 0.184619
Si Si4 0.452294 0.357259 0.816360
Si Si5 0.800388 0.997463 0.318017
Si Si6 0.642950 0.260468 0.816459
O O1 0.168549 0.622918 0.222847
O O2 0.092964 0.774696 0.220941
O O3 0.175186 0.872091 0.266031
O O4 0.151996 0.777879 0.000000
O O5 0.050282 0.130002 0.500000
O O6 0.092764 0.226289 0.260410
O O7 0.000108 0.187930 0.259180
O O8 0.056421 0.000638 0.244447
O O9 0.247133 0.499595 0.265895
O O10 0.169257 0.369587 0.224629
O O11 0.205180 0.495399 0.000000
O O12 0.457930 0.362138 0.000000
O O13 0.804102 0.982585 0.500000
O O14 0.826491 0.880125 0.237598
O O15 0.637591 0.265259 0.000000
#
# Coordination Sequence:
#
# PCOD9426147 Si02
#       6
#     8   8   8   8   8   8
#     4  10  21  39  62  86 113 149 193 239 285 336
#     4  11  21  34  56  86 118 147 186 237 289 340
#     4  10  23  41  60  83 114 153 195 238 284 337
#     4  10  19  34  59  86 113 147 190 235 286 342
#     4  12  24  37  58  87 117 151 192 237 287 342
#     4  11  22  39  61  84 114 153 196 238 281 336
#
# _framework density 18.174993000000001
#
# number of rings (size 3 to 8) (size 9 to 14) (size 15 to 20)
#    0.000    1.333    1.667    6.000    0.000    6.667 
#    0.000    0.833    0.000    5.000    0.000    0.000 
#    0.000    0.000    0.000    0.000    0.000    0.000 
#
# Total GULP energy -268333.648134 kJ/mol
# GULP energy per Si atom -5590.284336 kJ/mol
# Density = 1.813363 g / cm^3
# Si number density = 18.174993 Si / 1000 Ang^3
#
#
#
# Elastic Constant Matrix: (Units=GPa)
#
#
# Indices 1 2 3 4 5 6 
#
# 1 149.8293 51.7360 47.6339 0.0000 0.0000 0.0000
# 2 51.7360 99.0144 33.4160 0.0000 0.0000 0.0000
# 3 47.6339 33.4160 58.4494 0.0000 0.0000 0.0000
# 4 0.0000 0.0000 0.0000 -14.3987 0.0000 0.0000
# 5 0.0000 0.0000 0.0000 0.0000 -123.8105 0.0000
# 6 0.0000 0.0000 0.0000 0.0000 0.0000 -9.3770
#
#
#
# Elastic Compliance Matrix: (Units=1/GPa)
#
#
# Indices 1 2 3 4 5 6 
#
# 1 0.009662 -0.002963 -0.006180 0.000000 0.000000 0.000000
# 2 -0.002963 0.013423 -0.005259 0.000000 0.000000 0.000000
# 3 -0.006180 -0.005259 0.025152 0.000000 0.000000 0.000000
# 4 0.000000 0.000000 0.000000 -0.069451 0.000000 0.000000
# 5 0.000000 0.000000 0.000000 0.000000 -0.008077 0.000000
# 6 0.000000 0.000000 0.000000 0.000000 0.000000 -0.106644
#
#
# Mechanical properties :
#
#
# Convention : Reuss Voigt Hill
#
# Bulk Modulus (GPa) = 51.46097 63.65166 57.55632
# Shear Modulus (GPa) = -49.67620 -17.88341 -33.77981
#
# Velocity S-wave (km/s) = -5.23369 -3.14021 -4.31581
# Velocity P-wave (km/s) = 2.85419 4.68505 2.62710
#
# Compressibility (1/GPa) = 0.01943220
#
# Stress axis : x y z
#
# Youngs Moduli (GPa) = 103.49600 74.50157 39.75764
#
# Poissons Ratio (x) = 0.22073 0.24572
# Poissons Ratio (y) = 0.30664 0.20909
# Poissons Ratio (z) = 0.63965 0.39182
#
# Static dielectric constant tensor:
#      x y z
#    x 1.619250 0.000000 0.000000 
#    y 0.000000 1.590510 0.000000 
#    z 0.000000 0.000000 1.606170 
# 
# From -- ./inp_files/10516.got.cif
#   From: 2010.05.17/outbox.cif.g08.bks.cpg/sg55_6_cif.got.tgz:10516.got - 2010.06.03 13:27:54.
