data_PCOD9426911
_publ_section_title
;
Structure prediction by ZEFSAII (Michael W. Deem and Ramdas Pophale) SiO2 
 PCOD9426911
Probable space group: P B A M
;
_chemical_formula_sum "Si O2"
_cell_formula_units_Z 64
_cell_length_a 16.142544
_cell_length_b 23.293908
_cell_length_c 7.621771
_cell_angle_alpha 90.000000
_cell_angle_beta 90.000000
_cell_angle_gamma 90.000000
_cell_volume 2865.960700
_symmetry_space_group_name_H-M "P B A M"
_symmetry_group_IT_number 55
_symmetry_cell_setting 'orthorhombic'
loop_
_space_group_symop_operation_xyz
x,y,z
-x,-y,z
1/2+x,1/2-y,-z
1/2-x,1/2+y,-z
-x,-y,-z
x,y,-z
1/2-x,1/2+y,z
1/2+x,1/2-y,z
loop_
_atom_site_type_symbol
_atom_site_label
_atom_site_fract_x
_atom_site_fract_y
_atom_site_fract_z
Si Si1 0.943724 0.266969 0.205885
Si Si2 0.975862 0.841835 0.209111
Si Si3 0.296614 0.676264 0.290811
Si Si4 0.432235 0.453176 0.211305
Si Si5 0.591532 0.005770 0.299906
Si Si6 0.126574 0.618578 0.202806
Si Si7 0.251666 0.924381 0.288994
Si Si8 0.729675 0.706354 0.712312
O O1 0.931424 0.330666 0.279334
O O2 0.857348 0.232220 0.222729
O O3 0.007422 0.221526 0.284294
O O4 0.961299 0.275707 0.000000
O O5 0.880567 0.855100 0.240099
O O6 0.036000 0.891168 0.278299
O O7 0.990162 0.838700 0.000000
O O8 0.286541 0.674285 0.500000
O O9 0.217811 0.645492 0.208599
O O10 0.294673 0.743647 0.237001
O O11 0.500000 0.500000 0.273751
O O12 0.334691 0.457632 0.252028
O O13 0.438040 0.453261 0.000000
O O14 0.578416 0.026867 0.500000
O O15 0.624335 0.940912 0.301491
O O16 0.500000 0.000000 0.217469
O O17 0.664901 0.044743 0.221511
O O18 0.104471 0.607500 0.000000
O O19 0.258214 0.922658 0.500000
O O20 0.244590 0.858386 0.224686
O O21 0.726304 0.704330 0.500000
#
# Coordination Sequence:
#
# PCOD9426911 Si02
#       8
#     8   8   8   8   8   8   8   8
#     4   9  18  34  56  80 109 145 184 229 282 337
#     4  10  20  35  54  82 119 150 185 231 282 341
#     4  10  21  35  55  85 118 151 186 228 284 347
#     4  10  22  38  57  84 117 155 195 235 289 349
#     4  10  23  42  61  84 116 154 195 243 298 351
#     4  10  21  38  60  83 112 150 194 241 289 341
#     4  10  21  38  61  86 114 152 197 242 287 341
#     4   9  18  34  54  79 109 141 184 231 277 333
#
# _framework density 22.33108
#
# number of rings (size 3 to 8) (size 9 to 14) (size 15 to 20)
#    0.000    2.250    1.250    0.750    1.750    4.000 
#    0.000    1.250    0.000    0.000    0.000    0.000 
#    0.000    0.000    0.000    0.000    0.000    0.000 
#
# Total GULP energy -357029.919673 kJ/mol
# GULP energy per Si atom -5578.592495 kJ/mol
# Density = 2.228025 g / cm^3
# Si number density = 22.331080 Si / 1000 Ang^3
#
#
#
# Elastic Constant Matrix: (Units=GPa)
#
#
# Indices 1 2 3 4 5 6 
#
# 1 102.8525 17.8672 -14.8518 0.0000 0.0000 0.0000
# 2 17.8672 66.6435 -9.6500 0.0000 0.0000 0.0000
# 3 -14.8518 -9.6500 44.0563 0.0000 0.0000 0.0000
# 4 0.0000 0.0000 0.0000 -20.3867 0.0000 0.0000
# 5 0.0000 0.0000 0.0000 0.0000 -9.0067 0.0000
# 6 0.0000 0.0000 0.0000 0.0000 0.0000 28.2466
#
#
#
# Elastic Compliance Matrix: (Units=1/GPa)
#
#
# Indices 1 2 3 4 5 6 
#
# 1 0.010578 -0.002396 0.003041 0.000000 0.000000 0.000000
# 2 -0.002396 0.016039 0.002706 0.000000 0.000000 0.000000
# 3 0.003041 0.002706 0.024316 0.000000 0.000000 0.000000
# 4 0.000000 0.000000 0.000000 -0.049052 0.000000 0.000000
# 5 0.000000 0.000000 0.000000 0.000000 -0.111029 0.000000
# 6 0.000000 0.000000 0.000000 0.000000 0.000000 0.035403
#
#
# Mechanical properties :
#
#
# Convention : Reuss Voigt Hill
#
# Bulk Modulus (GPa) = 17.35033 22.25368 19.80200
# Shear Modulus (GPa) = -81.65285 14.44976 -33.60154
#
# Velocity S-wave (km/s) = -6.05343 2.54652 -3.88325
# Velocity P-wave (km/s) = 6.40877 4.31663 3.34955
#
# Compressibility (1/GPa) = 0.05763579
#
# Stress axis : x y z
#
# Youngs Moduli (GPa) = 94.53612 62.34700 41.12504
#
# Poissons Ratio (x) = 0.14936 -0.12507
# Poissons Ratio (y) = 0.22647 -0.11127
# Poissons Ratio (z) = -0.28750 -0.16869
#
# Static dielectric constant tensor:
#      x y z
#    x 1.824080 0.000000 0.000000 
#    y 0.000000 1.853090 0.000000 
#    z 0.000000 0.000000 1.859060 
# 
# From -- ./inp_files/6552.got.cif
#   From: 2010.05.17/outbox.cif.g08.bks.cpg/sg55_4_cif.got.tgz:6552.got - 2010.06.03 13:27:54.
