data_PCOD9426313
_publ_section_title
;
Structure prediction by ZEFSAII (Michael W. Deem and Ramdas Pophale) SiO2 
 PCOD9426313
Probable space group: P B A M
;
_chemical_formula_sum "Si O2"
_cell_formula_units_Z 48
_cell_length_a 12.070109
_cell_length_b 13.366156
_cell_length_c 13.290578
_cell_angle_alpha 90.000000
_cell_angle_beta 90.000000
_cell_angle_gamma 90.000000
_cell_volume 2144.181705
_symmetry_space_group_name_H-M "P B A M"
_symmetry_group_IT_number 55
_symmetry_cell_setting 'orthorhombic'
loop_
_space_group_symop_operation_xyz
x,y,z
-x,-y,z
1/2+x,1/2-y,-z
1/2-x,1/2+y,-z
-x,-y,-z
x,y,-z
1/2-x,1/2+y,z
1/2+x,1/2-y,z
loop_
_atom_site_type_symbol
_atom_site_label
_atom_site_fract_x
_atom_site_fract_y
_atom_site_fract_z
Si Si1 0.095756 0.276792 0.388723
Si Si2 0.382867 0.954446 0.773295
Si Si3 0.921868 0.098602 0.388420
Si Si4 0.817008 0.159157 0.182818
Si Si5 0.953646 0.888868 0.892699
Si Si6 0.735939 0.359919 0.732531
O O1 0.104065 0.320263 0.500000
O O2 0.092939 0.363240 0.304757
O O3 0.196022 0.198832 0.366586
O O4 0.991445 0.201726 0.385365
O O5 0.291713 0.904671 0.849734
O O6 0.500000 0.000000 0.810922
O O7 0.318663 0.048152 0.722343
O O8 0.869061 0.091674 0.500000
O O9 0.845879 0.107667 0.290916
O O10 0.000000 0.000000 0.380250
O O11 0.787983 0.272838 0.201400
O O12 0.930474 0.166285 0.122138
O O13 0.873626 0.884657 0.797657
O O14 0.899947 0.862491 0.000000
O O15 0.000000 0.000000 0.897204
#
# Coordination Sequence:
#
# PCOD9426313 Si02
#       6
#     8   8   8   8   8   8
#     4  10  22  39  62  97 134 175 222 270 321 384
#     4  11  24  40  60  91 132 180 213 258 326 392
#     4  10  19  35  64  97 130 171 223 274 318 378
#     4  11  22  39  68  94 131 170 212 268 330 388
#     4  11  23  44  73 100 123 159 223 279 333 396
#     4  11  23  40  70  93 131 176 214 271 330 394
#
# _framework density 22.386163
#
# number of rings (size 3 to 8) (size 9 to 14) (size 15 to 20)
#    0.000    1.333    3.333    2.500    2.333    4.333 
#    0.000    0.000    0.000    1.000    0.000    0.000 
#    0.000    0.000    0.000    0.000    0.000    0.000 
#
# Total GULP energy -267705.813953 kJ/mol
# GULP energy per Si atom -5577.204457 kJ/mol
# Density = 2.233521 g / cm^3
# Si number density = 22.386163 Si / 1000 Ang^3
#
#
#
# Elastic Constant Matrix: (Units=GPa)
#
#
# Indices 1 2 3 4 5 6 
#
# 1 84.9367 28.5968 6.8054 0.0000 0.0000 0.0000
# 2 28.5968 107.1372 -3.3218 0.0000 0.0000 0.0000
# 3 6.8054 -3.3218 57.7679 0.0000 0.0000 0.0000
# 4 0.0000 0.0000 0.0000 -3.7930 0.0000 0.0000
# 5 0.0000 0.0000 0.0000 0.0000 3.5029 0.0000
# 6 0.0000 0.0000 0.0000 0.0000 0.0000 46.0871
#
#
#
# Elastic Compliance Matrix: (Units=1/GPa)
#
#
# Indices 1 2 3 4 5 6 
#
# 1 0.013110 -0.003554 -0.001749 0.000000 0.000000 0.000000
# 2 -0.003554 0.010314 0.001012 0.000000 0.000000 0.000000
# 3 -0.001749 0.001012 0.017575 0.000000 0.000000 0.000000
# 4 0.000000 0.000000 0.000000 -0.263646 0.000000 0.000000
# 5 0.000000 0.000000 0.000000 0.000000 0.285476 0.000000
# 6 0.000000 0.000000 0.000000 0.000000 0.000000 0.021698
#
#
# Mechanical properties :
#
#
# Convention : Reuss Voigt Hill
#
# Bulk Modulus (GPa) = 30.84768 34.88917 32.86842
# Shear Modulus (GPa) = 48.11691 23.67684 35.89688
#
# Velocity S-wave (km/s) = 4.64120 3.25569 4.00875
# Velocity P-wave (km/s) = 6.52155 5.45451 6.01175
#
# Compressibility (1/GPa) = 0.03241735
#
# Stress axis : x y z
#
# Youngs Moduli (GPa) = 76.27767 96.95850 56.89949
#
# Poissons Ratio (x) = 0.34454 0.09950
# Poissons Ratio (y) = 0.27105 -0.05756
# Poissons Ratio (z) = 0.13339 -0.09809
#
# Static dielectric constant tensor:
#      x y z
#    x 1.843380 0.000000 0.000000 
#    y 0.000000 1.798380 0.000000 
#    z 0.000000 0.000000 1.843190 
# 
# From -- ./inp_files/18289.got.cif
#   From: 2010.05.17/outbox.cif.g08.bks.cpg/sg55_10_cif.got.tgz:18289.got - 2010.06.03 13:27:54.
