data_PCOD9426239
_publ_section_title
;
Structure prediction by ZEFSAII (Michael W. Deem and Ramdas Pophale) SiO2 
 PCOD9426239
Probable space group: P B A M
;
_chemical_formula_sum "Si O2"
_cell_formula_units_Z 48
_cell_length_a 9.709817
_cell_length_b 29.253473
_cell_length_c 7.986516
_cell_angle_alpha 90.000000
_cell_angle_beta 90.000000
_cell_angle_gamma 90.000000
_cell_volume 2268.536881
_symmetry_space_group_name_H-M "P B A M"
_symmetry_group_IT_number 55
_symmetry_cell_setting 'orthorhombic'
loop_
_space_group_symop_operation_xyz
x,y,z
-x,-y,z
1/2+x,1/2-y,-z
1/2-x,1/2+y,-z
-x,-y,-z
x,y,-z
1/2-x,1/2+y,z
1/2+x,1/2-y,z
loop_
_atom_site_type_symbol
_atom_site_label
_atom_site_fract_x
_atom_site_fract_y
_atom_site_fract_z
Si Si1 0.188001 0.222686 0.698495
Si Si2 0.190362 0.380768 0.298758
Si Si3 0.402326 0.541542 0.704043
Si Si4 0.507525 0.640100 0.295070
Si Si5 0.005979 0.696674 0.805895
Si Si6 0.649301 0.015281 0.295109
O O1 0.168138 0.227525 0.500000
O O2 0.350202 0.213692 0.726260
O O3 0.095061 0.180015 0.759323
O O4 0.117580 0.267284 0.776445
O O5 0.198005 0.382462 0.500000
O O6 0.332946 0.357012 0.240989
O O7 0.185964 0.433369 0.239216
O O8 0.055816 0.351515 0.255572
O O9 0.500000 0.500000 0.755397
O O10 0.406727 0.543350 0.500000
O O11 0.450751 0.590915 0.761227
O O12 0.253711 0.524251 0.756994
O O13 0.506627 0.640858 0.500000
O O14 0.035441 0.692871 0.000000
O O15 0.653004 0.016653 0.500000
O O16 0.500000 0.000000 0.241038
#
# Coordination Sequence:
#
# PCOD9426239 Si02
#       6
#     8   8   8   8   8   8
#     4  11  23  41  65  91 116 151 200 253 299 356
#     4  10  19  35  58  88 121 157 201 249 298 356
#     4   9  14  25  44  75 119 154 183 231 296 351
#     4   9  18  31  54  87 119 150 189 243 301 351
#     4  12  26  43  62  87 121 158 195 243 307 371
#     4   9  17  26  45  81 122 156 192 244 302 353
#
# _framework density 21.159012000000001
#
# number of rings (size 3 to 8) (size 9 to 14) (size 15 to 20)
#    0.000    2.000    1.667    3.000    2.333    1.333 
#    0.000    0.833    0.000    0.500    0.000    1.167 
#    0.000    0.000    0.000    0.000    0.000    0.000 
#
# Total GULP energy -267971.405405 kJ/mol
# GULP energy per Si atom -5582.737613 kJ/mol
# Density = 2.111085 g / cm^3
# Si number density = 21.159012 Si / 1000 Ang^3
#
#
#
# Elastic Constant Matrix: (Units=GPa)
#
#
# Indices 1 2 3 4 5 6 
#
# 1 107.7048 7.8354 -6.0465 0.0000 0.0000 0.0000
# 2 7.8354 73.9134 -0.6259 0.0000 0.0000 0.0000
# 3 -6.0465 -0.6259 15.8410 0.0000 0.0000 0.0000
# 4 0.0000 0.0000 0.0000 -24.7593 0.0000 0.0000
# 5 0.0000 0.0000 0.0000 0.0000 5.5976 0.0000
# 6 0.0000 0.0000 0.0000 0.0000 0.0000 39.7428
#
#
#
# Elastic Compliance Matrix: (Units=1/GPa)
#
#
# Indices 1 2 3 4 5 6 
#
# 1 0.009559 -0.000983 0.003610 0.000000 0.000000 0.000000
# 2 -0.000983 0.013635 0.000164 0.000000 0.000000 0.000000
# 3 0.003610 0.000164 0.064512 0.000000 0.000000 0.000000
# 4 0.000000 0.000000 0.000000 -0.040389 0.000000 0.000000
# 5 0.000000 0.000000 0.000000 0.000000 0.178648 0.000000
# 6 0.000000 0.000000 0.000000 0.000000 0.000000 0.025162
#
#
# Mechanical properties :
#
#
# Convention : Reuss Voigt Hill
#
# Bulk Modulus (GPa) = 10.71962 22.19834 16.45898
# Shear Modulus (GPa) = 18.07397 17.20265 17.63831
#
# Velocity S-wave (km/s) = 2.92584 2.85444 2.89036
# Velocity P-wave (km/s) = 4.06094 4.62361 4.35138
#
# Compressibility (1/GPa) = 0.09328686
#
# Stress axis : x y z
#
# Youngs Moduli (GPa) = 104.61588 73.34115 15.50105
#
# Poissons Ratio (x) = 0.07207 -0.05596
# Poissons Ratio (y) = 0.10281 -0.00254
# Poissons Ratio (z) = -0.37764 -0.01200
#
# Static dielectric constant tensor:
#      x y z
#    x 1.843920 0.000000 0.000000 
#    y 0.000000 1.768050 0.000000 
#    z 0.000000 0.000000 1.766290 
# 
# From -- ./inp_files/2878.got.cif
#   From: 2010.05.17/outbox.cif.g08.bks.cpg/sg55_2_cif.got.tgz:2878.got - 2010.06.03 13:27:54.
