data_PCOD9426517
_publ_section_title
;
Structure prediction by ZEFSAII (Michael W. Deem and Ramdas Pophale) SiO2 
 PCOD9426517
Probable space group: P B A M
;
_chemical_formula_sum "Si O2"
_cell_formula_units_Z 36
_cell_length_a 23.239404
_cell_length_b 5.472692
_cell_length_c 11.670772
_cell_angle_alpha 90.000000
_cell_angle_beta 90.000000
_cell_angle_gamma 90.000000
_cell_volume 1484.313296
_symmetry_space_group_name_H-M "P B A M"
_symmetry_group_IT_number 55
_symmetry_cell_setting 'orthorhombic'
loop_
_space_group_symop_operation_xyz
x,y,z
-x,-y,z
1/2+x,1/2-y,-z
1/2-x,1/2+y,-z
-x,-y,-z
x,y,-z
1/2-x,1/2+y,z
1/2+x,1/2-y,z
loop_
_atom_site_type_symbol
_atom_site_label
_atom_site_fract_x
_atom_site_fract_y
_atom_site_fract_z
Si Si1 0.377555 0.500345 0.168621
Si Si2 0.056400 0.844718 0.634036
Si Si3 0.720507 0.397507 0.000000
Si Si4 0.099915 0.494173 0.208246
Si Si5 0.713093 0.033930 0.633908
O O1 0.388229 0.471673 0.305361
O O2 0.399243 0.235660 0.130794
O O3 0.412324 0.745916 0.143236
O O4 0.316474 0.538073 0.112162
O O5 0.062045 0.837682 0.500000
O O6 0.058470 0.576489 0.689034
O O7 0.000000 0.000000 0.664762
O O8 0.768793 0.607514 0.000000
O O9 0.162065 0.468711 0.272011
O O10 0.692212 0.033803 0.500000
O O11 0.749397 0.781921 0.648175
#
# Coordination Sequence:
#
# PCOD9426517 Si02
#       5
#     8   8   4   8   8
#     4  10  24  41  65  97 129 167 223 274 327 392
#     4   9  21  42  68  98 136 179 220 271 337 401
#     4  12  26  46  75  99 131 177 224 276 336 402
#     4  10  21  38  60  90 130 163 216 266 322 389
#     4  10  20  31  47  75 115 159 196 239 303 372
#
# _framework density 24.253639
#
# number of rings (size 3 to 8) (size 9 to 14) (size 15 to 20)
#    1.333    0.667    0.000    3.333    0.000    8.000 
#    0.000    2.778    0.000    2.667    0.000    0.000 
#    0.000    0.000    0.000    0.000    0.000    0.000 
#
# Total GULP energy -200649.849977 kJ/mol
# GULP energy per Si atom -5573.606944 kJ/mol
# Density = 2.419844 g / cm^3
# Si number density = 24.253639 Si / 1000 Ang^3
#
#
#
# Elastic Constant Matrix: (Units=GPa)
#
#
# Indices 1 2 3 4 5 6 
#
# 1 71.0884 15.4873 44.5030 0.0000 0.0000 0.0000
# 2 15.4873 193.8628 22.2708 0.0000 0.0000 0.0000
# 3 44.5030 22.2708 92.4200 0.0000 0.0000 0.0000
# 4 0.0000 0.0000 0.0000 -3.3128 0.0000 0.0000
# 5 0.0000 0.0000 0.0000 0.0000********** 0.0000
# 6 0.0000 0.0000 0.0000 0.0000 0.0000 41.2056
#
#
#
# Elastic Compliance Matrix: (Units=1/GPa)
#
#
# Indices 1 2 3 4 5 6 
#
# 1 0.020186 -0.000510 -0.009597 0.000000 0.000000 0.000000
# 2 -0.000510 0.005318 -0.001036 0.000000 0.000000 0.000000
# 3 -0.009597 -0.001036 0.015691 0.000000 0.000000 0.000000
# 4 0.000000 0.000000 0.000000 -0.301856 0.000000 0.000000
# 5 0.000000 0.000000 0.000000 0.000000 -0.000031 0.000000
# 6 0.000000 0.000000 0.000000 0.000000 0.000000 0.024269
#
#
# Mechanical properties :
#
#
# Convention : Reuss Voigt Hill
#
# Bulk Modulus (GPa) = 52.88537 57.98816 55.43676
# Shear Modulus (GPa) = -24.05778 -6372.97212 -3198.51495
#
# Velocity S-wave (km/s) = -3.15290 -51.31608 -36.35437
# Velocity P-wave (km/s) = 2.93225 59.05217 41.70468
#
# Compressibility (1/GPa) = 0.01890882
#
# Stress axis : x y z
#
# Youngs Moduli (GPa) = 49.53850 188.03929 63.72986
#
# Poissons Ratio (x) = 0.09592 0.61164
# Poissons Ratio (y) = 0.02527 0.06602
# Poissons Ratio (z) = 0.47544 0.19479
#
# Static dielectric constant tensor:
#      x y z
#    x 1.959740 0.000000 0.000000 
#    y 0.000000 2.073620 0.000000 
#    z 0.000000 0.000000 1.892190 
# 
# From -- ./inp_files/19618.got.cif
#   From: 2010.05.17/outbox.cif.g08.bks.cpg/sg55_10_cif.got.tgz:19618.got - 2010.06.03 13:27:54.
