data_PCOD9426806
_publ_section_title
;
Structure prediction by ZEFSAII (Michael W. Deem and Ramdas Pophale) SiO2 
 PCOD9426806
Probable space group: P B A M
;
_chemical_formula_sum "Si O2"
_cell_formula_units_Z 40
_cell_length_a 18.998323
_cell_length_b 4.956628
_cell_length_c 18.943136
_cell_angle_alpha 90.000000
_cell_angle_beta 90.000000
_cell_angle_gamma 90.000000
_cell_volume 1783.830027
_symmetry_space_group_name_H-M "P B A M"
_symmetry_group_IT_number 55
_symmetry_cell_setting 'orthorhombic'
loop_
_space_group_symop_operation_xyz
x,y,z
-x,-y,z
1/2+x,1/2-y,-z
1/2-x,1/2+y,-z
-x,-y,-z
x,y,-z
1/2-x,1/2+y,z
1/2+x,1/2-y,z
loop_
_atom_site_type_symbol
_atom_site_label
_atom_site_fract_x
_atom_site_fract_y
_atom_site_fract_z
Si Si1 0.703174 0.641597 0.623899
Si Si2 0.296166 0.491644 0.922991
Si Si3 0.859035 0.186377 0.223999
Si Si4 0.584828 0.032826 0.423247
Si Si5 0.069091 0.311247 0.270233
O O1 0.763371 0.858212 0.603392
O O2 0.692703 0.642247 0.709314
O O3 0.630721 0.761843 0.591128
O O4 0.226798 0.302258 0.921490
O O5 0.335004 0.405303 0.852454
O O6 0.330439 0.438953 0.000000
O O7 0.924757 0.990628 0.242633
O O8 0.877088 0.501431 0.226798
O O9 0.605382 0.142689 0.500000
O O10 0.500000 0.000000 0.425996
O O11 0.594285 0.199977 0.351588
O O12 0.000000 0.500000 0.269220
#
# Coordination Sequence:
#
# PCOD9426806 Si02
#       5
#     8   8   8   8   8
#     4  11  22  37  59  88 119 153 196 250 309 364
#     4  10  20  34  55  84 115 147 186 234 290 355
#     4  11  20  36  59  83 117 154 192 241 300 365
#     4   9  20  40  62  85 117 159 206 253 304 365
#     4  10  21  37  59  85 112 151 202 250 294 349
#
# _framework density 22.423660000000002
#
# number of rings (size 3 to 8) (size 9 to 14) (size 15 to 20)
#    0.000    1.800    0.000    5.400    0.000    0.800 
#    0.000   11.000    0.000   31.200    0.000    0.000 
#    0.000    0.000    0.000    0.000    0.000    0.000 
#
# Total GULP energy -223146.989999 kJ/mol
# GULP energy per Si atom -5578.674750 kJ/mol
# Density = 2.237262 g / cm^3
# Si number density = 22.423660 Si / 1000 Ang^3
#
#
#
# Elastic Constant Matrix: (Units=GPa)
#
#
# Indices 1 2 3 4 5 6 
#
# 1 92.5983 19.4595 34.7472 0.0000 0.0000 0.0000
# 2 19.4595 70.6339 13.7607 0.0000 0.0000 0.0000
# 3 34.7472 13.7607 157.6771 0.0000 0.0000 0.0000
# 4 0.0000 0.0000 0.0000 17.2716 0.0000 0.0000
# 5 0.0000 0.0000 0.0000 0.0000 20.0310 0.0000
# 6 0.0000 0.0000 0.0000 0.0000 0.0000 29.6999
#
#
#
# Elastic Compliance Matrix: (Units=1/GPa)
#
#
# Indices 1 2 3 4 5 6 
#
# 1 0.012337 -0.002919 -0.002464 0.000000 0.000000 0.000000
# 2 -0.002919 0.015093 -0.000674 0.000000 0.000000 0.000000
# 3 -0.002464 -0.000674 0.006944 0.000000 0.000000 0.000000
# 4 0.000000 0.000000 0.000000 0.057899 0.000000 0.000000
# 5 0.000000 0.000000 0.000000 0.000000 0.049923 0.000000
# 6 0.000000 0.000000 0.000000 0.000000 0.000000 0.033670
#
#
# Mechanical properties :
#
#
# Convention : Reuss Voigt Hill
#
# Bulk Modulus (GPa) = 44.92268 50.76044 47.84156
# Shear Modulus (GPa) = 25.58861 30.26329 27.92595
#
# Velocity S-wave (km/s) = 3.38175 3.67770 3.53282
# Velocity P-wave (km/s) = 5.94352 6.38123 6.16626
#
# Compressibility (1/GPa) = 0.02226047
#
# Stress axis : x y z
#
# Youngs Moduli (GPa) = 81.05463 66.25607 144.01153
#
# Poissons Ratio (x) = 0.19339 0.35485
# Poissons Ratio (y) = 0.23659 0.09706
# Poissons Ratio (z) = 0.19972 0.04465
#
# Static dielectric constant tensor:
#      x y z
#    x 1.925620 0.000000 0.000000 
#    y 0.000000 1.814310 0.000000 
#    z 0.000000 0.000000 1.814800 
# 
# From -- ./inp_files/21707.got.cif
#   From: 2010.05.17/outbox.cif.g08.bks.cpg/sg55_11_cif.got.tgz:21707.got - 2010.06.03 13:27:54.
