data_PCOD9426575
_publ_section_title
;
Structure prediction by ZEFSAII (Michael W. Deem and Ramdas Pophale) SiO2 
 PCOD9426575
Probable space group: P B A M
;
_chemical_formula_sum "Si O2"
_cell_formula_units_Z 40
_cell_length_a 26.264133
_cell_length_b 9.886478
_cell_length_c 8.959045
_cell_angle_alpha 90.000000
_cell_angle_beta 90.000000
_cell_angle_gamma 90.000000
_cell_volume 2326.303592
_symmetry_space_group_name_H-M "P B A M"
_symmetry_group_IT_number 55
_symmetry_cell_setting 'orthorhombic'
loop_
_space_group_symop_operation_xyz
x,y,z
-x,-y,z
1/2+x,1/2-y,-z
1/2-x,1/2+y,-z
-x,-y,-z
x,y,-z
1/2-x,1/2+y,z
1/2+x,1/2-y,z
loop_
_atom_site_type_symbol
_atom_site_label
_atom_site_fract_x
_atom_site_fract_y
_atom_site_fract_z
Si Si1 0.720823 0.502416 0.677890
Si Si2 0.135131 0.776890 0.322014
Si Si3 0.668139 0.998854 0.821826
Si Si4 0.143199 0.200226 0.178090
Si Si5 0.441661 0.483338 0.820895
O O1 0.728420 0.495130 0.500000
O O2 0.774489 0.508086 0.759871
O O3 0.811483 0.873784 0.734014
O O4 0.685490 0.632692 0.712330
O O5 0.131154 0.767969 0.500000
O O6 0.141521 0.630166 0.251241
O O7 0.087729 0.859978 0.256258
O O8 0.641359 0.141643 0.786212
O O9 0.669270 0.982427 0.000000
O O10 0.091835 0.117186 0.211275
O O11 0.153118 0.186963 0.000000
O O12 0.500000 0.500000 0.773589
O O13 0.440785 0.462586 0.000000
#
# Coordination Sequence:
#
# PCOD9426575 Si02
#       5
#     8   8   8   8   8
#     4  10  20  33  50  73 102 137 172 204 243 294
#     4  10  21  35  52  76 105 136 171 209 250 301
#     4  11  21  32  49  74 105 137 167 204 248 296
#     4   9  19  34  52  76 102 131 170 210 251 300
#     4   9  18  36  60  79  97 127 169 216 262 307
#
# _framework density 17.194661
#
# number of rings (size 3 to 8) (size 9 to 14) (size 15 to 20)
#    0.000    2.200    0.000    3.000    0.000    7.600 
#    0.000    1.000    0.000    6.000    0.000    0.000 
#    0.000    0.000    0.000    0.000    0.000    0.000 
#
# Total GULP energy -223326.850446 kJ/mol
# GULP energy per Si atom -5583.171261 kJ/mol
# Density = 1.715553 g / cm^3
# Si number density = 17.194661 Si / 1000 Ang^3
#
#
#
# Elastic Constant Matrix: (Units=GPa)
#
#
# Indices 1 2 3 4 5 6 
#
# 1 116.5110 65.9978 42.3415 0.0000 0.0000 0.0000
# 2 65.9978 163.7120 61.0300 0.0000 0.0000 0.0000
# 3 42.3415 61.0300 42.5527 0.0000 0.0000 0.0000
# 4 0.0000 0.0000 0.0000 22.3929 0.0000 0.0000
# 5 0.0000 0.0000 0.0000 0.0000 11.7815 0.0000
# 6 0.0000 0.0000 0.0000 0.0000 0.0000 3.0915
#
#
#
# Elastic Compliance Matrix: (Units=1/GPa)
#
#
# Indices 1 2 3 4 5 6 
#
# 1 0.013511 -0.000935 -0.012103 0.000000 0.000000 0.000000
# 2 -0.000935 0.013191 -0.017989 0.000000 0.000000 0.000000
# 3 -0.012103 -0.017989 0.061343 0.000000 0.000000 0.000000
# 4 0.000000 0.000000 0.000000 0.044657 0.000000 0.000000
# 5 0.000000 0.000000 0.000000 0.000000 0.084879 0.000000
# 6 0.000000 0.000000 0.000000 0.000000 0.000000 0.323470
#
#
# Mechanical properties :
#
#
# Convention : Reuss Voigt Hill
#
# Bulk Modulus (GPa) = 38.47368 73.50161 55.98764
# Shear Modulus (GPa) = 8.17302 17.68026 12.92664
#
# Velocity S-wave (km/s) = 2.18256 3.21010 2.74484
# Velocity P-wave (km/s) = 5.36427 7.52192 6.53278
#
# Compressibility (1/GPa) = 0.02599180
#
# Stress axis : x y z
#
# Youngs Moduli (GPa) = 74.01496 75.80794 16.30165
#
# Poissons Ratio (x) = 0.07086 0.19730
# Poissons Ratio (y) = 0.06919 0.29325
# Poissons Ratio (z) = 0.89581 1.36371
#
# Static dielectric constant tensor:
#      x y z
#    x 1.552450 0.000000 0.000000 
#    y 0.000000 1.578850 0.000000 
#    z 0.000000 0.000000 1.570530 
# 
# From -- ./inp_files/10001.got.cif
#   From: 2010.05.17/outbox.cif.g08.bks.cpg/sg55_6_cif.got.tgz:10001.got - 2010.06.03 13:27:54.
