data_PCOD9426899
_publ_section_title
;
Structure prediction by ZEFSAII (Michael W. Deem and Ramdas Pophale) SiO2 
 PCOD9426899
Probable space group: P B A M
;
_chemical_formula_sum "Si O2"
_cell_formula_units_Z 64
_cell_length_a 12.032224
_cell_length_b 34.250171
_cell_length_c 8.150219
_cell_angle_alpha 90.000000
_cell_angle_beta 90.000000
_cell_angle_gamma 90.000000
_cell_volume 3358.751947
_symmetry_space_group_name_H-M "P B A M"
_symmetry_group_IT_number 55
_symmetry_cell_setting 'orthorhombic'
loop_
_space_group_symop_operation_xyz
x,y,z
-x,-y,z
1/2+x,1/2-y,-z
1/2-x,1/2+y,-z
-x,-y,-z
x,y,-z
1/2-x,1/2+y,z
1/2+x,1/2-y,z
loop_
_atom_site_type_symbol
_atom_site_label
_atom_site_fract_x
_atom_site_fract_y
_atom_site_fract_z
Si Si1 0.193288 0.167869 0.194207
Si Si2 0.087348 0.944835 0.698123
Si Si3 0.157120 0.030215 0.700663
Si Si4 0.100569 0.714692 0.303781
Si Si5 0.466575 0.861018 0.697430
Si Si6 0.714519 0.632507 0.194910
Si Si7 0.453168 0.301846 0.198828
Si Si8 0.824886 0.407170 0.305635
O O1 0.281766 0.202268 0.226751
O O2 0.071528 0.180436 0.252235
O O3 0.242494 0.129581 0.280963
O O4 0.188534 0.159865 0.000000
O O5 0.088293 0.944072 0.500000
O O6 0.147841 0.906506 0.760030
O O7 0.958449 0.948880 0.749935
O O8 0.147684 0.985062 0.750600
O O9 0.158530 0.030524 0.500000
O O10 0.262553 0.054717 0.761344
O O11 0.111635 0.711963 0.500000
O O12 0.012408 0.681461 0.249270
O O13 0.063737 0.757810 0.256732
O O14 0.472915 0.861578 0.500000
O O15 0.340528 0.868312 0.744554
O O16 0.556036 0.892894 0.761042
O O17 0.645473 0.669878 0.258245
O O18 0.717692 0.635725 0.000000
O O19 0.453499 0.301649 0.000000
O O20 0.839205 0.413497 0.500000
#
# Coordination Sequence:
#
# PCOD9426899 Si02
#       8
#     8   8   8   8   8   8   8   8
#     4  10  20  35  54  77 107 136 169 213 264 322
#     4   9  17  32  55  83 112 141 175 219 271 322
#     4   8  15  30  56  85 110 138 175 221 271 321
#     4  10  22  38  57  80 104 132 176 226 267 313
#     4   9  20  37  54  75 103 138 178 221 265 313
#     4  11  23  37  53  76 108 145 181 217 264 321
#     4  10  23  38  53  76 105 140 176 215 266 323
#     4   9  17  33  56  80 105 136 179 223 264 313
#
# _framework density 19.054697999999998
#
# number of rings (size 3 to 8) (size 9 to 14) (size 15 to 20)
#    0.000    2.500    0.000    3.375    1.750    4.500 
#    0.000    2.500    0.000    3.750    0.000    0.000 
#    0.000    0.000    0.000    0.000    0.000    0.000 
#
# Total GULP energy -357093.541375 kJ/mol
# GULP energy per Si atom -5579.586584 kJ/mol
# Density = 1.901133 g / cm^3
# Si number density = 19.054698 Si / 1000 Ang^3
#
#
#
# Elastic Constant Matrix: (Units=GPa)
#
#
# Indices 1 2 3 4 5 6 
#
# 1 78.1050 34.3051 9.9992 0.0000 0.0000 0.0000
# 2 34.3051 73.9262 -1.5454 0.0000 0.0000 0.0000
# 3 9.9992 -1.5454 5.2291 0.0000 0.0000 0.0000
# 4 0.0000 0.0000 0.0000 -30.4887 0.0000 0.0000
# 5 0.0000 0.0000 0.0000 0.0000 14.9373 0.0000
# 6 0.0000 0.0000 0.0000 0.0000 0.0000 15.2736
#
#
#
# Elastic Compliance Matrix: (Units=1/GPa)
#
#
# Indices 1 2 3 4 5 6 
#
# 1 0.024945 -0.012651 -0.051440 0.000000 0.000000 0.000000
# 2 -0.012651 0.020027 0.030110 0.000000 0.000000 0.000000
# 3 -0.051440 0.030110 0.298498 0.000000 0.000000 0.000000
# 4 0.000000 0.000000 0.000000 -0.032799 0.000000 0.000000
# 5 0.000000 0.000000 0.000000 0.000000 0.066946 0.000000
# 6 0.000000 0.000000 0.000000 0.000000 0.000000 0.065472
#
#
# Mechanical properties :
#
#
# Convention : Reuss Voigt Hill
#
# Bulk Modulus (GPa) = 3.62963 26.97535 15.30249
# Shear Modulus (GPa) = 8.29342 7.57787 7.93564
#
# Velocity S-wave (km/s) = 2.08851 1.99638 2.04297
# Velocity P-wave (km/s) = 2.77936 4.41606 3.68961
#
# Compressibility (1/GPa) = 0.27551007
#
# Stress axis : x y z
#
# Youngs Moduli (GPa) = 40.08770 49.93215 3.35011
#
# Poissons Ratio (x) = 0.63170 0.17233
# Poissons Ratio (y) = 0.50715 -0.10087
# Poissons Ratio (z) = 2.06210 -1.50348
#
# Static dielectric constant tensor:
#      x y z
#    x 1.666130 0.000000 0.000000 
#    y 0.000000 1.650670 0.000000 
#    z 0.000000 0.000000 1.669160 
# 
# From -- ./inp_files/4694.got.cif
#   From: 2010.05.17/outbox.cif.g08.bks.cpg/sg55_3_cif.got.tgz:4694.got - 2010.06.03 13:27:54.
