data_PCOD9426260
_publ_section_title
;
Structure prediction by ZEFSAII (Michael W. Deem and Ramdas Pophale) SiO2 
 PCOD9426260
Probable space group: P B A M
;
_chemical_formula_sum "Si O2"
_cell_formula_units_Z 40
_cell_length_a 23.557490
_cell_length_b 8.104950
_cell_length_c 8.602265
_cell_angle_alpha 90.000000
_cell_angle_beta 90.000000
_cell_angle_gamma 90.000000
_cell_volume 1642.450057
_symmetry_space_group_name_H-M "P B A M"
_symmetry_group_IT_number 55
_symmetry_cell_setting 'orthorhombic'
loop_
_space_group_symop_operation_xyz
x,y,z
-x,-y,z
1/2+x,1/2-y,-z
1/2-x,1/2+y,-z
-x,-y,-z
x,y,-z
1/2-x,1/2+y,z
1/2+x,1/2-y,z
loop_
_atom_site_type_symbol
_atom_site_label
_atom_site_fract_x
_atom_site_fract_y
_atom_site_fract_z
Si Si1 0.936665 0.855217 0.183123
Si Si2 0.537618 0.830698 0.323610
Si Si3 0.364471 0.980573 0.176958
Si Si4 0.830608 0.043471 0.816221
Si Si5 0.734422 0.853063 0.321432
O O1 0.995141 0.811832 0.267280
O O2 0.898842 0.688338 0.194760
O O3 0.893567 0.995702 0.240672
O O4 0.947685 0.881331 0.000000
O O5 0.557344 0.803579 0.500000
O O6 0.589809 0.875150 0.212178
O O7 0.500000 0.000000 0.324157
O O8 0.311918 0.002792 0.291372
O O9 0.343729 0.994045 0.000000
O O10 0.788378 0.889781 0.785597
O O11 0.800169 0.191485 0.727782
O O12 0.833179 0.076112 0.000000
O O13 0.751647 0.848157 0.500000
#
# Coordination Sequence:
#
# PCOD9426260 Si02
#       5
#     8   8   8   8   8
#     4   9  19  35  58  85 112 147 191 234 276 332
#     4   9  17  30  52  83 117 150 185 229 281 334
#     4  10  19  35  59  85 115 152 193 234 279 337
#     4  11  23  41  62  84 113 151 193 234 284 346
#     4  12  25  40  59  86 117 148 188 239 292 340
#
# _framework density 24.353860999999998
#
# number of rings (size 3 to 8) (size 9 to 14) (size 15 to 20)
#    0.000    1.800    0.000    4.800    0.000    6.400 
#    0.000    1.000    0.000    6.000    0.000    0.000 
#    0.000    0.000    0.000    0.000    0.000    0.000 
#
# Total GULP energy -224041.423353 kJ/mol
# GULP energy per Si atom -5601.035584 kJ/mol
# Density = 2.429843 g / cm^3
# Si number density = 24.353861 Si / 1000 Ang^3
#
#
#
# Elastic Constant Matrix: (Units=GPa)
#
#
# Indices 1 2 3 4 5 6 
#
# 1 112.8882 20.9382 2.7757 0.0000 0.0000 0.0000
# 2 20.9382 89.2857 -6.7264 0.0000 0.0000 0.0000
# 3 2.7757 -6.7264 60.8756 0.0000 0.0000 0.0000
# 4 0.0000 0.0000 0.0000 23.0061 0.0000 0.0000
# 5 0.0000 0.0000 0.0000 0.0000 21.5620 0.0000
# 6 0.0000 0.0000 0.0000 0.0000 0.0000 49.6323
#
#
#
# Elastic Compliance Matrix: (Units=1/GPa)
#
#
# Indices 1 2 3 4 5 6 
#
# 1 0.009288 -0.002229 -0.000670 0.000000 0.000000 0.000000
# 2 -0.002229 0.011829 0.001409 0.000000 0.000000 0.000000
# 3 -0.000670 0.001409 0.016613 0.000000 0.000000 0.000000
# 4 0.000000 0.000000 0.000000 0.043467 0.000000 0.000000
# 5 0.000000 0.000000 0.000000 0.000000 0.046378 0.000000
# 6 0.000000 0.000000 0.000000 0.000000 0.000000 0.020148
#
#
# Mechanical properties :
#
#
# Convention : Reuss Voigt Hill
#
# Bulk Modulus (GPa) = 28.77652 33.00273 30.88963
# Shear Modulus (GPa) = 30.80986 35.24422 33.02704
#
# Velocity S-wave (km/s) = 3.56067 3.80830 3.68656
# Velocity P-wave (km/s) = 5.36154 5.73744 5.55268
#
# Compressibility (1/GPa) = 0.03475055
#
# Stress axis : x y z
#
# Youngs Moduli (GPa) = 107.66414 84.53986 60.19337
#
# Poissons Ratio (x) = 0.18841 0.04031
# Poissons Ratio (y) = 0.23994 -0.08479
# Poissons Ratio (z) = 0.07211 -0.11908
#
# Static dielectric constant tensor:
#      x y z
#    x 1.912900 0.000000 0.000000 
#    y 0.000000 2.068050 0.000000 
#    z 0.000000 0.000000 1.819170 
# 
# From -- ./inp_files/2285.got.cif
#   From: 2010.05.17/outbox.cif.g08.bks.cpg/sg55_2_cif.got.tgz:2285.got - 2010.06.03 13:27:54.
