data_PCOD9426354
_publ_section_title
;
Structure prediction by ZEFSAII (Michael W. Deem and Ramdas Pophale) SiO2 
 PCOD9426354
Probable space group: P B A M
;
_chemical_formula_sum "Si O2"
_cell_formula_units_Z 64
_cell_length_a 22.856299
_cell_length_b 16.896676
_cell_length_c 7.924901
_cell_angle_alpha 90.000000
_cell_angle_beta 90.000000
_cell_angle_gamma 90.000000
_cell_volume 3060.560936
_symmetry_space_group_name_H-M "P B A M"
_symmetry_group_IT_number 55
_symmetry_cell_setting 'orthorhombic'
loop_
_space_group_symop_operation_xyz
x,y,z
-x,-y,z
1/2+x,1/2-y,-z
1/2-x,1/2+y,-z
-x,-y,-z
x,y,-z
1/2-x,1/2+y,z
1/2+x,1/2-y,z
loop_
_atom_site_type_symbol
_atom_site_label
_atom_site_fract_x
_atom_site_fract_y
_atom_site_fract_z
Si Si1 0.957860 0.253078 0.695338
Si Si2 0.341968 0.309356 0.191428
Si Si3 0.955616 0.430660 0.704268
Si Si4 0.510029 0.411246 0.305484
Si Si5 0.247908 0.205130 0.692280
Si Si6 0.712908 0.539141 0.199306
Si Si7 0.362123 0.620131 0.803288
Si Si8 0.820307 0.448806 0.203454
O O1 0.977305 0.253893 0.500000
O O2 0.888021 0.242821 0.707522
O O3 0.971181 0.340995 0.766085
O O4 0.981077 0.169127 0.769435
O O5 0.279083 0.268380 0.191272
O O6 0.328477 0.393607 0.274132
O O7 0.364577 0.315126 0.000000
O O8 0.957880 0.427791 0.500000
O O9 0.888504 0.450355 0.752573
O O10 0.000000 0.500000 0.760882
O O11 0.500000 0.500000 0.230574
O O12 0.489070 0.416304 0.500000
O O13 0.578697 0.393126 0.296698
O O14 0.251783 0.231137 0.500000
O O15 0.181191 0.187866 0.739417
O O16 0.287395 0.126517 0.717086
O O17 0.677346 0.458166 0.212324
O O18 0.779032 0.522595 0.258635
O O19 0.716989 0.559267 0.000000
O O20 0.376470 0.631700 0.000000
O O21 0.814691 0.441392 0.000000
#
# Coordination Sequence:
#
# PCOD9426354 Si02
#       8
#     8   8   8   8   8   8   8   8
#     4  10  21  37  57  82 116 153 197 243 283 340
#     4  11  20  34  57  84 113 144 185 234 287 346
#     4  10  21  38  58  79 110 153 197 243 293 340
#     4  10  21  37  57  84 120 159 194 235 289 348
#     4  11  21  35  56  81 112 147 183 229 285 347
#     4   8  18  34  54  82 114 143 176 228 288 342
#     4  10  20  37  58  81 111 149 190 233 283 338
#     4  10  19  36  59  83 110 143 185 236 289 343
#
# _framework density 20.911200000000001
#
# number of rings (size 3 to 8) (size 9 to 14) (size 15 to 20)
#    0.000    2.000    1.250    3.750    0.000    1.000 
#    2.250    6.875    0.000    0.000    0.000    0.000 
#    0.000    0.000    0.000    0.000    0.000    0.000 
#
# Total GULP energy -356657.044586 kJ/mol
# GULP energy per Si atom -5572.766322 kJ/mol
# Density = 2.086361 g / cm^3
# Si number density = 20.911200 Si / 1000 Ang^3
#
#
#
# Elastic Constant Matrix: (Units=GPa)
#
#
# Indices 1 2 3 4 5 6 
#
# 1 78.5799 29.2892 2.0897 0.0000 0.0000 0.0000
# 2 29.2892 103.5481 12.9916 0.0000 0.0000 0.0000
# 3 2.0897 12.9916 42.0145 0.0000 0.0000 0.0000
# 4 0.0000 0.0000 0.0000 14.7020 0.0000 0.0000
# 5 0.0000 0.0000 0.0000 0.0000 18.3009 0.0000
# 6 0.0000 0.0000 0.0000 0.0000 0.0000 26.5865
#
#
#
# Elastic Compliance Matrix: (Units=1/GPa)
#
#
# Indices 1 2 3 4 5 6 
#
# 1 0.014238 -0.004098 0.000559 0.000000 0.000000 0.000000
# 2 -0.004098 0.011226 -0.003268 0.000000 0.000000 0.000000
# 3 0.000559 -0.003268 0.024784 0.000000 0.000000 0.000000
# 4 0.000000 0.000000 0.000000 0.068018 0.000000 0.000000
# 5 0.000000 0.000000 0.000000 0.000000 0.054642 0.000000
# 6 0.000000 0.000000 0.000000 0.000000 0.000000 0.037613
#
#
# Mechanical properties :
#
#
# Convention : Reuss Voigt Hill
#
# Bulk Modulus (GPa) = 27.29553 34.76483 31.03018
# Shear Modulus (GPa) = 21.15540 23.90267 22.52903
#
# Velocity S-wave (km/s) = 3.18414 3.38458 3.28589
# Velocity P-wave (km/s) = 5.15749 5.65110 5.40993
#
# Compressibility (1/GPa) = 0.03663604
#
# Stress axis : x y z
#
# Youngs Moduli (GPa) = 70.23304 89.07645 40.34879
#
# Poissons Ratio (x) = 0.36499 -0.02255
# Poissons Ratio (y) = 0.28778 0.13184
# Poissons Ratio (z) = -0.03925 0.29106
#
# Static dielectric constant tensor:
#      x y z
#    x 1.750240 0.000000 0.000000 
#    y 0.000000 1.834710 0.000000 
#    z 0.000000 0.000000 1.771670 
# 
# From -- ./inp_files/9698.got.cif
#   From: 2010.05.17/outbox.cif.g08.bks.cpg/sg55_5_cif.got.tgz:9698.got - 2010.06.03 13:27:54.
