data_PCOD9426011
_publ_section_title
;
Structure prediction by ZEFSAII (Michael W. Deem and Ramdas Pophale) SiO2 
 PCOD9426011
Probable space group: P B A M
;
_chemical_formula_sum "Si O2"
_cell_formula_units_Z 48
_cell_length_a 6.901306
_cell_length_b 19.389517
_cell_length_c 16.445441
_cell_angle_alpha 90.000000
_cell_angle_beta 90.000000
_cell_angle_gamma 90.000000
_cell_volume 2200.613632
_symmetry_space_group_name_H-M "P B A M"
_symmetry_group_IT_number 55
_symmetry_cell_setting 'orthorhombic'
loop_
_space_group_symop_operation_xyz
x,y,z
-x,-y,z
1/2+x,1/2-y,-z
1/2-x,1/2+y,-z
-x,-y,-z
x,y,-z
1/2-x,1/2+y,z
1/2+x,1/2-y,z
loop_
_atom_site_type_symbol
_atom_site_label
_atom_site_fract_x
_atom_site_fract_y
_atom_site_fract_z
Si Si1 0.293675 0.252020 0.779935
Si Si2 0.541801 0.231634 0.092365
Si Si3 0.556513 0.071970 0.133061
Si Si4 0.709147 0.896061 0.287929
Si Si5 0.656100 0.592469 0.741081
Si Si6 0.766711 0.004360 0.590318
O O1 0.044100 0.249322 0.804957
O O2 0.292918 0.250163 0.886420
O O3 0.298874 0.186188 0.720016
O O4 0.294100 0.327024 0.739603
O O5 0.538064 0.146827 0.091558
O O6 0.543012 0.259546 0.000000
O O7 0.423873 0.077592 0.214268
O O8 0.770119 0.067299 0.171317
O O9 0.500000 0.000000 0.091730
O O10 0.928225 0.917193 0.265367
O O11 0.681117 0.932661 0.374639
O O12 0.759281 0.556586 0.665136
O O13 0.699439 0.022747 0.500000
O O14 0.000000 0.000000 0.584190
#
# Coordination Sequence:
#
# PCOD9426011 Si02
#       6
#     8   8   8   8   8   8
#     4  10  19  34  55  78 102 142 190 210 267 328
#     4  10  20  33  52  77 107 137 175 232 272 307
#     4  10  20  33  54  82 103 140 190 211 263 332
#     4  10  19  35  55  78 109 143 178 223 260 318
#     4  10  19  35  55  78 109 143 178 223 260 318
#     4   9  18  33  57  83 107 141 179 219 272 315
#
# _framework density 21.812097999999999
#
# number of rings (size 3 to 8) (size 9 to 14) (size 15 to 20)
#    0.000    2.167    3.333    0.500    0.000    0.333 
#    0.000    2.500    0.000    0.000    0.000    5.833 
#    0.000    0.000    0.000    0.000    0.000    0.000 
#
# Total GULP energy -267271.486788 kJ/mol
# GULP energy per Si atom -5568.155975 kJ/mol
# Density = 2.176245 g / cm^3
# Si number density = 21.812098 Si / 1000 Ang^3
#
#
#
# Elastic Constant Matrix: (Units=GPa)
#
#
# Indices 1 2 3 4 5 6 
#
# 1 126.5471 -5.1808 21.1431 0.0000 0.0000 0.0000
# 2 -5.1808 144.7345 44.6108 0.0000 0.0000 0.0000
# 3 21.1431 44.6108 122.0839 0.0000 0.0000 0.0000
# 4 0.0000 0.0000 0.0000 0.4770 0.0000 0.0000
# 5 0.0000 0.0000 0.0000 0.0000 17.0010 0.0000
# 6 0.0000 0.0000 0.0000 0.0000 0.0000 26.3117
#
#
#
# Elastic Compliance Matrix: (Units=1/GPa)
#
#
# Indices 1 2 3 4 5 6 
#
# 1 0.008224 0.000827 -0.001726 0.000000 0.000000 0.000000
# 2 0.000827 0.007869 -0.003019 0.000000 0.000000 0.000000
# 3 -0.001726 -0.003019 0.009593 0.000000 0.000000 0.000000
# 4 0.000000 0.000000 0.000000 2.096616 0.000000 0.000000
# 5 0.000000 0.000000 0.000000 0.000000 0.058820 0.000000
# 6 0.000000 0.000000 0.000000 0.000000 0.000000 0.038006
#
#
# Mechanical properties :
#
#
# Convention : Reuss Voigt Hill
#
# Bulk Modulus (GPa) = 56.02303 57.16795 56.59549
# Shear Modulus (GPa) = 2.23922 30.94410 16.59166
#
# Velocity S-wave (km/s) = 1.01431 3.77061 2.76100
# Velocity P-wave (km/s) = 5.20691 6.72479 6.01393
#
# Compressibility (1/GPa) = 0.01784980
#
# Stress axis : x y z
#
# Youngs Moduli (GPa) = 121.58841 127.07764 104.24148
#
# Poissons Ratio (x) = -0.10503 0.17996
# Poissons Ratio (y) = -0.10049 0.31467
# Poissons Ratio (z) = 0.20991 0.38360
#
# Static dielectric constant tensor:
#      x y z
#    x 2.146770 0.000000 0.000000 
#    y 0.000000 1.775810 0.000000 
#    z 0.000000 0.000000 1.729760 
# 
# From -- ./inp_files/17487.got.cif
#   From: 2010.05.17/outbox.cif.g08.bks.cpg/sg55_9_cif.got.tgz:17487.got - 2010.06.03 13:27:54.
