data_PCOD9426708
_publ_section_title
;
Structure prediction by ZEFSAII (Michael W. Deem and Ramdas Pophale) SiO2 
 PCOD9426708
Probable space group: P B A M
;
_chemical_formula_sum "Si O2"
_cell_formula_units_Z 40
_cell_length_a 30.007625
_cell_length_b 7.394392
_cell_length_c 8.061569
_cell_angle_alpha 90.000000
_cell_angle_beta 90.000000
_cell_angle_gamma 90.000000
_cell_volume 1788.766569
_symmetry_space_group_name_H-M "P B A M"
_symmetry_group_IT_number 55
_symmetry_cell_setting 'orthorhombic'
loop_
_space_group_symop_operation_xyz
x,y,z
-x,-y,z
1/2+x,1/2-y,-z
1/2-x,1/2+y,-z
-x,-y,-z
x,y,-z
1/2-x,1/2+y,z
1/2+x,1/2-y,z
loop_
_atom_site_type_symbol
_atom_site_label
_atom_site_fract_x
_atom_site_fract_y
_atom_site_fract_z
Si Si1 0.448207 0.466521 0.000000
Si Si2 0.111069 0.542302 0.312024
Si Si3 0.446969 0.035217 0.000000
Si Si4 0.794789 0.359810 0.693535
Si Si5 0.801177 0.973111 0.187850
Si Si6 0.105043 0.985233 0.318512
O O1 0.500000 0.500000 0.000000
O O2 0.441240 0.251592 0.000000
O O3 0.425518 0.539814 0.165665
O O4 0.100160 0.482543 0.500000
O O5 0.163610 0.506434 0.277249
O O6 0.108426 0.764274 0.314941
O O7 0.078637 0.473991 0.167362
O O8 0.500000 0.000000 0.000000
O O9 0.798604 0.303133 0.500000
O O10 0.745186 0.427722 0.724678
O O11 0.801365 0.190864 0.813200
O O12 0.846099 0.931815 0.287561
O O13 0.802535 0.902306 0.000000
O O14 0.088119 0.035007 0.500000
#
# Coordination Sequence:
#
# PCOD9426708 Si02
#       6
#     4   8   4   8   8   8
#     4  10  20  36  55  76 102 128 171 218 259 310
#     4   8  17  32  53  75 100 134 173 206 245 307
#     4  10  20  34  55  76  98 130 165 212 263 304
#     4  10  20  34  52  77 108 144 178 214 258 310
#     4  11  20  32  53  81 108 141 179 218 258 307
#     4   9  17  33  54  76 102 138 174 208 253 312
#
# _framework density 22.361778000000001
#
# number of rings (size 3 to 8) (size 9 to 14) (size 15 to 20)
#    0.000    2.400    1.000    3.600    5.600    0.800 
#    0.000    2.000    0.000    2.400    0.000    0.000 
#    0.000    0.000    0.000    0.000    0.000    0.000 
#
# Total GULP energy -223324.634674 kJ/mol
# GULP energy per Si atom -5583.115867 kJ/mol
# Density = 2.231088 g / cm^3
# Si number density = 22.361778 Si / 1000 Ang^3
#
#
#
# Elastic Constant Matrix: (Units=GPa)
#
#
# Indices 1 2 3 4 5 6 
#
# 1 149.9349 -22.0236 87.1526 0.0000 0.0000 0.0000
# 2 -22.0236 38.2658 -13.3766 0.0000 0.0000 0.0000
# 3 87.1526 -13.3766 180.4966 0.0000 0.0000 0.0000
# 4 0.0000 0.0000 0.0000 -8.6092 0.0000 0.0000
# 5 0.0000 0.0000 0.0000 0.0000 3.4338 0.0000
# 6 0.0000 0.0000 0.0000 0.0000 0.0000 22.7000
#
#
#
# Elastic Compliance Matrix: (Units=1/GPa)
#
#
# Indices 1 2 3 4 5 6 
#
# 1 0.009866 0.004120 -0.004459 0.000000 0.000000 0.000000
# 2 0.004120 0.028548 0.000126 0.000000 0.000000 0.000000
# 3 -0.004459 0.000126 0.007702 0.000000 0.000000 0.000000
# 4 0.000000 0.000000 0.000000 -0.116155 0.000000 0.000000
# 5 0.000000 0.000000 0.000000 0.000000 0.291222 0.000000
# 6 0.000000 0.000000 0.000000 0.000000 0.000000 0.044053
#
#
# Mechanical properties :
#
#
# Convention : Reuss Voigt Hill
#
# Bulk Modulus (GPa) = 21.88534 52.46690 37.17612
# Shear Modulus (GPa) = 17.80040 24.63459 21.21750
#
# Velocity S-wave (km/s) = 2.82444 3.32269 3.08365
# Velocity P-wave (km/s) = 4.52159 6.18337 5.41659
#
# Compressibility (1/GPa) = 0.04569268
#
# Stress axis : x y z
#
# Youngs Moduli (GPa) = 101.35401 35.02824 129.82804
#
# Poissons Ratio (x) = -0.14431 0.57886
# Poissons Ratio (y) = -0.41757 -0.01641
# Poissons Ratio (z) = 0.45190 -0.00443
#
# Static dielectric constant tensor:
#      x y z
#    x 1.818530 0.000000 0.000000 
#    y 0.000000 1.886720 0.000000 
#    z 0.000000 0.000000 1.788060 
# 
# From -- ./inp_files/10012.got.cif
#   From: 2010.05.17/outbox.cif.g08.bks.cpg/sg55_6_cif.got.tgz:10012.got - 2010.06.03 13:27:54.
