data_PCOD9426601
_publ_section_title
;
Structure prediction by ZEFSAII (Michael W. Deem and Ramdas Pophale) SiO2 
 PCOD9426601
Probable space group: P B A M
;
_chemical_formula_sum "Si O2"
_cell_formula_units_Z 60
_cell_length_a 28.116460
_cell_length_b 14.963870
_cell_length_c 7.204897
_cell_angle_alpha 90.000000
_cell_angle_beta 90.000000
_cell_angle_gamma 90.000000
_cell_volume 3031.323897
_symmetry_space_group_name_H-M "P B A M"
_symmetry_group_IT_number 55
_symmetry_cell_setting 'orthorhombic'
loop_
_space_group_symop_operation_xyz
x,y,z
-x,-y,z
1/2+x,1/2-y,-z
1/2-x,1/2+y,-z
-x,-y,-z
x,y,-z
1/2-x,1/2+y,z
1/2+x,1/2-y,z
loop_
_atom_site_type_symbol
_atom_site_label
_atom_site_fract_x
_atom_site_fract_y
_atom_site_fract_z
Si Si1 0.380952 0.422435 0.225121
Si Si2 0.234600 0.611306 0.225818
Si Si3 0.461120 0.740313 0.500000
Si Si4 0.197731 0.421049 0.774847
Si Si5 0.290114 0.308274 0.774023
Si Si6 0.155001 0.113564 0.224881
Si Si7 0.108509 0.302703 0.222973
Si Si8 0.512042 0.603970 0.778513
O O1 0.336818 0.361723 0.285428
O O2 0.372453 0.524685 0.285454
O O3 0.432468 0.385679 0.274503
O O4 0.379933 0.424835 0.000000
O O5 0.207450 0.522212 0.285600
O O6 0.212333 0.705342 0.283916
O O7 0.289964 0.608210 0.282095
O O8 0.234809 0.610760 0.000000
O O9 0.439376 0.807006 0.662540
O O10 0.480337 0.670443 0.661185
O O11 0.242230 0.359635 0.716419
O O12 0.148011 0.376103 0.724521
O O13 0.198815 0.420774 0.000000
O O14 0.290146 0.309223 0.000000
O O15 0.130635 0.205856 0.281274
O O16 0.154985 0.114432 0.000000
O O17 0.102716 0.303671 0.000000
O O18 0.500000 0.500000 0.745351
O O19 0.506005 0.619281 0.000000
#
# Coordination Sequence:
#
# PCOD9426601 Si02
#       8
#     8   8   4   8   8   8   8   8
#     4   9  16  26  44  71 104 139 175 215 265 320
#     4   9  14  21  39  71 108 143 176 208 248 308
#     4  12  23  36  54  74 103 136 182 230 274 321
#     4   9  15  25  43  72 108 140 175 216 258 313
#     4   9  14  22  40  72 107 139 178 215 253 316
#     4   9  14  23  42  70 103 139 175 204 246 311
#     4  10  20  33  51  76 105 141 179 219 265 317
#     4  10  21  37  55  78 108 142 183 232 282 332
#
# _framework density 19.793333000000001
#
# number of rings (size 3 to 8) (size 9 to 14) (size 15 to 20)
#    0.000    2.533    2.667    1.400    0.000    2.133 
#    0.000    0.000    0.000    1.600    0.000    1.867 
#    0.000    6.400    0.000    0.000    0.000    0.000 
#
# Total GULP energy -334138.270696 kJ/mol
# GULP energy per Si atom -5568.971178 kJ/mol
# Density = 1.974828 g / cm^3
# Si number density = 19.793333 Si / 1000 Ang^3
#
#
#
# Elastic Constant Matrix: (Units=GPa)
#
#
# Indices 1 2 3 4 5 6 
#
# 1 24.4472 -6.6081 4.1116 0.0000 0.0000 0.0000
# 2 -6.6081 83.0909 -1.7045 0.0000 0.0000 0.0000
# 3 4.1116 -1.7045 105.5698 0.0000 0.0000 0.0000
# 4 0.0000 0.0000 0.0000 -18.2130 0.0000 0.0000
# 5 0.0000 0.0000 0.0000 0.0000 -14.3736 0.0000
# 6 0.0000 0.0000 0.0000 0.0000 0.0000 34.7686
#
#
#
# Elastic Compliance Matrix: (Units=1/GPa)
#
#
# Indices 1 2 3 4 5 6 
#
# 1 0.042067 0.003313 -0.001585 0.000000 0.000000 0.000000
# 2 0.003313 0.012300 0.000070 0.000000 0.000000 0.000000
# 3 -0.001585 0.000070 0.009535 0.000000 0.000000 0.000000
# 4 0.000000 0.000000 0.000000 -0.054906 0.000000 0.000000
# 5 0.000000 0.000000 0.000000 0.000000 -0.069572 0.000000
# 6 0.000000 0.000000 0.000000 0.000000 0.000000 0.028762
#
#
# Mechanical properties :
#
#
# Convention : Reuss Voigt Hill
#
# Bulk Modulus (GPa) = 14.81547 22.74510 18.78028
# Shear Modulus (GPa) = -387.27557 14.92365 -186.17596
#
# Velocity S-wave (km/s) = -14.00301 2.74884 -9.70897
# Velocity P-wave (km/s) = 15.93564 4.64662 10.77853
#
# Compressibility (1/GPa) = 0.06749703
#
# Stress axis : x y z
#
# Youngs Moduli (GPa) = 23.77187 81.30142 104.87395
#
# Poissons Ratio (x) = -0.26935 0.16621
# Poissons Ratio (y) = -0.07876 -0.00730
# Poissons Ratio (z) = 0.03768 -0.00566
#
# Static dielectric constant tensor:
#      x y z
#    x 1.699080 0.000000 0.000000 
#    y 0.000000 1.658010 0.000000 
#    z 0.000000 0.000000 1.285270 
# 
# From -- ./inp_files/10265.got.cif
#   From: 2010.05.17/outbox.cif.g08.bks.cpg/sg55_6_cif.got.tgz:10265.got - 2010.06.03 13:27:54.
