data_PCOD9426913
_publ_section_title
;
Structure prediction by ZEFSAII (Michael W. Deem and Ramdas Pophale) SiO2 
 PCOD9426913
Probable space group: P B A M
;
_chemical_formula_sum "Si O2"
_cell_formula_units_Z 64
_cell_length_a 23.324891
_cell_length_b 7.000528
_cell_length_c 19.369716
_cell_angle_alpha 90.000000
_cell_angle_beta 90.000000
_cell_angle_gamma 90.000000
_cell_volume 3162.814149
_symmetry_space_group_name_H-M "P B A M"
_symmetry_group_IT_number 55
_symmetry_cell_setting 'orthorhombic'
loop_
_space_group_symop_operation_xyz
x,y,z
-x,-y,z
1/2+x,1/2-y,-z
1/2-x,1/2+y,-z
-x,-y,-z
x,y,-z
1/2-x,1/2+y,z
1/2+x,1/2-y,z
loop_
_atom_site_type_symbol
_atom_site_label
_atom_site_fract_x
_atom_site_fract_y
_atom_site_fract_z
Si Si1 0.500000 0.772114 0.921592
Si Si2 0.118067 0.246676 0.843990
Si Si3 0.066089 0.224170 0.302229
Si Si4 0.069311 0.500000 0.422160
Si Si5 0.320270 0.000000 0.920286
Si Si6 0.381933 0.253324 0.156010
Si Si7 0.182805 0.000000 0.081360
Si Si8 0.933911 0.224170 0.302229
O O1 0.442862 0.717506 0.881658
O O2 0.557138 0.717506 0.881658
O O3 0.500000 0.000000 0.924306
O O4 0.500000 0.703298 0.000000
O O5 0.106940 0.265577 0.762189
O O6 0.170914 0.249129 0.904253
O O7 0.140063 0.000000 0.846265
O O8 0.084496 0.322712 0.373229
O O9 1.000000 0.284182 0.285744
O O10 0.064887 0.000000 0.312255
O O11 0.092182 0.500000 0.500000
O O12 0.084497 0.677288 0.373229
O O13 0.000000 0.500000 0.427566
O O14 0.370708 0.000000 0.857830
O O15 0.251602 0.000000 0.911498
O O16 0.339663 0.000000 0.000000
O O17 0.329086 0.250871 0.095747
O O18 0.393059 0.234423 0.237811
O O19 0.165201 1.000000 0.000000
#
# Coordination Sequence:
#
# PCOD9426913 Si02
#       8
#     8   8   8   8   8   8   8   8
#     4  11  22  33  51  79 105 140 191 244 295 346
#     4  12  21  36  55  76 108 145 189 239 291 348
#     4  10  20  35  54  83 119 151 183 231 293 345
#     4   9  19  34  56  84 115 155 192 216 264 352
#     4  11  23  38  54  72 102 152 201 249 300 335
#     4  12  21  36  55  76 108 145 189 239 291 348
#     4  11  24  38  52  74 107 149 199 249 292 334
#     4  10  20  35  54  83 119 151 183 231 293 345
#
# _framework density 20.235144999999999
#
# number of rings (size 3 to 8) (size 9 to 14) (size 15 to 20)
#    0.000    1.250    3.750    3.750    0.000    3.000 
#    0.000    3.750    0.000    0.000    0.000    0.000 
#    0.000   16.000    0.000    0.000    0.000    0.000 
#
# Total GULP energy -356950.642696 kJ/mol
# GULP energy per Si atom -5577.353792 kJ/mol
# Density = 2.018909 g / cm^3
# Si number density = 20.235145 Si / 1000 Ang^3
#
#
#
# Elastic Constant Matrix: (Units=GPa)
#
#
# Indices 1 2 3 4 5 6 
#
# 1 77.7679 31.7540 62.6632 0.0000 0.0000 0.0000
# 2 31.7540 187.6407 78.6898 0.0000 0.0000 0.0000
# 3 62.6632 78.6898 211.1411 0.0000 0.0000 0.0000
# 4 0.0000 0.0000 0.0000 27.3492 0.0000 0.0000
# 5 0.0000 0.0000 0.0000 0.0000 9.5451 0.0000
# 6 0.0000 0.0000 0.0000 0.0000 0.0000 45.3582
#
#
#
# Elastic Compliance Matrix: (Units=1/GPa)
#
#
# Indices 1 2 3 4 5 6 
#
# 1 0.017029 -0.000904 -0.004717 0.000000 0.000000 0.000000
# 2 -0.000904 0.006365 -0.002104 0.000000 0.000000 0.000000
# 3 -0.004717 -0.002104 0.006920 0.000000 0.000000 0.000000
# 4 0.000000 0.000000 0.000000 0.036564 0.000000 0.000000
# 5 0.000000 0.000000 0.000000 0.000000 0.104766 0.000000
# 6 0.000000 0.000000 0.000000 0.000000 0.000000 0.022047
#
#
# Mechanical properties :
#
#
# Convention : Reuss Voigt Hill
#
# Bulk Modulus (GPa) = 67.27469 91.41820 79.34645
# Shear Modulus (GPa) = 23.35422 36.68000 30.01711
#
# Velocity S-wave (km/s) = 3.40095 4.26219 3.85569
# Velocity P-wave (km/s) = 6.98145 8.33653 7.68890
#
# Compressibility (1/GPa) = 0.01486443
#
# Stress axis : x y z
#
# Youngs Moduli (GPa) = 58.72472 157.12146 144.50477
#
# Poissons Ratio (x) = 0.14197 0.68164
# Poissons Ratio (y) = 0.05306 0.30401
# Poissons Ratio (z) = 0.27701 0.33055
#
# Static dielectric constant tensor:
#      x y z
#    x 1.644340 0.000000 0.000000 
#    y 0.000000 2.306570 0.000000 
#    z 0.000000 0.000000 1.644950 
# 
# From -- ./inp_files/19960.got.cif
#   From: 2010.05.17/outbox.cif.g08.bks.cpg/sg55_10_cif.got.tgz:19960.got - 2010.06.03 13:27:54.
