data_PCOD9426822
_publ_section_title
;
Structure prediction by ZEFSAII (Michael W. Deem and Ramdas Pophale) SiO2 
 PCOD9426822
Probable space group: P B A M
;
_chemical_formula_sum "Si O2"
_cell_formula_units_Z 64
_cell_length_a 18.090138
_cell_length_b 9.254173
_cell_length_c 15.796745
_cell_angle_alpha 90.000000
_cell_angle_beta 90.000000
_cell_angle_gamma 90.000000
_cell_volume 2644.521496
_symmetry_space_group_name_H-M "P B A M"
_symmetry_group_IT_number 55
_symmetry_cell_setting 'orthorhombic'
loop_
_space_group_symop_operation_xyz
x,y,z
-x,-y,z
1/2+x,1/2-y,-z
1/2-x,1/2+y,-z
-x,-y,-z
x,y,-z
1/2-x,1/2+y,z
1/2+x,1/2-y,z
loop_
_atom_site_type_symbol
_atom_site_label
_atom_site_fract_x
_atom_site_fract_y
_atom_site_fract_z
Si Si1 0.542398 0.855616 0.368889
Si Si2 0.815786 0.495239 0.651377
Si Si3 0.983922 0.754081 0.801435
Si Si4 0.749187 0.909248 0.827760
Si Si5 0.602892 0.547822 0.775976
Si Si6 0.342728 0.434635 0.405827
Si Si7 0.600785 0.243309 0.591804
Si Si8 0.344239 0.852168 0.900952
O O1 0.627596 0.882385 0.391101
O O2 0.523636 0.844199 0.268957
O O3 0.487445 0.734715 0.404960
O O4 0.500000 0.000000 0.400170
O O5 0.786185 0.413768 0.734135
O O6 0.745558 0.565989 0.606254
O O7 0.869002 0.635016 0.664107
O O8 0.925410 0.673092 0.860183
O O9 0.054463 0.846013 0.834168
O O10 0.937337 0.892317 0.764530
O O11 0.819719 0.014521 0.818590
O O12 0.688284 0.987920 0.885231
O O13 0.785872 0.760323 0.858095
O O14 0.617404 0.612986 0.681772
O O15 0.363185 0.382786 0.500000
O O16 0.359758 0.605438 0.404517
O O17 0.619023 0.177000 0.500000
O O18 0.347950 0.820010 0.000000
#
# Coordination Sequence:
#
# PCOD9426822 Si02
#       8
#     8   8   8   8   8   8   8   8
#     4  10  20  34  56  82 113 157 207 251 297 370
#     4  10  22  33  59  88 117 164 212 260 307 380
#     4  10  20  39  61  87 119 160 209 249 310 381
#     4  10  23  39  68  96 126 165 210 255 313 392
#     4   9  20  38  62  87 119 164 211 256 296 376
#     4  10  20  36  57  86 124 162 208 269 319 359
#     4  10  20  35  53  78 120 164 205 261 319 364
#     4  11  23  43  67  98 131 161 201 262 329 386
#
# _framework density 24.200976000000001
#
# number of rings (size 3 to 8) (size 9 to 14) (size 15 to 20)
#    0.000    2.000    1.250    2.250    5.250    3.750 
#    0.000    7.500    0.000    1.125    0.000    0.000 
#    0.000    0.000    0.000    0.000    0.000    0.000 
#
# Total GULP energy -357039.918995 kJ/mol
# GULP energy per Si atom -5578.748734 kJ/mol
# Density = 2.414589 g / cm^3
# Si number density = 24.200976 Si / 1000 Ang^3
#
#
#
# Elastic Constant Matrix: (Units=GPa)
#
#
# Indices 1 2 3 4 5 6 
#
# 1 139.3424 9.0911 6.2570 0.0000 0.0000 0.0000
# 2 9.0911 49.5959 -4.3547 0.0000 0.0000 0.0000
# 3 6.2570 -4.3547 57.8457 0.0000 0.0000 0.0000
# 4 0.0000 0.0000 0.0000 20.2607 0.0000 0.0000
# 5 0.0000 0.0000 0.0000 0.0000 16.4998 0.0000
# 6 0.0000 0.0000 0.0000 0.0000 0.0000 37.2908
#
#
#
# Elastic Compliance Matrix: (Units=1/GPa)
#
#
# Indices 1 2 3 4 5 6 
#
# 1 0.007309 -0.001419 -0.000897 0.000000 0.000000 0.000000
# 2 -0.001419 0.020572 0.001702 0.000000 0.000000 0.000000
# 3 -0.000897 0.001702 0.017513 0.000000 0.000000 0.000000
# 4 0.000000 0.000000 0.000000 0.049357 0.000000 0.000000
# 5 0.000000 0.000000 0.000000 0.000000 0.060607 0.000000
# 6 0.000000 0.000000 0.000000 0.000000 0.000000 0.026816
#
#
# Mechanical properties :
#
#
# Convention : Reuss Voigt Hill
#
# Bulk Modulus (GPa) = 22.64151 29.86342 26.25246
# Shear Modulus (GPa) = 25.23671 30.52965 27.88318
#
# Velocity S-wave (km/s) = 3.23274 3.55562 3.39802
# Velocity P-wave (km/s) = 4.82805 5.40584 5.12510
#
# Compressibility (1/GPa) = 0.04416667
#
# Stress axis : x y z
#
# Youngs Moduli (GPa) = 136.80978 48.60871 57.10174
#
# Poissons Ratio (x) = 0.06896 0.05125
# Poissons Ratio (y) = 0.19408 -0.09720
# Poissons Ratio (z) = 0.12278 -0.08274
#
# Static dielectric constant tensor:
#      x y z
#    x 2.003140 0.000000 0.000000 
#    y 0.000000 2.010960 0.000000 
#    z 0.000000 0.000000 1.950840 
# 
# From -- ./inp_files/19534.got.cif
#   From: 2010.05.17/outbox.cif.g08.bks.cpg/sg55_10_cif.got.tgz:19534.got - 2010.06.03 13:27:54.
