data_PCOD9426429
_publ_section_title
;
Structure prediction by ZEFSAII (Michael W. Deem and Ramdas Pophale) SiO2 
 PCOD9426429
Probable space group: P B A M
;
_chemical_formula_sum "Si O2"
_cell_formula_units_Z 64
_cell_length_a 15.687166
_cell_length_b 24.194302
_cell_length_c 9.072574
_cell_angle_alpha 90.000000
_cell_angle_beta 90.000000
_cell_angle_gamma 90.000000
_cell_volume 3443.405024
_symmetry_space_group_name_H-M "P B A M"
_symmetry_group_IT_number 55
_symmetry_cell_setting 'orthorhombic'
loop_
_space_group_symop_operation_xyz
x,y,z
-x,-y,z
1/2+x,1/2-y,-z
1/2-x,1/2+y,-z
-x,-y,-z
x,y,-z
1/2-x,1/2+y,z
1/2+x,1/2-y,z
loop_
_atom_site_type_symbol
_atom_site_label
_atom_site_fract_x
_atom_site_fract_y
_atom_site_fract_z
Si Si1 0.497959 0.811531 0.676583
Si Si2 0.840279 0.883796 0.176028
Si Si3 0.349160 0.881163 0.824945
Si Si4 0.843995 0.110378 0.823738
Si Si5 0.502103 0.692317 0.176946
Si Si6 0.397519 0.502807 0.672953
Si Si7 0.335449 0.116718 0.676514
Si Si8 0.898082 0.505956 0.673548
O O1 0.491821 0.810566 0.500000
O O2 0.415854 0.842183 0.742699
O O3 0.504811 0.750351 0.741154
O O4 0.582168 0.846963 0.715918
O O5 0.863579 0.943066 0.245121
O O6 0.749822 0.865517 0.241082
O O7 0.916007 0.841257 0.212708
O O8 0.835842 0.888668 0.000000
O O9 0.250612 0.867444 0.792771
O O10 0.365058 0.943652 0.770303
O O11 0.362654 0.877340 0.000000
O O12 0.917573 0.153701 0.783405
O O13 0.859116 0.052817 0.741137
O O14 0.850272 0.100336 0.000000
O O15 0.504088 0.701144 0.000000
O O16 0.500000 0.500000 0.688959
O O17 0.376566 0.506604 0.500000
O O18 0.323455 0.120437 0.500000
O O19 0.355602 0.052572 0.711343
O O20 0.881948 0.517598 0.500000
O O21 0.000000 0.500000 0.690855
#
# Coordination Sequence:
#
# PCOD9426429 Si02
#       8
#     8   8   8   8   8   8   8   8
#     4  11  24  43  64  86 117 159 201 247 304 357
#     4  11  23  39  63  90 121 161 200 243 300 355
#     4  11  23  38  61  93 123 154 199 247 295 355
#     4  10  22  41  63  88 122 161 199 244 300 357
#     4  10  23  43  63  85 117 158 202 249 298 351
#     4  11  22  36  60  93 126 159 198 244 295 353
#     4  10  22  40  62  89 122 158 197 243 299 357
#     4  10  19  37  61  85 121 161 195 238 297 358
#
# _framework density 18.586255000000001
#
# number of rings (size 3 to 8) (size 9 to 14) (size 15 to 20)
#    0.000    1.500    2.500    2.250    0.000    7.750 
#    0.000    3.750    0.000    0.000    0.000    0.000 
#    0.000    0.000    0.000    0.000    0.000    0.000 
#
# Total GULP energy -357816.375766 kJ/mol
# GULP energy per Si atom -5590.880871 kJ/mol
# Density = 1.854395 g / cm^3
# Si number density = 18.586255 Si / 1000 Ang^3
#
#
#
# Elastic Constant Matrix: (Units=GPa)
#
#
# Indices 1 2 3 4 5 6 
#
# 1 116.2088 43.7904 47.2484 0.0000 0.0000 0.0000
# 2 43.7904 106.2898 42.7038 0.0000 0.0000 0.0000
# 3 47.2484 42.7038 41.5491 0.0000 0.0000 0.0000
# 4 0.0000 0.0000 0.0000 36.9775 0.0000 0.0000
# 5 0.0000 0.0000 0.0000 0.0000 11.6319 0.0000
# 6 0.0000 0.0000 0.0000 0.0000 0.0000 -2.2539
#
#
#
# Elastic Compliance Matrix: (Units=1/GPa)
#
#
# Indices 1 2 3 4 5 6 
#
# 1 0.016099 0.001231 -0.019573 0.000000 0.000000 0.000000
# 2 0.001231 0.016120 -0.017968 0.000000 0.000000 0.000000
# 3 -0.019573 -0.017968 0.064792 0.000000 0.000000 0.000000
# 4 0.000000 0.000000 0.000000 0.027043 0.000000 0.000000
# 5 0.000000 0.000000 0.000000 0.000000 0.085971 0.000000
# 6 0.000000 0.000000 0.000000 0.000000 0.000000 -0.443675
#
#
# Mechanical properties :
#
#
# Convention : Reuss Voigt Hill
#
# Bulk Modulus (GPa) = 40.99597 59.05921 50.02759
# Shear Modulus (GPa) = -32.70136 17.95809 -7.37163
#
# Velocity S-wave (km/s) = -4.19912 3.11175 -1.99369
# Velocity P-wave (km/s) = 1.18536 6.68995 4.65566
#
# Compressibility (1/GPa) = 0.02439264
#
# Stress axis : x y z
#
# Youngs Moduli (GPa) = 62.11451 62.03494 15.43389
#
# Poissons Ratio (x) = -0.07636 0.30208
# Poissons Ratio (y) = -0.07646 0.27731
# Poissons Ratio (z) = 1.21575 1.11463
#
# Static dielectric constant tensor:
#      x y z
#    x 1.644710 0.000000 0.000000 
#    y 0.000000 1.598310 0.000000 
#    z 0.000000 0.000000 1.618830 
# 
# From -- ./inp_files/6606.got.cif
#   From: 2010.05.17/outbox.cif.g08.bks.cpg/sg55_4_cif.got.tgz:6606.got - 2010.06.03 13:27:54.
