data_PCOD9426661
_publ_section_title
;
Structure prediction by ZEFSAII (Michael W. Deem and Ramdas Pophale) SiO2 
 PCOD9426661
Probable space group: P B A M
;
_chemical_formula_sum "Si O2"
_cell_formula_units_Z 40
_cell_length_a 12.856535
_cell_length_b 13.455396
_cell_length_c 13.349148
_cell_angle_alpha 90.000000
_cell_angle_beta 90.000000
_cell_angle_gamma 90.000000
_cell_volume 2309.266037
_symmetry_space_group_name_H-M "P B A M"
_symmetry_group_IT_number 55
_symmetry_cell_setting 'orthorhombic'
loop_
_space_group_symop_operation_xyz
x,y,z
-x,-y,z
1/2+x,1/2-y,-z
1/2-x,1/2+y,-z
-x,-y,-z
x,y,-z
1/2-x,1/2+y,z
1/2+x,1/2-y,z
loop_
_atom_site_type_symbol
_atom_site_label
_atom_site_fract_x
_atom_site_fract_y
_atom_site_fract_z
Si Si1 0.934264 0.098438 0.886019
Si Si2 0.731202 0.695719 0.250902
Si Si3 0.435699 0.801964 0.114667
Si Si4 0.078767 0.620658 0.721333
Si Si5 0.376824 0.916612 0.615872
O O1 0.846498 0.120028 0.804622
O O2 0.009312 0.194234 0.884552
O O3 0.891573 0.090597 0.000000
O O4 0.000000 0.000000 0.865439
O O5 0.828633 0.707807 0.175509
O O6 0.780904 0.650707 0.350946
O O7 0.667467 0.796222 0.272508
O O8 0.515972 0.873511 0.173696
O O9 0.418731 0.832357 0.000000
O O10 0.122004 0.514100 0.687102
O O11 0.985364 0.639374 0.641503
O O12 0.374304 0.944734 0.500000
#
# Coordination Sequence:
#
# PCOD9426661 Si02
#       5
#     8   8   8   8   8
#     4   9  18  32  51  77 110 144 171 204 257 316
#     4  10  20  33  56  80 106 138 177 219 266 313
#     4   9  18  33  52  79 111 141 173 211 256 312
#     4   9  19  36  54  76 107 142 172 222 263 316
#     4  10  21  37  57  78 102 138 185 229 273 317
#
# _framework density 17.32152
#
# number of rings (size 3 to 8) (size 9 to 14) (size 15 to 20)
#    0.000    2.600    0.000    1.800    2.800    2.400 
#    0.000    9.000    0.000    0.600    0.000    0.000 
#    0.000    0.000    0.000    0.000    0.000    0.000 
#
# Total GULP energy -222830.552694 kJ/mol
# GULP energy per Si atom -5570.763817 kJ/mol
# Density = 1.728210 g / cm^3
# Si number density = 17.321520 Si / 1000 Ang^3
#
#
#
# Elastic Constant Matrix: (Units=GPa)
#
#
# Indices 1 2 3 4 5 6 
#
# 1 87.9733 42.3552 37.0823 0.0000 0.0000 0.0000
# 2 42.3552 65.6312 53.0210 0.0000 0.0000 0.0000
# 3 37.0823 53.0210 95.0635 0.0000 0.0000 0.0000
# 4 0.0000 0.0000 0.0000 16.8148 0.0000 0.0000
# 5 0.0000 0.0000 0.0000 0.0000 12.1081 0.0000
# 6 0.0000 0.0000 0.0000 0.0000 0.0000 22.0163
#
#
#
# Elastic Compliance Matrix: (Units=1/GPa)
#
#
# Indices 1 2 3 4 5 6 
#
# 1 0.016534 -0.009937 -0.000907 0.000000 0.000000 0.000000
# 2 -0.009937 0.033705 -0.014922 0.000000 0.000000 0.000000
# 3 -0.000907 -0.014922 0.019196 0.000000 0.000000 0.000000
# 4 0.000000 0.000000 0.000000 0.059471 0.000000 0.000000
# 5 0.000000 0.000000 0.000000 0.000000 0.082589 0.000000
# 6 0.000000 0.000000 0.000000 0.000000 0.000000 0.045421
#
#
# Mechanical properties :
#
#
# Convention : Reuss Voigt Hill
#
# Bulk Modulus (GPa) = 55.86202 57.06500 56.46351
# Shear Modulus (GPa) = 15.90248 17.93516 16.91882
#
# Velocity S-wave (km/s) = 3.03327 3.22130 3.12869
# Velocity P-wave (km/s) = 6.67740 6.84483 6.76164
#
# Compressibility (1/GPa) = 0.01790125
#
# Stress axis : x y z
#
# Youngs Moduli (GPa) = 60.48217 29.66929 52.09452
#
# Poissons Ratio (x) = 0.29483 0.04725
# Poissons Ratio (y) = 0.60103 0.77737
# Poissons Ratio (z) = 0.05486 0.44273
#
# Static dielectric constant tensor:
#      x y z
#    x 1.587960 0.000000 0.000000 
#    y 0.000000 1.579290 0.000000 
#    z 0.000000 0.000000 1.591470 
# 
# From -- ./inp_files/13018.got.cif
#   From: 2010.05.17/outbox.cif.g08.bks.cpg/sg55_7_cif.got.tgz:13018.got - 2010.06.03 13:27:54.
