data_PCOD9426378
_publ_section_title
;
Structure prediction by ZEFSAII (Michael W. Deem and Ramdas Pophale) SiO2 
 PCOD9426378
Probable space group: P B A M
;
_chemical_formula_sum "Si O2"
_cell_formula_units_Z 58
_cell_length_a 14.399637
_cell_length_b 23.015512
_cell_length_c 7.546715
_cell_angle_alpha 90.000000
_cell_angle_beta 90.000000
_cell_angle_gamma 90.000000
_cell_volume 2501.094689
_symmetry_space_group_name_H-M "P B A M"
_symmetry_group_IT_number 55
_symmetry_cell_setting 'orthorhombic'
loop_
_space_group_symop_operation_xyz
x,y,z
-x,-y,z
1/2+x,1/2-y,-z
1/2-x,1/2+y,-z
-x,-y,-z
x,y,-z
1/2-x,1/2+y,z
1/2+x,1/2-y,z
loop_
_atom_site_type_symbol
_atom_site_label
_atom_site_fract_x
_atom_site_fract_y
_atom_site_fract_z
Si Si1 0.683300 0.894893 0.707871
Si Si2 0.471623 0.911594 0.201911
Si Si3 0.368768 0.291131 0.215829
Si Si4 0.968786 0.714673 0.204489
Si Si5 0.203264 0.215923 0.295334
Si Si6 0.856997 0.967596 0.785931
Si Si7 0.500000 0.000000 0.500000
Si Si8 0.952840 0.087084 0.784066
O O1 0.660268 0.886612 0.500000
O O2 0.584702 0.905867 0.797387
O O3 0.739202 0.838621 0.778991
O O4 0.757368 0.946740 0.721498
O O5 0.438199 0.848210 0.270930
O O6 0.450155 0.960804 0.343164
O O7 0.439607 0.923330 0.000000
O O8 0.437993 0.240932 0.284115
O O9 0.267935 0.272399 0.276989
O O10 0.407822 0.352939 0.275002
O O11 0.369026 0.291107 0.000000
O O12 0.893282 0.765520 0.211461
O O13 0.989336 0.702220 0.000000
O O14 0.185618 0.202555 0.500000
O O15 0.940507 0.924149 0.728923
O O16 0.891639 0.031374 0.730840
O O17 0.854256 0.966865 0.000000
O O18 0.954030 0.087513 0.000000
#
# Coordination Sequence:
#
# PCOD9426378 Si02
#       8
#     8   8   8   8   8   8   2   8
#     4  11  22  39  60  91 125 169 220 276 326 388
#     4  11  24  45  71  97 128 172 223 277 340 396
#     4  10  19  36  60  87 121 156 201 260 317 383
#     4  10  22  40  66  95 124 164 214 270 330 401
#     4  11  24  37  59  90 126 166 208 262 335 401
#     4   9  17  33  58  84 117 158 207 257 315 394
#     4  12  26  48  72  94 128 170 218 282 332 390
#     4   8  16  32  55  86 119 157 198 255 324 382
#
# _framework density 23.189848000000001
#
# number of rings (size 3 to 8) (size 9 to 14) (size 15 to 20)
#    0.000    1.931    2.069    2.690    0.966    3.310 
#    2.483    2.759    0.000    0.000    0.000    0.000 
#    0.000    0.000    0.000    0.000    0.000    0.000 
#
# Total GULP energy -323597.606229 kJ/mol
# GULP energy per Si atom -5579.269073 kJ/mol
# Density = 2.313707 g / cm^3
# Si number density = 23.189848 Si / 1000 Ang^3
#
#
#
# Elastic Constant Matrix: (Units=GPa)
#
#
# Indices 1 2 3 4 5 6 
#
# 1 48.2608 -19.9093 -4.6992 0.0000 0.0000 0.0000
# 2 -19.9093 55.2919 16.4211 0.0000 0.0000 0.0000
# 3 -4.6992 16.4211 88.3386 0.0000 0.0000 0.0000
# 4 0.0000 0.0000 0.0000 26.8173 0.0000 0.0000
# 5 0.0000 0.0000 0.0000 0.0000 19.2829 0.0000
# 6 0.0000 0.0000 0.0000 0.0000 0.0000 26.9334
#
#
#
# Elastic Compliance Matrix: (Units=1/GPa)
#
#
# Indices 1 2 3 4 5 6 
#
# 1 0.024346 0.008872 -0.000354 0.000000 0.000000 0.000000
# 2 0.008872 0.022375 -0.003687 0.000000 0.000000 0.000000
# 3 -0.000354 -0.003687 0.011987 0.000000 0.000000 0.000000
# 4 0.000000 0.000000 0.000000 0.037289 0.000000 0.000000
# 5 0.000000 0.000000 0.000000 0.000000 0.051859 0.000000
# 6 0.000000 0.000000 0.000000 0.000000 0.000000 0.037129
#
#
# Mechanical properties :
#
#
# Convention : Reuss Voigt Hill
#
# Bulk Modulus (GPa) = 14.62659 19.50183 17.06421
# Shear Modulus (GPa) = 25.23791 27.94531 26.59161
#
# Velocity S-wave (km/s) = 3.30254 3.47517 3.38996
# Velocity P-wave (km/s) = 4.56765 4.95281 4.76412
#
# Compressibility (1/GPa) = 0.06836862
#
# Stress axis : x y z
#
# Youngs Moduli (GPa) = 41.07428 44.69190 83.42589
#
# Poissons Ratio (x) = -0.39649 0.02954
# Poissons Ratio (y) = -0.36440 0.30762
# Poissons Ratio (z) = 0.01454 0.16480
#
# Static dielectric constant tensor:
#      x y z
#    x 1.824030 0.000000 0.000000 
#    y 0.000000 1.933130 0.000000 
#    z 0.000000 0.000000 1.869240 
# 
# From -- ./inp_files/6402.got.cif
#   From: 2010.05.17/outbox.cif.g08.bks.cpg/sg55_4_cif.got.tgz:6402.got - 2010.06.03 13:27:54.
