data_PCOD9426202
_publ_section_title
;
Structure prediction by ZEFSAII (Michael W. Deem and Ramdas Pophale) SiO2 
 PCOD9426202
Probable space group: P B A M
;
_chemical_formula_sum "Si O2"
_cell_formula_units_Z 64
_cell_length_a 9.053433
_cell_length_b 24.953813
_cell_length_c 15.715347
_cell_angle_alpha 90.000000
_cell_angle_beta 90.000000
_cell_angle_gamma 90.000000
_cell_volume 3550.374642
_symmetry_space_group_name_H-M "P B A M"
_symmetry_group_IT_number 55
_symmetry_cell_setting 'orthorhombic'
loop_
_space_group_symop_operation_xyz
x,y,z
-x,-y,z
1/2+x,1/2-y,-z
1/2-x,1/2+y,-z
-x,-y,-z
x,y,-z
1/2-x,1/2+y,z
1/2+x,1/2-y,z
loop_
_atom_site_type_symbol
_atom_site_label
_atom_site_fract_x
_atom_site_fract_y
_atom_site_fract_z
Si Si1 0.608387 0.678674 0.905364
Si Si2 0.247796 0.742946 0.322961
Si Si3 0.596506 0.049599 0.778730
Si Si4 0.990563 0.188866 0.598165
Si Si5 0.168780 0.007689 0.099264
Si Si6 0.784745 0.140279 0.275232
Si Si7 0.770739 0.786918 0.130718
Si Si8 0.373660 0.103982 0.906517
O O1 0.658436 0.644863 0.822625
O O2 0.441684 0.700096 0.888854
O O3 0.716992 0.729992 0.904259
O O4 0.613934 0.653386 0.000000
O O5 0.343604 0.705499 0.382876
O O6 0.096990 0.758128 0.369622
O O7 0.300676 0.804057 0.298707
O O8 0.242152 0.715178 0.231758
O O9 0.683710 0.088545 0.715680
O O10 0.487334 0.086405 0.834728
O O11 0.500000 0.000000 0.743692
O O12 0.716629 0.024308 0.842876
O O13 0.961907 0.177600 0.500000
O O14 0.924311 0.143801 0.660992
O O15 0.224062 0.069179 0.104357
O O16 0.179914 0.991568 0.000000
O O17 0.000000 0.000000 0.126302
O O18 0.669724 0.834445 0.096078
O O19 0.434671 0.089739 0.000000
#
# Coordination Sequence:
#
# PCOD9426202 Si02
#       8
#     8   8   8   8   8   8   8   8
#     4  11  22  34  48  72 109 150 182 214 261 321
#     4   9  19  34  53  79 112 140 169 219 264 322
#     4  10  21  37  55  73 102 143 186 231 282 322
#     4  10  19  35  57  81 108 139 171 214 271 326
#     4   9  19  34  51  73 101 134 186 245 282 311
#     4   9  22  34  54  80 107 139 180 227 262 324
#     4  11  21  36  48  73 110 146 186 221 259 318
#     4  10  21  33  50  73 101 144 193 230 266 317
#
# _framework density 18.026266
#
# number of rings (size 3 to 8) (size 9 to 14) (size 15 to 20)
#    0.750    1.375    1.250    1.875    7.000    2.500 
#    0.000    0.000    0.000    0.375    0.000    0.000 
#    0.000    4.500    0.000    0.000    0.000    0.000 
#
# Total GULP energy -356487.907729 kJ/mol
# GULP energy per Si atom -5570.123558 kJ/mol
# Density = 1.798524 g / cm^3
# Si number density = 18.026266 Si / 1000 Ang^3
#
#
#
# Elastic Constant Matrix: (Units=GPa)
#
#
# Indices 1 2 3 4 5 6 
#
# 1 39.5711 -4.8743 -9.1641 0.0000 0.0000 0.0000
# 2 -4.8743 32.0899 -5.8264 0.0000 0.0000 0.0000
# 3 -9.1641 -5.8264 66.5799 0.0000 0.0000 0.0000
# 4 0.0000 0.0000 0.0000 -1.8958 0.0000 0.0000
# 5 0.0000 0.0000 0.0000 0.0000 17.0707 0.0000
# 6 0.0000 0.0000 0.0000 0.0000 0.0000 18.8830
#
#
#
# Elastic Compliance Matrix: (Units=1/GPa)
#
#
# Indices 1 2 3 4 5 6 
#
# 1 0.026817 0.004820 0.004113 0.000000 0.000000 0.000000
# 2 0.004820 0.032532 0.003510 0.000000 0.000000 0.000000
# 3 0.004113 0.003510 0.015893 0.000000 0.000000 0.000000
# 4 0.000000 0.000000 0.000000 -0.527482 0.000000 0.000000
# 5 0.000000 0.000000 0.000000 0.000000 0.058580 0.000000
# 6 0.000000 0.000000 0.000000 0.000000 0.000000 0.052958
#
#
# Mechanical properties :
#
#
# Convention : Reuss Voigt Hill
#
# Bulk Modulus (GPa) = 9.98714 10.94571 10.46643
# Shear Modulus (GPa) = -15.05060 17.35195 1.15067
#
# Velocity S-wave (km/s) = -2.89264 3.10593 0.79982
# Velocity P-wave (km/s) = 2.36731 4.35290 2.58298
#
# Compressibility (1/GPa) = 0.10012877
#
# Stress axis : x y z
#
# Youngs Moduli (GPa) = 37.28948 30.73901 62.92141
#
# Poissons Ratio (x) = -0.14817 -0.25879
# Poissons Ratio (y) = -0.17974 -0.22087
# Poissons Ratio (z) = -0.15337 -0.10790
#
# Static dielectric constant tensor:
#      x y z
#    x 1.642290 0.000000 0.000000 
#    y 0.000000 1.631920 0.000000 
#    z 0.000000 0.000000 1.616220 
# 
# From -- ./inp_files/21142.got.cif
#   From: 2010.05.17/outbox.cif.g08.bks.cpg/sg55_11_cif.got.tgz:21142.got - 2010.06.03 13:27:54.
