data_PCOD9426497
_publ_section_title
;
Structure prediction by ZEFSAII (Michael W. Deem and Ramdas Pophale) SiO2 
 PCOD9426497
Probable space group: P B A M
;
_chemical_formula_sum "Si O2"
_cell_formula_units_Z 58
_cell_length_a 17.298497
_cell_length_b 11.900734
_cell_length_c 14.606967
_cell_angle_alpha 90.000000
_cell_angle_beta 90.000000
_cell_angle_gamma 90.000000
_cell_volume 3007.060507
_symmetry_space_group_name_H-M "P B A M"
_symmetry_group_IT_number 55
_symmetry_cell_setting 'orthorhombic'
loop_
_space_group_symop_operation_xyz
x,y,z
-x,-y,z
1/2+x,1/2-y,-z
1/2-x,1/2+y,-z
-x,-y,-z
x,y,-z
1/2-x,1/2+y,z
1/2+x,1/2-y,z
loop_
_atom_site_type_symbol
_atom_site_label
_atom_site_fract_x
_atom_site_fract_y
_atom_site_fract_z
Si Si1 0.665810 0.875889 0.801472
Si Si2 0.442576 0.604877 0.604253
Si Si3 0.500000 0.000000 0.500000
Si Si4 0.550738 0.327865 0.100020
Si Si5 0.982189 0.334845 0.673052
Si Si6 0.134013 0.849236 0.894293
Si Si7 0.431465 0.922098 0.848589
Si Si8 0.834321 0.950336 0.236720
O O1 0.600244 0.842811 0.725956
O O2 0.662694 0.776893 0.875410
O O3 0.751335 0.891881 0.764049
O O4 0.640956 0.995974 0.843695
O O5 0.500000 0.500000 0.602200
O O6 0.421662 0.636269 0.500000
O O7 0.486878 0.710088 0.650667
O O8 0.369975 0.560984 0.662651
O O9 0.518546 0.906358 0.419107
O O10 0.459565 0.345705 0.117049
O O11 0.570535 0.195965 0.101458
O O12 0.603636 0.385512 0.174209
O O13 0.567796 0.375716 0.000000
O O14 0.042875 0.388367 0.745326
O O15 0.168027 0.929376 0.814917
O O16 0.151176 0.881373 0.000000
O O17 0.500000 0.000000 0.886617
#
# Coordination Sequence:
#
# PCOD9426497 Si02
#       8
#     8   8   2   8   8   8   8   8
#     4  11  24  41  62  91 133 170 205 263 342 379
#     4  11  23  41  68  94 124 171 221 264 316 382
#     4  12  20  36  74  96 118 160 230 262 312 372
#     4  11  22  39  66  91 117 164 220 262 310 378
#     4  11  20  41  67  95 122 165 216 268 311 381
#     4  11  24  43  67  93 125 174 225 266 314 388
#     4  10  19  39  63  87 122 161 211 259 314 372
#     4  12  25  41  62  92 137 168 206 268 335 390
#
# _framework density 19.287939000000001
#
# number of rings (size 3 to 8) (size 9 to 14) (size 15 to 20)
#    0.000    0.966    6.897    2.483    1.931    3.034 
#    1.241    0.000    0.000    1.655    0.000    0.000 
#    0.000    0.000    0.000    0.000    0.000    0.000 
#
# Total GULP energy -323270.492950 kJ/mol
# GULP energy per Si atom -5573.629189 kJ/mol
# Density = 1.924404 g / cm^3
# Si number density = 19.287939 Si / 1000 Ang^3
#
#
#
# Elastic Constant Matrix: (Units=GPa)
#
#
# Indices 1 2 3 4 5 6 
#
# 1 68.8133 5.9206 17.4087 0.0000 0.0000 0.0000
# 2 5.9206 93.1459 19.7977 0.0000 0.0000 0.0000
# 3 17.4087 19.7977 92.1224 0.0000 0.0000 0.0000
# 4 0.0000 0.0000 0.0000 78.2133 0.0000 0.0000
# 5 0.0000 0.0000 0.0000 0.0000 6.6642 0.0000
# 6 0.0000 0.0000 0.0000 0.0000 0.0000 14.3875
#
#
#
# Elastic Compliance Matrix: (Units=1/GPa)
#
#
# Indices 1 2 3 4 5 6 
#
# 1 0.015274 -0.000374 -0.002806 0.000000 0.000000 0.000000
# 2 -0.000374 0.011259 -0.002349 0.000000 0.000000 0.000000
# 3 -0.002806 -0.002349 0.011890 0.000000 0.000000 0.000000
# 4 0.000000 0.000000 0.000000 0.012786 0.000000 0.000000
# 5 0.000000 0.000000 0.000000 0.000000 0.150056 0.000000
# 6 0.000000 0.000000 0.000000 0.000000 0.000000 0.069505
#
#
# Mechanical properties :
#
#
# Convention : Reuss Voigt Hill
#
# Bulk Modulus (GPa) = 36.54345 37.81506 37.17925
# Shear Modulus (GPa) = 17.18507 33.91663 25.55085
#
# Velocity S-wave (km/s) = 2.98816 4.19792 3.64360
# Velocity P-wave (km/s) = 5.55813 6.56847 6.08431
#
# Compressibility (1/GPa) = 0.02736469
#
# Stress axis : x y z
#
# Youngs Moduli (GPa) = 65.47005 88.81877 84.10325
#
# Poissons Ratio (x) = 0.03326 0.23599
# Poissons Ratio (y) = 0.02452 0.19754
# Poissons Ratio (z) = 0.18370 0.20862
#
# Static dielectric constant tensor:
#      x y z
#    x 1.646130 0.000000 0.000000 
#    y 0.000000 1.730710 0.000000 
#    z 0.000000 0.000000 1.682110 
# 
# From -- ./inp_files/19470.got.cif
#   From: 2010.05.17/outbox.cif.g08.bks.cpg/sg55_10_cif.got.tgz:19470.got - 2010.06.03 13:27:54.
