data_PCOD9426981
_publ_section_title
;
Structure prediction by ZEFSAII (Michael W. Deem and Ramdas Pophale) SiO2 
 PCOD9426981
Probable space group: P B A M
;
_chemical_formula_sum "Si O2"
_cell_formula_units_Z 56
_cell_length_a 15.937589
_cell_length_b 20.772076
_cell_length_c 7.705924
_cell_angle_alpha 90.000000
_cell_angle_beta 90.000000
_cell_angle_gamma 90.000000
_cell_volume 2551.098617
_symmetry_space_group_name_H-M "P B A M"
_symmetry_group_IT_number 55
_symmetry_cell_setting 'orthorhombic'
loop_
_space_group_symop_operation_xyz
x,y,z
-x,-y,z
1/2+x,1/2-y,-z
1/2-x,1/2+y,-z
-x,-y,-z
x,y,-z
1/2-x,1/2+y,z
1/2+x,1/2-y,z
loop_
_atom_site_type_symbol
_atom_site_label
_atom_site_fract_x
_atom_site_fract_y
_atom_site_fract_z
Si Si1 0.809709 0.179765 0.703352
Si Si2 0.075878 0.045257 0.290090
Si Si3 0.821421 0.323332 0.789221
Si Si4 0.497531 0.678410 0.290783
Si Si5 0.514137 0.178649 0.207068
Si Si6 0.159029 0.411871 0.796170
Si Si7 0.737498 0.960499 0.794698
O O1 0.811569 0.163990 0.500000
O O2 0.786726 0.254978 0.725808
O O3 0.741306 0.133042 0.784927
O O4 0.905464 0.173158 0.771579
O O5 0.077050 0.044694 0.500000
O O6 0.056199 0.117770 0.230376
O O7 0.165729 0.021627 0.228948
O O8 0.000000 0.000000 0.232868
O O9 0.776821 0.388341 0.726596
O O10 0.918603 0.328078 0.730114
O O11 0.819135 0.320553 0.000000
O O12 0.500867 0.676510 0.500000
O O13 0.461151 0.747438 0.240010
O O14 0.580899 0.127940 0.279366
O O15 0.510886 0.170000 0.000000
O O16 0.180619 0.482007 0.720916
O O17 0.140982 0.421661 0.000000
O O18 0.719782 0.956699 0.000000
#
# Coordination Sequence:
#
# PCOD9426981 Si02
#       7
#     8   8   8   8   8   8   8
#     4  10  20  35  57  81 108 144 182 224 274 325
#     4  10  21  37  56  78 110 147 183 224 273 329
#     4   9  19  37  57  80 110 143 181 227 276 326
#     4   9  19  35  54  78 106 138 180 225 269 323
#     4   9  19  35  56  79 105 141 181 223 271 321
#     4  10  21  36  54  80 111 143 182 225 271 326
#     4  10  22  37  55  81 112 145 182 226 275 327
#
# _framework density 21.951326999999999
#
# number of rings (size 3 to 8) (size 9 to 14) (size 15 to 20)
#    0.000    2.429    0.000    1.286    2.000    4.857 
#    0.000    2.857    0.000    0.000    0.000    6.000 
#    0.000    0.000    0.000    0.000    0.000    0.000 
#
# Total GULP energy -312756.939090 kJ/mol
# GULP energy per Si atom -5584.945341 kJ/mol
# Density = 2.190136 g / cm^3
# Si number density = 21.951327 Si / 1000 Ang^3
#
#
#
# Elastic Constant Matrix: (Units=GPa)
#
#
# Indices 1 2 3 4 5 6 
#
# 1 19.3747 0.0360 -8.1655 0.0000 0.0000 0.0000
# 2 0.0360 66.9938 -8.9855 0.0000 0.0000 0.0000
# 3 -8.1655 -8.9855 34.6237 0.0000 0.0000 0.0000
# 4 0.0000 0.0000 0.0000 55.0494 0.0000 0.0000
# 5 0.0000 0.0000 0.0000 0.0000 6.8035 0.0000
# 6 0.0000 0.0000 0.0000 0.0000 0.0000 35.0880
#
#
#
# Elastic Compliance Matrix: (Units=1/GPa)
#
#
# Indices 1 2 3 4 5 6 
#
# 1 0.057531 0.001853 0.014049 0.000000 0.000000 0.000000
# 2 0.001853 0.015525 0.004466 0.000000 0.000000 0.000000
# 3 0.014049 0.004466 0.033354 0.000000 0.000000 0.000000
# 4 0.000000 0.000000 0.000000 0.018166 0.000000 0.000000
# 5 0.000000 0.000000 0.000000 0.000000 0.146983 0.000000
# 6 0.000000 0.000000 0.000000 0.000000 0.000000 0.028500
#
#
# Mechanical properties :
#
#
# Convention : Reuss Voigt Hill
#
# Bulk Modulus (GPa) = 6.79593 9.64024 8.21809
# Shear Modulus (GPa) = 16.21425 28.59533 22.40479
#
# Velocity S-wave (km/s) = 2.72075 3.61317 3.19824
# Velocity P-wave (km/s) = 3.60175 4.66988 4.17016
#
# Compressibility (1/GPa) = 0.14714686
#
# Stress axis : x y z
#
# Youngs Moduli (GPa) = 17.38185 64.41323 29.98123
#
# Poissons Ratio (x) = -0.11938 -0.42120
# Poissons Ratio (y) = -0.03222 -0.13390
# Poissons Ratio (z) = -0.24419 -0.28767
#
# Static dielectric constant tensor:
#      x y z
#    x 1.791740 0.000000 0.000000 
#    y 0.000000 1.810440 0.000000 
#    z 0.000000 0.000000 1.820100 
# 
# From -- ./inp_files/5976.got.cif
#   From: 2010.05.17/outbox.cif.g08.bks.cpg/sg55_3_cif.got.tgz:5976.got - 2010.06.03 13:27:54.
