data_PCOD9426337
_publ_section_title
;
Structure prediction by ZEFSAII (Michael W. Deem and Ramdas Pophale) SiO2 
 PCOD9426337
Probable space group: P B A M
;
_chemical_formula_sum "Si O2"
_cell_formula_units_Z 38
_cell_length_a 13.511392
_cell_length_b 5.038364
_cell_length_c 26.175280
_cell_angle_alpha 90.000000
_cell_angle_beta 90.000000
_cell_angle_gamma 90.000000
_cell_volume 1781.890328
_symmetry_space_group_name_H-M "P B A M"
_symmetry_group_IT_number 55
_symmetry_cell_setting 'orthorhombic'
loop_
_space_group_symop_operation_xyz
x,y,z
-x,-y,z
1/2+x,1/2-y,-z
1/2-x,1/2+y,-z
-x,-y,-z
x,y,-z
1/2-x,1/2+y,z
1/2+x,1/2-y,z
loop_
_atom_site_type_symbol
_atom_site_label
_atom_site_fract_x
_atom_site_fract_y
_atom_site_fract_z
Si Si1 0.819737 0.076001 0.500000
Si Si2 0.313486 0.197806 0.194443
Si Si3 0.937053 0.252206 0.293044
Si Si4 0.684106 0.704699 0.393008
Si Si5 0.177294 0.617138 0.079500
Si Si6 0.000000 0.500000 0.000000
O O1 0.726174 0.282077 0.500000
O O2 0.871595 0.137658 0.553899
O O3 0.281598 0.504718 0.196692
O O4 0.377583 0.143063 0.244117
O O5 0.356795 0.132714 0.138768
O O6 0.871701 0.156151 0.340469
O O7 0.000000 0.500000 0.312575
O O8 0.000000 0.000000 0.275760
O O9 0.777713 0.505700 0.393602
O O10 0.254089 0.375362 0.070921
O O11 0.082470 0.586102 0.043951
#
# Coordination Sequence:
#
# PCOD9426337 Si02
#       6
#     4   8   8   8   8   2
#     4   8  16  30  54  80 102 140 200 244 276 350
#     4  10  21  42  63  84 116 159 198 247 293 344
#     4  12  24  36  56  88 120 150 195 246 299 365
#     4  10  19  36  58  80 109 152 197 240 294 354
#     4  10  24  43  65  96 129 162 213 255 302 375
#     4  12  24  42  72  96 132 174 200 256 328 352
#
# _framework density 21.325666999999999
#
# number of rings (size 3 to 8) (size 9 to 14) (size 15 to 20)
#    0.000    1.684    0.000    4.421    1.474    1.684 
#    0.000    1.053    0.000    0.000    0.000    0.000 
#    0.000    0.000    0.000    0.000    0.000    0.000 
#
# Total GULP energy -211595.009446 kJ/mol
# GULP energy per Si atom -5568.289722 kJ/mol
# Density = 2.127713 g / cm^3
# Si number density = 21.325667 Si / 1000 Ang^3
#
#
#
# Elastic Constant Matrix: (Units=GPa)
#
#
# Indices 1 2 3 4 5 6 
#
# 1 49.8501 11.2453 66.3765 0.0000 0.0000 0.0000
# 2 11.2453 93.2374 5.8191 0.0000 0.0000 0.0000
# 3 66.3765 5.8191 170.2583 0.0000 0.0000 0.0000
# 4 0.0000 0.0000 0.0000 15.1589 0.0000 0.0000
# 5 0.0000 0.0000 0.0000 0.0000 -23.2385 0.0000
# 6 0.0000 0.0000 0.0000 0.0000 0.0000 5.8320
#
#
#
# Elastic Compliance Matrix: (Units=1/GPa)
#
#
# Indices 1 2 3 4 5 6 
#
# 1 0.043278 -0.004176 -0.016729 0.000000 0.000000 0.000000
# 2 -0.004176 0.011151 0.001247 0.000000 0.000000 0.000000
# 3 -0.016729 0.001247 0.012353 0.000000 0.000000 0.000000
# 4 0.000000 0.000000 0.000000 0.065968 0.000000 0.000000
# 5 0.000000 0.000000 0.000000 0.000000 -0.043032 0.000000
# 6 0.000000 0.000000 0.000000 0.000000 0.000000 0.171468
#
#
# Mechanical properties :
#
#
# Convention : Reuss Voigt Hill
#
# Bulk Modulus (GPa) = 36.40969 53.35861 44.88415
# Shear Modulus (GPa) = 16.14691 14.87747 15.51219
#
# Velocity S-wave (km/s) = 2.75464 2.64414 2.69995
# Velocity P-wave (km/s) = 5.21801 5.86491 5.55089
#
# Compressibility (1/GPa) = 0.02746521
#
# Stress axis : x y z
#
# Youngs Moduli (GPa) = 23.10660 89.67713 80.95255
#
# Poissons Ratio (x) = 0.37445 1.35429
# Poissons Ratio (y) = 0.09648 -0.10093
# Poissons Ratio (z) = 0.38656 -0.11181
#
# Static dielectric constant tensor:
#      x y z
#    x 1.739250 0.000000 0.000000 
#    y 0.000000 1.774380 0.000000 
#    z 0.000000 0.000000 1.854500 
# 
# From -- ./inp_files/23583.got.cif
#   From: 2010.05.17/outbox.cif.g08.bks.cpg/sg55_12_cif.got.tgz:23583.got - 2010.06.03 13:27:54.
