data_PCOD9426824
_publ_section_title
;
Structure prediction by ZEFSAII (Michael W. Deem and Ramdas Pophale) SiO2 
 PCOD9426824
Probable space group: P B A M
;
_chemical_formula_sum "Si O2"
_cell_formula_units_Z 64
_cell_length_a 8.786487
_cell_length_b 16.014923
_cell_length_c 20.077626
_cell_angle_alpha 90.000000
_cell_angle_beta 90.000000
_cell_angle_gamma 90.000000
_cell_volume 2825.221391
_symmetry_space_group_name_H-M "P B A M"
_symmetry_group_IT_number 55
_symmetry_cell_setting 'orthorhombic'
loop_
_space_group_symop_operation_xyz
x,y,z
-x,-y,z
1/2+x,1/2-y,-z
1/2-x,1/2+y,-z
-x,-y,-z
x,y,-z
1/2-x,1/2+y,z
1/2+x,1/2-y,z
loop_
_atom_site_type_symbol
_atom_site_label
_atom_site_fract_x
_atom_site_fract_y
_atom_site_fract_z
Si Si1 0.443173 0.145281 0.716485
Si Si2 0.444416 0.887871 0.925311
Si Si3 0.357839 0.420306 0.850158
Si Si4 0.580199 0.306461 0.925318
Si Si5 0.438983 0.144719 0.571362
Si Si6 0.809355 0.167429 0.716820
Si Si7 0.279450 0.089420 0.845354
Si Si8 0.303027 0.330868 0.428594
O O1 0.407621 0.105609 0.643696
O O2 0.625468 0.158233 0.722401
O O3 0.363567 0.236418 0.719481
O O4 0.370236 0.094081 0.776843
O O5 0.317267 0.902448 0.870468
O O6 0.473581 0.788085 0.923695
O O7 0.601685 0.929395 0.903910
O O8 0.395947 0.909301 0.000000
O O9 0.447032 0.371037 0.907732
O O10 0.385457 0.380033 0.778213
O O11 0.351718 0.520410 0.845229
O O12 0.702397 0.323949 0.867541
O O13 0.640408 0.322950 0.000000
O O14 0.402523 0.102280 0.500000
O O15 0.619859 0.163180 0.571484
O O16 0.353229 0.233818 0.571414
O O17 0.855126 0.134668 0.642955
O O18 0.357570 0.366476 0.500000
#
# Coordination Sequence:
#
# PCOD9426824 Si02
#       8
#     8   8   8   8   8   8   8   8
#     4  10  20  34  56  83 114 153 194 235 279 334
#     4  11  23  41  65  87 110 143 186 231 281 342
#     4  12  25  39  58  86 118 151 185 231 285 336
#     4  11  25  45  65  85 110 145 190 237 283 340
#     4   8  14  26  46  75 109 143 184 233 278 320
#     4  10  20  34  56  83 114 153 194 235 279 334
#     4  12  25  39  58  86 118 151 185 231 285 336
#     4   8  14  26  46  75 109 143 184 233 278 320
#
# _framework density 22.653092000000001
#
# number of rings (size 3 to 8) (size 9 to 14) (size 15 to 20)
#    0.000    1.750    1.250    3.750    1.750    5.000 
#    0.000    0.000    0.000    0.750    0.000    3.500 
#    0.000    2.000    0.000    0.000    0.000    0.000 
#
# Total GULP energy -357204.455495 kJ/mol
# GULP energy per Si atom -5581.319617 kJ/mol
# Density = 2.260153 g / cm^3
# Si number density = 22.653092 Si / 1000 Ang^3
#
#
#
# Elastic Constant Matrix: (Units=GPa)
#
#
# Indices 1 2 3 4 5 6 
#
# 1 14.7909 -11.1537 -1.9109 0.0000 0.0000 0.0000
# 2 -11.1537 46.6574 22.7421 0.0000 0.0000 0.0000
# 3 -1.9109 22.7421 166.9906 0.0000 0.0000 0.0000
# 4 0.0000 0.0000 0.0000 2.0466 0.0000 0.0000
# 5 0.0000 0.0000 0.0000 0.0000 29.6555 0.0000
# 6 0.0000 0.0000 0.0000 0.0000 0.0000 59.3223
#
#
#
# Elastic Compliance Matrix: (Units=1/GPa)
#
#
# Indices 1 2 3 4 5 6 
#
# 1 0.083023 0.020762 -0.001878 0.000000 0.000000 0.000000
# 2 0.020762 0.028149 -0.003596 0.000000 0.000000 0.000000
# 3 -0.001878 -0.003596 0.006457 0.000000 0.000000 0.000000
# 4 0.000000 0.000000 0.000000 0.488611 0.000000 0.000000
# 5 0.000000 0.000000 0.000000 0.000000 0.033721 0.000000
# 6 0.000000 0.000000 0.000000 0.000000 0.000000 0.016857
#
#
# Mechanical properties :
#
#
# Convention : Reuss Voigt Hill
#
# Bulk Modulus (GPa) = 6.74734 27.53266 17.14000
# Shear Modulus (GPa) = 7.40037 32.78898 20.09467
#
# Velocity S-wave (km/s) = 1.80940 3.80865 2.98159
# Velocity P-wave (km/s) = 2.71113 5.61440 4.40861
#
# Compressibility (1/GPa) = 0.14820661
#
# Stress axis : x y z
#
# Youngs Moduli (GPa) = 12.04481 35.52531 154.88025
#
# Poissons Ratio (x) = -0.73759 0.29079
# Poissons Ratio (y) = -0.25008 0.55694
# Poissons Ratio (z) = 0.02261 0.12775
#
# Static dielectric constant tensor:
#      x y z
#    x 1.852780 0.000000 0.000000 
#    y 0.000000 1.867460 0.000000 
#    z 0.000000 0.000000 1.858860 
# 
# From -- ./inp_files/22726.got.cif
#   From: 2010.05.17/outbox.cif.g08.bks.cpg/sg55_12_cif.got.tgz:22726.got - 2010.06.03 13:27:54.
