data_PCOD9426113
_publ_section_title
;
Structure prediction by ZEFSAII (Michael W. Deem and Ramdas Pophale) SiO2 
 PCOD9426113
Probable space group: P B A M
;
_chemical_formula_sum "Si O2"
_cell_formula_units_Z 58
_cell_length_a 27.087353
_cell_length_b 11.390723
_cell_length_c 10.238977
_cell_angle_alpha 90.000000
_cell_angle_beta 90.000000
_cell_angle_gamma 90.000000
_cell_volume 3159.180396
_symmetry_space_group_name_H-M "P B A M"
_symmetry_group_IT_number 55
_symmetry_cell_setting 'orthorhombic'
loop_
_space_group_symop_operation_xyz
x,y,z
-x,-y,z
1/2+x,1/2-y,-z
1/2-x,1/2+y,-z
-x,-y,-z
x,y,-z
1/2-x,1/2+y,z
1/2+x,1/2-y,z
loop_
_atom_site_type_symbol
_atom_site_label
_atom_site_fract_x
_atom_site_fract_y
_atom_site_fract_z
Si Si1 0.720195 0.793460 0.342337
Si Si2 0.218845 0.971708 0.658275
Si Si3 0.500000 0.500000 0.500000
Si Si4 0.041139 0.865590 0.753630
Si Si5 0.940029 0.772900 0.147641
Si Si6 0.447787 0.934105 0.350957
Si Si7 0.629915 0.484261 0.147643
Si Si8 0.891490 0.333328 0.654177
O O1 0.719571 0.797976 0.500000
O O2 0.738905 0.660755 0.310151
O O3 0.749190 0.912550 0.304015
O O4 0.663302 0.803829 0.297228
O O5 0.211244 0.974985 0.500000
O O6 0.168489 0.984867 0.739679
O O7 0.530381 0.570832 0.383802
O O8 0.066206 0.740513 0.724160
O O9 0.989323 0.848617 0.825898
O O10 0.081862 0.935006 0.834993
O O11 0.941163 0.670164 0.251641
O O12 0.891996 0.853768 0.164404
O O13 0.941325 0.728273 0.000000
O O14 0.447551 0.888892 0.500000
O O15 0.500000 0.000000 0.332680
O O16 0.405015 0.030273 0.335149
O O17 0.649904 0.496896 0.000000
O O18 0.893294 0.303891 0.500000
#
# Coordination Sequence:
#
# PCOD9426113 Si02
#       8
#     8   8   2   8   8   8   8   8
#     4   9  19  36  61  92 119 146 192 251 314 363
#     4  10  21  38  65  91 116 151 199 254 308 371
#     4  12  24  28  62 102 120 152 206 256 290 352
#     4  12  21  35  58  89 121 154 200 244 295 352
#     4  11  24  39  55  81 124 164 198 242 291 353
#     4  10  21  35  56  84 116 154 196 244 288 343
#     4  11  24  40  58  85 121 159 198 244 301 353
#     4  10  19  34  57  86 121 151 188 244 300 351
#
# _framework density 18.359192
#
# number of rings (size 3 to 8) (size 9 to 14) (size 15 to 20)
#    0.000    1.517    4.828    0.414    1.931    3.034 
#    0.000    3.448    0.000    0.000    0.000    0.000 
#    0.000    0.000    0.000    0.000    0.000    0.000 
#
# Total GULP energy -322884.000719 kJ/mol
# GULP energy per Si atom -5566.965530 kJ/mol
# Density = 1.831741 g / cm^3
# Si number density = 18.359192 Si / 1000 Ang^3
#
#
#
# Elastic Constant Matrix: (Units=GPa)
#
#
# Indices 1 2 3 4 5 6 
#
# 1 53.7701 36.3486 6.5584 0.0000 0.0000 0.0000
# 2 36.3486 98.1986 44.5269 0.0000 0.0000 0.0000
# 3 6.5584 44.5269 63.8041 0.0000 0.0000 0.0000
# 4 0.0000 0.0000 0.0000 14.2310 0.0000 0.0000
# 5 0.0000 0.0000 0.0000 0.0000 11.3581 0.0000
# 6 0.0000 0.0000 0.0000 0.0000 0.0000 20.7939
#
#
#
# Elastic Compliance Matrix: (Units=1/GPa)
#
#
# Indices 1 2 3 4 5 6 
#
# 1 0.026276 -0.012437 0.005979 0.000000 0.000000 0.000000
# 2 -0.012437 0.020784 -0.013226 0.000000 0.000000 0.000000
# 3 0.005979 -0.013226 0.024289 0.000000 0.000000 0.000000
# 4 0.000000 0.000000 0.000000 0.070269 0.000000 0.000000
# 5 0.000000 0.000000 0.000000 0.000000 0.088043 0.000000
# 6 0.000000 0.000000 0.000000 0.000000 0.000000 0.048091
#
#
# Mechanical properties :
#
#
# Convention : Reuss Voigt Hill
#
# Bulk Modulus (GPa) = 31.27025 43.40450 37.33738
# Shear Modulus (GPa) = 15.25408 17.83255 16.54331
#
# Velocity S-wave (km/s) = 2.88561 3.11997 3.00508
# Velocity P-wave (km/s) = 5.30771 6.05575 5.69403
#
# Compressibility (1/GPa) = 0.03197928
#
# Stress axis : x y z
#
# Youngs Moduli (GPa) = 38.05768 48.11304 41.17135
#
# Poissons Ratio (x) = 0.59838 -0.24614
# Poissons Ratio (y) = 0.47332 0.54455
# Poissons Ratio (z) = -0.22753 0.63636
#
# Static dielectric constant tensor:
#      x y z
#    x 1.630020 0.000000 0.000000 
#    y 0.000000 1.676230 0.000000 
#    z 0.000000 0.000000 1.604710 
# 
# From -- ./inp_files/10225.got.cif
#   From: 2010.05.17/outbox.cif.g08.bks.cpg/sg55_6_cif.got.tgz:10225.got - 2010.06.03 13:27:54.
