data_PCOD9426734
_publ_section_title
;
Structure prediction by ZEFSAII (Michael W. Deem and Ramdas Pophale) SiO2 
 PCOD9426734
Probable space group: P B A M
;
_chemical_formula_sum "Si O2"
_cell_formula_units_Z 56
_cell_length_a 22.091319
_cell_length_b 9.448694
_cell_length_c 13.767905
_cell_angle_alpha 90.000000
_cell_angle_beta 90.000000
_cell_angle_gamma 90.000000
_cell_volume 2873.831442
_symmetry_space_group_name_H-M "P B A M"
_symmetry_group_IT_number 55
_symmetry_cell_setting 'orthorhombic'
loop_
_space_group_symop_operation_xyz
x,y,z
-x,-y,z
1/2+x,1/2-y,-z
1/2-x,1/2+y,-z
-x,-y,-z
x,y,-z
1/2-x,1/2+y,z
1/2+x,1/2-y,z
loop_
_atom_site_type_symbol
_atom_site_label
_atom_site_fract_x
_atom_site_fract_y
_atom_site_fract_z
Si Si1 0.121547 0.673671 0.112907
Si Si2 0.653163 0.548261 0.789863
Si Si3 0.937595 0.548656 0.758349
Si Si4 0.796888 0.898037 0.386407
Si Si5 0.607906 0.271566 0.887933
Si Si6 0.779094 0.558952 0.109434
Si Si7 0.674918 0.069802 0.385752
O O1 0.074678 0.558427 0.152268
O O2 0.185784 0.590043 0.117962
O O3 0.121607 0.804701 0.185740
O O4 0.111778 0.711806 0.000000
O O5 0.657334 0.484360 0.682221
O O6 0.624088 0.429633 0.858731
O O7 0.722970 0.569215 0.820664
O O8 0.936885 0.701690 0.809774
O O9 0.881685 0.540924 0.683934
O O10 0.000000 0.500000 0.711592
O O11 0.810463 0.920363 0.500000
O O12 0.801820 0.730319 0.366223
O O13 0.729289 0.958658 0.369922
O O14 0.669950 0.179156 0.878005
O O15 0.588326 0.259124 0.000000
O O16 0.755050 0.571391 0.000000
O O17 0.658411 0.063361 0.500000
#
# Coordination Sequence:
#
# PCOD9426734 Si02
#       7
#     8   8   8   8   8   8   8
#     4  10  22  36  53  84 118 155 203 248 291 349
#     4  12  20  31  55  82 119 156 191 239 303 356
#     4  11  23  42  62  83 115 164 208 249 293 350
#     4  10  22  37  60  92 127 155 188 246 305 362
#     4  10  20  34  53  81 112 153 204 244 293 350
#     4   9  18  30  48  78 116 153 188 231 291 360
#     4  10  22  41  64  95 122 153 198 245 306 359
#
# _framework density 19.486180999999998
#
# number of rings (size 3 to 8) (size 9 to 14) (size 15 to 20)
#    0.000    1.714    1.429    5.143    4.000    3.714 
#    0.000    0.714    0.000    1.714    0.000    2.000 
#    0.000    0.000    0.000    0.000    0.000    0.000 
#
# Total GULP energy -312763.153965 kJ/mol
# GULP energy per Si atom -5585.056321 kJ/mol
# Density = 1.944183 g / cm^3
# Si number density = 19.486181 Si / 1000 Ang^3
#
#
#
# Elastic Constant Matrix: (Units=GPa)
#
#
# Indices 1 2 3 4 5 6 
#
# 1 25.7658 13.4546 19.5971 0.0000 0.0000 0.0000
# 2 13.4546 68.2000 -0.9223 0.0000 0.0000 0.0000
# 3 19.5971 -0.9223 80.7103 0.0000 0.0000 0.0000
# 4 0.0000 0.0000 0.0000 28.7395 0.0000 0.0000
# 5 0.0000 0.0000 0.0000 0.0000 9.3481 0.0000
# 6 0.0000 0.0000 0.0000 0.0000 0.0000 42.2397
#
#
#
# Elastic Compliance Matrix: (Units=1/GPa)
#
#
# Indices 1 2 3 4 5 6 
#
# 1 0.054754 -0.010983 -0.013420 0.000000 0.000000 0.000000
# 2 -0.010983 0.016868 0.002860 0.000000 0.000000 0.000000
# 3 -0.013420 0.002860 0.015681 0.000000 0.000000 0.000000
# 4 0.000000 0.000000 0.000000 0.034795 0.000000 0.000000
# 5 0.000000 0.000000 0.000000 0.000000 0.106973 0.000000
# 6 0.000000 0.000000 0.000000 0.000000 0.000000 0.023674
#
#
# Mechanical properties :
#
#
# Convention : Reuss Voigt Hill
#
# Bulk Modulus (GPa) = 22.61662 26.54833 24.58248
# Shear Modulus (GPa) = 16.09933 25.56859 20.83396
#
# Velocity S-wave (km/s) = 2.87747 3.62628 3.27336
# Velocity P-wave (km/s) = 4.76146 5.58453 5.18934
#
# Compressibility (1/GPa) = 0.04421526
#
# Stress axis : x y z
#
# Youngs Moduli (GPa) = 18.26364 59.28299 63.77070
#
# Poissons Ratio (x) = 0.65113 0.85581
# Poissons Ratio (y) = 0.20060 -0.18236
# Poissons Ratio (z) = 0.24510 -0.16953
#
# Static dielectric constant tensor:
#      x y z
#    x 1.686210 0.000000 0.000000 
#    y 0.000000 1.694940 0.000000 
#    z 0.000000 0.000000 1.708210 
# 
# From -- ./inp_files/19739.got.cif
#   From: 2010.05.17/outbox.cif.g08.bks.cpg/sg55_10_cif.got.tgz:19739.got - 2010.06.03 13:27:54.
