data_PCOD9426991
_publ_section_title
;
Structure prediction by ZEFSAII (Michael W. Deem and Ramdas Pophale) SiO2 
 PCOD9426991
Probable space group: P B A M
;
_chemical_formula_sum "Si O2"
_cell_formula_units_Z 64
_cell_length_a 11.620436
_cell_length_b 31.785650
_cell_length_c 7.307574
_cell_angle_alpha 90.000000
_cell_angle_beta 90.000000
_cell_angle_gamma 90.000000
_cell_volume 2699.148270
_symmetry_space_group_name_H-M "P B A M"
_symmetry_group_IT_number 55
_symmetry_cell_setting 'orthorhombic'
loop_
_space_group_symop_operation_xyz
x,y,z
-x,-y,z
1/2+x,1/2-y,-z
1/2-x,1/2+y,-z
-x,-y,-z
x,y,-z
1/2-x,1/2+y,z
1/2+x,1/2-y,z
loop_
_atom_site_type_symbol
_atom_site_label
_atom_site_fract_x
_atom_site_fract_y
_atom_site_fract_z
Si Si1 0.379086 0.021904 0.723462
Si Si2 0.726798 0.817918 0.703518
Si Si3 0.445134 0.114747 0.723443
Si Si4 0.400987 0.610308 0.787505
Si Si5 0.855258 0.667107 0.722678
Si Si6 0.876171 0.986134 0.291843
Si Si7 0.404609 0.328772 0.279557
Si Si8 0.083105 0.241684 0.723380
O O1 0.375479 0.020674 0.500000
O O2 0.393388 0.070541 0.781757
O O3 0.253118 0.004695 0.783596
O O4 0.500000 0.000000 0.776682
O O5 0.687511 0.804607 0.500000
O O6 0.625931 0.844833 0.789780
O O7 0.824603 0.854063 0.692376
O O8 0.795705 0.778992 0.785233
O O9 0.436968 0.114601 0.500000
O O10 0.575597 0.125287 0.774935
O O11 0.383182 0.564534 0.706646
O O12 0.529015 0.628614 0.771739
O O13 0.368471 0.608857 0.000000
O O14 0.853297 0.667275 0.500000
O O15 0.725131 0.670059 0.786533
O O16 0.919687 0.710038 0.777154
O O17 0.876459 0.002995 0.500000
O O18 0.000000 0.000000 0.208720
O O19 0.402287 0.326364 0.500000
O O20 0.479626 0.288586 0.216255
O O21 0.085229 0.239863 0.500000
#
# Coordination Sequence:
#
# PCOD9426991 Si02
#       8
#     8   8   8   8   8   8   8   8
#     4   9  17  30  49  76 108 138 170 212 264 317
#     4   9  16  30  52  75 101 132 171 218 261 307
#     4   9  16  26  46  74 105 135 169 211 258 315
#     4  11  21  34  54  75 100 136 177 216 258 313
#     4   9  17  26  43  77 110 135 168 216 271 318
#     4  10  20  35  57  84 108 134 172 219 271 326
#     4   9  18  32  49  73 106 136 171 218 265 316
#     4   8  15  25  42  70 102 134 166 209 263 309
#
# _framework density 23.711182999999998
#
# number of rings (size 3 to 8) (size 9 to 14) (size 15 to 20)
#    0.000    2.750    1.250    1.875    1.750    1.250 
#    0.000    3.750    0.000    4.125    0.000    0.000 
#    0.000    0.000    0.000    0.000    0.000    0.000 
#
# Total GULP energy -357092.041462 kJ/mol
# GULP energy per Si atom -5579.563148 kJ/mol
# Density = 2.365722 g / cm^3
# Si number density = 23.711183 Si / 1000 Ang^3
#
#
#
# Elastic Constant Matrix: (Units=GPa)
#
#
# Indices 1 2 3 4 5 6 
#
# 1 190.9511 47.5554 1.6685 0.0000 0.0000 0.0000
# 2 47.5554 51.3345 -7.7927 0.0000 0.0000 0.0000
# 3 1.6685 -7.7927 107.4261 0.0000 0.0000 0.0000
# 4 0.0000 0.0000 0.0000 -103.4380 0.0000 0.0000
# 5 0.0000 0.0000 0.0000 0.0000 -42.2952 0.0000
# 6 0.0000 0.0000 0.0000 0.0000 0.0000 29.6892
#
#
#
# Elastic Compliance Matrix: (Units=1/GPa)
#
#
# Indices 1 2 3 4 5 6 
#
# 1 0.006842 -0.006425 -0.000572 0.000000 0.000000 0.000000
# 2 -0.006425 0.025731 0.001966 0.000000 0.000000 0.000000
# 3 -0.000572 0.001966 0.009460 0.000000 0.000000 0.000000
# 4 0.000000 0.000000 0.000000 -0.009668 0.000000 0.000000
# 5 0.000000 0.000000 0.000000 0.000000 -0.023643 0.000000
# 6 0.000000 0.000000 0.000000 0.000000 0.000000 0.033682
#
#
# Mechanical properties :
#
#
# Convention : Reuss Voigt Hill
#
# Bulk Modulus (GPa) = 31.27882 48.06380 39.67131
# Shear Modulus (GPa) = 79.20898 -2.65677 38.27610
#
# Velocity S-wave (km/s) = 5.78604 -1.05967 4.02215
# Velocity P-wave (km/s) = 7.60644 4.33789 6.19174
#
# Compressibility (1/GPa) = 0.03197051
#
# Stress axis : x y z
#
# Youngs Moduli (GPa) = 146.15311 38.86383 105.70547
#
# Poissons Ratio (x) = 0.24971 0.06050
# Poissons Ratio (y) = 0.93908 -0.20785
# Poissons Ratio (z) = 0.08365 -0.07642
#
# Static dielectric constant tensor:
#      x y z
#    x 1.964970 0.000000 0.000000 
#    y 0.000000 1.831040 0.000000 
#    z 0.000000 0.000000 1.940510 
# 
# From -- ./inp_files/4597.got.cif
#   From: 2010.05.17/outbox.cif.g08.bks.cpg/sg55_3_cif.got.tgz:4597.got - 2010.06.03 13:27:54.
