data_PCOD9426893
_publ_section_title
;
Structure prediction by ZEFSAII (Michael W. Deem and Ramdas Pophale) SiO2 
 PCOD9426893
Probable space group: P B A M
;
_chemical_formula_sum "Si O2"
_cell_formula_units_Z 40
_cell_length_a 26.293755
_cell_length_b 9.723062
_cell_length_c 7.712690
_cell_angle_alpha 90.000000
_cell_angle_beta 90.000000
_cell_angle_gamma 90.000000
_cell_volume 1971.794010
_symmetry_space_group_name_H-M "P B A M"
_symmetry_group_IT_number 55
_symmetry_cell_setting 'orthorhombic'
loop_
_space_group_symop_operation_xyz
x,y,z
-x,-y,z
1/2+x,1/2-y,-z
1/2-x,1/2+y,-z
-x,-y,-z
x,y,-z
1/2-x,1/2+y,z
1/2+x,1/2-y,z
loop_
_atom_site_type_symbol
_atom_site_label
_atom_site_fract_x
_atom_site_fract_y
_atom_site_fract_z
Si Si1 0.200470 0.188759 0.288131
Si Si2 0.989864 0.349144 0.200470
Si Si3 0.091814 0.864091 0.204522
Si Si4 0.913116 0.817932 0.702596
Si Si5 0.793864 0.126578 0.709935
O O1 0.199609 0.191901 0.500000
O O2 0.143095 0.223210 0.231690
O O3 0.245850 0.286011 0.229011
O O4 0.210957 0.031960 0.235959
O O5 0.041235 0.260098 0.205898
O O6 0.000000 0.500000 0.278454
O O7 0.945797 0.252121 0.277516
O O8 0.974558 0.373362 0.000000
O O9 0.150657 0.824404 0.230717
O O10 0.083500 0.016303 0.282007
O O11 0.081560 0.879394 0.000000
O O12 0.916524 0.782397 0.500000
O O13 0.794282 0.130197 0.500000
#
# Coordination Sequence:
#
# PCOD9426893 Si02
#       5
#     8   8   8   8   8
#     4   8  16  30  49  73  99 128 161 203 253 297
#     4  10  22  38  53  73 105 140 171 212 266 313
#     4  10  20  35  54  75 102 138 176 211 255 308
#     4  10  20  35  56  80 104 134 175 216 256 308
#     4   9  17  32  52  73 100 133 169 208 252 301
#
# _framework density 20.286095
#
# number of rings (size 3 to 8) (size 9 to 14) (size 15 to 20)
#    0.000    2.600    0.000    3.000    0.000    6.000 
#    0.000    7.000    0.000    0.000    0.000    0.000 
#    0.000    0.000    0.000    0.000    0.000    0.000 
#
# Total GULP energy -223193.342795 kJ/mol
# GULP energy per Si atom -5579.833570 kJ/mol
# Density = 2.023992 g / cm^3
# Si number density = 20.286095 Si / 1000 Ang^3
#
#
#
# Elastic Constant Matrix: (Units=GPa)
#
#
# Indices 1 2 3 4 5 6 
#
# 1 363.2236 272.3777 -36.6240 0.0000 0.0000 0.0000
# 2 272.3777 244.1734 -29.5944 0.0000 0.0000 0.0000
# 3 -36.6240 -29.5944 37.8952 0.0000 0.0000 0.0000
# 4 0.0000 0.0000 0.0000 14.4531 0.0000 0.0000
# 5 0.0000 0.0000 0.0000 0.0000 22.2047 0.0000
# 6 0.0000 0.0000 0.0000 0.0000 0.0000 39.4439
#
#
#
# Elastic Compliance Matrix: (Units=1/GPa)
#
#
# Indices 1 2 3 4 5 6 
#
# 1 0.016948 -0.018690 0.001784 0.000000 0.000000 0.000000
# 2 -0.018690 0.025134 0.001566 0.000000 0.000000 0.000000
# 3 0.001784 0.001566 0.029335 0.000000 0.000000 0.000000
# 4 0.000000 0.000000 0.000000 0.069189 0.000000 0.000000
# 5 0.000000 0.000000 0.000000 0.000000 0.045035 0.000000
# 6 0.000000 0.000000 0.000000 0.000000 0.000000 0.025352
#
#
# Mechanical properties :
#
#
# Convention : Reuss Voigt Hill
#
# Bulk Modulus (GPa) = 24.54790 117.51229 71.03010
# Shear Modulus (GPa) = 19.58838 44.49587 32.04212
#
# Velocity S-wave (km/s) = 3.11079 4.68847 3.97862
# Velocity P-wave (km/s) = 5.00298 9.34678 7.49640
#
# Compressibility (1/GPa) = 0.04073668
#
# Stress axis : x y z
#
# Youngs Moduli (GPa) = 59.00362 39.78739 34.08871
#
# Poissons Ratio (x) = 0.74361 -0.06081
# Poissons Ratio (y) = 1.10275 -0.05337
# Poissons Ratio (z) = -0.10526 -0.06229
#
# Static dielectric constant tensor:
#      x y z
#    x 1.705870 0.000000 0.000000 
#    y 0.000000 1.701460 0.000000 
#    z 0.000000 0.000000 1.745890 
# 
# From -- ./inp_files/2276.got.cif
#   From: 2010.05.17/outbox.cif.g08.bks.cpg/sg55_2_cif.got.tgz:2276.got - 2010.06.03 13:27:54.
