data_PCOD9426959
_publ_section_title
;
Structure prediction by ZEFSAII (Michael W. Deem and Ramdas Pophale) SiO2 
 PCOD9426959
Probable space group: P B A M
;
_chemical_formula_sum "Si O2"
_cell_formula_units_Z 64
_cell_length_a 25.460180
_cell_length_b 15.086109
_cell_length_c 7.524139
_cell_angle_alpha 90.000000
_cell_angle_beta 90.000000
_cell_angle_gamma 90.000000
_cell_volume 2889.984550
_symmetry_space_group_name_H-M "P B A M"
_symmetry_group_IT_number 55
_symmetry_cell_setting 'orthorhombic'
loop_
_space_group_symop_operation_xyz
x,y,z
-x,-y,z
1/2+x,1/2-y,-z
1/2-x,1/2+y,-z
-x,-y,-z
x,y,-z
1/2-x,1/2+y,z
1/2+x,1/2-y,z
loop_
_atom_site_type_symbol
_atom_site_label
_atom_site_fract_x
_atom_site_fract_y
_atom_site_fract_z
Si Si1 0.013378 0.400795 0.717770
Si Si2 0.133006 0.102172 0.716935
Si Si3 0.554134 0.547628 0.717125
Si Si4 0.116501 0.297880 0.716705
Si Si5 0.250012 0.559753 0.285105
Si Si6 0.676662 0.780013 0.798464
Si Si7 0.768263 0.640621 0.285548
Si Si8 0.561737 0.745787 0.298809
O O1 0.012745 0.403800 0.500000
O O2 0.070375 0.363838 0.772476
O O3 0.000000 0.500000 0.778101
O O4 0.970622 0.328026 0.777936
O O5 0.132723 0.101426 0.500000
O O6 0.107759 0.195717 0.771067
O O7 0.193560 0.096966 0.773510
O O8 0.101423 0.015799 0.776587
O O9 0.500000 0.500000 0.763583
O O10 0.557437 0.550471 0.500000
O O11 0.555935 0.648279 0.783045
O O12 0.116781 0.298900 0.500000
O O13 0.174678 0.326371 0.775858
O O14 0.250573 0.559262 0.500000
O O15 0.203926 0.625401 0.229885
O O16 0.242598 0.459175 0.223749
O O17 0.721307 0.707004 0.761075
O O18 0.623329 0.767292 0.692000
O O19 0.659642 0.770796 0.000000
O O20 0.770175 0.638962 0.500000
O O21 0.540460 0.736636 0.500000
#
# Coordination Sequence:
#
# PCOD9426959 Si02
#       8
#     8   8   8   8   8   8   8   8
#     4   9  18  30  49  81 114 141 178 236 293 335
#     4   9  15  26  46  74 108 137 171 221 277 334
#     4   9  16  27  49  84 116 140 171 223 288 341
#     4   9  16  28  49  80 112 139 173 228 292 342
#     4  10  20  35  58  85 110 145 193 242 292 345
#     4  12  25  39  56  81 120 160 196 236 285 350
#     4  10  20  36  61  88 114 146 190 243 299 350
#     4  10  20  35  56  82 114 149 192 239 285 344
#
# _framework density 22.145447000000001
#
# number of rings (size 3 to 8) (size 9 to 14) (size 15 to 20)
#    0.000    2.250    1.250    2.625    1.750    5.500 
#    0.000    0.000    0.000    1.500    0.000    0.000 
#    0.000    0.000    0.000    0.000    0.000    0.000 
#
# Total GULP energy -357625.634372 kJ/mol
# GULP energy per Si atom -5587.900537 kJ/mol
# Density = 2.209504 g / cm^3
# Si number density = 22.145447 Si / 1000 Ang^3
#
#
#
# Elastic Constant Matrix: (Units=GPa)
#
#
# Indices 1 2 3 4 5 6 
#
# 1 88.5819 25.3465 0.2871 0.0000 0.0000 0.0000
# 2 25.3465 128.0729 9.0043 0.0000 0.0000 0.0000
# 3 0.2871 9.0043 58.9780 0.0000 0.0000 0.0000
# 4 0.0000 0.0000 0.0000 -0.0435 0.0000 0.0000
# 5 0.0000 0.0000 0.0000 0.0000 -61.5745 0.0000
# 6 0.0000 0.0000 0.0000 0.0000 0.0000 43.3240
#
#
#
# Elastic Compliance Matrix: (Units=1/GPa)
#
#
# Indices 1 2 3 4 5 6 
#
# 1 0.011972 -0.002391 0.000307 0.000000 0.000000 0.000000
# 2 -0.002391 0.008370 -0.001266 0.000000 0.000000 0.000000
# 3 0.000307 -0.001266 0.017147 0.000000 0.000000 0.000000
# 4 0.000000 0.000000 0.000000-22.970636 0.000000 0.000000
# 5 0.000000 0.000000 0.000000 0.000000 -0.016240 0.000000
# 6 0.000000 0.000000 0.000000 0.000000 0.000000 0.023082
#
#
# Mechanical properties :
#
#
# Convention : Reuss Voigt Hill
#
# Bulk Modulus (GPa) = 32.47938 38.32321 35.40129
# Shear Modulus (GPa) = -0.21825 12.40752 6.09463
#
# Velocity S-wave (km/s) = -0.31427 2.36958 1.66074
# Velocity P-wave (km/s) = 3.81661 4.98290 4.43824
#
# Compressibility (1/GPa) = 0.03078877
#
# Stress axis : x y z
#
# Youngs Moduli (GPa) = 83.52731 119.47058 58.31821
#
# Poissons Ratio (x) = 0.28565 -0.01789
# Poissons Ratio (y) = 0.19971 0.07385
# Poissons Ratio (z) = -0.02562 0.15128
#
# Static dielectric constant tensor:
#      x y z
#    x 1.773040 0.000000 0.000000 
#    y 0.000000 1.782440 0.000000 
#    z 0.000000 0.000000 1.832060 
# 
# From -- ./inp_files/9765.got.cif
#   From: 2010.05.17/outbox.cif.g08.bks.cpg/sg55_5_cif.got.tgz:9765.got - 2010.06.03 13:27:54.
