data_PCOD9426075
_publ_section_title
;
Structure prediction by ZEFSAII (Michael W. Deem and Ramdas Pophale) SiO2 
 PCOD9426075
Probable space group: P B A M
;
_chemical_formula_sum "Si O2"
_cell_formula_units_Z 40
_cell_length_a 15.536880
_cell_length_b 10.432479
_cell_length_c 11.484863
_cell_angle_alpha 90.000000
_cell_angle_beta 90.000000
_cell_angle_gamma 90.000000
_cell_volume 1861.560476
_symmetry_space_group_name_H-M "P B A M"
_symmetry_group_IT_number 55
_symmetry_cell_setting 'orthorhombic'
loop_
_space_group_symop_operation_xyz
x,y,z
-x,-y,z
1/2+x,1/2-y,-z
1/2-x,1/2+y,-z
-x,-y,-z
x,y,-z
1/2-x,1/2+y,z
1/2+x,1/2-y,z
loop_
_atom_site_type_symbol
_atom_site_label
_atom_site_fract_x
_atom_site_fract_y
_atom_site_fract_z
Si Si1 0.097578 0.594748 0.632960
Si Si2 0.067457 0.335113 0.254344
Si Si3 0.594254 0.569193 0.371649
Si Si4 0.544437 0.640881 0.873669
Si Si5 0.711172 0.320954 0.370669
O O1 0.099668 0.543241 0.500000
O O2 0.089810 0.485099 0.732529
O O3 0.188361 0.662919 0.650729
O O4 0.009109 0.674556 0.648282
O O5 0.154780 0.263084 0.284957
O O6 0.023437 0.256965 0.148974
O O7 0.500000 0.500000 0.372848
O O8 0.602135 0.634326 0.500000
O O9 0.599982 0.632822 0.244016
O O10 0.667094 0.460220 0.371098
O O11 0.500000 0.500000 0.877973
O O12 0.586591 0.660581 0.000000
O O13 0.699817 0.264616 0.500000
#
# Coordination Sequence:
#
# PCOD9426075 Si02
#       5
#     8   8   8   8   8
#     4  10  23  37  58  91 128 170 207 255 325 381
#     4  11  20  39  60  82 123 167 207 257 310 378
#     4   9  16  29  54  89 118 149 196 248 302 357
#     4  10  20  36  61  90 119 162 206 247 310 370
#     4  10  19  34  56  87 124 164 208 257 311 372
#
# _framework density 21.487348999999998
#
# number of rings (size 3 to 8) (size 9 to 14) (size 15 to 20)
#    0.000    2.000    4.000    2.400    0.000    3.200 
#    0.000    6.000    0.000    7.200    0.000    0.000 
#    0.000    0.000    0.000    0.000    0.000    0.000 
#
# Total GULP energy -222680.988880 kJ/mol
# GULP energy per Si atom -5567.024722 kJ/mol
# Density = 2.143844 g / cm^3
# Si number density = 21.487349 Si / 1000 Ang^3
#
#
#
# Elastic Constant Matrix: (Units=GPa)
#
#
# Indices 1 2 3 4 5 6 
#
# 1 124.8073 14.1696 24.6671 0.0000 0.0000 0.0000
# 2 14.1696 59.6282 35.8127 0.0000 0.0000 0.0000
# 3 24.6671 35.8127 130.3626 0.0000 0.0000 0.0000
# 4 0.0000 0.0000 0.0000 14.6421 0.0000 0.0000
# 5 0.0000 0.0000 0.0000 0.0000 11.7463 0.0000
# 6 0.0000 0.0000 0.0000 0.0000 0.0000 35.8115
#
#
#
# Elastic Compliance Matrix: (Units=1/GPa)
#
#
# Indices 1 2 3 4 5 6 
#
# 1 0.008400 -0.001247 -0.001247 0.000000 0.000000 0.000000
# 2 -0.001247 0.020270 -0.005332 0.000000 0.000000 0.000000
# 3 -0.001247 -0.005332 0.009372 0.000000 0.000000 0.000000
# 4 0.000000 0.000000 0.000000 0.068296 0.000000 0.000000
# 5 0.000000 0.000000 0.000000 0.000000 0.085133 0.000000
# 6 0.000000 0.000000 0.000000 0.000000 0.000000 0.027924
#
#
# Mechanical properties :
#
#
# Convention : Reuss Voigt Hill
#
# Bulk Modulus (GPa) = 44.66557 51.56633 48.11595
# Shear Modulus (GPa) = 20.61760 28.44988 24.53374
#
# Velocity S-wave (km/s) = 3.10098 3.64267 3.38268
# Velocity P-wave (km/s) = 5.80116 6.46085 6.13987
#
# Compressibility (1/GPa) = 0.02238861
#
# Stress axis : x y z
#
# Youngs Moduli (GPa) = 119.04204 49.33489 106.70392
#
# Poissons Ratio (x) = 0.06154 0.13304
# Poissons Ratio (y) = 0.14849 0.56898
# Poissons Ratio (z) = 0.14843 0.26307
#
# Static dielectric constant tensor:
#      x y z
#    x 1.757760 0.000000 0.000000 
#    y 0.000000 1.985190 0.000000 
#    z 0.000000 0.000000 1.752400 
# 
# From -- ./inp_files/13954.got.cif
#   From: 2010.05.17/outbox.cif.g08.bks.cpg/sg55_7_cif.got.tgz:13954.got - 2010.06.03 13:27:54.
