data_PCOD9426897
_publ_section_title
;
Structure prediction by ZEFSAII (Michael W. Deem and Ramdas Pophale) SiO2 
 PCOD9426897
Probable space group: P B A M
;
_chemical_formula_sum "Si O2"
_cell_formula_units_Z 40
_cell_length_a 12.151589
_cell_length_b 8.381619
_cell_length_c 19.153845
_cell_angle_alpha 90.000000
_cell_angle_beta 90.000000
_cell_angle_gamma 90.000000
_cell_volume 1950.818907
_symmetry_space_group_name_H-M "P B A M"
_symmetry_group_IT_number 55
_symmetry_cell_setting 'orthorhombic'
loop_
_space_group_symop_operation_xyz
x,y,z
-x,-y,z
1/2+x,1/2-y,-z
1/2-x,1/2+y,-z
-x,-y,-z
x,y,-z
1/2-x,1/2+y,z
1/2+x,1/2-y,z
loop_
_atom_site_type_symbol
_atom_site_label
_atom_site_fract_x
_atom_site_fract_y
_atom_site_fract_z
Si Si1 0.074273 0.158445 0.887111
Si Si2 0.426512 0.192642 0.000000
Si Si3 0.886178 0.906980 0.268194
Si Si4 0.223201 0.013596 0.000000
Si Si5 0.613856 0.912092 0.581363
Si Si6 0.254316 0.344634 0.657469
O O1 0.105652 0.178894 0.806876
O O2 0.001295 0.282963 0.931029
O O3 0.179191 0.110028 0.932822
O O4 0.000000 0.000000 0.887041
O O5 0.353791 0.033449 0.000000
O O6 0.339320 0.343491 0.000000
O O7 0.844790 0.772146 0.321103
O O8 0.794545 0.046343 0.277791
O O9 0.000000 0.000000 0.281927
O O10 0.610895 0.868242 0.500000
O O11 0.645262 0.761733 0.629043
O O12 0.500000 0.000000 0.599279
O O13 0.710115 0.039097 0.597458
#
# Coordination Sequence:
#
# PCOD9426897 Si02
#       6
#     8   4   8   4   8   8
#     4   8  17  32  49  70  99 136 169 209 265 312
#     4   9  17  33  54  74 100 135 176 220 267 315
#     4  10  20  35  54  76 109 143 178 223 269 320
#     4   9  17  31  52  72  96 129 173 214 255 309
#     4  10  20  36  57  81 111 142 177 225 271 315
#     4  10  21  35  55  82 107 143 185 217 266 331
#
# _framework density 20.50421
#
# number of rings (size 3 to 8) (size 9 to 14) (size 15 to 20)
#    0.000    2.600    0.000    3.000    0.000    4.800 
#    0.000    2.000    0.000   24.000    0.000    0.000 
#    0.000    0.000    0.000    0.000    0.000    0.000 
#
# Total GULP energy -222894.459656 kJ/mol
# GULP energy per Si atom -5572.361491 kJ/mol
# Density = 2.045754 g / cm^3
# Si number density = 20.504210 Si / 1000 Ang^3
#
#
#
# Elastic Constant Matrix: (Units=GPa)
#
#
# Indices 1 2 3 4 5 6 
#
# 1 59.8907 24.3557 27.0023 0.0000 0.0000 0.0000
# 2 24.3557 62.9614 22.8129 0.0000 0.0000 0.0000
# 3 27.0023 22.8129 81.3274 0.0000 0.0000 0.0000
# 4 0.0000 0.0000 0.0000 16.5119 0.0000 0.0000
# 5 0.0000 0.0000 0.0000 0.0000 16.3705 0.0000
# 6 0.0000 0.0000 0.0000 0.0000 0.0000 42.7799
#
#
#
# Elastic Compliance Matrix: (Units=1/GPa)
#
#
# Indices 1 2 3 4 5 6 
#
# 1 0.021764 -0.006457 -0.005415 0.000000 0.000000 0.000000
# 2 -0.006457 0.019595 -0.003353 0.000000 0.000000 0.000000
# 3 -0.005415 -0.003353 0.015034 0.000000 0.000000 0.000000
# 4 0.000000 0.000000 0.000000 0.060562 0.000000 0.000000
# 5 0.000000 0.000000 0.000000 0.000000 0.061086 0.000000
# 6 0.000000 0.000000 0.000000 0.000000 0.000000 0.023375
#
#
# Mechanical properties :
#
#
# Convention : Reuss Voigt Hill
#
# Bulk Modulus (GPa) = 38.54399 39.16903 38.85651
# Shear Modulus (GPa) = 20.78870 23.79971 22.29420
#
# Velocity S-wave (km/s) = 3.18759 3.41063 3.30100
# Velocity P-wave (km/s) = 5.69092 5.88679 5.78968
#
# Compressibility (1/GPa) = 0.02594438
#
# Stress axis : x y z
#
# Youngs Moduli (GPa) = 45.94660 51.03232 66.51466
#
# Poissons Ratio (x) = 0.32953 0.36017
# Poissons Ratio (y) = 0.29669 0.22300
# Poissons Ratio (z) = 0.24880 0.17110
#
# Static dielectric constant tensor:
#      x y z
#    x 1.737840 0.000000 0.000000 
#    y 0.000000 1.744520 0.000000 
#    z 0.000000 0.000000 1.728840 
# 
# From -- ./inp_files/21192.got.cif
#   From: 2010.05.17/outbox.cif.g08.bks.cpg/sg55_11_cif.got.tgz:21192.got - 2010.06.03 13:27:54.
