data_PCOD9426211
_publ_section_title
;
Structure prediction by ZEFSAII (Michael W. Deem and Ramdas Pophale) SiO2 
 PCOD9426211
Probable space group: P B A M
;
_chemical_formula_sum "Si O2"
_cell_formula_units_Z 64
_cell_length_a 15.061160
_cell_length_b 25.334852
_cell_length_c 7.842566
_cell_angle_alpha 90.000000
_cell_angle_beta 90.000000
_cell_angle_gamma 90.000000
_cell_volume 2992.505629
_symmetry_space_group_name_H-M "P B A M"
_symmetry_group_IT_number 55
_symmetry_cell_setting 'orthorhombic'
loop_
_space_group_symop_operation_xyz
x,y,z
-x,-y,z
1/2+x,1/2-y,-z
1/2-x,1/2+y,-z
-x,-y,-z
x,y,-z
1/2-x,1/2+y,z
1/2+x,1/2-y,z
loop_
_atom_site_type_symbol
_atom_site_label
_atom_site_fract_x
_atom_site_fract_y
_atom_site_fract_z
Si Si1 0.133185 0.852735 0.707860
Si Si2 0.558814 0.376815 0.293152
Si Si3 0.980260 0.669553 0.799307
Si Si4 0.652974 0.766789 0.293227
Si Si5 0.739907 0.061059 0.301737
Si Si6 0.453126 0.948316 0.197513
Si Si7 0.099656 0.011399 0.199876
Si Si8 0.855917 0.767421 0.295578
O O1 0.135467 0.853702 0.500000
O O2 0.126292 0.792346 0.759738
O O3 0.220497 0.883471 0.765248
O O4 0.043699 0.881986 0.761959
O O5 0.561732 0.378442 0.500000
O O6 0.612981 0.426083 0.223750
O O7 0.592020 0.319464 0.236179
O O8 0.970500 0.610186 0.726395
O O9 0.908889 0.713395 0.739298
O O10 0.078751 0.692409 0.766830
O O11 0.965452 0.665421 0.000000
O O12 0.652051 0.768661 0.500000
O O13 0.754570 0.772038 0.233601
O O14 0.715793 0.066996 0.500000
O O15 0.652503 0.043604 0.205182
O O16 0.822101 0.020961 0.287445
O O17 0.500000 0.000000 0.275421
O O18 0.483270 0.945737 0.000000
O O19 0.100829 0.997947 0.000000
O O20 0.000000 0.000000 0.268504
O O21 0.851563 0.770760 0.500000
#
# Coordination Sequence:
#
# PCOD9426211 Si02
#       8
#     8   8   8   8   8   8   8   8
#     4   9  17  32  56  84 116 152 191 240 296 345
#     4  10  19  35  57  83 116 155 195 240 294 349
#     4  11  23  39  62  90 120 157 199 246 300 359
#     4  10  20  37  61  88 119 157 197 240 294 352
#     4  11  22  38  64  92 116 153 206 257 301 353
#     4  10  24  46  65  84 118 160 199 247 305 358
#     4  11  23  37  55  84 121 160 198 239 295 359
#     4  10  21  38  62  90 122 158 198 246 297 352
#
# _framework density 21.386761
#
# number of rings (size 3 to 8) (size 9 to 14) (size 15 to 20)
#    0.000    1.750    2.500    1.875    0.000    4.750 
#    0.000    3.750    0.000    0.000    0.000    0.000 
#    0.000    0.000    0.000    0.000    0.000    0.000 
#
# Total GULP energy -357383.901658 kJ/mol
# GULP energy per Si atom -5584.123463 kJ/mol
# Density = 2.133808 g / cm^3
# Si number density = 21.386761 Si / 1000 Ang^3
#
#
#
# Elastic Constant Matrix: (Units=GPa)
#
#
# Indices 1 2 3 4 5 6 
#
# 1 120.3778 58.8072 -6.7877 0.0000 0.0000 0.0000
# 2 58.8072 147.6886 -2.1409 0.0000 0.0000 0.0000
# 3 -6.7877 -2.1409 26.5178 0.0000 0.0000 0.0000
# 4 0.0000 0.0000 0.0000 16.4977 0.0000 0.0000
# 5 0.0000 0.0000 0.0000 0.0000 22.4335 0.0000
# 6 0.0000 0.0000 0.0000 0.0000 0.0000 36.2435
#
#
#
# Elastic Compliance Matrix: (Units=1/GPa)
#
#
# Indices 1 2 3 4 5 6 
#
# 1 0.010457 -0.004130 0.002343 0.000000 0.000000 0.000000
# 2 -0.004130 0.008410 -0.000378 0.000000 0.000000 0.000000
# 3 0.002343 -0.000378 0.038280 0.000000 0.000000 0.000000
# 4 0.000000 0.000000 0.000000 0.060614 0.000000 0.000000
# 5 0.000000 0.000000 0.000000 0.000000 0.044576 0.000000
# 6 0.000000 0.000000 0.000000 0.000000 0.000000 0.027591
#
#
# Mechanical properties :
#
#
# Convention : Reuss Voigt Hill
#
# Bulk Modulus (GPa) = 18.93326 43.81572 31.37449
# Shear Modulus (GPa) = 23.60014 31.34866 27.47440
#
# Velocity S-wave (km/s) = 3.32549 3.83273 3.58808
# Velocity P-wave (km/s) = 4.85975 6.33389 5.64515
#
# Compressibility (1/GPa) = 0.05281709
#
# Stress axis : x y z
#
# Youngs Moduli (GPa) = 95.63172 118.90721 26.12347
#
# Poissons Ratio (x) = 0.49106 -0.06121
# Poissons Ratio (y) = 0.39494 0.00988
# Poissons Ratio (z) = -0.22408 0.04496
#
# Static dielectric constant tensor:
#      x y z
#    x 1.769950 0.000000 0.000000 
#    y 0.000000 1.802080 0.000000 
#    z 0.000000 0.000000 1.790090 
# 
# From -- ./inp_files/6676.got.cif
#   From: 2010.05.17/outbox.cif.g08.bks.cpg/sg55_4_cif.got.tgz:6676.got - 2010.06.03 13:27:54.
