data_PCOD9426639
_publ_section_title
;
Structure prediction by ZEFSAII (Michael W. Deem and Ramdas Pophale) SiO2 
 PCOD9426639
Probable space group: P B A M
;
_chemical_formula_sum "Si O2"
_cell_formula_units_Z 40
_cell_length_a 10.886025
_cell_length_b 13.481144
_cell_length_c 13.342001
_cell_angle_alpha 90.000000
_cell_angle_beta 90.000000
_cell_angle_gamma 90.000000
_cell_volume 1958.019641
_symmetry_space_group_name_H-M "P B A M"
_symmetry_group_IT_number 55
_symmetry_cell_setting 'orthorhombic'
loop_
_space_group_symop_operation_xyz
x,y,z
-x,-y,z
1/2+x,1/2-y,-z
1/2-x,1/2+y,-z
-x,-y,-z
x,y,-z
1/2-x,1/2+y,z
1/2+x,1/2-y,z
loop_
_atom_site_type_symbol
_atom_site_label
_atom_site_fract_x
_atom_site_fract_y
_atom_site_fract_z
Si Si1 0.856921 0.071810 0.615576
Si Si2 0.885180 0.423467 0.118647
Si Si3 0.618449 0.440977 0.201318
Si Si4 0.021831 0.760514 0.244938
Si Si5 0.431876 0.903636 0.388535
O O1 0.904165 0.077733 0.500000
O O2 0.897699 0.161064 0.690239
O O3 0.711032 0.076427 0.606837
O O4 0.880011 0.971310 0.680033
O O5 0.753092 0.463483 0.158452
O O6 0.909795 0.318323 0.174008
O O7 0.000000 0.500000 0.132685
O O8 0.874544 0.407375 0.000000
O O9 0.500000 0.500000 0.158024
O O10 0.579728 0.327105 0.189268
O O11 0.955168 0.692009 0.324616
O O12 0.483068 0.888044 0.500000
O O13 0.500000 0.000000 0.346830
#
# Coordination Sequence:
#
# PCOD9426639 Si02
#       5
#     8   8   8   8   8
#     4  10  21  37  59  90 127 166 205 246 301 371
#     4  11  25  45  68  92 122 164 213 267 324 375
#     4  10  23  41  64  94 128 164 205 258 312 371
#     4  11  21  37  61  88 122 160 204 256 308 370
#     4  10  20  33  53  82 118 160 203 249 301 362
#
# _framework density 20.428805000000001
#
# number of rings (size 3 to 8) (size 9 to 14) (size 15 to 20)
#    0.000    1.600    0.000    4.800    0.000    7.200 
#    0.000   12.000    0.000    0.000    0.000    0.000 
#    0.000    0.000    0.000    0.000    0.000    0.000 
#
# Total GULP energy -222998.021260 kJ/mol
# GULP energy per Si atom -5574.950531 kJ/mol
# Density = 2.038231 g / cm^3
# Si number density = 20.428805 Si / 1000 Ang^3
#
#
#
# Elastic Constant Matrix: (Units=GPa)
#
#
# Indices 1 2 3 4 5 6 
#
# 1 135.7377 46.6496 38.2305 0.0000 0.0000 0.0000
# 2 46.6496 106.8185 23.7460 0.0000 0.0000 0.0000
# 3 38.2305 23.7460 115.6140 0.0000 0.0000 0.0000
# 4 0.0000 0.0000 0.0000 14.9698 0.0000 0.0000
# 5 0.0000 0.0000 0.0000 0.0000 23.6760 0.0000
# 6 0.0000 0.0000 0.0000 0.0000 0.0000 31.8091
#
#
#
# Elastic Compliance Matrix: (Units=1/GPa)
#
#
# Indices 1 2 3 4 5 6 
#
# 1 0.009231 -0.003513 -0.002331 0.000000 0.000000 0.000000
# 2 -0.003513 0.011147 -0.001128 0.000000 0.000000 0.000000
# 3 -0.002331 -0.001128 0.009652 0.000000 0.000000 0.000000
# 4 0.000000 0.000000 0.000000 0.066801 0.000000 0.000000
# 5 0.000000 0.000000 0.000000 0.000000 0.042237 0.000000
# 6 0.000000 0.000000 0.000000 0.000000 0.000000 0.031438
#
#
# Mechanical properties :
#
#
# Convention : Reuss Voigt Hill
#
# Bulk Modulus (GPa) = 62.16593 63.93582 63.05088
# Shear Modulus (GPa) = 26.34205 30.72726 28.53465
#
# Velocity S-wave (km/s) = 3.59480 3.88250 3.74141
# Velocity P-wave (km/s) = 6.90845 7.17379 7.04237
#
# Compressibility (1/GPa) = 0.01608598
#
# Stress axis : x y z
#
# Youngs Moduli (GPa) = 108.33021 89.71316 103.60714
#
# Poissons Ratio (x) = 0.31518 0.24150
# Poissons Ratio (y) = 0.38059 0.11684
# Poissons Ratio (z) = 0.25250 0.10117
#
# Static dielectric constant tensor:
#      x y z
#    x 1.751110 0.000000 0.000000 
#    y 0.000000 1.704490 0.000000 
#    z 0.000000 0.000000 1.753190 
# 
# From -- ./inp_files/18144.got.cif
#   From: 2010.05.17/outbox.cif.g08.bks.cpg/sg55_10_cif.got.tgz:18144.got - 2010.06.03 13:27:54.
