data_PCOD9426026
_publ_section_title
;
Structure prediction by ZEFSAII (Michael W. Deem and Ramdas Pophale) SiO2 
 PCOD9426026
Probable space group: P B A M
;
_chemical_formula_sum "Si O2"
_cell_formula_units_Z 38
_cell_length_a 5.095349
_cell_length_b 11.424145
_cell_length_c 26.182354
_cell_angle_alpha 90.000000
_cell_angle_beta 90.000000
_cell_angle_gamma 90.000000
_cell_volume 1524.074978
_symmetry_space_group_name_H-M "P B A M"
_symmetry_group_IT_number 55
_symmetry_cell_setting 'orthorhombic'
loop_
_space_group_symop_operation_xyz
x,y,z
-x,-y,z
1/2+x,1/2-y,-z
1/2-x,1/2+y,-z
-x,-y,-z
x,y,-z
1/2-x,1/2+y,z
1/2+x,1/2-y,z
loop_
_atom_site_type_symbol
_atom_site_label
_atom_site_fract_x
_atom_site_fract_y
_atom_site_fract_z
Si Si1 0.860340 0.173888 0.712311
Si Si2 0.169254 0.832103 0.500000
Si Si3 0.257074 0.422842 0.175702
Si Si4 0.276260 0.315893 0.927881
Si Si5 0.500000 0.000000 0.000000
Si Si6 0.283130 0.832216 0.606975
O O1 0.660900 0.284835 0.710654
O O2 0.807112 0.116266 0.766472
O O3 0.778494 0.105524 0.660687
O O4 0.378827 0.723442 0.500000
O O5 0.228751 0.896167 0.553402
O O6 0.500000 0.500000 0.158269
O O7 0.240687 0.324020 0.133118
O O8 0.000000 0.500000 0.174858
O O9 0.572807 0.286745 0.942888
O O10 0.168864 0.429722 0.955606
O O11 0.571871 0.775581 0.606741
#
# Coordination Sequence:
#
# PCOD9426026 Si02
#       6
#     8   4   8   8   2   8
#     4  10  19  34  55  82 114 152 200 253 313 380
#     4   8  12  20  34  60  96 134 176 232 302 360
#     4  12  24  42  64  93 127 167 211 266 312 378
#     4  12  27  48  74 104 137 179 215 265 325 375
#     4  12  28  50  76 108 142 172 222 266 306 394
#     4   8  14  23  40  66 100 138 182 240 301 365
#
# _framework density 24.933153999999998
#
# number of rings (size 3 to 8) (size 9 to 14) (size 15 to 20)
#    0.000    1.684    1.053    4.421    0.000    0.842 
#    0.000    0.000    0.000    0.000    0.000    1.474 
#    0.000    0.000    0.000    0.000    0.000    0.000 
#
# Total GULP energy -212054.245368 kJ/mol
# GULP energy per Si atom -5580.374878 kJ/mol
# Density = 2.487640 g / cm^3
# Si number density = 24.933154 Si / 1000 Ang^3
#
#
#
# Elastic Constant Matrix: (Units=GPa)
#
#
# Indices 1 2 3 4 5 6 
#
# 1 124.4273 27.6926 -1.8311 0.0000 0.0000 0.0000
# 2 27.6926 26.8594 16.3143 0.0000 0.0000 0.0000
# 3 -1.8311 16.3143 206.8743 0.0000 0.0000 0.0000
# 4 0.0000 0.0000 0.0000 0.0031 0.0000 0.0000
# 5 0.0000 0.0000 0.0000 0.0000 69.9779 0.0000
# 6 0.0000 0.0000 0.0000 0.0000 0.0000 36.1180
#
#
#
# Elastic Compliance Matrix: (Units=1/GPa)
#
#
# Indices 1 2 3 4 5 6 
#
# 1 0.010626 -0.011567 0.001006 0.000000 0.000000 0.000000
# 2 -0.011567 0.051695 -0.004179 0.000000 0.000000 0.000000
# 3 0.001006 -0.004179 0.005172 0.000000 0.000000 0.000000
# 4 0.000000 0.000000 0.000000323.124719 0.000000 0.000000
# 5 0.000000 0.000000 0.000000 0.000000 0.014290 0.000000
# 6 0.000000 0.000000 0.000000 0.000000 0.000000 0.027687
#
#
# Mechanical properties :
#
#
# Convention : Reuss Voigt Hill
#
# Bulk Modulus (GPa) = 26.30621 49.16806 37.73713
# Shear Modulus (GPa) = 0.01547 42.28547 21.15047
#
# Velocity S-wave (km/s) = 0.07885 4.12266 2.91570
# Velocity P-wave (km/s) = 3.25298 6.51341 5.14813
#
# Compressibility (1/GPa) = 0.03801384
#
# Stress axis : x y z
#
# Youngs Moduli (GPa) = 94.10960 19.34435 193.33661
#
# Poissons Ratio (x) = 0.22375 -0.19454
# Poissons Ratio (y) = 1.08854 0.80797
# Poissons Ratio (z) = -0.09469 0.08084
#
# Static dielectric constant tensor:
#      x y z
#    x 1.897880 0.000000 0.000000 
#    y 0.000000 1.968320 0.000000 
#    z 0.000000 0.000000 2.056490 
# 
# From -- ./inp_files/23753.got.cif
#   From: 2010.05.17/outbox.cif.g08.bks.cpg/sg55_12_cif.got.tgz:23753.got - 2010.06.03 13:27:54.
