data_PCOD9426738
_publ_section_title
;
Structure prediction by ZEFSAII (Michael W. Deem and Ramdas Pophale) SiO2 
 PCOD9426738
Probable space group: P B A M
;
_chemical_formula_sum "Si O2"
_cell_formula_units_Z 56
_cell_length_a 13.356508
_cell_length_b 22.966582
_cell_length_c 9.156605
_cell_angle_alpha 90.000000
_cell_angle_beta 90.000000
_cell_angle_gamma 90.000000
_cell_volume 2808.819132
_symmetry_space_group_name_H-M "P B A M"
_symmetry_group_IT_number 55
_symmetry_cell_setting 'orthorhombic'
loop_
_space_group_symop_operation_xyz
x,y,z
-x,-y,z
1/2+x,1/2-y,-z
1/2-x,1/2+y,-z
-x,-y,-z
x,y,-z
1/2-x,1/2+y,z
1/2+x,1/2-y,z
loop_
_atom_site_type_symbol
_atom_site_label
_atom_site_fract_x
_atom_site_fract_y
_atom_site_fract_z
Si Si1 0.231984 0.841290 0.328019
Si Si2 0.411212 0.041447 0.169210
Si Si3 0.396374 0.557401 0.666313
Si Si4 0.802058 0.361025 0.332505
Si Si5 0.788760 0.037761 0.166856
Si Si6 0.002289 0.828125 0.327674
Si Si7 0.677316 0.264124 0.173978
O O1 0.255143 0.840573 0.500000
O O2 0.230361 0.906451 0.266530
O O3 0.304970 0.799764 0.238280
O O4 0.118986 0.816990 0.308548
O O5 0.388439 0.099815 0.259874
O O6 0.500000 0.000000 0.225431
O O7 0.310905 0.002295 0.169283
O O8 0.433704 0.056692 0.000000
O O9 0.410866 0.537446 0.500000
O O10 0.295403 0.596733 0.665897
O O11 0.375889 0.503502 0.770374
O O12 0.480729 0.603969 0.707927
O O13 0.824879 0.344739 0.500000
O O14 0.764232 0.306051 0.239934
O O15 0.808486 0.055335 0.000000
O O16 0.976415 0.821128 0.500000
O O17 0.927550 0.789651 0.232905
O O18 0.680544 0.265129 0.000000
#
# Coordination Sequence:
#
# PCOD9426738 Si02
#       7
#     8   8   8   8   8   8   8
#     4  11  23  40  60  82 115 154 194 239 288 341
#     4   9  18  34  55  81 114 151 191 239 291 342
#     4   8  15  31  55  80 107 139 178 223 275 334
#     4   9  17  32  55  80 107 144 189 232 276 331
#     4  10  20  34  53  81 116 150 186 233 291 342
#     4   9  20  39  62  85 109 146 194 238 281 340
#     4  11  22  38  60  84 113 148 188 238 291 344
#
# _framework density 19.937203
#
# number of rings (size 3 to 8) (size 9 to 14) (size 15 to 20)
#    0.000    2.429    0.000    3.429    0.000    6.000 
#    2.571    2.857    0.000    0.000    0.000    0.000 
#    0.000    0.000    0.000    0.000    0.000    0.000 
#
# Total GULP energy -312698.986155 kJ/mol
# GULP energy per Si atom -5583.910467 kJ/mol
# Density = 1.989183 g / cm^3
# Si number density = 19.937203 Si / 1000 Ang^3
#
#
#
# Elastic Constant Matrix: (Units=GPa)
#
#
# Indices 1 2 3 4 5 6 
#
# 1 20.7620 -2.8676 12.3353 0.0000 0.0000 0.0000
# 2 -2.8676 60.3501 46.2099 0.0000 0.0000 0.0000
# 3 12.3353 46.2099 112.0760 0.0000 0.0000 0.0000
# 4 0.0000 0.0000 0.0000 41.3088 0.0000 0.0000
# 5 0.0000 0.0000 0.0000 0.0000 13.0494 0.0000
# 6 0.0000 0.0000 0.0000 0.0000 0.0000 25.9685
#
#
#
# Elastic Compliance Matrix: (Units=1/GPa)
#
#
# Indices 1 2 3 4 5 6 
#
# 1 0.055952 0.010776 -0.010601 0.000000 0.000000 0.000000
# 2 0.010776 0.026290 -0.012026 0.000000 0.000000 0.000000
# 3 -0.010601 -0.012026 0.015048 0.000000 0.000000 0.000000
# 4 0.000000 0.000000 0.000000 0.024208 0.000000 0.000000
# 5 0.000000 0.000000 0.000000 0.000000 0.076632 0.000000
# 6 0.000000 0.000000 0.000000 0.000000 0.000000 0.038508
#
#
# Mechanical properties :
#
#
# Convention : Reuss Voigt Hill
#
# Bulk Modulus (GPa) = 13.58924 33.83815 23.71370
# Shear Modulus (GPa) = 17.55197 25.23271 21.39234
#
# Velocity S-wave (km/s) = 2.97031 3.56140 3.27920
# Velocity P-wave (km/s) = 4.31213 5.82414 5.12421
#
# Compressibility (1/GPa) = 0.07358761
#
# Stress axis : x y z
#
# Youngs Moduli (GPa) = 17.87251 38.03732 66.45592
#
# Poissons Ratio (x) = -0.40989 0.70451
# Poissons Ratio (y) = -0.19259 0.79917
# Poissons Ratio (z) = 0.18947 0.45742
#
# Static dielectric constant tensor:
#      x y z
#    x 1.722950 0.000000 0.000000 
#    y 0.000000 1.699380 0.000000 
#    z 0.000000 0.000000 1.675600 
# 
# From -- ./inp_files/5988.got.cif
#   From: 2010.05.17/outbox.cif.g08.bks.cpg/sg55_3_cif.got.tgz:5988.got - 2010.06.03 13:27:54.
