data_PCOD9426840
_publ_section_title
;
Structure prediction by ZEFSAII (Michael W. Deem and Ramdas Pophale) SiO2 
 PCOD9426840
Probable space group: P B A M
;
_chemical_formula_sum "Si O2"
_cell_formula_units_Z 48
_cell_length_a 5.160365
_cell_length_b 28.347545
_cell_length_c 13.840714
_cell_angle_alpha 90.000000
_cell_angle_beta 90.000000
_cell_angle_gamma 90.000000
_cell_volume 2024.670565
_symmetry_space_group_name_H-M "P B A M"
_symmetry_group_IT_number 55
_symmetry_cell_setting 'orthorhombic'
loop_
_space_group_symop_operation_xyz
x,y,z
-x,-y,z
1/2+x,1/2-y,-z
1/2-x,1/2+y,-z
-x,-y,-z
x,y,-z
1/2-x,1/2+y,z
1/2+x,1/2-y,z
loop_
_atom_site_type_symbol
_atom_site_label
_atom_site_fract_x
_atom_site_fract_y
_atom_site_fract_z
Si Si1 0.191004 0.543291 0.207528
Si Si2 0.102965 0.218345 0.115604
Si Si3 0.857990 0.629601 0.000000
Si Si4 0.528447 0.849156 0.805741
Si Si5 0.637916 0.434925 0.000000
Si Si6 0.942567 0.922098 0.394433
Si Si7 0.439572 0.856740 0.604219
O O1 0.384793 0.548693 0.297920
O O2 0.000000 0.500000 0.223742
O O3 0.042628 0.593906 0.204113
O O4 0.316767 0.538679 0.101161
O O5 0.851668 0.248567 0.138501
O O6 0.185720 0.171022 0.172192
O O7 0.106204 0.208797 0.000000
O O8 0.858666 0.659133 0.098239
O O9 0.636649 0.590759 0.000000
O O10 0.136508 0.604391 0.000000
O O11 0.423079 0.829401 0.705045
O O12 0.915399 0.946165 0.500000
O O13 0.721812 0.881344 0.394650
O O14 0.220955 0.897328 0.391425
O O15 0.407295 0.832340 0.500000
#
# Coordination Sequence:
#
# PCOD9426840 Si02
#       7
#     8   8   4   8   4   8   8
#     4  10  21  37  57  84 118 158 199 240 287 348
#     4  10  22  39  60  88 116 145 187 239 292 345
#     4  10  20  34  57  81 104 146 186 225 281 336
#     4  10  20  38  59  86 117 152 191 237 291 346
#     4  10  21  36  50  75 112 148 188 227 270 334
#     4   9  18  34  53  78 110 148 195 242 282 326
#     4   9  18  33  56  82 111 148 189 233 285 340
#
# _framework density 23.707560000000001
#
# number of rings (size 3 to 8) (size 9 to 14) (size 15 to 20)
#    0.000    2.333    0.833    1.250    0.000    5.667 
#    0.000   16.667    0.000   10.000    0.000    0.000 
#    0.000    0.000    0.000    0.000    0.000    0.000 
#
# Total GULP energy -268268.486295 kJ/mol
# GULP energy per Si atom -5588.926798 kJ/mol
# Density = 2.365360 g / cm^3
# Si number density = 23.707560 Si / 1000 Ang^3
#
#
#
# Elastic Constant Matrix: (Units=GPa)
#
#
# Indices 1 2 3 4 5 6 
#
# 1 77.0200 19.3101 9.1155 0.0000 0.0000 0.0000
# 2 19.3101 60.2924 -10.9929 0.0000 0.0000 0.0000
# 3 9.1155 -10.9929 232.3607 0.0000 0.0000 0.0000
# 4 0.0000 0.0000 0.0000 33.3288 0.0000 0.0000
# 5 0.0000 0.0000 0.0000 0.0000 32.2105 0.0000
# 6 0.0000 0.0000 0.0000 0.0000 0.0000 41.4525
#
#
#
# Elastic Compliance Matrix: (Units=1/GPa)
#
#
# Indices 1 2 3 4 5 6 
#
# 1 0.014257 -0.004709 -0.000782 0.000000 0.000000 0.000000
# 2 -0.004709 0.018285 0.001050 0.000000 0.000000 0.000000
# 3 -0.000782 0.001050 0.004384 0.000000 0.000000 0.000000
# 4 0.000000 0.000000 0.000000 0.030004 0.000000 0.000000
# 5 0.000000 0.000000 0.000000 0.000000 0.031046 0.000000
# 6 0.000000 0.000000 0.000000 0.000000 0.000000 0.024124
#
#
# Mechanical properties :
#
#
# Convention : Reuss Voigt Hill
#
# Bulk Modulus (GPa) = 35.65802 44.94874 40.30338
# Shear Modulus (GPa) = 35.63036 44.88106 40.25571
#
# Velocity S-wave (km/s) = 3.88095 4.35571 4.12516
# Velocity P-wave (km/s) = 5.92923 6.65561 6.30289
#
# Compressibility (1/GPa) = 0.02804418
#
# Stress axis : x y z
#
# Youngs Moduli (GPa) = 70.14234 54.68873 228.10226
#
# Poissons Ratio (x) = 0.25751 0.17839
# Poissons Ratio (y) = 0.33028 -0.23946
# Poissons Ratio (z) = 0.05486 -0.05741
#
# Static dielectric constant tensor:
#      x y z
#    x 1.938020 0.000000 0.000000 
#    y 0.000000 1.900130 0.000000 
#    z 0.000000 0.000000 2.006800 
# 
# From -- ./inp_files/16741.got.cif
#   From: 2010.05.17/outbox.cif.g08.bks.cpg/sg55_9_cif.got.tgz:16741.got - 2010.06.03 13:27:54.
