data_PCOD9426680
_publ_section_title
;
Structure prediction by ZEFSAII (Michael W. Deem and Ramdas Pophale) SiO2 
 PCOD9426680
Probable space group: P B A M
;
_chemical_formula_sum "Si O2"
_cell_formula_units_Z 64
_cell_length_a 29.162627
_cell_length_b 13.139883
_cell_length_c 7.526581
_cell_angle_alpha 90.000000
_cell_angle_beta 90.000000
_cell_angle_gamma 90.000000
_cell_volume 2884.136967
_symmetry_space_group_name_H-M "P B A M"
_symmetry_group_IT_number 55
_symmetry_cell_setting 'orthorhombic'
loop_
_space_group_symop_operation_xyz
x,y,z
-x,-y,z
1/2+x,1/2-y,-z
1/2-x,1/2+y,-z
-x,-y,-z
x,y,-z
1/2-x,1/2+y,z
1/2+x,1/2-y,z
loop_
_atom_site_type_symbol
_atom_site_label
_atom_site_fract_x
_atom_site_fract_y
_atom_site_fract_z
Si Si1 0.128410 0.397770 0.701255
Si Si2 0.950849 0.455179 0.281888
Si Si3 0.516342 0.610111 0.785721
Si Si4 0.078558 0.193436 0.216139
Si Si5 0.161522 0.061228 0.791000
Si Si6 0.405910 0.249171 0.294196
Si Si7 0.712284 0.227178 0.284311
Si Si8 0.187779 0.833007 0.291411
O O1 0.138263 0.432779 0.500000
O O2 0.093042 0.478651 0.779484
O O3 0.099608 0.293666 0.700956
O O4 0.176314 0.358928 0.781981
O O5 0.952401 0.459471 0.500000
O O6 0.938001 0.341144 0.222189
O O7 0.000000 0.500000 0.222378
O O8 0.500000 0.500000 0.726687
O O9 0.474120 0.682112 0.734486
O O10 0.564116 0.649121 0.714937
O O11 0.519902 0.608167 0.000000
O O12 0.111250 0.099411 0.271108
O O13 0.081433 0.200333 0.000000
O O14 0.194120 0.159795 0.761559
O O15 0.179496 0.954495 0.717868
O O16 0.157644 0.044137 0.000000
O O17 0.398519 0.222203 0.500000
O O18 0.356297 0.273841 0.214249
O O19 0.711083 0.221680 0.500000
O O20 0.763141 0.201902 0.218952
O O21 0.189360 0.807607 0.500000
#
# Coordination Sequence:
#
# PCOD9426680 Si02
#       8
#     8   8   8   8   8   8   8   8
#     4   9  17  31  53  76  97 129 172 212 253 307
#     4   9  17  30  49  74 104 134 165 208 261 312
#     4  10  20  34  51  71  99 135 170 206 256 314
#     4   9  18  32  50  73 101 132 167 210 258 306
#     4  10  20  35  56  79 105 138 175 218 266 317
#     4  10  21  35  52  77 105 135 175 219 262 314
#     4   9  19  35  55  79 105 137 179 224 269 318
#     4  10  21  36  54  77 107 140 174 219 272 321
#
# _framework density 22.190348
#
# number of rings (size 3 to 8) (size 9 to 14) (size 15 to 20)
#    0.000    2.500    0.000    1.875    0.000    5.250 
#    0.000    4.375    0.000    2.250    0.000    0.000 
#    0.000    0.000    0.000    0.000    0.000    0.000 
#
# Total GULP energy -357081.968658 kJ/mol
# GULP energy per Si atom -5579.405760 kJ/mol
# Density = 2.213984 g / cm^3
# Si number density = 22.190348 Si / 1000 Ang^3
#
#
#
# Elastic Constant Matrix: (Units=GPa)
#
#
# Indices 1 2 3 4 5 6 
#
# 1 167.3559 52.0254 0.2819 0.0000 0.0000 0.0000
# 2 52.0254 85.5698 -9.0147 0.0000 0.0000 0.0000
# 3 0.2819 -9.0147 54.1197 0.0000 0.0000 0.0000
# 4 0.0000 0.0000 0.0000 11.5562 0.0000 0.0000
# 5 0.0000 0.0000 0.0000 0.0000 2.9174 0.0000
# 6 0.0000 0.0000 0.0000 0.0000 0.0000 30.1375
#
#
#
# Elastic Compliance Matrix: (Units=1/GPa)
#
#
# Indices 1 2 3 4 5 6 
#
# 1 0.007402 -0.004585 -0.000802 0.000000 0.000000 0.000000
# 2 -0.004585 0.014735 0.002478 0.000000 0.000000 0.000000
# 3 -0.000802 0.002478 0.018895 0.000000 0.000000 0.000000
# 4 0.000000 0.000000 0.000000 0.086534 0.000000 0.000000
# 5 0.000000 0.000000 0.000000 0.000000 0.342766 0.000000
# 6 0.000000 0.000000 0.000000 0.000000 0.000000 0.033181
#
#
# Mechanical properties :
#
#
# Convention : Reuss Voigt Hill
#
# Bulk Modulus (GPa) = 28.39787 43.73673 36.06730
# Shear Modulus (GPa) = 9.59568 26.50574 18.05071
#
# Velocity S-wave (km/s) = 2.08174 3.45986 2.85520
# Velocity P-wave (km/s) = 4.31316 5.97607 5.21137
#
# Compressibility (1/GPa) = 0.03521390
#
# Stress axis : x y z
#
# Youngs Moduli (GPa) = 135.10051 67.86590 52.92531
#
# Poissons Ratio (x) = 0.31115 0.04246
# Poissons Ratio (y) = 0.61941 -0.13116
# Poissons Ratio (z) = 0.10838 -0.16819
#
# Static dielectric constant tensor:
#      x y z
#    x 1.831690 0.000000 0.000000 
#    y 0.000000 1.817510 0.000000 
#    z 0.000000 0.000000 1.878120 
# 
# From -- ./inp_files/10766.got.cif
#   From: 2010.05.17/outbox.cif.g08.bks.cpg/sg55_6_cif.got.tgz:10766.got - 2010.06.03 13:27:54.
