data_PCOD9426033
_publ_section_title
;
Structure prediction by ZEFSAII (Michael W. Deem and Ramdas Pophale) SiO2 
 PCOD9426033
Probable space group: P B A M
;
_chemical_formula_sum "Si O2"
_cell_formula_units_Z 48
_cell_length_a 14.145973
_cell_length_b 21.056134
_cell_length_c 7.817458
_cell_angle_alpha 90.000000
_cell_angle_beta 90.000000
_cell_angle_gamma 90.000000
_cell_volume 2328.504155
_symmetry_space_group_name_H-M "P B A M"
_symmetry_group_IT_number 55
_symmetry_cell_setting 'orthorhombic'
loop_
_space_group_symop_operation_xyz
x,y,z
-x,-y,z
1/2+x,1/2-y,-z
1/2-x,1/2+y,-z
-x,-y,-z
x,y,-z
1/2-x,1/2+y,z
1/2+x,1/2-y,z
loop_
_atom_site_type_symbol
_atom_site_label
_atom_site_fract_x
_atom_site_fract_y
_atom_site_fract_z
Si Si1 0.618192 0.575314 0.500000
Si Si2 0.626131 0.848772 0.698781
Si Si3 0.240677 0.399533 0.207160
Si Si4 0.606277 0.423785 0.500000
Si Si5 0.821627 0.811894 0.694531
Si Si6 0.603187 0.990253 0.198064
Si Si7 0.572733 0.197274 0.806083
O O1 0.669032 0.603232 0.330663
O O2 0.627085 0.498202 0.500000
O O3 0.506187 0.587619 0.500000
O O4 0.647931 0.861180 0.500000
O O5 0.715394 0.808721 0.765111
O O6 0.624552 0.916483 0.789220
O O7 0.523980 0.816921 0.709332
O O8 0.185487 0.464086 0.261576
O O9 0.163872 0.344460 0.245278
O O10 0.260487 0.399243 0.000000
O O11 0.649157 0.385179 0.337694
O O12 0.823022 0.784829 0.500000
O O13 0.895623 0.769963 0.795240
O O14 0.500000 0.000000 0.280730
O O15 0.594433 0.009954 0.000000
O O16 0.551669 0.177918 0.000000
#
# Coordination Sequence:
#
# PCOD9426033 Si02
#       7
#     4   8   8   4   8   8   8
#     4  11  22  41  72  87 124 173 200 273 334 366
#     4  11  22  36  61  90 118 158 202 253 308 376
#     4  10  23  38  60  99 132 161 211 257 313 391
#     4   9  22  45  63  92 117 157 224 261 313 384
#     4   9  22  42  60  82 121 155 211 262 292 366
#     4  10  19  34  55  84 126 159 189 251 308 362
#     4  11  23  40  59  89 129 166 203 251 313 377
#
# _framework density 20.614091999999999
#
# number of rings (size 3 to 8) (size 9 to 14) (size 15 to 20)
#    0.500    1.333    1.667    2.000    3.500    3.000 
#    0.000    5.000    0.000    0.000    0.000    0.000 
#    0.000    0.000    0.000    0.000    0.000    0.000 
#
# Total GULP energy -267645.129150 kJ/mol
# GULP energy per Si atom -5575.940191 kJ/mol
# Density = 2.056717 g / cm^3
# Si number density = 20.614092 Si / 1000 Ang^3
#
#
#
# Elastic Constant Matrix: (Units=GPa)
#
#
# Indices 1 2 3 4 5 6 
#
# 1 112.3489 12.9807 32.4872 0.0000 0.0000 0.0000
# 2 12.9807 47.7379 0.5944 0.0000 0.0000 0.0000
# 3 32.4872 0.5944 53.9135 0.0000 0.0000 0.0000
# 4 0.0000 0.0000 0.0000 25.4590 0.0000 0.0000
# 5 0.0000 0.0000 0.0000 0.0000 -52.8009 0.0000
# 6 0.0000 0.0000 0.0000 0.0000 0.0000 23.8092
#
#
#
# Elastic Compliance Matrix: (Units=1/GPa)
#
#
# Indices 1 2 3 4 5 6 
#
# 1 0.011181 -0.002957 -0.006705 0.000000 0.000000 0.000000
# 2 -0.002957 0.021733 0.001542 0.000000 0.000000 0.000000
# 3 -0.006705 0.001542 0.022572 0.000000 0.000000 0.000000
# 4 0.000000 0.000000 0.000000 0.039279 0.000000 0.000000
# 5 0.000000 0.000000 0.000000 0.000000 -0.018939 0.000000
# 6 0.000000 0.000000 0.000000 0.000000 0.000000 0.042001
#
#
# Mechanical properties :
#
#
# Convention : Reuss Voigt Hill
#
# Bulk Modulus (GPa) = 25.48037 34.01387 29.74712
# Shear Modulus (GPa) = 33.97958 10.48934 22.23446
#
# Velocity S-wave (km/s) = 4.06441 2.25820 3.28778
# Velocity P-wave (km/s) = 5.86630 4.83068 5.37349
#
# Compressibility (1/GPa) = 0.03924590
#
# Stress axis : x y z
#
# Youngs Moduli (GPa) = 89.43476 46.01389 44.30359
#
# Poissons Ratio (x) = 0.13606 0.29706
# Poissons Ratio (y) = 0.26445 -0.06832
# Poissons Ratio (z) = 0.59966 -0.07096
#
# Static dielectric constant tensor:
#      x y z
#    x 1.758540 0.000000 0.000000 
#    y 0.000000 1.728580 0.000000 
#    z 0.000000 0.000000 1.746910 
# 
# From -- ./inp_files/4124.got.cif
#   From: 2010.05.17/outbox.cif.g08.bks.cpg/sg55_3_cif.got.tgz:4124.got - 2010.06.03 13:27:54.
