data_PCOD9426100
_publ_section_title
;
Structure prediction by ZEFSAII (Michael W. Deem and Ramdas Pophale) SiO2 
 PCOD9426100
Probable space group: P B A M
;
_chemical_formula_sum "Si O2"
_cell_formula_units_Z 48
_cell_length_a 21.103319
_cell_length_b 15.215519
_cell_length_c 7.490604
_cell_angle_alpha 90.000000
_cell_angle_beta 90.000000
_cell_angle_gamma 90.000000
_cell_volume 2405.217598
_symmetry_space_group_name_H-M "P B A M"
_symmetry_group_IT_number 55
_symmetry_cell_setting 'orthorhombic'
loop_
_space_group_symop_operation_xyz
x,y,z
-x,-y,z
1/2+x,1/2-y,-z
1/2-x,1/2+y,-z
-x,-y,-z
x,y,-z
1/2-x,1/2+y,z
1/2+x,1/2-y,z
loop_
_atom_site_type_symbol
_atom_site_label
_atom_site_fract_x
_atom_site_fract_y
_atom_site_fract_z
Si Si1 0.101045 0.461992 0.500000
Si Si2 0.591497 0.736892 0.783296
Si Si3 0.314484 0.578606 0.202786
Si Si4 0.264832 0.236140 0.790996
Si Si5 0.026034 0.644968 0.500000
Si Si6 0.931277 0.033182 0.217766
Si Si7 0.777412 0.570927 0.298513
O O1 0.069782 0.557651 0.500000
O O2 0.148642 0.449619 0.331698
O O3 0.045714 0.390143 0.500000
O O4 0.662963 0.762863 0.725183
O O5 0.543364 0.797295 0.673487
O O6 0.581585 0.634438 0.735848
O O7 0.585682 0.745481 0.000000
O O8 0.282059 0.663558 0.289570
O O9 0.376065 0.531873 0.282664
O O10 0.260108 0.504323 0.197572
O O11 0.332827 0.603381 0.000000
O O12 0.235800 0.332972 0.775512
O O13 0.270845 0.214253 0.000000
O O14 0.929369 0.031480 0.000000
O O15 0.000000 0.000000 0.274632
O O16 0.749741 0.070326 0.500000
#
# Coordination Sequence:
#
# PCOD9426100 Si02
#       7
#     4   8   8   8   4   8   8
#     4   9  24  41  56  88 113 159 201 245 314 365
#     4  10  21  37  63  92 116 162 214 247 306 381
#     4  10  19  34  57  84 114 150 196 250 304 357
#     4  10  20  34  58  90 117 151 202 253 303 360
#     4  11  22  43  65  78 128 159 198 263 304 359
#     4   9  18  34  55  83 123 159 195 247 306 369
#     4  10  21  36  56  79 117 148 193 245 301 358
#
# _framework density 19.956614999999999
#
# number of rings (size 3 to 8) (size 9 to 14) (size 15 to 20)
#    0.500    1.667    1.667    1.500    1.167    2.000 
#    0.000    6.250    0.000    0.000    0.000    0.000 
#    0.000    0.000    0.000    0.000    0.000    0.000 
#
# Total GULP energy -267664.433306 kJ/mol
# GULP energy per Si atom -5576.342361 kJ/mol
# Density = 1.991119 g / cm^3
# Si number density = 19.956615 Si / 1000 Ang^3
#
#
#
# Elastic Constant Matrix: (Units=GPa)
#
#
# Indices 1 2 3 4 5 6 
#
# 1 108.8487 12.4148 7.1611 0.0000 0.0000 0.0000
# 2 12.4148 71.5924 1.2758 0.0000 0.0000 0.0000
# 3 7.1611 1.2758 59.9542 0.0000 0.0000 0.0000
# 4 0.0000 0.0000 0.0000 18.2118 0.0000 0.0000
# 5 0.0000 0.0000 0.0000 0.0000 4.9704 0.0000
# 6 0.0000 0.0000 0.0000 0.0000 0.0000 33.9088
#
#
#
# Elastic Compliance Matrix: (Units=1/GPa)
#
#
# Indices 1 2 3 4 5 6 
#
# 1 0.009444 -0.001618 -0.001094 0.000000 0.000000 0.000000
# 2 -0.001618 0.014251 -0.000110 0.000000 0.000000 0.000000
# 3 -0.001094 -0.000110 0.016812 0.000000 0.000000 0.000000
# 4 0.000000 0.000000 0.000000 0.054909 0.000000 0.000000
# 5 0.000000 0.000000 0.000000 0.000000 0.201190 0.000000
# 6 0.000000 0.000000 0.000000 0.000000 0.000000 0.029491
#
#
# Mechanical properties :
#
#
# Convention : Reuss Voigt Hill
#
# Bulk Modulus (GPa) = 28.68354 31.34430 30.01392
# Shear Modulus (GPa) = 14.56194 26.05445 20.30819
#
# Velocity S-wave (km/s) = 2.70419 3.61717 3.19347
# Velocity P-wave (km/s) = 4.91471 5.76069 5.35443
#
# Compressibility (1/GPa) = 0.03486320
#
# Stress axis : x y z
#
# Youngs Moduli (GPa) = 105.89225 70.17285 59.48009
#
# Poissons Ratio (x) = 0.11355 0.06504
# Poissons Ratio (y) = 0.17135 0.00654
# Poissons Ratio (z) = 0.11580 0.00772
#
# Static dielectric constant tensor:
#      x y z
#    x 1.698890 0.000000 0.000000 
#    y 0.000000 1.689060 0.000000 
#    z 0.000000 0.000000 1.730340 
# 
# From -- ./inp_files/7475.got.cif
#   From: 2010.05.17/outbox.cif.g08.bks.cpg/sg55_4_cif.got.tgz:7475.got - 2010.06.03 13:27:54.
