data_PCOD9426602
_publ_section_title
;
Structure prediction by ZEFSAII (Michael W. Deem and Ramdas Pophale) SiO2 
 PCOD9426602
Probable space group: P B A M
;
_chemical_formula_sum "Si O2"
_cell_formula_units_Z 64
_cell_length_a 22.583577
_cell_length_b 17.918574
_cell_length_c 7.761981
_cell_angle_alpha 90.000000
_cell_angle_beta 90.000000
_cell_angle_gamma 90.000000
_cell_volume 3141.005889
_symmetry_space_group_name_H-M "P B A M"
_symmetry_group_IT_number 55
_symmetry_cell_setting 'orthorhombic'
loop_
_space_group_symop_operation_xyz
x,y,z
-x,-y,z
1/2+x,1/2-y,-z
1/2-x,1/2+y,-z
-x,-y,-z
x,y,-z
1/2-x,1/2+y,z
1/2+x,1/2-y,z
loop_
_atom_site_type_symbol
_atom_site_label
_atom_site_fract_x
_atom_site_fract_y
_atom_site_fract_z
Si Si1 0.119178 0.728762 0.298615
Si Si2 0.564189 0.087815 0.290224
Si Si3 0.572480 0.922922 0.289121
Si Si4 0.535454 0.647273 0.798663
Si Si5 0.099551 0.134445 0.299126
Si Si6 0.631334 0.528147 0.203266
Si Si7 0.155050 0.287185 0.289115
Si Si8 0.216902 0.844114 0.709098
O O1 0.133266 0.719485 0.500000
O O2 0.110848 0.646395 0.224929
O O3 0.058504 0.776264 0.285644
O O4 0.170128 0.781972 0.226133
O O5 0.564410 0.088776 0.500000
O O6 0.495711 0.090889 0.237592
O O7 0.603240 0.156876 0.232343
O O8 0.588940 0.006740 0.236627
O O9 0.573438 0.921722 0.500000
O O10 0.466134 0.632945 0.779918
O O11 0.576374 0.579304 0.730012
O O12 0.549413 0.654594 0.000000
O O13 0.089422 0.149148 0.500000
O O14 0.138865 0.203445 0.232321
O O15 0.129824 0.054184 0.279834
O O16 0.690266 0.576402 0.235585
O O17 0.622712 0.518654 0.000000
O O18 0.156798 0.287128 0.500000
O O19 0.217995 0.320400 0.233059
O O20 0.216196 0.844532 0.500000
#
# Coordination Sequence:
#
# PCOD9426602 Si02
#       8
#     8   8   8   8   8   8   8   8
#     4   9  16  28  48  73  99 128 166 208 248 296
#     4   8  13  23  40  65  99 127 152 195 253 302
#     4   8  13  22  40  69  96 122 159 201 245 297
#     4  10  20  33  51  76 106 138 170 208 258 310
#     4  11  21  33  53  81 109 135 168 213 263 312
#     4  10  21  37  54  74 103 138 176 215 256 306
#     4   9  18  32  48  73 106 135 165 210 261 307
#     4   9  18  34  52  72 100 132 169 210 253 301
#
# _framework density 20.375637000000001
#
# number of rings (size 3 to 8) (size 9 to 14) (size 15 to 20)
#    0.000    2.750    0.000    3.000    0.000    5.000 
#    2.250    1.250    0.000    0.000    0.000    7.875 
#    0.000    0.000    0.000    0.000    0.000    0.000 
#
# Total GULP energy -356994.664584 kJ/mol
# GULP energy per Si atom -5578.041634 kJ/mol
# Density = 2.032926 g / cm^3
# Si number density = 20.375637 Si / 1000 Ang^3
#
#
#
# Elastic Constant Matrix: (Units=GPa)
#
#
# Indices 1 2 3 4 5 6 
#
# 1 69.3054 37.5812 -2.0706 0.0000 0.0000 0.0000
# 2 37.5812 125.4574 -7.5920 0.0000 0.0000 0.0000
# 3 -2.0706 -7.5920 27.0786 0.0000 0.0000 0.0000
# 4 0.0000 0.0000 0.0000 -18.4724 0.0000 0.0000
# 5 0.0000 0.0000 0.0000 0.0000 4.4202 0.0000
# 6 0.0000 0.0000 0.0000 0.0000 0.0000 9.5188
#
#
#
# Elastic Compliance Matrix: (Units=1/GPa)
#
#
# Indices 1 2 3 4 5 6 
#
# 1 0.017228 -0.005169 -0.000132 0.000000 0.000000 0.000000
# 2 -0.005169 0.009659 0.002313 0.000000 0.000000 0.000000
# 3 -0.000132 0.002313 0.037568 0.000000 0.000000 0.000000
# 4 0.000000 0.000000 0.000000 -0.054135 0.000000 0.000000
# 5 0.000000 0.000000 0.000000 0.000000 0.226236 0.000000
# 6 0.000000 0.000000 0.000000 0.000000 0.000000 0.105055
#
#
# Mechanical properties :
#
#
# Convention : Reuss Voigt Hill
#
# Bulk Modulus (GPa) = 17.09992 30.85316 23.97654
# Shear Modulus (GPa) = 13.62104 12.02150 12.82127
#
# Velocity S-wave (km/s) = 2.58833 2.43161 2.51120
# Velocity P-wave (km/s) = 4.16452 4.80195 4.49455
#
# Compressibility (1/GPa) = 0.05847979
#
# Stress axis : x y z
#
# Youngs Moduli (GPa) = 58.04632 103.52976 26.61842
#
# Poissons Ratio (x) = 0.53510 0.00351
# Poissons Ratio (y) = 0.30002 -0.06157
# Poissons Ratio (z) = 0.00765 -0.23945
#
# Static dielectric constant tensor:
#      x y z
#    x 1.701950 0.000000 0.000000 
#    y 0.000000 1.732540 0.000000 
#    z 0.000000 0.000000 1.753880 
# 
# From -- ./inp_files/9067.got.cif
#   From: 2010.05.17/outbox.cif.g08.bks.cpg/sg55_5_cif.got.tgz:9067.got - 2010.06.03 13:27:54.
