data_PCOD9426078
_publ_section_title
;
Structure prediction by ZEFSAII (Michael W. Deem and Ramdas Pophale) SiO2 
 PCOD9426078
Probable space group: P B A M
;
_chemical_formula_sum "Si O2"
_cell_formula_units_Z 48
_cell_length_a 31.990360
_cell_length_b 10.696324
_cell_length_c 7.662037
_cell_angle_alpha 90.000000
_cell_angle_beta 90.000000
_cell_angle_gamma 90.000000
_cell_volume 2621.790116
_symmetry_space_group_name_H-M "P B A M"
_symmetry_group_IT_number 55
_symmetry_cell_setting 'orthorhombic'
loop_
_space_group_symop_operation_xyz
x,y,z
-x,-y,z
1/2+x,1/2-y,-z
1/2-x,1/2+y,-z
-x,-y,-z
x,y,-z
1/2-x,1/2+y,z
1/2+x,1/2-y,z
loop_
_atom_site_type_symbol
_atom_site_label
_atom_site_fract_x
_atom_site_fract_y
_atom_site_fract_z
Si Si1 0.492443 0.697127 0.000000
Si Si2 0.570906 0.536359 0.000000
Si Si3 0.782713 0.617611 0.796490
Si Si4 0.873354 0.935645 0.296844
Si Si5 0.623836 0.143984 0.708498
Si Si6 0.032352 0.387484 0.295255
Si Si7 0.221636 0.098078 0.787280
O O1 0.540485 0.654357 0.000000
O O2 0.461253 0.579849 0.000000
O O3 0.482447 0.777483 0.170793
O O4 0.600117 0.522332 0.169325
O O5 0.832528 0.597059 0.784185
O O6 0.773895 0.757626 0.724076
O O7 0.756539 0.500414 0.725619
O O8 0.771289 0.624228 0.000000
O O9 0.884324 0.951080 0.500000
O O10 0.881326 0.790532 0.244220
O O11 0.823755 0.950592 0.271082
O O12 0.628990 0.138756 0.500000
O O13 0.580212 0.078660 0.754780
O O14 0.033331 0.350476 0.500000
O O15 0.000000 0.500000 0.275703
O O16 0.221560 0.103118 0.000000
#
# Coordination Sequence:
#
# PCOD9426078 Si02
#       7
#     4   4   8   8   8   8   8
#     4  11  23  36  58  83 110 148 180 229 291 332
#     4  11  22  36  56  83 113 143 184 231 274 337
#     4   9  18  30  52  77 106 142 176 223 274 325
#     4  10  19  34  57  80 108 146 184 226 271 326
#     4   9  18  32  53  79 104 139 186 227 267 325
#     4  10  21  38  59  82 112 146 189 241 283 332
#     4   9  17  32  52  78 108 140 181 226 274 329
#
# _framework density 18.308102000000002
#
# number of rings (size 3 to 8) (size 9 to 14) (size 15 to 20)
#    0.000    2.333    2.500    0.250    2.333    1.333 
#    0.000    3.333    0.000    2.000    0.000    0.000 
#    0.000    0.000    0.000    0.000    0.000    0.000 
#
# Total GULP energy -267617.016932 kJ/mol
# GULP energy per Si atom -5575.354519 kJ/mol
# Density = 1.826643 g / cm^3
# Si number density = 18.308102 Si / 1000 Ang^3
#
#
#
# Elastic Constant Matrix: (Units=GPa)
#
#
# Indices 1 2 3 4 5 6 
#
# 1 143.0431 66.9568 30.3255 0.0000 0.0000 0.0000
# 2 66.9568 64.6291 25.4980 0.0000 0.0000 0.0000
# 3 30.3255 25.4980 50.6750 0.0000 0.0000 0.0000
# 4 0.0000 0.0000 0.0000 7.4066 0.0000 0.0000
# 5 0.0000 0.0000 0.0000 0.0000 19.7075 0.0000
# 6 0.0000 0.0000 0.0000 0.0000 0.0000 37.7884
#
#
#
# Elastic Compliance Matrix: (Units=1/GPa)
#
#
# Indices 1 2 3 4 5 6 
#
# 1 0.013643 -0.013616 -0.001313 0.000000 0.000000 0.000000
# 2 -0.013616 0.032895 -0.008403 0.000000 0.000000 0.000000
# 3 -0.001313 -0.008403 0.024748 0.000000 0.000000 0.000000
# 4 0.000000 0.000000 0.000000 0.135015 0.000000 0.000000
# 5 0.000000 0.000000 0.000000 0.000000 0.050742 0.000000
# 6 0.000000 0.000000 0.000000 0.000000 0.000000 0.026463
#
#
# Mechanical properties :
#
#
# Convention : Reuss Voigt Hill
#
# Bulk Modulus (GPa) = 40.61695 55.98977 48.30336
# Shear Modulus (GPa) = 14.77643 22.01830 18.39736
#
# Velocity S-wave (km/s) = 2.84403 3.47169 3.17342
# Velocity P-wave (km/s) = 5.74613 6.83510 6.31414
#
# Compressibility (1/GPa) = 0.02462026
#
# Stress axis : x y z
#
# Youngs Moduli (GPa) = 73.29850 30.40000 40.40789
#
# Poissons Ratio (x) = 0.41393 0.05306
# Poissons Ratio (y) = 0.99804 0.33956
# Poissons Ratio (z) = 0.09625 0.25546
#
# Static dielectric constant tensor:
#      x y z
#    x 1.632480 0.000000 0.000000 
#    y 0.000000 1.626710 0.000000 
#    z 0.000000 0.000000 1.652570 
# 
# From -- ./inp_files/9464.got.cif
#   From: 2010.05.17/outbox.cif.g08.bks.cpg/sg55_5_cif.got.tgz:9464.got - 2010.06.03 13:27:54.
