data_PCOD9426494
_publ_section_title
;
Structure prediction by ZEFSAII (Michael W. Deem and Ramdas Pophale) SiO2 
 PCOD9426494
Probable space group: P B A M
;
_chemical_formula_sum "Si O2"
_cell_formula_units_Z 40
_cell_length_a 31.038194
_cell_length_b 7.326330
_cell_length_c 8.427023
_cell_angle_alpha 90.000000
_cell_angle_beta 90.000000
_cell_angle_gamma 90.000000
_cell_volume 1916.271759
_symmetry_space_group_name_H-M "P B A M"
_symmetry_group_IT_number 55
_symmetry_cell_setting 'orthorhombic'
loop_
_space_group_symop_operation_xyz
x,y,z
-x,-y,z
1/2+x,1/2-y,-z
1/2-x,1/2+y,-z
-x,-y,-z
x,y,-z
1/2-x,1/2+y,z
1/2+x,1/2-y,z
loop_
_atom_site_type_symbol
_atom_site_label
_atom_site_fract_x
_atom_site_fract_y
_atom_site_fract_z
Si Si1 0.444416 0.822251 0.000000
Si Si2 0.171759 0.048271 0.328646
Si Si3 0.410767 0.290258 0.674354
Si Si4 0.459647 0.262245 0.000000
Si Si5 0.378776 0.897634 0.255416
Si Si6 0.215278 0.963241 0.000000
Si Si7 0.313198 0.047855 0.000000
O O1 0.414660 0.792059 0.848051
O O2 0.488940 0.715439 0.000000
O O3 0.452662 0.041426 0.000000
O O4 0.194552 0.016217 0.500000
O O5 0.134869 0.893972 0.311776
O O6 0.199385 0.050983 0.166436
O O7 0.146819 0.239293 0.341083
O O8 0.429399 0.342888 0.500000
O O9 0.402024 0.072076 0.669220
O O10 0.437837 0.327525 0.835314
O O11 0.342599 0.990335 0.145962
O O12 0.266758 0.954355 0.000000
O O13 0.195749 0.761544 0.000000
#
# Coordination Sequence:
#
# PCOD9426494 Si02
#       7
#     4   8   8   4   8   4   4
#     4   8  17  32  58  87 115 156 201 242 299 351
#     4  11  23  39  62  90 118 158 203 244 296 357
#     4  10  20  36  60  85 116 159 201 243 297 352
#     4   9  17  34  56  85 120 153 198 251 293 347
#     4  10  19  39  60  86 118 158 199 245 295 357
#     4  12  22  42  62  89 124 152 193 252 293 355
#     4  11  22  38  66  90 116 160 196 239 306 352
#
# _framework density 20.873868000000002
#
# number of rings (size 3 to 8) (size 9 to 14) (size 15 to 20)
#    0.000    1.800    2.000    4.200    0.000    0.000 
#    0.000   16.000    0.000    2.400    0.000    0.000 
#    0.000    0.000    0.000    0.000    0.000    0.000 
#
# Total GULP energy -223025.139712 kJ/mol
# GULP energy per Si atom -5575.628493 kJ/mol
# Density = 2.082636 g / cm^3
# Si number density = 20.873868 Si / 1000 Ang^3
#
#
#
# Elastic Constant Matrix: (Units=GPa)
#
#
# Indices 1 2 3 4 5 6 
#
# 1 99.9854 -3.8768 76.2436 0.0000 0.0000 0.0000
# 2 -3.8768 60.7509 11.0845 0.0000 0.0000 0.0000
# 3 76.2436 11.0845 193.2423 0.0000 0.0000 0.0000
# 4 0.0000 0.0000 0.0000 117.2204 0.0000 0.0000
# 5 0.0000 0.0000 0.0000 0.0000 -5.5246 0.0000
# 6 0.0000 0.0000 0.0000 0.0000 0.0000 13.7567
#
#
#
# Elastic Compliance Matrix: (Units=1/GPa)
#
#
# Indices 1 2 3 4 5 6 
#
# 1 0.014541 0.001996 -0.005852 0.000000 0.000000 0.000000
# 2 0.001996 0.016909 -0.001757 0.000000 0.000000 0.000000
# 3 -0.005852 -0.001757 0.007584 0.000000 0.000000 0.000000
# 4 0.000000 0.000000 0.000000 0.008531 0.000000 0.000000
# 5 0.000000 0.000000 0.000000 0.000000 -0.181010 0.000000
# 6 0.000000 0.000000 0.000000 0.000000 0.000000 0.072692
#
#
# Mechanical properties :
#
#
# Convention : Reuss Voigt Hill
#
# Bulk Modulus (GPa) = 35.96154 57.87570 46.91862
# Shear Modulus (GPa) = -124.20052 43.12565 -40.53744
#
# Velocity S-wave (km/s) = -7.72202 4.55027 -4.41161
# Velocity P-wave (km/s) = 7.88928 7.44266 1.85035
#
# Compressibility (1/GPa) = 0.02780748
#
# Stress axis : x y z
#
# Youngs Moduli (GPa) = 68.77125 59.14140 131.84976
#
# Poissons Ratio (x) = -0.11802 0.77153
# Poissons Ratio (y) = -0.13724 0.23169
# Poissons Ratio (z) = 0.40242 0.10393
#
# Static dielectric constant tensor:
#      x y z
#    x 1.705170 0.000000 0.000000 
#    y 0.000000 1.769630 0.000000 
#    z 0.000000 0.000000 1.798610 
# 
# From -- ./inp_files/10038.got.cif
#   From: 2010.05.17/outbox.cif.g08.bks.cpg/sg55_6_cif.got.tgz:10038.got - 2010.06.03 13:27:54.
