data_PCOD9426805
_publ_section_title
;
Structure prediction by ZEFSAII (Michael W. Deem and Ramdas Pophale) SiO2 
 PCOD9426805
Probable space group: P B A M
;
_chemical_formula_sum "Si O2"
_cell_formula_units_Z 64
_cell_length_a 22.103578
_cell_length_b 16.884935
_cell_length_c 7.749542
_cell_angle_alpha 90.000000
_cell_angle_beta 90.000000
_cell_angle_gamma 90.000000
_cell_volume 2892.264519
_symmetry_space_group_name_H-M "P B A M"
_symmetry_group_IT_number 55
_symmetry_cell_setting 'orthorhombic'
loop_
_space_group_symop_operation_xyz
x,y,z
-x,-y,z
1/2+x,1/2-y,-z
1/2-x,1/2+y,-z
-x,-y,-z
x,y,-z
1/2-x,1/2+y,z
1/2+x,1/2-y,z
loop_
_atom_site_type_symbol
_atom_site_label
_atom_site_fract_x
_atom_site_fract_y
_atom_site_fract_z
Si Si1 0.503038 0.407435 0.208580
Si Si2 0.568046 0.014916 0.700803
Si Si3 0.638485 0.859767 0.802720
Si Si4 0.680054 0.111016 0.293578
Si Si5 0.765359 0.783673 0.208994
Si Si6 0.106699 0.799007 0.300039
Si Si7 0.193679 0.932138 0.708005
Si Si8 0.134932 0.095689 0.793625
O O1 0.500000 0.500000 0.251954
O O2 0.449857 0.356935 0.287095
O O3 0.568959 0.380641 0.269190
O O4 0.498281 0.401396 0.000000
O O5 0.557862 0.036111 0.500000
O O6 0.614830 0.081588 0.774858
O O7 0.500000 0.000000 0.774995
O O8 0.607159 0.933756 0.711251
O O9 0.700522 0.819503 0.732785
O O10 0.595424 0.782907 0.795756
O O11 0.649212 0.884442 0.000000
O O12 0.676264 0.100980 0.500000
O O13 0.705822 0.199284 0.261661
O O14 0.737291 0.058186 0.230661
O O15 0.813160 0.848180 0.273381
O O16 0.762195 0.781918 0.000000
O O17 0.117913 0.780717 0.500000
O O18 0.163007 0.850679 0.227856
O O19 0.194220 0.926930 0.500000
O O20 0.152045 0.005325 0.757116
O O21 0.133519 0.103919 0.000000
#
# Coordination Sequence:
#
# PCOD9426805 Si02
#       8
#     8   8   8   8   8   8   8   8
#     4  10  20  35  54  79 114 156 194 229 282 346
#     4  10  23  43  66  92 124 162 206 256 310 369
#     4  11  23  40  63  90 119 155 202 253 308 363
#     4  10  21  39  62  87 117 153 197 247 303 362
#     4  10  22  38  58  88 120 151 194 247 300 354
#     4  11  22  36  58  85 117 154 198 247 295 353
#     4  10  20  34  55  84 112 147 193 239 290 347
#     4  10  21  36  55  81 117 154 189 233 283 343
#
# _framework density 22.12799
#
# number of rings (size 3 to 8) (size 9 to 14) (size 15 to 20)
#    0.000    1.750    2.500    1.500    0.000    4.500 
#    0.000    2.500    0.000    0.000    0.000    0.000 
#    0.000    0.000    0.000    0.000    0.000    0.000 
#
# Total GULP energy -357105.890481 kJ/mol
# GULP energy per Si atom -5579.779539 kJ/mol
# Density = 2.207763 g / cm^3
# Si number density = 22.127990 Si / 1000 Ang^3
#
#
#
# Elastic Constant Matrix: (Units=GPa)
#
#
# Indices 1 2 3 4 5 6 
#
# 1 125.4141 31.2469 7.8051 0.0000 0.0000 0.0000
# 2 31.2469 71.8564 -10.2535 0.0000 0.0000 0.0000
# 3 7.8051 -10.2535 33.4477 0.0000 0.0000 0.0000
# 4 0.0000 0.0000 0.0000 24.0363 0.0000 0.0000
# 5 0.0000 0.0000 0.0000 0.0000 13.8517 0.0000
# 6 0.0000 0.0000 0.0000 0.0000 0.0000 33.5165
#
#
#
# Elastic Compliance Matrix: (Units=1/GPa)
#
#
# Indices 1 2 3 4 5 6 
#
# 1 0.009335 -0.004570 -0.003579 0.000000 0.000000 0.000000
# 2 -0.004570 0.016791 0.006214 0.000000 0.000000 0.000000
# 3 -0.003579 0.006214 0.032638 0.000000 0.000000 0.000000
# 4 0.000000 0.000000 0.000000 0.041604 0.000000 0.000000
# 5 0.000000 0.000000 0.000000 0.000000 0.072193 0.000000
# 6 0.000000 0.000000 0.000000 0.000000 0.000000 0.029836
#
#
# Mechanical properties :
#
#
# Convention : Reuss Voigt Hill
#
# Bulk Modulus (GPa) = 18.21773 32.03502 25.12638
# Shear Modulus (GPa) = 22.26527 27.74221 25.00374
#
# Velocity S-wave (km/s) = 3.17551 3.54463 3.36513
# Velocity P-wave (km/s) = 4.65789 5.59116 5.14573
#
# Compressibility (1/GPa) = 0.05489159
#
# Stress axis : x y z
#
# Youngs Moduli (GPa) = 107.12407 59.55719 30.63959
#
# Poissons Ratio (x) = 0.27218 0.10967
# Poissons Ratio (y) = 0.48956 -0.19038
# Poissons Ratio (z) = 0.38343 -0.37007
#
# Static dielectric constant tensor:
#      x y z
#    x 1.873360 0.000000 0.000000 
#    y 0.000000 1.806520 0.000000 
#    z 0.000000 0.000000 1.800220 
# 
# From -- ./inp_files/8982.got.cif
#   From: 2010.05.17/outbox.cif.g08.bks.cpg/sg55_5_cif.got.tgz:8982.got - 2010.06.03 13:27:54.
