data_PCOD9426014
_publ_section_title
;
Structure prediction by ZEFSAII (Michael W. Deem and Ramdas Pophale) SiO2 
 PCOD9426014
Probable space group: P B A M
;
_chemical_formula_sum "Si O2"
_cell_formula_units_Z 40
_cell_length_a 22.569589
_cell_length_b 6.954315
_cell_length_c 10.773677
_cell_angle_alpha 90.000000
_cell_angle_beta 90.000000
_cell_angle_gamma 90.000000
_cell_volume 1690.993585
_symmetry_space_group_name_H-M "P B A M"
_symmetry_group_IT_number 55
_symmetry_cell_setting 'orthorhombic'
loop_
_space_group_symop_operation_xyz
x,y,z
-x,-y,z
1/2+x,1/2-y,-z
1/2-x,1/2+y,-z
-x,-y,-z
x,y,-z
1/2-x,1/2+y,z
1/2+x,1/2-y,z
loop_
_atom_site_type_symbol
_atom_site_label
_atom_site_fract_x
_atom_site_fract_y
_atom_site_fract_z
Si Si1 0.446206 0.266309 0.500000
Si Si2 0.704929 0.116341 0.000000
Si Si3 0.413998 0.804829 0.500000
Si Si4 0.339734 0.320602 0.000000
Si Si5 0.396318 0.252418 0.749955
Si Si6 0.012675 0.224820 0.856455
Si Si7 0.360389 0.839493 0.759570
O O1 0.518452 0.285917 0.500000
O O2 0.412048 0.348949 0.620089
O O3 0.430716 0.035621 0.500000
O O4 0.775004 0.089967 0.000000
O O5 0.687041 0.211182 0.132794
O O6 0.670397 0.911463 0.000000
O O7 0.373508 0.763882 0.620912
O O8 0.374399 0.365093 0.872211
O O9 0.461204 0.169585 0.782818
O O10 0.353843 0.069471 0.736903
O O11 0.078044 0.285220 0.825151
O O12 0.001542 0.258075 0.000000
O O13 0.000000 0.000000 0.829559
#
# Coordination Sequence:
#
# PCOD9426014 Si02
#       7
#     4   4   4   4   8   8   8
#     4   9  16  28  53  84 110 134 164 212 259 308
#     4  10  22  37  56  75  99 138 184 228 259 300
#     4   9  16  28  53  84 110 134 164 212 259 308
#     4  10  22  37  56  75  99 138 184 228 259 300
#     4  10  19  34  55  79 105 138 177 213 256 314
#     4  11  21  30  47  80 114 140 165 212 270 313
#     4  10  19  34  55  79 105 138 177 213 256 314
#
# _framework density 23.654730000000001
#
# number of rings (size 3 to 8) (size 9 to 14) (size 15 to 20)
#    0.000    2.000    4.000    0.600    0.000    2.400 
#    0.000    3.000    0.000    0.000    0.000    0.000 
#    0.000    0.000    0.000    0.000    0.000    0.000 
#
# Total GULP energy -223121.269938 kJ/mol
# GULP energy per Si atom -5578.031748 kJ/mol
# Density = 2.360089 g / cm^3
# Si number density = 23.654730 Si / 1000 Ang^3
#
#
#
# Elastic Constant Matrix: (Units=GPa)
#
#
# Indices 1 2 3 4 5 6 
#
# 1 102.8266 -1.3189 68.1862 0.0000 0.0000 0.0000
# 2 -1.3189 75.5308 12.3025 0.0000 0.0000 0.0000
# 3 68.1862 12.3025 243.4869 0.0000 0.0000 0.0000
# 4 0.0000 0.0000 0.0000 9.0890 0.0000 0.0000
# 5 0.0000 0.0000 0.0000 0.0000 32.6372 0.0000
# 6 0.0000 0.0000 0.0000 0.0000 0.0000 19.1703
#
#
#
# Elastic Compliance Matrix: (Units=1/GPa)
#
#
# Indices 1 2 3 4 5 6 
#
# 1 0.011986 0.000762 -0.003395 0.000000 0.000000 0.000000
# 2 0.000762 0.013398 -0.000890 0.000000 0.000000 0.000000
# 3 -0.003395 -0.000890 0.005103 0.000000 0.000000 0.000000
# 4 0.000000 0.000000 0.000000 0.110023 0.000000 0.000000
# 5 0.000000 0.000000 0.000000 0.000000 0.030640 0.000000
# 6 0.000000 0.000000 0.000000 0.000000 0.000000 0.052164
#
#
# Mechanical properties :
#
#
# Convention : Reuss Voigt Hill
#
# Bulk Modulus (GPa) = 42.66126 64.46488 53.56307
# Shear Modulus (GPa) = 20.99308 35.02428 28.00868
#
# Velocity S-wave (km/s) = 2.98229 3.85209 3.44475
# Velocity P-wave (km/s) = 5.47109 6.86268 6.20602
#
# Compressibility (1/GPa) = 0.02344047
#
# Stress axis : x y z
#
# Youngs Moduli (GPa) = 83.42875 74.63809 195.97200
#
# Poissons Ratio (x) = -0.05690 0.66536
# Poissons Ratio (y) = -0.06360 0.17450
# Poissons Ratio (z) = 0.28325 0.06646
#
# Static dielectric constant tensor:
#      x y z
#    x 1.815230 0.000000 0.000000 
#    y 0.000000 2.026320 0.000000 
#    z 0.000000 0.000000 2.009250 
# 
# From -- ./inp_files/12103.got.cif
#   From: 2010.05.17/outbox.cif.g08.bks.cpg/sg55_7_cif.got.tgz:12103.got - 2010.06.03 13:27:54.
