data_PCOD9426881
_publ_section_title
;
Structure prediction by ZEFSAII (Michael W. Deem and Ramdas Pophale) SiO2 
 PCOD9426881
Probable space group: P B A M
;
_chemical_formula_sum "Si O2"
_cell_formula_units_Z 48
_cell_length_a 9.641316
_cell_length_b 24.467973
_cell_length_c 7.897911
_cell_angle_alpha 90.000000
_cell_angle_beta 90.000000
_cell_angle_gamma 90.000000
_cell_volume 1863.144528
_symmetry_space_group_name_H-M "P B A M"
_symmetry_group_IT_number 55
_symmetry_cell_setting 'orthorhombic'
loop_
_space_group_symop_operation_xyz
x,y,z
-x,-y,z
1/2+x,1/2-y,-z
1/2-x,1/2+y,-z
-x,-y,-z
x,y,-z
1/2-x,1/2+y,z
1/2+x,1/2-y,z
loop_
_atom_site_type_symbol
_atom_site_label
_atom_site_fract_x
_atom_site_fract_y
_atom_site_fract_z
Si Si1 0.046203 0.916590 0.794468
Si Si2 0.527078 0.913940 0.304948
Si Si3 0.714802 0.355044 0.701955
Si Si4 0.722285 0.687238 0.803223
Si Si5 0.709183 0.012888 0.803420
Si Si6 0.965502 0.753492 0.300933
O O1 0.136780 0.864288 0.733692
O O2 0.138997 0.968454 0.745561
O O3 0.891576 0.905111 0.732648
O O4 0.041985 0.916550 0.000000
O O5 0.490897 0.902625 0.500000
O O6 0.631878 0.868384 0.232311
O O7 0.391341 0.933664 0.206765
O O8 0.629200 0.967017 0.300175
O O9 0.731356 0.347199 0.500000
O O10 0.631414 0.302820 0.769448
O O11 0.614858 0.737668 0.780195
O O12 0.869639 0.700764 0.722236
O O13 0.745877 0.678164 0.000000
O O14 0.715377 0.995476 0.000000
O O15 0.988326 0.761167 0.500000
#
# Coordination Sequence:
#
# PCOD9426881 Si02
#       6
#     8   8   8   8   8   8
#     4   9  20  36  54  76 104 135 171 210 254 304
#     4  10  20  35  53  76 103 134 170 210 253 302
#     4   9  20  36  54  76 104 135 171 210 254 304
#     4  10  20  36  55  78 106 138 174 215 259 308
#     4  10  20  35  53  76 103 134 170 210 253 302
#     4  10  20  36  55  78 106 138 174 215 259 308
#
# _framework density 25.762896999999999
#
# number of rings (size 3 to 8) (size 9 to 14) (size 15 to 20)
#    0.000    2.333    0.000    3.000    0.000    6.000 
#    0.000    6.667    0.000    0.000    0.000    0.000 
#    0.000    0.000    0.000    0.000    0.000    0.000 
#
# Total GULP energy -268519.044645 kJ/mol
# GULP energy per Si atom -5594.146763 kJ/mol
# Density = 2.570426 g / cm^3
# Si number density = 25.762897 Si / 1000 Ang^3
#
#
#
# Elastic Constant Matrix: (Units=GPa)
#
#
# Indices 1 2 3 4 5 6 
#
# 1 164.1223 26.7583 -1.3221 0.0000 0.0000 0.0000
# 2 26.7583 53.3684 -1.6099 0.0000 0.0000 0.0000
# 3 -1.3221 -1.6099 47.2105 0.0000 0.0000 0.0000
# 4 0.0000 0.0000 0.0000 16.1259 0.0000 0.0000
# 5 0.0000 0.0000 0.0000 0.0000 28.3671 0.0000
# 6 0.0000 0.0000 0.0000 0.0000 0.0000 51.5440
#
#
#
# Elastic Compliance Matrix: (Units=1/GPa)
#
#
# Indices 1 2 3 4 5 6 
#
# 1 0.006636 -0.003325 0.000072 0.000000 0.000000 0.000000
# 2 -0.003325 0.020423 0.000603 0.000000 0.000000 0.000000
# 3 0.000072 0.000603 0.021204 0.000000 0.000000 0.000000
# 4 0.000000 0.000000 0.000000 0.062012 0.000000 0.000000
# 5 0.000000 0.000000 0.000000 0.000000 0.035252 0.000000
# 6 0.000000 0.000000 0.000000 0.000000 0.000000 0.019401
#
#
# Mechanical properties :
#
#
# Convention : Reuss Voigt Hill
#
# Bulk Modulus (GPa) = 23.27492 34.70598 28.99045
# Shear Modulus (GPa) = 27.09327 35.26573 31.17950
#
# Velocity S-wave (km/s) = 3.24642 3.70382 3.48264
# Velocity P-wave (km/s) = 4.80689 5.63840 5.23917
#
# Compressibility (1/GPa) = 0.04296471
#
# Stress axis : x y z
#
# Youngs Moduli (GPa) = 150.70042 48.96462 47.16017
#
# Poissons Ratio (x) = 0.16280 -0.00342
# Poissons Ratio (y) = 0.50106 -0.02845
# Poissons Ratio (z) = -0.01092 -0.02954
#
# Static dielectric constant tensor:
#      x y z
#    x 1.996190 0.000000 0.000000 
#    y 0.000000 2.198280 0.000000 
#    z 0.000000 0.000000 1.894650 
# 
# From -- ./inp_files/2789.got.cif
#   From: 2010.05.17/outbox.cif.g08.bks.cpg/sg55_2_cif.got.tgz:2789.got - 2010.06.03 13:27:54.
