data_PCOD9426143
_publ_section_title
;
Structure prediction by ZEFSAII (Michael W. Deem and Ramdas Pophale) SiO2 
 PCOD9426143
Probable space group: P B A M
;
_chemical_formula_sum "Si O2"
_cell_formula_units_Z 64
_cell_length_a 19.769995
_cell_length_b 20.676989
_cell_length_c 9.002837
_cell_angle_alpha 90.000000
_cell_angle_beta 90.000000
_cell_angle_gamma 90.000000
_cell_volume 3680.215442
_symmetry_space_group_name_H-M "P B A M"
_symmetry_group_IT_number 55
_symmetry_cell_setting 'orthorhombic'
loop_
_space_group_symop_operation_xyz
x,y,z
-x,-y,z
1/2+x,1/2-y,-z
1/2-x,1/2+y,-z
-x,-y,-z
x,y,-z
1/2-x,1/2+y,z
1/2+x,1/2-y,z
loop_
_atom_site_type_symbol
_atom_site_label
_atom_site_fract_x
_atom_site_fract_y
_atom_site_fract_z
Si Si1 0.033332 0.812545 0.821806
Si Si2 0.679450 0.135386 0.677661
Si Si3 0.329223 0.512989 0.176571
Si Si4 0.321080 0.360332 0.177883
Si Si5 0.964401 0.688322 0.677415
Si Si6 0.459079 0.566358 0.324273
Si Si7 0.038016 0.568383 0.824483
Si Si8 0.324237 0.005314 0.822258
O O1 0.112524 0.820179 0.779418
O O2 0.998696 0.749470 0.754448
O O3 0.994450 0.875401 0.761738
O O4 0.030191 0.811173 0.000000
O O5 0.683804 0.132258 0.500000
O O6 0.751067 0.158011 0.743852
O O7 0.614614 0.178650 0.718546
O O8 0.666944 0.063205 0.741067
O O9 0.335235 0.436272 0.211715
O O10 0.383502 0.553382 0.267034
O O11 0.251264 0.530226 0.208533
O O12 0.341514 0.520399 0.000000
O O13 0.311714 0.356263 0.000000
O O14 0.968411 0.694721 0.500000
O O15 0.003244 0.624017 0.730339
O O16 0.500000 0.500000 0.296019
O O17 0.460150 0.579273 0.500000
O O18 0.115933 0.554375 0.784438
O O19 0.000000 0.500000 0.804773
O O20 0.033873 0.585072 0.000000
O O21 0.328414 0.992718 0.000000
#
# Coordination Sequence:
#
# PCOD9426143 Si02
#       8
#     8   8   8   8   8   8   8   8
#     4  11  23  40  61  83 110 149 193 235 280 332
#     4  10  20  33  54  82 113 148 183 224 279 339
#     4   9  17  32  54  81 113 145 185 233 278 327
#     4   9  19  35  57  83 109 141 186 234 276 328
#     4  11  24  39  55  83 120 152 187 232 283 339
#     4  11  22  35  55  84 116 146 180 226 281 336
#     4  10  19  34  59  85 111 146 190 234 277 327
#     4   9  18  33  54  83 114 145 187 237 279 323
#
# _framework density 17.390287000000001
#
# number of rings (size 3 to 8) (size 9 to 14) (size 15 to 20)
#    0.000    2.000    2.500    2.250    0.000    5.750 
#    0.000    1.250    0.000    1.500    0.000    0.000 
#    0.000    0.000    0.000    0.000    0.000    0.000 
#
# Total GULP energy -357226.954904 kJ/mol
# GULP energy per Si atom -5581.671170 kJ/mol
# Density = 1.735071 g / cm^3
# Si number density = 17.390287 Si / 1000 Ang^3
#
#
#
# Elastic Constant Matrix: (Units=GPa)
#
#
# Indices 1 2 3 4 5 6 
#
# 1 172.0470 68.4215 63.6640 0.0000 0.0000 0.0000
# 2 68.4215 74.1799 46.7872 0.0000 0.0000 0.0000
# 3 63.6640 46.7872 50.7362 0.0000 0.0000 0.0000
# 4 0.0000 0.0000 0.0000 24.5690 0.0000 0.0000
# 5 0.0000 0.0000 0.0000 0.0000 3.7761 0.0000
# 6 0.0000 0.0000 0.0000 0.0000 0.0000 26.2499
#
#
#
# Elastic Compliance Matrix: (Units=1/GPa)
#
#
# Indices 1 2 3 4 5 6 
#
# 1 0.011221 -0.003512 -0.010841 0.000000 0.000000 0.000000
# 2 -0.003512 0.033321 -0.026321 0.000000 0.000000 0.000000
# 3 -0.010841 -0.026321 0.057586 0.000000 0.000000 0.000000
# 4 0.000000 0.000000 0.000000 0.040702 0.000000 0.000000
# 5 0.000000 0.000000 0.000000 0.000000 0.264821 0.000000
# 6 0.000000 0.000000 0.000000 0.000000 0.000000 0.038095
#
#
# Mechanical properties :
#
#
# Convention : Reuss Voigt Hill
#
# Bulk Modulus (GPa) = 48.12442 72.74538 60.43490
# Shear Modulus (GPa) = 9.36291 18.79171 14.07731
#
# Velocity S-wave (km/s) = 2.32286 3.29079 2.84824
# Velocity P-wave (km/s) = 5.90995 7.50739 6.75605
#
# Compressibility (1/GPa) = 0.02077947
#
# Stress axis : x y z
#
# Youngs Moduli (GPa) = 89.12128 30.01072 17.36524
#
# Poissons Ratio (x) = 0.10539 0.18826
# Poissons Ratio (y) = 0.31297 0.45708
# Poissons Ratio (z) = 0.96620 0.78992
#
# Static dielectric constant tensor:
#      x y z
#    x 1.608200 0.000000 0.000000 
#    y 0.000000 1.555250 0.000000 
#    z 0.000000 0.000000 1.578820 
# 
# From -- ./inp_files/9002.got.cif
#   From: 2010.05.17/outbox.cif.g08.bks.cpg/sg55_5_cif.got.tgz:9002.got - 2010.06.03 13:27:54.
