data_PCOD9426569
_publ_section_title
;
Structure prediction by ZEFSAII (Michael W. Deem and Ramdas Pophale) SiO2 
 PCOD9426569
Probable space group: P B A M
;
_chemical_formula_sum "Si O2"
_cell_formula_units_Z 48
_cell_length_a 18.897513
_cell_length_b 16.805870
_cell_length_c 8.960152
_cell_angle_alpha 90.000000
_cell_angle_beta 90.000000
_cell_angle_gamma 90.000000
_cell_volume 2845.647029
_symmetry_space_group_name_H-M "P B A M"
_symmetry_group_IT_number 55
_symmetry_cell_setting 'orthorhombic'
loop_
_space_group_symop_operation_xyz
x,y,z
-x,-y,z
1/2+x,1/2-y,-z
1/2-x,1/2+y,-z
-x,-y,-z
x,y,-z
1/2-x,1/2+y,z
1/2+x,1/2-y,z
loop_
_atom_site_type_symbol
_atom_site_label
_atom_site_fract_x
_atom_site_fract_y
_atom_site_fract_z
Si Si1 0.543936 0.083016 0.171166
Si Si2 0.584379 0.835359 0.322181
Si Si3 0.669732 0.996477 0.321618
Si Si4 0.454845 0.582218 0.827662
Si Si5 0.910972 0.170249 0.819410
Si Si6 0.823588 0.011590 0.181072
O O1 0.492747 0.143937 0.255311
O O2 0.616865 0.062231 0.252931
O O3 0.500000 0.000000 0.170476
O O4 0.555587 0.107277 0.000000
O O5 0.580072 0.828859 0.500000
O O6 0.610507 0.753599 0.250413
O O7 0.635115 0.910245 0.286514
O O8 0.671961 0.004684 0.500000
O O9 0.747052 0.002923 0.251668
O O10 0.500000 0.500000 0.830665
O O11 0.509928 0.645842 0.763536
O O12 0.379009 0.556444 0.764553
O O13 0.442514 0.605371 0.000000
O O14 0.858835 0.097114 0.783112
O O15 0.913428 0.175823 0.000000
O O16 0.819778 0.006769 0.000000
#
# Coordination Sequence:
#
# PCOD9426569 Si02
#       6
#     8   8   8   8   8   8
#     4   9  17  31  52  73  91 118 160 203 239 282
#     4  10  20  33  49  71 100 132 163 200 248 297
#     4  10  20  33  49  71 101 133 163 197 242 296
#     4   7  12  26  48  71  93 119 155 199 241 280
#     4   9  17  31  52  75  97 125 164 208 249 290
#     4   9  17  31  52  75  98 127 165 205 245 291
#
# _framework density 16.867868000000001
#
# number of rings (size 3 to 8) (size 9 to 14) (size 15 to 20)
#    0.000    3.000    0.000    3.500    0.000    4.667 
#    0.000    2.500    0.000    9.000    0.000    0.000 
#    0.000    0.000    0.000    0.000    0.000    0.000 
#
# Total GULP energy -267249.153654 kJ/mol
# GULP energy per Si atom -5567.690701 kJ/mol
# Density = 1.682948 g / cm^3
# Si number density = 16.867868 Si / 1000 Ang^3
#
#
#
# Elastic Constant Matrix: (Units=GPa)
#
#
# Indices 1 2 3 4 5 6 
#
# 1 147.3595 38.9420 49.8411 0.0000 0.0000 0.0000
# 2 38.9420 69.8639 37.3855 0.0000 0.0000 0.0000
# 3 49.8411 37.3855 45.0696 0.0000 0.0000 0.0000
# 4 0.0000 0.0000 0.0000 16.2422 0.0000 0.0000
# 5 0.0000 0.0000 0.0000 0.0000 5.3729 0.0000
# 6 0.0000 0.0000 0.0000 0.0000 0.0000 14.4637
#
#
#
# Elastic Compliance Matrix: (Units=1/GPa)
#
#
# Indices 1 2 3 4 5 6 
#
# 1 0.010859 0.000671 -0.012565 0.000000 0.000000 0.000000
# 2 0.000671 0.025780 -0.022127 0.000000 0.000000 0.000000
# 3 -0.012565 -0.022127 0.054437 0.000000 0.000000 0.000000
# 4 0.000000 0.000000 0.000000 0.061568 0.000000 0.000000
# 5 0.000000 0.000000 0.000000 0.000000 0.186119 0.000000
# 6 0.000000 0.000000 0.000000 0.000000 0.000000 0.069139
#
#
# Mechanical properties :
#
#
# Convention : Reuss Voigt Hill
#
# Bulk Modulus (GPa) = 43.41266 57.18114 50.29690
# Shear Modulus (GPa) = 10.33868 16.29072 13.31470
#
# Velocity S-wave (km/s) = 2.47841 3.11108 2.81259
# Velocity P-wave (km/s) = 5.82948 6.84676 6.35849
#
# Compressibility (1/GPa) = 0.02303475
#
# Stress axis : x y z
#
# Youngs Moduli (GPa) = 92.09328 38.78982 18.36970
#
# Poissons Ratio (x) = -0.02604 0.23081
# Poissons Ratio (y) = -0.06181 0.40646
# Poissons Ratio (z) = 1.15714 0.85830
#
# Static dielectric constant tensor:
#      x y z
#    x 1.570400 0.000000 0.000000 
#    y 0.000000 1.577590 0.000000 
#    z 0.000000 0.000000 1.564960 
# 
# From -- ./inp_files/7553.got.cif
#   From: 2010.05.17/outbox.cif.g08.bks.cpg/sg55_4_cif.got.tgz:7553.got - 2010.06.03 13:27:54.
