data_PCOD9426692
_publ_section_title
;
Structure prediction by ZEFSAII (Michael W. Deem and Ramdas Pophale) SiO2 
 PCOD9426692
Probable space group: P B A M
;
_chemical_formula_sum "Si O2"
_cell_formula_units_Z 48
_cell_length_a 9.290506
_cell_length_b 32.566720
_cell_length_c 7.601973
_cell_angle_alpha 90.000000
_cell_angle_beta 90.000000
_cell_angle_gamma 90.000000
_cell_volume 2300.062891
_symmetry_space_group_name_H-M "P B A M"
_symmetry_group_IT_number 55
_symmetry_cell_setting 'orthorhombic'
loop_
_space_group_symop_operation_xyz
x,y,z
-x,-y,z
1/2+x,1/2-y,-z
1/2-x,1/2+y,-z
-x,-y,-z
x,y,-z
1/2-x,1/2+y,z
1/2+x,1/2-y,z
loop_
_atom_site_type_symbol
_atom_site_label
_atom_site_fract_x
_atom_site_fract_y
_atom_site_fract_z
Si Si1 0.100273 0.116774 0.206414
Si Si2 0.432897 0.123171 0.295738
Si Si3 0.902940 0.287339 0.715539
Si Si4 0.412373 0.459772 0.787021
Si Si5 0.075822 0.458984 0.708619
Si Si6 0.571131 0.292681 0.712338
O O1 0.259729 0.117375 0.289188
O O2 0.029788 0.161573 0.229838
O O3 0.997835 0.080699 0.274101
O O4 0.124341 0.109662 0.000000
O O5 0.476788 0.125214 0.500000
O O6 0.463879 0.168689 0.221920
O O7 0.510558 0.083432 0.216759
O O8 0.908122 0.287761 0.500000
O O9 0.736269 0.286517 0.766633
O O10 0.980431 0.246102 0.775348
O O11 0.500000 0.500000 0.729297
O O12 0.246956 0.460747 0.730266
O O13 0.411717 0.459411 0.000000
O O14 0.042614 0.458398 0.500000
O O15 0.000000 0.500000 0.781533
O O16 0.565965 0.292762 0.500000
#
# Coordination Sequence:
#
# PCOD9426692 Si02
#       6
#     8   8   8   8   8   8
#     4  10  20  34  52  75 102 133 172 212 250 296
#     4   9  18  34  54  76 103 134 169 208 253 304
#     4   8  15  28  48  71  94 127 168 203 240 296
#     4  10  22  38  54  74 102 138 175 205 241 300
#     4  10  21  35  54  82 108 129 162 211 260 301
#     4   9  17  31  50  71  97 130 168 209 252 295
#
# _framework density 20.868993
#
# number of rings (size 3 to 8) (size 9 to 14) (size 15 to 20)
#    0.000    2.667    0.000    2.500    0.000    4.000 
#    0.000    6.667    0.000    0.000    0.000    0.000 
#    0.000    0.000    0.000    0.000    0.000    0.000 
#
# Total GULP energy -267841.855790 kJ/mol
# GULP energy per Si atom -5580.038662 kJ/mol
# Density = 2.082149 g / cm^3
# Si number density = 20.868993 Si / 1000 Ang^3
#
#
#
# Elastic Constant Matrix: (Units=GPa)
#
#
# Indices 1 2 3 4 5 6 
#
# 1 71.2503 90.1356 -17.7111 0.0000 0.0000 0.0000
# 2 90.1356 233.4318 -5.4799 0.0000 0.0000 0.0000
# 3 -17.7111 -5.4799 40.6810 0.0000 0.0000 0.0000
# 4 0.0000 0.0000 0.0000 12.2148 0.0000 0.0000
# 5 0.0000 0.0000 0.0000 0.0000 20.9804 0.0000
# 6 0.0000 0.0000 0.0000 0.0000 0.0000 45.9879
#
#
#
# Elastic Compliance Matrix: (Units=1/GPa)
#
#
# Indices 1 2 3 4 5 6 
#
# 1 0.032842 -0.012385 0.012630 0.000000 0.000000 0.000000
# 2 -0.012385 0.008968 -0.004184 0.000000 0.000000 0.000000
# 3 0.012630 -0.004184 0.029517 0.000000 0.000000 0.000000
# 4 0.000000 0.000000 0.000000 0.081868 0.000000 0.000000
# 5 0.000000 0.000000 0.000000 0.000000 0.047664 0.000000
# 6 0.000000 0.000000 0.000000 0.000000 0.000000 0.021745
#
#
# Mechanical properties :
#
#
# Convention : Reuss Voigt Hill
#
# Bulk Modulus (GPa) = 15.76068 53.25026 34.50547
# Shear Modulus (GPa) = 19.87038 34.39784 27.13411
#
# Velocity S-wave (km/s) = 3.08904 4.06430 3.60976
# Velocity P-wave (km/s) = 4.50461 6.89903 5.82615
#
# Compressibility (1/GPa) = 0.06344903
#
# Stress axis : x y z
#
# Youngs Moduli (GPa) = 30.44861 111.50861 33.87924
#
# Poissons Ratio (x) = 1.38103 -0.42790
# Poissons Ratio (y) = 0.37710 0.14175
# Poissons Ratio (z) = -0.38457 0.46655
#
# Static dielectric constant tensor:
#      x y z
#    x 1.683290 0.000000 0.000000 
#    y 0.000000 1.776670 0.000000 
#    z 0.000000 0.000000 1.791900 
# 
# From -- ./inp_files/2765.got.cif
#   From: 2010.05.17/outbox.cif.g08.bks.cpg/sg55_2_cif.got.tgz:2765.got - 2010.06.03 13:27:54.
