data_PCOD9426037
_publ_section_title
;
Structure prediction by ZEFSAII (Michael W. Deem and Ramdas Pophale) SiO2 
 PCOD9426037
Probable space group: P B A M
;
_chemical_formula_sum "Si O2"
_cell_formula_units_Z 64
_cell_length_a 20.537980
_cell_length_b 20.621284
_cell_length_c 8.570443
_cell_angle_alpha 90.000000
_cell_angle_beta 90.000000
_cell_angle_gamma 90.000000
_cell_volume 3629.749892
_symmetry_space_group_name_H-M "P B A M"
_symmetry_group_IT_number 55
_symmetry_cell_setting 'orthorhombic'
loop_
_space_group_symop_operation_xyz
x,y,z
-x,-y,z
1/2+x,1/2-y,-z
1/2-x,1/2+y,-z
-x,-y,-z
x,y,-z
1/2-x,1/2+y,z
1/2+x,1/2-y,z
loop_
_atom_site_type_symbol
_atom_site_label
_atom_site_fract_x
_atom_site_fract_y
_atom_site_fract_z
Si Si1 0.570249 0.823948 0.812442
Si Si2 0.675951 0.928949 0.809921
Si Si3 0.073360 0.318626 0.685195
Si Si4 0.926640 0.181374 0.314804
Si Si5 0.570249 0.323948 0.187558
Si Si6 0.825825 0.077516 0.811974
Si Si7 0.824049 0.928949 0.190079
Si Si8 0.825825 0.577516 0.811974
O O1 0.623047 0.876661 0.758425
O O2 0.498449 0.837490 0.746121
O O3 0.588740 0.751537 0.759218
O O4 0.566880 0.825302 0.000000
O O5 0.750000 0.914018 0.759484
O O6 0.660210 0.003000 0.764698
O O7 0.676356 0.928092 0.000000
O O8 0.071160 0.311763 0.500000
O O9 0.088740 0.248463 0.759218
O O10 0.125890 0.371678 0.735207
O O11 0.928840 0.188237 0.500000
O O12 0.874110 0.128322 0.264793
O O13 0.998449 0.162510 0.253879
O O14 0.623047 0.376661 0.241575
O O15 0.566880 0.325302 0.000000
O O16 0.750000 0.090642 0.774644
O O17 0.839790 0.003000 0.764698
O O18 0.832501 0.081424 0.000000
O O19 0.823644 0.928092 0.000000
O O20 0.832501 0.581424 0.000000
#
# Coordination Sequence:
#
# PCOD9426037 Si02
#       8
#     8   8   8   8   8   8   8   8
#     4  10  19  34  56  78 101 133 175 216 256 303
#     4   8  16  32  55  81 103 125 163 216 262 299
#     4  11  22  35  50  73 108 141 171 209 254 304
#     4  11  22  35  50  73 108 141 171 209 254 304
#     4  10  19  34  56  78 101 133 175 216 256 303
#     4   9  18  35  57  78 101 131 169 211 254 303
#     4   8  16  32  55  81 103 125 163 216 262 299
#     4   9  18  35  57  78 101 131 169 211 254 303
#
# _framework density 17.632069999999999
#
# number of rings (size 3 to 8) (size 9 to 14) (size 15 to 20)
#    0.000    2.500    0.000    6.000    0.000    2.500 
#    0.000   10.000    0.000    5.250    0.000    0.000 
#    0.000    0.000    0.000    0.000    0.000    0.000 
#
# Total GULP energy -357064.755983 kJ/mol
# GULP energy per Si atom -5579.136812 kJ/mol
# Density = 1.759194 g / cm^3
# Si number density = 17.632070 Si / 1000 Ang^3
#
#
#
# Elastic Constant Matrix: (Units=GPa)
#
#
# Indices 1 2 3 4 5 6 
#
# 1 99.4390 94.7296 18.0011 0.0000 0.0000 0.0000
# 2 94.7296 107.3657 14.5001 0.0000 0.0000 0.0000
# 3 18.0011 14.5001 35.3745 0.0000 0.0000 0.0000
# 4 0.0000 0.0000 0.0000 -16.9852 0.0000 0.0000
# 5 0.0000 0.0000 0.0000 0.0000 -17.4416 0.0000
# 6 0.0000 0.0000 0.0000 0.0000 0.0000 44.1125
#
#
#
# Elastic Compliance Matrix: (Units=1/GPa)
#
#
# Indices 1 2 3 4 5 6 
#
# 1 0.066459 -0.057239 -0.010357 0.000000 0.000000 0.000000
# 2 -0.057239 0.059157 0.004878 0.000000 0.000000 0.000000
# 3 -0.010357 0.004878 0.031540 0.000000 0.000000 0.000000
# 4 0.000000 0.000000 0.000000 -0.058875 0.000000 0.000000
# 5 0.000000 0.000000 0.000000 0.000000 -0.057334 0.000000
# 6 0.000000 0.000000 0.000000 0.000000 0.000000 0.022669
#
#
# Mechanical properties :
#
#
# Convention : Reuss Voigt Hill
#
# Bulk Modulus (GPa) = 31.52417 55.18230 43.35323
# Shear Modulus (GPa) = 25.04702 9.60038 17.32370
#
# Velocity S-wave (km/s) = 3.77309 2.33595 3.13790
# Velocity P-wave (km/s) = 6.07448 6.21611 6.14570
#
# Compressibility (1/GPa) = 0.03172170
#
# Stress axis : x y z
#
# Youngs Moduli (GPa) = 15.04682 16.90407 31.70621
#
# Poissons Ratio (x) = 0.96757 0.32838
# Poissons Ratio (y) = 0.86126 -0.15468
# Poissons Ratio (z) = 0.15584 -0.08247
#
# Static dielectric constant tensor:
#      x y z
#    x 1.582780 0.000000 0.000000 
#    y 0.000000 1.584690 0.000000 
#    z 0.000000 0.000000 1.589790 
# 
# From -- ./inp_files/9162.got.cif
#   From: 2010.05.17/outbox.cif.g08.bks.cpg/sg55_5_cif.got.tgz:9162.got - 2010.06.03 13:27:54.
