data_PCOD9426382
_publ_section_title
;
Structure prediction by ZEFSAII (Michael W. Deem and Ramdas Pophale) SiO2 
 PCOD9426382
Probable space group: P B A M
;
_chemical_formula_sum "Si O2"
_cell_formula_units_Z 64
_cell_length_a 12.976131
_cell_length_b 28.076475
_cell_length_c 8.354317
_cell_angle_alpha 90.000000
_cell_angle_beta 90.000000
_cell_angle_gamma 90.000000
_cell_volume 3043.678334
_symmetry_space_group_name_H-M "P B A M"
_symmetry_group_IT_number 55
_symmetry_cell_setting 'orthorhombic'
loop_
_space_group_symop_operation_xyz
x,y,z
-x,-y,z
1/2+x,1/2-y,-z
1/2-x,1/2+y,-z
-x,-y,-z
x,y,-z
1/2-x,1/2+y,z
1/2+x,1/2-y,z
loop_
_atom_site_type_symbol
_atom_site_label
_atom_site_fract_x
_atom_site_fract_y
_atom_site_fract_z
Si Si1 0.379645 0.359449 0.687965
Si Si2 0.811664 0.697788 0.188216
Si Si3 0.469556 0.945992 0.693857
Si Si4 0.763947 0.048299 0.694634
Si Si5 0.759602 0.296279 0.316928
Si Si6 0.906266 0.860784 0.181981
Si Si7 0.033378 0.655405 0.191431
Si Si8 0.902546 0.965258 0.309409
O O1 0.405367 0.362120 0.500000
O O2 0.278623 0.328409 0.715844
O O3 0.345239 0.411847 0.746247
O O4 0.479749 0.341325 0.779818
O O5 0.789098 0.753303 0.215312
O O6 0.924592 0.679790 0.241304
O O7 0.801652 0.686304 0.000000
O O8 0.474390 0.944574 0.500000
O O9 0.350862 0.939621 0.747485
O O10 0.531803 0.900214 0.756312
O O11 0.500000 0.000000 0.741707
O O12 0.763888 0.049716 0.500000
O O13 0.802967 0.996121 0.739059
O O14 0.767128 0.280385 0.500000
O O15 0.678554 0.338912 0.297727
O O16 0.870257 0.315482 0.260582
O O17 0.911705 0.916976 0.213617
O O18 0.877039 0.850592 0.000000
O O19 0.039204 0.657368 0.000000
O O20 0.897514 0.954525 0.500000
O O21 0.000000 0.000000 0.287550
#
# Coordination Sequence:
#
# PCOD9426382 Si02
#       8
#     8   8   8   8   8   8   8   8
#     4  11  21  40  68  97 128 171 224 272 321 392
#     4  11  25  46  71 100 134 170 210 271 342 399
#     4  10  21  38  63  96 132 178 228 273 324 389
#     4   9  18  34  58  90 128 169 219 272 316 372
#     4  12  28  48  72  97 127 174 227 275 327 400
#     4  12  26  43  63  95 137 175 217 277 341 396
#     4  11  25  46  70 100 139 176 216 274 341 401
#     4  10  19  36  60  89 126 173 221 266 317 383
#
# _framework density 21.027189
#
# number of rings (size 3 to 8) (size 9 to 14) (size 15 to 20)
#    0.000    1.250    2.500    3.375    3.500    2.000 
#    0.000    0.625    0.000    0.000    0.000    0.000 
#    0.000    0.000    0.000    0.000    0.000    0.000 
#
# Total GULP energy -357729.645239 kJ/mol
# GULP energy per Si atom -5589.525707 kJ/mol
# Density = 2.097933 g / cm^3
# Si number density = 21.027189 Si / 1000 Ang^3
#
#
#
# Elastic Constant Matrix: (Units=GPa)
#
#
# Indices 1 2 3 4 5 6 
#
# 1 93.4166 29.7784 7.8259 0.0000 0.0000 0.0000
# 2 29.7784 85.3437 4.0629 0.0000 0.0000 0.0000
# 3 7.8259 4.0629 36.0586 0.0000 0.0000 0.0000
# 4 0.0000 0.0000 0.0000 27.3542 0.0000 0.0000
# 5 0.0000 0.0000 0.0000 0.0000 22.3529 0.0000
# 6 0.0000 0.0000 0.0000 0.0000 0.0000 30.8039
#
#
#
# Elastic Compliance Matrix: (Units=1/GPa)
#
#
# Indices 1 2 3 4 5 6 
#
# 1 0.012213 -0.004157 -0.002182 0.000000 0.000000 0.000000
# 2 -0.004157 0.013196 -0.000585 0.000000 0.000000 0.000000
# 3 -0.002182 -0.000585 0.028272 0.000000 0.000000 0.000000
# 4 0.000000 0.000000 0.000000 0.036558 0.000000 0.000000
# 5 0.000000 0.000000 0.000000 0.000000 0.044737 0.000000
# 6 0.000000 0.000000 0.000000 0.000000 0.000000 0.032463
#
#
# Mechanical properties :
#
#
# Convention : Reuss Voigt Hill
#
# Bulk Modulus (GPa) = 25.10516 33.12816 29.11666
# Shear Modulus (GPa) = 25.69844 27.64564 26.67204
#
# Velocity S-wave (km/s) = 3.49972 3.62989 3.56540
# Velocity P-wave (km/s) = 5.31940 5.77557 5.55218
#
# Compressibility (1/GPa) = 0.03983246
#
# Stress axis : x y z
#
# Youngs Moduli (GPa) = 81.88123 75.78180 35.37053
#
# Poissons Ratio (x) = 0.31506 0.07718
# Poissons Ratio (y) = 0.34042 0.02068
# Poissons Ratio (z) = 0.17868 0.04430
#
# Static dielectric constant tensor:
#      x y z
#    x 1.753600 0.000000 0.000000 
#    y 0.000000 1.782310 0.000000 
#    z 0.000000 0.000000 1.725380 
# 
# From -- ./inp_files/4689.got.cif
#   From: 2010.05.17/outbox.cif.g08.bks.cpg/sg55_3_cif.got.tgz:4689.got - 2010.06.03 13:27:54.
