data_PCOD9426491
_publ_section_title
;
Structure prediction by ZEFSAII (Michael W. Deem and Ramdas Pophale) SiO2 
 PCOD9426491
Probable space group: P B A M
;
_chemical_formula_sum "Si O2"
_cell_formula_units_Z 56
_cell_length_a 18.266540
_cell_length_b 7.341193
_cell_length_c 17.296467
_cell_angle_alpha 90.000000
_cell_angle_beta 90.000000
_cell_angle_gamma 90.000000
_cell_volume 2319.425015
_symmetry_space_group_name_H-M "P B A M"
_symmetry_group_IT_number 55
_symmetry_cell_setting 'orthorhombic'
loop_
_space_group_symop_operation_xyz
x,y,z
-x,-y,z
1/2+x,1/2-y,-z
1/2-x,1/2+y,-z
-x,-y,-z
x,y,-z
1/2-x,1/2+y,z
1/2+x,1/2-y,z
loop_
_atom_site_type_symbol
_atom_site_label
_atom_site_fract_x
_atom_site_fract_y
_atom_site_fract_z
Si Si1 0.008577 0.758193 0.159953
Si Si2 0.211824 0.408381 0.793703
Si Si3 0.371696 0.403713 0.280458
Si Si4 0.849267 0.311639 0.913633
Si Si5 0.410209 0.819855 0.697739
Si Si6 0.139227 0.123897 0.087555
Si Si7 0.029079 0.789181 0.587753
O O1 0.961552 0.664152 0.226912
O O2 0.947329 0.850441 0.105547
O O3 0.066038 0.870685 0.214755
O O4 0.065562 0.651931 0.106141
O O5 0.291145 0.377574 0.755142
O O6 0.303882 0.072448 0.852808
O O7 0.158500 0.441829 0.720014
O O8 0.178572 0.243160 0.846283
O O9 0.378050 0.615045 0.303249
O O10 0.401986 0.290909 0.353825
O O11 0.840327 0.091259 0.910951
O O12 0.831055 0.369357 0.000000
O O13 0.462458 0.827748 0.624046
O O14 0.154652 0.187671 0.000000
O O15 0.046325 0.739831 0.500000
O O16 0.000000 0.000000 0.588578
#
# Coordination Sequence:
#
# PCOD9426491 Si02
#       7
#     8   8   8   8   8   8   8
#     4  10  19  38  67  90 119 170 233 288 331 393
#     4  11  24  39  62  93 139 177 216 282 347 418
#     4  10  20  36  62  95 134 175 223 270 335 412
#     4  11  23  40  64  91 123 174 234 289 350 400
#     4   9  19  36  59  96 129 171 224 273 326 399
#     4  10  21  41  66  89 123 175 236 299 350 396
#     4   8  15  34  68 104 136 172 221 273 324 398
#
# _framework density 24.143915
#
# number of rings (size 3 to 8) (size 9 to 14) (size 15 to 20)
#    0.000    2.143    0.000    5.143    2.000    3.429 
#    0.000    7.143    0.000    4.286    0.000   10.000 
#    0.000   20.000    0.000    0.143    0.000    0.000 
#
# Total GULP energy -312914.513230 kJ/mol
# GULP energy per Si atom -5587.759165 kJ/mol
# Density = 2.408896 g / cm^3
# Si number density = 24.143915 Si / 1000 Ang^3
#
#
#
# Elastic Constant Matrix: (Units=GPa)
#
#
# Indices 1 2 3 4 5 6 
#
# 1 219.3091 50.1849 86.9546 0.0000 0.0000 0.0000
# 2 50.1849 69.3761 40.9914 0.0000 0.0000 0.0000
# 3 86.9546 40.9914 203.3677 0.0000 0.0000 0.0000
# 4 0.0000 0.0000 0.0000 26.5995 0.0000 0.0000
# 5 0.0000 0.0000 0.0000 0.0000 16.4082 0.0000
# 6 0.0000 0.0000 0.0000 0.0000 0.0000 31.8598
#
#
#
# Elastic Compliance Matrix: (Units=1/GPa)
#
#
# Indices 1 2 3 4 5 6 
#
# 1 0.006072 -0.003245 -0.001942 0.000000 0.000000 0.000000
# 2 -0.003245 0.018097 -0.002260 0.000000 0.000000 0.000000
# 3 -0.001942 -0.002260 0.006203 0.000000 0.000000 0.000000
# 4 0.000000 0.000000 0.000000 0.037595 0.000000 0.000000
# 5 0.000000 0.000000 0.000000 0.000000 0.060945 0.000000
# 6 0.000000 0.000000 0.000000 0.000000 0.000000 0.031388
#
#
# Mechanical properties :
#
#
# Convention : Reuss Voigt Hill
#
# Bulk Modulus (GPa) = 64.60951 94.25720 79.43335
# Shear Modulus (GPa) = 27.72317 35.90163 31.81240
#
# Velocity S-wave (km/s) = 3.39226 3.86033 3.63384
# Velocity P-wave (km/s) = 6.49318 7.68075 7.11180
#
# Compressibility (1/GPa) = 0.01547760
#
# Stress axis : x y z
#
# Youngs Moduli (GPa) = 164.67776 55.25777 161.20527
#
# Poissons Ratio (x) = 0.17931 0.31312
# Poissons Ratio (y) = 0.53438 0.36436
# Poissons Ratio (z) = 0.31986 0.12489
#
# Static dielectric constant tensor:
#      x y z
#    x 1.998550 0.000000 0.000000 
#    y 0.000000 2.168800 0.000000 
#    z 0.000000 0.000000 1.887290 
# 
# From -- ./inp_files/21824.got.cif
#   From: 2010.05.17/outbox.cif.g08.bks.cpg/sg55_11_cif.got.tgz:21824.got - 2010.06.03 13:27:54.
