data_PCOD9426541
_publ_section_title
;
Structure prediction by ZEFSAII (Michael W. Deem and Ramdas Pophale) SiO2 
 PCOD9426541
Probable space group: P B A M
;
_chemical_formula_sum "Si O2"
_cell_formula_units_Z 64
_cell_length_a 23.684349
_cell_length_b 19.490934
_cell_length_c 8.900676
_cell_angle_alpha 90.000000
_cell_angle_beta 90.000000
_cell_angle_gamma 90.000000
_cell_volume 4108.819802
_symmetry_space_group_name_H-M "P B A M"
_symmetry_group_IT_number 55
_symmetry_cell_setting 'orthorhombic'
loop_
_space_group_symop_operation_xyz
x,y,z
-x,-y,z
1/2+x,1/2-y,-z
1/2-x,1/2+y,-z
-x,-y,-z
x,y,-z
1/2-x,1/2+y,z
1/2+x,1/2-y,z
loop_
_atom_site_type_symbol
_atom_site_label
_atom_site_fract_x
_atom_site_fract_y
_atom_site_fract_z
Si Si1 0.332787 0.725127 0.819855
Si Si2 0.765749 0.657149 0.678986
Si Si3 0.619301 0.508519 0.179752
Si Si4 0.276871 0.133516 0.820752
Si Si5 0.436973 0.356313 0.320971
Si Si6 0.157695 0.768066 0.180029
Si Si7 0.756489 0.002749 0.321357
Si Si8 0.559232 0.363653 0.819889
O O1 0.316199 0.795370 0.738767
O O2 0.282760 0.670895 0.784117
O O3 0.392406 0.691422 0.780359
O O4 0.330803 0.735351 0.000000
O O5 0.759553 0.665655 0.500000
O O6 0.709010 0.685158 0.758401
O O7 0.771094 0.576585 0.712087
O O8 0.589971 0.573650 0.255895
O O9 0.682729 0.500802 0.240407
O O10 0.584513 0.439147 0.211825
O O11 0.620602 0.518075 0.000000
O O12 0.324556 0.189836 0.784764
O O13 0.278982 0.061980 0.735589
O O14 0.277268 0.121562 0.000000
O O15 0.433435 0.356903 0.500000
O O16 0.399231 0.294861 0.254489
O O17 0.501125 0.352168 0.265473
O O18 0.155127 0.775181 0.000000
O O19 0.765270 0.998401 0.500000
O O20 0.549624 0.360019 0.000000
#
# Coordination Sequence:
#
# PCOD9426541 Si02
#       8
#     8   8   8   8   8   8   8   8
#     4   9  18  34  52  72  96 129 172 211 246 296
#     4  10  20  32  48  74 104 131 163 206 254 303
#     4  11  21  35  52  69  98 140 178 211 242 288
#     4   9  18  33  52  74  97 127 170 209 248 299
#     4  12  24  35  49  74 103 133 172 213 255 301
#     4  10  20  35  53  71  95 133 173 210 249 296
#     4  11  21  31  48  76 107 136 165 203 253 304
#     4  10  21  37  53  71  97 135 179 212 246 295
#
# _framework density 15.576249000000001
#
# number of rings (size 3 to 8) (size 9 to 14) (size 15 to 20)
#    0.000    1.750    2.500    3.750    0.000    7.000 
#    0.000    0.000    0.000    0.000    0.000    0.875 
#    0.000    7.000    0.000    0.000    0.000    0.000 
#
# Total GULP energy -357313.825350 kJ/mol
# GULP energy per Si atom -5583.028521 kJ/mol
# Density = 1.554080 g / cm^3
# Si number density = 15.576249 Si / 1000 Ang^3
#
#
#
# Elastic Constant Matrix: (Units=GPa)
#
#
# Indices 1 2 3 4 5 6 
#
# 1 70.7827 48.6981 38.9052 0.0000 0.0000 0.0000
# 2 48.6981 112.3458 55.3299 0.0000 0.0000 0.0000
# 3 38.9052 55.3299 60.7569 0.0000 0.0000 0.0000
# 4 0.0000 0.0000 0.0000 38.8390 0.0000 0.0000
# 5 0.0000 0.0000 0.0000 0.0000 16.3633 0.0000
# 6 0.0000 0.0000 0.0000 0.0000 0.0000 17.7813
#
#
#
# Elastic Compliance Matrix: (Units=1/GPa)
#
#
# Indices 1 2 3 4 5 6 
#
# 1 0.023240 -0.004977 -0.010349 0.000000 0.000000 0.000000
# 2 -0.004977 0.017206 -0.012482 0.000000 0.000000 0.000000
# 3 -0.010349 -0.012482 0.034453 0.000000 0.000000 0.000000
# 4 0.000000 0.000000 0.000000 0.025747 0.000000 0.000000
# 5 0.000000 0.000000 0.000000 0.000000 0.061112 0.000000
# 6 0.000000 0.000000 0.000000 0.000000 0.000000 0.056239
#
#
# Mechanical properties :
#
#
# Convention : Reuss Voigt Hill
#
# Bulk Modulus (GPa) = 51.85977 58.86130 55.36054
# Shear Modulus (GPa) = 17.85450 21.32687 19.59068
#
# Velocity S-wave (km/s) = 3.38933 3.70427 3.55029
# Velocity P-wave (km/s) = 6.97733 7.49444 7.24050
#
# Compressibility (1/GPa) = 0.01928277
#
# Stress axis : x y z
#
# Youngs Moduli (GPa) = 43.02881 58.12040 29.02487
#
# Poissons Ratio (x) = 0.28925 0.30039
# Poissons Ratio (y) = 0.21415 0.36229
# Poissons Ratio (z) = 0.44532 0.72545
#
# Static dielectric constant tensor:
#      x y z
#    x 1.495560 0.000000 0.000000 
#    y 0.000000 1.521840 0.000000 
#    z 0.000000 0.000000 1.516370 
# 
# From -- ./inp_files/8962.got.cif
#   From: 2010.05.17/outbox.cif.g08.bks.cpg/sg55_5_cif.got.tgz:8962.got - 2010.06.03 13:27:54.
