data_PCOD9426726
_publ_section_title
;
Structure prediction by ZEFSAII (Michael W. Deem and Ramdas Pophale) SiO2 
 PCOD9426726
Probable space group: P B A M
;
_chemical_formula_sum "Si O2"
_cell_formula_units_Z 64
_cell_length_a 21.493616
_cell_length_b 16.338250
_cell_length_c 8.117295
_cell_angle_alpha 90.000000
_cell_angle_beta 90.000000
_cell_angle_gamma 90.000000
_cell_volume 2850.534832
_symmetry_space_group_name_H-M "P B A M"
_symmetry_group_IT_number 55
_symmetry_cell_setting 'orthorhombic'
loop_
_space_group_symop_operation_xyz
x,y,z
-x,-y,z
1/2+x,1/2-y,-z
1/2-x,1/2+y,-z
-x,-y,-z
x,y,-z
1/2-x,1/2+y,z
1/2+x,1/2-y,z
loop_
_atom_site_type_symbol
_atom_site_label
_atom_site_fract_x
_atom_site_fract_y
_atom_site_fract_z
Si Si1 0.029950 0.819902 0.685357
Si Si2 0.941224 0.578233 0.817168
Si Si3 0.068144 0.652985 0.811205
Si Si4 0.776339 0.979798 0.186697
Si Si5 0.843411 0.471933 0.316196
Si Si6 0.238632 0.208359 0.800700
Si Si7 0.902744 0.753969 0.699504
Si Si8 0.166421 0.855717 0.803940
O O1 0.031186 0.852489 0.500000
O O2 0.045987 0.723196 0.690371
O O3 0.091901 0.850668 0.777241
O O4 0.957532 0.820657 0.744624
O O5 0.902990 0.529995 0.683415
O O6 0.922421 0.672530 0.794365
O O7 0.015404 0.583760 0.806894
O O8 0.923419 0.549553 0.000000
O O9 0.132109 0.613428 0.756099
O O10 0.072173 0.683337 0.000000
O O11 0.764526 0.888023 0.256450
O O12 0.705957 0.012435 0.195514
O O13 0.813878 0.054875 0.265835
O O14 0.799162 0.968400 0.000000
O O15 0.818998 0.465271 0.500000
O O16 0.168716 0.233530 0.749337
O O17 0.290844 0.277148 0.744475
O O18 0.245064 0.205430 0.000000
O O19 0.906695 0.745439 0.500000
O O20 0.178192 0.858272 0.000000
#
# Coordination Sequence:
#
# PCOD9426726 Si02
#       8
#     8   8   8   8   8   8   8   8
#     4  10  21  37  58  85 115 148 190 241 296 353
#     4  10  20  34  53  77 108 149 193 234 282 345
#     4  10  20  34  53  77 108 149 193 234 282 345
#     4  10  22  39  58  83 114 148 195 246 289 348
#     4  12  23  33  50  78 113 150 187 235 293 350
#     4  10  21  38  61  87 116 154 197 242 295 353
#     4  10  21  37  58  85 115 148 190 241 296 353
#     4  10  21  38  61  87 116 154 197 242 295 353
#
# _framework density 22.451926
#
# number of rings (size 3 to 8) (size 9 to 14) (size 15 to 20)
#    0.000    1.750    0.000    4.500    0.000    8.000 
#    0.000    0.625    0.000    3.750    0.000    0.000 
#    0.000    0.000    0.000    0.000    0.000    0.000 
#
# Total GULP energy -356270.399264 kJ/mol
# GULP energy per Si atom -5566.724988 kJ/mol
# Density = 2.240082 g / cm^3
# Si number density = 22.451926 Si / 1000 Ang^3
#
#
#
# Elastic Constant Matrix: (Units=GPa)
#
#
# Indices 1 2 3 4 5 6 
#
# 1 63.3157 0.7543 0.7736 0.0000 0.0000 0.0000
# 2 0.7543 44.3383 4.5815 0.0000 0.0000 0.0000
# 3 0.7736 4.5815 38.8275 0.0000 0.0000 0.0000
# 4 0.0000 0.0000 0.0000 9.3489 0.0000 0.0000
# 5 0.0000 0.0000 0.0000 0.0000 14.2716 0.0000
# 6 0.0000 0.0000 0.0000 0.0000 0.0000 29.7276
#
#
#
# Elastic Compliance Matrix: (Units=1/GPa)
#
#
# Indices 1 2 3 4 5 6 
#
# 1 0.015800 -0.000239 -0.000287 0.000000 0.000000 0.000000
# 2 -0.000239 0.022836 -0.002690 0.000000 0.000000 0.000000
# 3 -0.000287 -0.002690 0.026078 0.000000 0.000000 0.000000
# 4 0.000000 0.000000 0.000000 0.106964 0.000000 0.000000
# 5 0.000000 0.000000 0.000000 0.000000 0.070069 0.000000
# 6 0.000000 0.000000 0.000000 0.000000 0.000000 0.033639
#
#
# Mechanical properties :
#
#
# Convention : Reuss Voigt Hill
#
# Bulk Modulus (GPa) = 17.15764 17.63335 17.39550
# Shear Modulus (GPa) = 16.59777 20.02775 18.31276
#
# Velocity S-wave (km/s) = 2.72188 2.98992 2.85905
# Velocity P-wave (km/s) = 4.18769 4.44864 4.32013
#
# Compressibility (1/GPa) = 0.05828308
#
# Stress axis : x y z
#
# Youngs Moduli (GPa) = 63.29021 43.79073 38.34643
#
# Poissons Ratio (x) = 0.01047 0.01099
# Poissons Ratio (y) = 0.01514 0.10314
# Poissons Ratio (z) = 0.01814 0.11779
#
# Static dielectric constant tensor:
#      x y z
#    x 1.927680 0.000000 0.000000 
#    y 0.000000 1.908430 0.000000 
#    z 0.000000 0.000000 1.808140 
# 
# From -- ./inp_files/9042.got.cif
#   From: 2010.05.17/outbox.cif.g08.bks.cpg/sg55_5_cif.got.tgz:9042.got - 2010.06.03 13:27:54.
