data_PCOD9426650
_publ_section_title
;
Structure prediction by ZEFSAII (Michael W. Deem and Ramdas Pophale) SiO2 
 PCOD9426650
Probable space group: P B A M
;
_chemical_formula_sum "Si O2"
_cell_formula_units_Z 56
_cell_length_a 8.105436
_cell_length_b 19.828210
_cell_length_c 14.007766
_cell_angle_alpha 90.000000
_cell_angle_beta 90.000000
_cell_angle_gamma 90.000000
_cell_volume 2251.276143
_symmetry_space_group_name_H-M "P B A M"
_symmetry_group_IT_number 55
_symmetry_cell_setting 'orthorhombic'
loop_
_space_group_symop_operation_xyz
x,y,z
-x,-y,z
1/2+x,1/2-y,-z
1/2-x,1/2+y,-z
-x,-y,-z
x,y,-z
1/2-x,1/2+y,z
1/2+x,1/2-y,z
loop_
_atom_site_type_symbol
_atom_site_label
_atom_site_fract_x
_atom_site_fract_y
_atom_site_fract_z
Si Si1 0.563918 0.771167 0.692735
Si Si2 0.909173 0.759470 0.893261
Si Si3 0.272697 0.887493 0.104477
Si Si4 0.591351 0.093603 0.305746
Si Si5 0.733417 0.468990 0.306274
Si Si6 0.381664 0.587955 0.108390
Si Si7 0.618586 0.341365 0.390232
O O1 0.524722 0.752424 0.801798
O O2 0.429054 0.828870 0.665332
O O3 0.739039 0.805373 0.673152
O O4 0.539790 0.703521 0.632641
O O5 0.795267 0.693344 0.894322
O O6 0.827146 0.833554 0.883455
O O7 0.986461 0.760853 0.000000
O O8 0.385252 0.910625 0.191294
O O9 0.080892 0.906454 0.118055
O O10 0.326321 0.911468 0.000000
O O11 0.414239 0.061704 0.327663
O O12 0.740915 0.045965 0.338484
O O13 0.690985 0.456113 0.194372
O O14 0.610351 0.419144 0.360252
O O15 0.345408 0.564572 0.000000
O O16 0.665431 0.336254 0.500000
#
# Coordination Sequence:
#
# PCOD9426650 Si02
#       7
#     8   8   8   8   8   8   8
#     4  10  21  38  61  88 115 149 190 238 293 346
#     4   9  18  31  52  84 118 150 185 230 283 342
#     4   9  19  33  51  80 117 154 194 235 279 335
#     4   9  21  37  58  79 115 154 195 234 289 346
#     4  10  21  40  56  83 114 156 193 237 290 345
#     4  10  20  33  54  85 118 156 197 236 283 342
#     4  11  23  40  62  87 114 146 191 245 299 347
#
# _framework density 24.874782
#
# number of rings (size 3 to 8) (size 9 to 14) (size 15 to 20)
#    0.000    2.286    1.429    0.429    4.000    2.857 
#    0.000   14.286    0.000    0.000    0.000    3.000 
#    0.000    0.000    0.000    0.000    0.000    0.000 
#
# Total GULP energy -312978.054858 kJ/mol
# GULP energy per Si atom -5588.893837 kJ/mol
# Density = 2.481817 g / cm^3
# Si number density = 24.874782 Si / 1000 Ang^3
#
#
#
# Elastic Constant Matrix: (Units=GPa)
#
#
# Indices 1 2 3 4 5 6 
#
# 1 55.3509 6.4608 9.3924 0.0000 0.0000 0.0000
# 2 6.4608 81.2458 5.5720 0.0000 0.0000 0.0000
# 3 9.3924 5.5720 70.1662 0.0000 0.0000 0.0000
# 4 0.0000 0.0000 0.0000 -11.0953 0.0000 0.0000
# 5 0.0000 0.0000 0.0000 0.0000 6.4294 0.0000
# 6 0.0000 0.0000 0.0000 0.0000 0.0000 27.2181
#
#
#
# Elastic Compliance Matrix: (Units=1/GPa)
#
#
# Indices 1 2 3 4 5 6 
#
# 1 0.018626 -0.001317 -0.002389 0.000000 0.000000 0.000000
# 2 -0.001317 0.012469 -0.000814 0.000000 0.000000 0.000000
# 3 -0.002389 -0.000814 0.014636 0.000000 0.000000 0.000000
# 4 0.000000 0.000000 0.000000 -0.090129 0.000000 0.000000
# 5 0.000000 0.000000 0.000000 0.000000 0.155536 0.000000
# 6 0.000000 0.000000 0.000000 0.000000 0.000000 0.036740
#
#
# Mechanical properties :
#
#
# Convention : Reuss Voigt Hill
#
# Bulk Modulus (GPa) = 27.25445 27.73480 27.49463
# Shear Modulus (GPa) = 29.55984 16.86628 23.21306
#
# Velocity S-wave (km/s) = 3.45098 2.60676 3.05814
# Velocity P-wave (km/s) = 5.18261 4.49825 4.85251
#
# Compressibility (1/GPa) = 0.03669126
#
# Stress axis : x y z
#
# Youngs Moduli (GPa) = 53.68941 80.19955 68.32355
#
# Poissons Ratio (x) = 0.10565 0.16320
# Poissons Ratio (y) = 0.07073 0.05560
# Poissons Ratio (z) = 0.12824 0.06527
#
# Static dielectric constant tensor:
#      x y z
#    x 2.004820 0.000000 0.000000 
#    y 0.000000 2.048540 0.000000 
#    z 0.000000 0.000000 1.930530 
# 
# From -- ./inp_files/17620.got.cif
#   From: 2010.05.17/outbox.cif.g08.bks.cpg/sg55_9_cif.got.tgz:17620.got - 2010.06.03 13:27:54.
