data_PCOD9426837
_publ_section_title
;
Structure prediction by ZEFSAII (Michael W. Deem and Ramdas Pophale) SiO2 
 PCOD9426837
Probable space group: P B A M
;
_chemical_formula_sum "Si O2"
_cell_formula_units_Z 60
_cell_length_a 16.997296
_cell_length_b 11.626964
_cell_length_c 14.140403
_cell_angle_alpha 90.000000
_cell_angle_beta 90.000000
_cell_angle_gamma 90.000000
_cell_volume 2794.524698
_symmetry_space_group_name_H-M "P B A M"
_symmetry_group_IT_number 55
_symmetry_cell_setting 'orthorhombic'
loop_
_space_group_symop_operation_xyz
x,y,z
-x,-y,z
1/2+x,1/2-y,-z
1/2-x,1/2+y,-z
-x,-y,-z
x,y,-z
1/2-x,1/2+y,z
1/2+x,1/2-y,z
loop_
_atom_site_type_symbol
_atom_site_label
_atom_site_fract_x
_atom_site_fract_y
_atom_site_fract_z
Si Si1 0.185183 0.976842 0.402376
Si Si2 0.886661 0.371392 0.299489
Si Si3 0.361677 0.889123 0.392524
Si Si4 0.000000 0.000000 0.226955
Si Si5 0.604864 0.332943 0.110388
Si Si6 0.296991 0.681696 0.718690
Si Si7 0.526870 0.866580 0.893446
Si Si8 0.033278 0.826007 0.604976
O O1 0.180862 0.048521 0.500000
O O2 0.175767 0.056111 0.313295
O O3 0.269583 0.920644 0.400746
O O4 0.118854 0.883110 0.404840
O O5 0.892582 0.504760 0.330081
O O6 0.796355 0.323126 0.307277
O O7 0.912723 0.351141 0.192076
O O8 0.948026 0.304051 0.366606
O O9 0.393247 0.884998 0.500000
O O10 0.354084 0.768850 0.338394
O O11 0.995855 0.105289 0.303109
O O12 0.064882 0.052418 0.154751
O O13 0.682076 0.303337 0.172005
O O14 0.543806 0.225451 0.119534
O O15 0.621385 0.348678 0.000000
O O16 0.500000 0.000000 0.888801
O O17 0.558405 0.847427 0.000000
O O18 0.995657 0.840832 0.500000
#
# Coordination Sequence:
#
# PCOD9426837 Si02
#       8
#     8   8   8   4   8   8   8   8
#     4   9  18  32  53  82 118 158 195 231 286 362
#     4  11  22  38  64  92 127 161 207 261 307 366
#     4  10  20  34  56  88 122 161 200 238 297 369
#     4  12  22  42  64  86 122 164 210 260 312 370
#     4  11  24  41  63  89 119 159 209 263 318 370
#     4  11  21  36  60  90 124 158 199 256 311 358
#     4  10  22  43  67  85 113 166 217 257 313 381
#     4  11  21  37  61  91 125 162 203 248 300 367
#
# _framework density 21.470555999999998
#
# number of rings (size 3 to 8) (size 9 to 14) (size 15 to 20)
#    0.000    1.467    4.000    2.000    0.000    1.600 
#    0.000    0.000    0.000    2.400    0.000    0.000 
#    0.000    0.000    0.000    0.000    0.000    0.000 
#
# Total GULP energy -334455.877443 kJ/mol
# GULP energy per Si atom -5574.264624 kJ/mol
# Density = 2.142169 g / cm^3
# Si number density = 21.470556 Si / 1000 Ang^3
#
#
#
# Elastic Constant Matrix: (Units=GPa)
#
#
# Indices 1 2 3 4 5 6 
#
# 1 22.5610 6.3725 5.4052 0.0000 0.0000 0.0000
# 2 6.3725 72.0243 23.1471 0.0000 0.0000 0.0000
# 3 5.4052 23.1471 138.8551 0.0000 0.0000 0.0000
# 4 0.0000 0.0000 0.0000 23.7790 0.0000 0.0000
# 5 0.0000 0.0000 0.0000 0.0000 28.3709 0.0000
# 6 0.0000 0.0000 0.0000 0.0000 0.0000 28.7539
#
#
#
# Elastic Compliance Matrix: (Units=1/GPa)
#
#
# Indices 1 2 3 4 5 6 
#
# 1 0.045638 -0.003663 -0.001166 0.000000 0.000000 0.000000
# 2 -0.003663 0.014964 -0.002352 0.000000 0.000000 0.000000
# 3 -0.001166 -0.002352 0.007639 0.000000 0.000000 0.000000
# 4 0.000000 0.000000 0.000000 0.042054 0.000000 0.000000
# 5 0.000000 0.000000 0.000000 0.000000 0.035247 0.000000
# 6 0.000000 0.000000 0.000000 0.000000 0.000000 0.034778
#
#
# Mechanical properties :
#
#
# Convention : Reuss Voigt Hill
#
# Bulk Modulus (GPa) = 18.55995 33.69889 26.12942
# Shear Modulus (GPa) = 23.51360 29.41512 26.46436
#
# Velocity S-wave (km/s) = 3.31290 3.70540 3.51463
# Velocity P-wave (km/s) = 4.82669 5.83404 5.35411
#
# Compressibility (1/GPa) = 0.05387945
#
# Stress axis : x y z
#
# Youngs Moduli (GPa) = 21.91145 66.82628 130.90373
#
# Poissons Ratio (x) = 0.24480 0.15262
# Poissons Ratio (y) = 0.08027 0.30788
# Poissons Ratio (z) = 0.02555 0.15717
#
# Static dielectric constant tensor:
#      x y z
#    x 1.829870 0.000000 0.000000 
#    y 0.000000 1.784210 0.000000 
#    z 0.000000 0.000000 1.824590 
# 
# From -- ./inp_files/15370.got.cif
#   From: 2010.05.17/outbox.cif.g08.bks.cpg/sg55_8_cif.got.tgz:15370.got - 2010.06.03 13:27:54.
