data_PCOD9426978
_publ_section_title
;
Structure prediction by ZEFSAII (Michael W. Deem and Ramdas Pophale) SiO2 
 PCOD9426978
Probable space group: P B A M
;
_chemical_formula_sum "Si O2"
_cell_formula_units_Z 64
_cell_length_a 9.583851
_cell_length_b 28.706609
_cell_length_c 11.413709
_cell_angle_alpha 90.000000
_cell_angle_beta 90.000000
_cell_angle_gamma 90.000000
_cell_volume 3140.138061
_symmetry_space_group_name_H-M "P B A M"
_symmetry_group_IT_number 55
_symmetry_cell_setting 'orthorhombic'
loop_
_space_group_symop_operation_xyz
x,y,z
-x,-y,z
1/2+x,1/2-y,-z
1/2-x,1/2+y,-z
-x,-y,-z
x,y,-z
1/2-x,1/2+y,z
1/2+x,1/2-y,z
loop_
_atom_site_type_symbol
_atom_site_label
_atom_site_fract_x
_atom_site_fract_y
_atom_site_fract_z
Si Si1 0.966092 0.253422 0.249095
Si Si2 0.077199 0.564670 0.232893
Si Si3 0.329329 0.334906 0.864542
Si Si4 0.784435 0.799130 0.633270
Si Si5 0.994330 0.069154 0.863005
Si Si6 0.522980 0.154520 0.866083
Si Si7 0.304200 0.975421 0.866261
Si Si8 0.322112 0.589077 0.634114
O O1 0.883198 0.208527 0.206829
O O2 0.873238 0.282204 0.342066
O O3 0.113102 0.232679 0.289766
O O4 0.984518 0.291853 0.148722
O O5 0.157203 0.529546 0.145906
O O6 0.168880 0.565582 0.350153
O O7 0.078457 0.618064 0.193465
O O8 0.916153 0.548292 0.221961
O O9 0.433086 0.378309 0.863921
O O10 0.179251 0.350685 0.817463
O O11 0.309442 0.320657 0.000000
O O12 0.820818 0.788888 0.500000
O O13 0.809891 0.854546 0.649126
O O14 0.857572 0.036357 0.845250
O O15 0.089339 0.069342 0.745380
O O16 0.045265 0.060480 0.000000
O O17 0.525379 0.141006 0.000000
O O18 0.333298 0.959627 0.000000
O O19 0.373181 0.580760 0.500000
#
# Coordination Sequence:
#
# PCOD9426978 Si02
#       8
#     8   8   8   8   8   8   8   8
#     4  12  21  39  58  87 117 158 210 246 317 359
#     4  11  21  39  63  93 124 168 206 254 319 377
#     4  10  20  35  56  87 127 157 197 254 311 371
#     4  11  24  40  59  83 118 160 211 260 303 362
#     4  10  21  40  66  95 126 165 207 261 319 376
#     4  11  21  34  58  90 127 160 196 251 317 378
#     4  10  21  39  68 100 131 159 209 270 320 378
#     4  11  25  45  63  91 133 172 209 261 316 379
#
# _framework density 20.381270000000001
#
# number of rings (size 3 to 8) (size 9 to 14) (size 15 to 20)
#    0.000    1.250    5.000    2.250    0.000    2.000 
#    0.000    4.375    0.000    0.000    0.000    0.000 
#    0.000    0.000    0.000    0.000    0.000    0.000 
#
# Total GULP energy -356645.956627 kJ/mol
# GULP energy per Si atom -5572.593072 kJ/mol
# Density = 2.033488 g / cm^3
# Si number density = 20.381270 Si / 1000 Ang^3
#
#
#
# Elastic Constant Matrix: (Units=GPa)
#
#
# Indices 1 2 3 4 5 6 
#
# 1 72.2234 19.2424 35.5077 0.0000 0.0000 0.0000
# 2 19.2424 65.1315 26.6009 0.0000 0.0000 0.0000
# 3 35.5077 26.6009 69.1282 0.0000 0.0000 0.0000
# 4 0.0000 0.0000 0.0000 16.9895 0.0000 0.0000
# 5 0.0000 0.0000 0.0000 0.0000 23.0743 0.0000
# 6 0.0000 0.0000 0.0000 0.0000 0.0000 30.8934
#
#
#
# Elastic Compliance Matrix: (Units=1/GPa)
#
#
# Indices 1 2 3 4 5 6 
#
# 1 0.018720 -0.001903 -0.008884 0.000000 0.000000 0.000000
# 2 -0.001903 0.018410 -0.006107 0.000000 0.000000 0.000000
# 3 -0.008884 -0.006107 0.021379 0.000000 0.000000 0.000000
# 4 0.000000 0.000000 0.000000 0.058860 0.000000 0.000000
# 5 0.000000 0.000000 0.000000 0.000000 0.043338 0.000000
# 6 0.000000 0.000000 0.000000 0.000000 0.000000 0.032369
#
#
# Mechanical properties :
#
#
# Convention : Reuss Voigt Hill
#
# Bulk Modulus (GPa) = 40.44829 41.02057 40.73443
# Shear Modulus (GPa) = 21.26721 22.53357 21.90039
#
# Velocity S-wave (km/s) = 3.23378 3.32867 3.28157
# Velocity P-wave (km/s) = 5.81653 5.91132 5.86411
#
# Compressibility (1/GPa) = 0.02472293
#
# Stress axis : x y z
#
# Youngs Moduli (GPa) = 53.41799 54.31874 46.77506
#
# Poissons Ratio (x) = 0.10334 0.41553
# Poissons Ratio (y) = 0.10163 0.28565
# Poissons Ratio (z) = 0.47454 0.33172
#
# Static dielectric constant tensor:
#      x y z
#    x 1.801640 0.000000 0.000000 
#    y 0.000000 1.750980 0.000000 
#    z 0.000000 0.000000 1.696250 
# 
# From -- ./inp_files/12599.got.cif
#   From: 2010.05.17/outbox.cif.g08.bks.cpg/sg55_7_cif.got.tgz:12599.got - 2010.06.03 13:27:54.
