data_PCOD9426437
_publ_section_title
;
Structure prediction by ZEFSAII (Michael W. Deem and Ramdas Pophale) SiO2 
 PCOD9426437
Probable space group: P B A M
;
_chemical_formula_sum "Si O2"
_cell_formula_units_Z 48
_cell_length_a 27.253076
_cell_length_b 10.147311
_cell_length_c 7.661339
_cell_angle_alpha 90.000000
_cell_angle_beta 90.000000
_cell_angle_gamma 90.000000
_cell_volume 2118.708348
_symmetry_space_group_name_H-M "P B A M"
_symmetry_group_IT_number 55
_symmetry_cell_setting 'orthorhombic'
loop_
_space_group_symop_operation_xyz
x,y,z
-x,-y,z
1/2+x,1/2-y,-z
1/2-x,1/2+y,-z
-x,-y,-z
x,y,-z
1/2-x,1/2+y,z
1/2+x,1/2-y,z
loop_
_atom_site_type_symbol
_atom_site_label
_atom_site_fract_x
_atom_site_fract_y
_atom_site_fract_z
Si Si1 0.697743 0.926936 0.785090
Si Si2 0.270526 0.354193 0.800936
Si Si3 0.568733 0.277436 0.211154
Si Si4 0.539627 0.709339 0.788530
Si Si5 0.130572 0.977547 0.698123
Si Si6 0.413909 0.020818 0.787375
O O1 0.720081 0.789027 0.722073
O O2 0.641181 0.940798 0.735335
O O3 0.730052 0.049400 0.722916
O O4 0.698476 0.924376 0.000000
O O5 0.322737 0.429015 0.805536
O O6 0.254093 0.330280 0.000000
O O7 0.515108 0.328672 0.268182
O O8 0.611656 0.375274 0.266930
O O9 0.574505 0.126891 0.271422
O O10 0.568922 0.277027 0.000000
O O11 0.583608 0.616127 0.729013
O O12 0.550708 0.860018 0.733828
O O13 0.540439 0.704831 0.000000
O O14 0.146645 0.965043 0.500000
O O15 0.415949 0.017866 0.000000
#
# Coordination Sequence:
#
# PCOD9426437 Si02
#       6
#     8   8   8   8   8   8
#     4   9  18  32  59  91 114 139 179 233 288 335
#     4  10  20  37  61  88 113 143 187 239 288 339
#     4  10  21  35  60  90 115 147 190 241 290 338
#     4  10  19  37  62  87 113 146 191 243 293 338
#     4  12  25  39  55  80 118 162 196 231 280 339
#     4   9  17  33  59  91 118 142 181 237 293 344
#
# _framework density 22.655314000000001
#
# number of rings (size 3 to 8) (size 9 to 14) (size 15 to 20)
#    0.000    2.000    1.667    2.500    2.333    4.667 
#    0.000    1.667    0.000    2.000    0.000    0.000 
#    0.000    0.000    0.000    0.000    0.000    0.000 
#
# Total GULP energy -268308.173426 kJ/mol
# GULP energy per Si atom -5589.753613 kJ/mol
# Density = 2.260375 g / cm^3
# Si number density = 22.655314 Si / 1000 Ang^3
#
#
#
# Elastic Constant Matrix: (Units=GPa)
#
#
# Indices 1 2 3 4 5 6 
#
# 1 35.8807 -3.7633 -5.9315 0.0000 0.0000 0.0000
# 2 -3.7633 69.8685 0.1996 0.0000 0.0000 0.0000
# 3 -5.9315 0.1996 50.3846 0.0000 0.0000 0.0000
# 4 0.0000 0.0000 0.0000 241.5939 0.0000 0.0000
# 5 0.0000 0.0000 0.0000 0.0000 -77.2154 0.0000
# 6 0.0000 0.0000 0.0000 0.0000 0.0000 45.1784
#
#
#
# Elastic Compliance Matrix: (Units=1/GPa)
#
#
# Indices 1 2 3 4 5 6 
#
# 1 0.028586 0.001530 0.003359 0.000000 0.000000 0.000000
# 2 0.001530 0.014395 0.000123 0.000000 0.000000 0.000000
# 3 0.003359 0.000123 0.020242 0.000000 0.000000 0.000000
# 4 0.000000 0.000000 0.000000 0.004139 0.000000 0.000000
# 5 0.000000 0.000000 0.000000 0.000000 -0.012951 0.000000
# 6 0.000000 0.000000 0.000000 0.000000 0.000000 0.022134
#
#
# Mechanical properties :
#
#
# Convention : Reuss Voigt Hill
#
# Bulk Modulus (GPa) = 13.65230 15.23816 14.44523
# Shear Modulus (GPa) = 54.98321 52.95331 53.96826
#
# Velocity S-wave (km/s) = 4.93175 4.83986 4.88602
# Velocity P-wave (km/s) = 6.20231 6.16222 6.18230
#
# Compressibility (1/GPa) = 0.07324772
#
# Stress axis : x y z
#
# Youngs Moduli (GPa) = 34.98224 69.47014 49.40153
#
# Poissons Ratio (x) = -0.10630 -0.16595
# Poissons Ratio (y) = -0.05353 -0.00608
# Poissons Ratio (z) = -0.11751 -0.00855
#
# Static dielectric constant tensor:
#      x y z
#    x 1.787150 0.000000 0.000000 
#    y 0.000000 1.827040 0.000000 
#    z 0.000000 0.000000 1.888400 
# 
# From -- ./inp_files/10486.got.cif
#   From: 2010.05.17/outbox.cif.g08.bks.cpg/sg55_6_cif.got.tgz:10486.got - 2010.06.03 13:27:54.
