data_PCOD9426878
_publ_section_title
;
Structure prediction by ZEFSAII (Michael W. Deem and Ramdas Pophale) SiO2 
 PCOD9426878
Probable space group: P B A M
;
_chemical_formula_sum "Si O2"
_cell_formula_units_Z 64
_cell_length_a 19.456015
_cell_length_b 23.594941
_cell_length_c 8.677817
_cell_angle_alpha 90.000000
_cell_angle_beta 90.000000
_cell_angle_gamma 90.000000
_cell_volume 3983.669270
_symmetry_space_group_name_H-M "P B A M"
_symmetry_group_IT_number 55
_symmetry_cell_setting 'orthorhombic'
loop_
_space_group_symop_operation_xyz
x,y,z
-x,-y,z
1/2+x,1/2-y,-z
1/2-x,1/2+y,-z
-x,-y,-z
x,y,-z
1/2-x,1/2+y,z
1/2+x,1/2-y,z
loop_
_atom_site_type_symbol
_atom_site_label
_atom_site_fract_x
_atom_site_fract_y
_atom_site_fract_z
Si Si1 0.371323 0.438026 0.184225
Si Si2 0.004789 0.123132 0.315975
Si Si3 0.782200 0.170916 0.184369
Si Si4 0.344282 0.768220 0.684333
Si Si5 0.864504 0.277755 0.684199
Si Si6 0.262201 0.660478 0.183906
Si Si7 0.650138 0.437871 0.316035
Si Si8 0.007975 0.249982 0.816227
O O1 0.441798 0.414849 0.257662
O O2 0.313346 0.390639 0.216250
O O3 0.352276 0.498702 0.252496
O O4 0.379875 0.441899 0.000000
O O5 0.999425 0.131673 0.500000
O O6 0.003341 0.184114 0.234811
O O7 0.076655 0.091894 0.283093
O O8 0.707803 0.183820 0.255209
O O9 0.832839 0.218126 0.256146
O O10 0.780031 0.179528 0.000000
O O11 0.345047 0.766625 0.500000
O O12 0.311892 0.709184 0.746052
O O13 0.420622 0.773396 0.749911
O O14 0.862780 0.278543 0.500000
O O15 0.813159 0.324919 0.751667
O O16 0.941661 0.280927 0.746145
O O17 0.291738 0.600598 0.238049
O O18 0.262821 0.665204 0.000000
O O19 0.659393 0.437962 0.500000
O O20 0.007054 0.253359 0.000000
#
# Coordination Sequence:
#
# PCOD9426878 Si02
#       8
#     8   8   8   8   8   8   8   8
#     4  11  23  36  53  75 105 142 184 222 262 311
#     4  11  22  35  51  73 105 142 182 221 259 306
#     4  10  20  35  52  75 104 137 176 218 263 311
#     4  11  21  34  53  77 104 136 174 216 266 316
#     4  11  21  34  54  77 105 137 173 216 265 316
#     4  11  21  35  54  76 104 137 176 219 265 312
#     4  11  23  37  53  74 105 142 185 224 262 309
#     4  12  22  34  53  78 107 141 176 215 263 316
#
# _framework density 16.065591000000001
#
# number of rings (size 3 to 8) (size 9 to 14) (size 15 to 20)
#    0.000    1.000    2.500    7.875    0.000    4.500 
#    0.000    0.000    0.000    0.000    0.000    0.875 
#    0.000    7.000    0.000    0.000    0.000    0.000 
#
# Total GULP energy -357797.380611 kJ/mol
# GULP energy per Si atom -5590.584072 kJ/mol
# Density = 1.602902 g / cm^3
# Si number density = 16.065591 Si / 1000 Ang^3
#
#
#
# Elastic Constant Matrix: (Units=GPa)
#
#
# Indices 1 2 3 4 5 6 
#
# 1 120.8749 35.5239 56.6293 0.0000 0.0000 0.0000
# 2 35.5239 57.2445 42.1353 0.0000 0.0000 0.0000
# 3 56.6293 42.1353 126.2715 0.0000 0.0000 0.0000
# 4 0.0000 0.0000 0.0000 31.4019 0.0000 0.0000
# 5 0.0000 0.0000 0.0000 0.0000 29.9981 0.0000
# 6 0.0000 0.0000 0.0000 0.0000 0.0000 17.5995
#
#
#
# Elastic Compliance Matrix: (Units=1/GPa)
#
#
# Indices 1 2 3 4 5 6 
#
# 1 0.011226 -0.004323 -0.003592 0.000000 0.000000 0.000000
# 2 -0.004323 0.024821 -0.006344 0.000000 0.000000 0.000000
# 3 -0.003592 -0.006344 0.011647 0.000000 0.000000 0.000000
# 4 0.000000 0.000000 0.000000 0.031845 0.000000 0.000000
# 5 0.000000 0.000000 0.000000 0.000000 0.033335 0.000000
# 6 0.000000 0.000000 0.000000 0.000000 0.000000 0.056820
#
#
# Mechanical properties :
#
#
# Convention : Reuss Voigt Hill
#
# Bulk Modulus (GPa) = 52.14556 63.66310 57.90433
# Shear Modulus (GPa) = 24.43736 27.14005 25.78871
#
# Velocity S-wave (km/s) = 3.90436 4.11460 4.01086
# Velocity P-wave (km/s) = 7.27006 7.89217 7.58749
#
# Compressibility (1/GPa) = 0.01917709
#
# Stress axis : x y z
#
# Youngs Moduli (GPa) = 89.07608 40.28876 85.85612
#
# Poissons Ratio (x) = 0.17415 0.30842
# Poissons Ratio (y) = 0.38503 0.54466
# Poissons Ratio (z) = 0.31999 0.25559
#
# Static dielectric constant tensor:
#      x y z
#    x 1.539430 0.000000 0.000000 
#    y 0.000000 1.512650 0.000000 
#    z 0.000000 0.000000 1.534670 
# 
# From -- ./inp_files/9164.got.cif
#   From: 2010.05.17/outbox.cif.g08.bks.cpg/sg55_5_cif.got.tgz:9164.got - 2010.06.03 13:27:54.
