data_PCOD9426401
_publ_section_title
;
Structure prediction by ZEFSAII (Michael W. Deem and Ramdas Pophale) SiO2 
 PCOD9426401
Probable space group: P B A M
;
_chemical_formula_sum "Si O2"
_cell_formula_units_Z 48
_cell_length_a 28.894316
_cell_length_b 9.759956
_cell_length_c 7.816460
_cell_angle_alpha 90.000000
_cell_angle_beta 90.000000
_cell_angle_gamma 90.000000
_cell_volume 2204.298411
_symmetry_space_group_name_H-M "P B A M"
_symmetry_group_IT_number 55
_symmetry_cell_setting 'orthorhombic'
loop_
_space_group_symop_operation_xyz
x,y,z
-x,-y,z
1/2+x,1/2-y,-z
1/2-x,1/2+y,-z
-x,-y,-z
x,y,-z
1/2-x,1/2+y,z
1/2+x,1/2-y,z
loop_
_atom_site_type_symbol
_atom_site_label
_atom_site_fract_x
_atom_site_fract_y
_atom_site_fract_z
Si Si1 0.384643 0.320907 0.299328
Si Si2 0.779184 0.686823 0.790191
Si Si3 0.009933 0.851927 0.796305
Si Si4 0.457213 0.904582 0.208984
Si Si5 0.696824 0.494871 0.204509
Si Si6 0.359729 0.021661 0.206542
O O1 0.389893 0.331048 0.500000
O O2 0.436450 0.311636 0.224906
O O3 0.354889 0.451248 0.238471
O O4 0.357568 0.180529 0.256268
O O5 0.731788 0.613735 0.732695
O O6 0.819134 0.579813 0.738062
O O7 0.789825 0.842333 0.731651
O O8 0.778512 0.691979 0.000000
O O9 0.972952 0.743510 0.728883
O O10 0.001922 0.856905 0.000000
O O11 0.000000 0.000000 0.721496
O O12 0.408576 0.961785 0.269878
O O13 0.500000 0.000000 0.256695
O O14 0.454890 0.904297 0.000000
O O15 0.702492 0.488624 0.000000
O O16 0.359490 0.019348 0.000000
#
# Coordination Sequence:
#
# PCOD9426401 Si02
#       6
#     8   8   8   8   8   8
#     4  12  25  39  55  82 120 163 199 234 286 344
#     4   9  19  35  64  96 116 142 187 247 301 343
#     4  10  21  37  61  88 114 149 194 243 293 342
#     4   9  16  30  55  87 115 143 184 234 283 331
#     4  10  20  38  62  89 117 147 191 243 297 350
#     4  10  19  36  62  89 118 149 191 243 288 339
#
# _framework density 21.775638000000001
#
# number of rings (size 3 to 8) (size 9 to 14) (size 15 to 20)
#    0.000    2.000    1.667    2.500    2.333    3.000 
#    0.000    5.833    0.000    0.000    0.000    0.000 
#    0.000    0.000    0.000    0.000    0.000    0.000 
#
# Total GULP energy -268031.754677 kJ/mol
# GULP energy per Si atom -5583.994889 kJ/mol
# Density = 2.172608 g / cm^3
# Si number density = 21.775638 Si / 1000 Ang^3
#
#
#
# Elastic Constant Matrix: (Units=GPa)
#
#
# Indices 1 2 3 4 5 6 
#
# 1 50.7232 -3.5585 -16.9994 0.0000 0.0000 0.0000
# 2 -3.5585 117.2016 -3.6301 0.0000 0.0000 0.0000
# 3 -16.9994 -3.6301 19.6049 0.0000 0.0000 0.0000
# 4 0.0000 0.0000 0.0000 11.9442 0.0000 0.0000
# 5 0.0000 0.0000 0.0000 0.0000 -28.0226 0.0000
# 6 0.0000 0.0000 0.0000 0.0000 0.0000 28.4625
#
#
#
# Elastic Compliance Matrix: (Units=1/GPa)
#
#
# Indices 1 2 3 4 5 6 
#
# 1 0.028092 0.001617 0.024658 0.000000 0.000000 0.000000
# 2 0.001617 0.008675 0.003008 0.000000 0.000000 0.000000
# 3 0.024658 0.003008 0.072946 0.000000 0.000000 0.000000
# 4 0.000000 0.000000 0.000000 0.083722 0.000000 0.000000
# 5 0.000000 0.000000 0.000000 0.000000 -0.035686 0.000000
# 6 0.000000 0.000000 0.000000 0.000000 0.000000 0.035134
#
#
# Mechanical properties :
#
#
# Convention : Reuss Voigt Hill
#
# Bulk Modulus (GPa) = 5.94254 15.46152 10.70203
# Shear Modulus (GPa) = 26.25908 16.59136 21.42522
#
# Velocity S-wave (km/s) = 3.47636 2.76329 3.14013
# Velocity P-wave (km/s) = 4.34147 4.15894 4.25119
#
# Compressibility (1/GPa) = 0.16827825
#
# Stress axis : x y z
#
# Youngs Moduli (GPa) = 35.59707 115.27962 13.70882
#
# Poissons Ratio (x) = -0.18637 -0.33803
# Poissons Ratio (y) = -0.05755 -0.04124
# Poissons Ratio (z) = -0.87776 -0.34677
#
# Static dielectric constant tensor:
#      x y z
#    x 1.805640 0.000000 0.000000 
#    y 0.000000 1.846120 0.000000 
#    z 0.000000 0.000000 1.793940 
# 
# From -- ./inp_files/2798.got.cif
#   From: 2010.05.17/outbox.cif.g08.bks.cpg/sg55_2_cif.got.tgz:2798.got - 2010.06.03 13:27:54.
