data_PCOD9426863
_publ_section_title
;
Structure prediction by ZEFSAII (Michael W. Deem and Ramdas Pophale) SiO2 
 PCOD9426863
Probable space group: P B A M
;
_chemical_formula_sum "Si O2"
_cell_formula_units_Z 64
_cell_length_a 17.212178
_cell_length_b 9.422013
_cell_length_c 19.510023
_cell_angle_alpha 90.000000
_cell_angle_beta 90.000000
_cell_angle_gamma 90.000000
_cell_volume 3164.006079
_symmetry_space_group_name_H-M "P B A M"
_symmetry_group_IT_number 55
_symmetry_cell_setting 'orthorhombic'
loop_
_space_group_symop_operation_xyz
x,y,z
-x,-y,z
1/2+x,1/2-y,-z
1/2-x,1/2+y,-z
-x,-y,-z
x,y,-z
1/2-x,1/2+y,z
1/2+x,1/2-y,z
loop_
_atom_site_type_symbol
_atom_site_label
_atom_site_fract_x
_atom_site_fract_y
_atom_site_fract_z
Si Si1 0.902731 0.296086 0.847447
Si Si2 0.821383 0.130115 0.727669
Si Si3 0.155356 0.964421 0.920106
Si Si4 0.070898 0.215688 0.855825
Si Si5 0.568511 0.384156 0.707795
Si Si6 0.788975 0.113522 0.423427
Si Si7 0.304718 0.929005 0.836199
Si Si8 0.142094 0.202046 0.424803
O O1 0.881132 0.211854 0.776980
O O2 0.857641 0.201434 0.903544
O O3 0.869278 0.449675 0.831063
O O4 0.990361 0.288591 0.875621
O O5 0.821944 0.176883 0.648126
O O6 0.852573 0.970042 0.724257
O O7 0.738247 0.125017 0.766540
O O8 0.087325 0.058730 0.885161
O O9 0.235932 0.993980 0.881717
O O10 0.157539 0.993709 0.000000
O O11 0.059384 0.211126 0.773918
O O12 0.149183 0.300862 0.871247
O O13 0.500000 0.500000 0.701930
O O14 0.581663 0.305044 0.636750
O O15 0.817112 0.160282 0.500000
O O16 0.699847 0.164543 0.420362
O O17 0.806622 0.944543 0.420927
O O18 0.104896 0.201022 0.500000
#
# Coordination Sequence:
#
# PCOD9426863 Si02
#       8
#     8   8   8   8   8   8   8   8
#     4  11  23  39  60  89 120 154 193 239 292 348
#     4  10  20  34  59  83 113 153 202 241 290 345
#     4  11  24  43  67  89 115 155 199 232 276 349
#     4  12  22  41  60  89 120 156 192 238 295 348
#     4  11  19  35  56  82 114 153 198 245 287 348
#     4   9  18  32  50  79 113 149 196 248 297 345
#     4  11  24  37  62  91 120 151 191 247 295 338
#     4   9  19  32  52  80 112 150 194 246 299 350
#
# _framework density 20.227519999999998
#
# number of rings (size 3 to 8) (size 9 to 14) (size 15 to 20)
#    0.000    1.500    3.750    3.000    3.500    3.250 
#    0.000    0.000    0.000    2.250    0.000    0.000 
#    0.000   15.000    0.000    0.000    0.000    0.000 
#
# Total GULP energy -356414.589590 kJ/mol
# GULP energy per Si atom -5568.977962 kJ/mol
# Density = 2.018148 g / cm^3
# Si number density = 20.227520 Si / 1000 Ang^3
#
#
#
# Elastic Constant Matrix: (Units=GPa)
#
#
# Indices 1 2 3 4 5 6 
#
# 1 64.2491 0.8121 8.4998 0.0000 0.0000 0.0000
# 2 0.8121 32.1452 2.1696 0.0000 0.0000 0.0000
# 3 8.4998 2.1696 112.6838 0.0000 0.0000 0.0000
# 4 0.0000 0.0000 0.0000 9.4737 0.0000 0.0000
# 5 0.0000 0.0000 0.0000 0.0000 1.7820 0.0000
# 6 0.0000 0.0000 0.0000 0.0000 0.0000 28.0497
#
#
#
# Elastic Compliance Matrix: (Units=1/GPa)
#
#
# Indices 1 2 3 4 5 6 
#
# 1 0.015725 -0.000318 -0.001180 0.000000 0.000000 0.000000
# 2 -0.000318 0.031156 -0.000576 0.000000 0.000000 0.000000
# 3 -0.001180 -0.000576 0.008974 0.000000 0.000000 0.000000
# 4 0.000000 0.000000 0.000000 0.105555 0.000000 0.000000
# 5 0.000000 0.000000 0.000000 0.000000 0.561177 0.000000
# 6 0.000000 0.000000 0.000000 0.000000 0.000000 0.035651
#
#
# Mechanical properties :
#
#
# Convention : Reuss Voigt Hill
#
# Bulk Modulus (GPa) = 19.33947 25.78235 22.56091
# Shear Modulus (GPa) = 6.41338 21.03417 13.72378
#
# Velocity S-wave (km/s) = 1.78256 3.22821 2.60757
# Velocity P-wave (km/s) = 3.71731 5.16420 4.49930
#
# Compressibility (1/GPa) = 0.05170774
#
# Stress axis : x y z
#
# Youngs Moduli (GPa) = 63.59485 32.09679 111.42701
#
# Poissons Ratio (x) = 0.01019 0.13148
# Poissons Ratio (y) = 0.02020 0.06417
# Poissons Ratio (z) = 0.07504 0.01849
#
# Static dielectric constant tensor:
#      x y z
#    x 1.747430 0.000000 0.000000 
#    y 0.000000 1.738770 0.000000 
#    z 0.000000 0.000000 1.765350 
# 
# From -- ./inp_files/23086.got.cif
#   From: 2010.05.17/outbox.cif.g08.bks.cpg/sg55_12_cif.got.tgz:23086.got - 2010.06.03 13:27:54.
