data_PCOD9426446
_publ_section_title
;
Structure prediction by ZEFSAII (Michael W. Deem and Ramdas Pophale) SiO2 
 PCOD9426446
Probable space group: P B A M
;
_chemical_formula_sum "Si O2"
_cell_formula_units_Z 64
_cell_length_a 31.492041
_cell_length_b 12.461606
_cell_length_c 7.959476
_cell_angle_alpha 90.000000
_cell_angle_beta 90.000000
_cell_angle_gamma 90.000000
_cell_volume 3123.627961
_symmetry_space_group_name_H-M "P B A M"
_symmetry_group_IT_number 55
_symmetry_cell_setting 'orthorhombic'
loop_
_space_group_symop_operation_xyz
x,y,z
-x,-y,z
1/2+x,1/2-y,-z
1/2-x,1/2+y,-z
-x,-y,-z
x,y,-z
1/2-x,1/2+y,z
1/2+x,1/2-y,z
loop_
_atom_site_type_symbol
_atom_site_label
_atom_site_fract_x
_atom_site_fract_y
_atom_site_fract_z
Si Si1 0.953941 0.541095 0.706205
Si Si2 0.623573 0.652816 0.199869
Si Si3 0.323517 0.729718 0.301718
Si Si4 0.048877 0.003580 0.703089
Si Si5 0.205897 0.453924 0.301133
Si Si6 0.699976 0.503851 0.195103
Si Si7 0.627517 0.901931 0.297270
Si Si8 0.077268 0.234419 0.698979
O O1 0.952900 0.542257 0.500000
O O2 0.914683 0.465816 0.759694
O O3 0.947117 0.662708 0.767236
O O4 0.000000 0.500000 0.757516
O O5 0.579781 0.593806 0.249007
O O6 0.663669 0.583069 0.267473
O O7 0.626025 0.776867 0.251029
O O8 0.626082 0.647647 0.000000
O O9 0.313510 0.712742 0.500000
O O10 0.299000 0.833050 0.233020
O O11 0.315548 0.617948 0.212109
O O12 0.373021 0.757764 0.288659
O O13 0.048747 0.004377 0.500000
O O14 0.067634 0.116629 0.767656
O O15 0.000000 0.000000 0.759315
O O16 0.197124 0.443975 0.500000
O O17 0.253982 0.489729 0.278035
O O18 0.170055 0.536298 0.235660
O O19 0.705914 0.531057 0.000000
O O20 0.627777 0.906401 0.500000
O O21 0.066864 0.228582 0.500000
#
# Coordination Sequence:
#
# PCOD9426446 Si02
#       8
#     8   8   8   8   8   8   8   8
#     4   9  17  30  55  90 121 146 178 230 289 338
#     4  11  25  42  57  80 120 163 196 235 291 348
#     4  10  19  37  63  87 114 147 191 245 295 345
#     4  10  21  36  61  93 118 148 196 245 288 341
#     4  10  22  39  61  89 116 148 192 243 299 349
#     4  11  25  41  58  83 116 154 198 240 288 350
#     4  10  21  38  60  87 117 150 193 240 288 346
#     4   9  16  31  55  85 118 145 180 235 289 334
#
# _framework density 20.488996
#
# number of rings (size 3 to 8) (size 9 to 14) (size 15 to 20)
#    0.000    2.000    2.500    0.750    3.500    2.750 
#    0.000    0.000    0.000    1.125    0.000    0.000 
#    0.000    0.000    0.000    0.000    0.000    0.000 
#
# Total GULP energy -357213.627695 kJ/mol
# GULP energy per Si atom -5581.462933 kJ/mol
# Density = 2.044236 g / cm^3
# Si number density = 20.488996 Si / 1000 Ang^3
#
#
#
# Elastic Constant Matrix: (Units=GPa)
#
#
# Indices 1 2 3 4 5 6 
#
# 1 90.7341 22.1241 13.1899 0.0000 0.0000 0.0000
# 2 22.1241 77.8368 2.4273 0.0000 0.0000 0.0000
# 3 13.1899 2.4273 15.1199 0.0000 0.0000 0.0000
# 4 0.0000 0.0000 0.0000 -51.4907 0.0000 0.0000
# 5 0.0000 0.0000 0.0000 0.0000 -3.6333 0.0000
# 6 0.0000 0.0000 0.0000 0.0000 0.0000 34.5994
#
#
#
# Elastic Compliance Matrix: (Units=1/GPa)
#
#
# Indices 1 2 3 4 5 6 
#
# 1 0.013503 -0.003488 -0.011219 0.000000 0.000000 0.000000
# 2 -0.003488 0.013813 0.000825 0.000000 0.000000 0.000000
# 3 -0.011219 0.000825 0.075792 0.000000 0.000000 0.000000
# 4 0.000000 0.000000 0.000000 -0.019421 0.000000 0.000000
# 5 0.000000 0.000000 0.000000 0.000000 -0.275233 0.000000
# 6 0.000000 0.000000 0.000000 0.000000 0.000000 0.028902
#
#
# Mechanical properties :
#
#
# Convention : Reuss Voigt Hill
#
# Bulk Modulus (GPa) = 13.27237 28.79703 21.03470
# Shear Modulus (GPa) = -45.55186 5.62505 -19.96340
#
# Velocity S-wave (km/s) = -4.72024 1.65872 -3.12484
# Velocity P-wave (km/s) = 4.81826 4.21353 1.65254
#
# Compressibility (1/GPa) = 0.07534447
#
# Stress axis : x y z
#
# Youngs Moduli (GPa) = 74.05965 72.39503 13.19393
#
# Poissons Ratio (x) = 0.25252 0.14802
# Poissons Ratio (y) = 0.25833 -0.01089
# Poissons Ratio (z) = 0.83088 -0.05975
#
# Static dielectric constant tensor:
#      x y z
#    x 1.737410 0.000000 0.000000 
#    y 0.000000 1.737140 0.000000 
#    z 0.000000 0.000000 1.756030 
# 
# From -- ./inp_files/10816.got.cif
#   From: 2010.05.17/outbox.cif.g08.bks.cpg/sg55_6_cif.got.tgz:10816.got - 2010.06.03 13:27:54.
