data_PCOD9426213
_publ_section_title
;
Structure prediction by ZEFSAII (Michael W. Deem and Ramdas Pophale) SiO2 
 PCOD9426213
Probable space group: P B A M
;
_chemical_formula_sum "Si O2"
_cell_formula_units_Z 36
_cell_length_a 18.224149
_cell_length_b 8.056635
_cell_length_c 12.671706
_cell_angle_alpha 90.000000
_cell_angle_beta 90.000000
_cell_angle_gamma 90.000000
_cell_volume 1860.527246
_symmetry_space_group_name_H-M "P B A M"
_symmetry_group_IT_number 55
_symmetry_cell_setting 'orthorhombic'
loop_
_space_group_symop_operation_xyz
x,y,z
-x,-y,z
1/2+x,1/2-y,-z
1/2-x,1/2+y,-z
-x,-y,-z
x,y,-z
1/2-x,1/2+y,z
1/2+x,1/2-y,z
loop_
_atom_site_type_symbol
_atom_site_label
_atom_site_fract_x
_atom_site_fract_y
_atom_site_fract_z
Si Si1 0.500000 0.000000 0.264564
Si Si2 0.514556 0.691410 0.878044
Si Si3 0.782378 0.802425 0.256818
Si Si4 0.347135 0.002101 0.625509
Si Si5 0.323362 0.402589 0.879390
O O1 0.483150 0.839291 0.192007
O O2 0.428716 0.041089 0.333989
O O3 0.500000 0.500000 0.845700
O O4 0.603075 0.706453 0.875453
O O5 0.489567 0.706031 0.000000
O O6 0.826784 0.681284 0.332590
O O7 0.829308 0.946630 0.202791
O O8 0.746412 0.699167 0.160995
O O9 0.714177 0.880367 0.321244
O O10 0.342778 0.012652 0.500000
O O11 0.314784 0.459779 0.000000
#
# Coordination Sequence:
#
# PCOD9426213 Si02
#       5
#     4   8   8   8   8
#     4  12  22  40  62  92 122 158 208 252 310 352
#     4  10  21  37  58  87 125 162 194 238 304 376
#     4  10  21  38  60  86 116 156 197 250 305 362
#     4  11  23  40  62  84 117 158 208 257 301 351
#     4  10  19  35  57  88 118 150 190 240 301 367
#
# _framework density 19.349354000000002
#
# number of rings (size 3 to 8) (size 9 to 14) (size 15 to 20)
#    0.000    1.556    2.222    3.333    0.000    0.000 
#    0.000    2.222    0.000    2.667    0.000    0.000 
#    0.000    0.000    0.000    0.000    0.000    0.000 
#
# Total GULP energy -201010.782705 kJ/mol
# GULP energy per Si atom -5583.632853 kJ/mol
# Density = 1.930531 g / cm^3
# Si number density = 19.349354 Si / 1000 Ang^3
#
#
#
# Elastic Constant Matrix: (Units=GPa)
#
#
# Indices 1 2 3 4 5 6 
#
# 1 54.3688 1.2310 31.1291 0.0000 0.0000 0.0000
# 2 1.2310 57.0979 30.3615 0.0000 0.0000 0.0000
# 3 31.1291 30.3615 118.0895 0.0000 0.0000 0.0000
# 4 0.0000 0.0000 0.0000 18.2162 0.0000 0.0000
# 5 0.0000 0.0000 0.0000 0.0000 22.6769 0.0000
# 6 0.0000 0.0000 0.0000 0.0000 0.0000 23.8640
#
#
#
# Elastic Compliance Matrix: (Units=1/GPa)
#
#
# Indices 1 2 3 4 5 6 
#
# 1 0.022108 0.003038 -0.006609 0.000000 0.000000 0.000000
# 2 0.003038 0.020705 -0.006124 0.000000 0.000000 0.000000
# 3 -0.006609 -0.006124 0.011785 0.000000 0.000000 0.000000
# 4 0.000000 0.000000 0.000000 0.054896 0.000000 0.000000
# 5 0.000000 0.000000 0.000000 0.000000 0.044098 0.000000
# 6 0.000000 0.000000 0.000000 0.000000 0.000000 0.041904
#
#
# Mechanical properties :
#
#
# Convention : Reuss Voigt Hill
#
# Bulk Modulus (GPa) = 28.40341 39.44438 33.92390
# Shear Modulus (GPa) = 22.06319 24.07372 23.06845
#
# Velocity S-wave (km/s) = 3.38043 3.53109 3.45658
# Velocity P-wave (km/s) = 5.47243 6.08724 5.78800
#
# Compressibility (1/GPa) = 0.03520703
#
# Stress axis : x y z
#
# Youngs Moduli (GPa) = 45.23244 48.29821 84.85518
#
# Poissons Ratio (x) = -0.14671 0.56079
# Poissons Ratio (y) = -0.13740 0.51965
# Poissons Ratio (z) = 0.29893 0.29578
#
# Static dielectric constant tensor:
#      x y z
#    x 1.688560 0.000000 0.000000 
#    y 0.000000 1.691760 0.000000 
#    z 0.000000 0.000000 1.634680 
# 
# From -- ./inp_files/11983.got.cif
#   From: 2010.05.17/outbox.cif.g08.bks.cpg/sg55_6_cif.got.tgz:11983.got - 2010.06.03 13:27:54.
