data_PCOD9426032
_publ_section_title
;
Structure prediction by ZEFSAII (Michael W. Deem and Ramdas Pophale) SiO2 
 PCOD9426032
Probable space group: P B A M
;
_chemical_formula_sum "Si O2"
_cell_formula_units_Z 64
_cell_length_a 16.645146
_cell_length_b 19.909066
_cell_length_c 7.683283
_cell_angle_alpha 90.000000
_cell_angle_beta 90.000000
_cell_angle_gamma 90.000000
_cell_volume 2546.157854
_symmetry_space_group_name_H-M "P B A M"
_symmetry_group_IT_number 55
_symmetry_cell_setting 'orthorhombic'
loop_
_space_group_symop_operation_xyz
x,y,z
-x,-y,z
1/2+x,1/2-y,-z
1/2-x,1/2+y,-z
-x,-y,-z
x,y,-z
1/2-x,1/2+y,z
1/2+x,1/2-y,z
loop_
_atom_site_type_symbol
_atom_site_label
_atom_site_fract_x
_atom_site_fract_y
_atom_site_fract_z
Si Si1 0.619063 0.020529 0.801059
Si Si2 0.937595 0.138539 0.790865
Si Si3 0.281894 0.100474 0.215842
Si Si4 0.264111 0.385359 0.707612
Si Si5 0.111917 0.113765 0.198324
Si Si6 0.984032 0.639834 0.697141
Si Si7 0.165585 0.260078 0.706178
Si Si8 0.626037 0.778520 0.196573
O O1 0.699602 0.066440 0.795106
O O2 0.549117 0.064951 0.719352
O O3 0.650991 0.951465 0.721296
O O4 0.596702 0.008273 0.000000
O O5 0.855871 0.098643 0.754104
O O6 0.915014 0.213015 0.720796
O O7 0.022755 0.111527 0.722016
O O8 0.948275 0.144039 0.000000
O O9 0.192314 0.080547 0.275089
O O10 0.303553 0.175849 0.276467
O O11 0.281680 0.100394 0.000000
O O12 0.252294 0.389802 0.500000
O O13 0.241237 0.307869 0.756493
O O14 0.138619 0.192439 0.197930
O O15 0.105088 0.088771 0.000000
O O16 0.010706 0.650024 0.500000
O O17 0.908056 0.687866 0.730771
O O18 0.055108 0.666322 0.813945
O O19 0.169822 0.245500 0.500000
O O20 0.649314 0.760819 0.000000
#
# Coordination Sequence:
#
# PCOD9426032 Si02
#       8
#     8   8   8   8   8   8   8   8
#     4  10  20  37  58  77 103 145 190 229 271 320
#     4  10  20  33  55  87 113 140 179 222 272 331
#     4   9  20  36  55  79 109 142 181 232 277 319
#     4  10  21  36  55  79 108 143 180 227 274 322
#     4  10  19  34  56  81 109 139 177 224 274 324
#     4  10  20  34  53  80 113 146 179 223 272 323
#     4   9  18  32  50  75 106 139 174 212 269 328
#     4  10  19  34  55  84 115 144 183 225 273 331
#
# _framework density 25.135914
#
# number of rings (size 3 to 8) (size 9 to 14) (size 15 to 20)
#    0.000    2.250    1.250    2.625    0.000    5.000 
#    0.000    6.250    0.000    3.750    0.000    0.000 
#    0.000    0.000    0.000    0.000    0.000    0.000 
#
# Total GULP energy -357557.432085 kJ/mol
# GULP energy per Si atom -5586.834876 kJ/mol
# Density = 2.507870 g / cm^3
# Si number density = 25.135914 Si / 1000 Ang^3
#
#
#
# Elastic Constant Matrix: (Units=GPa)
#
#
# Indices 1 2 3 4 5 6 
#
# 1 119.3848 -27.1869 17.5366 0.0000 0.0000 0.0000
# 2 -27.1869 38.7294 -4.2086 0.0000 0.0000 0.0000
# 3 17.5366 -4.2086 48.8540 0.0000 0.0000 0.0000
# 4 0.0000 0.0000 0.0000 -3.0613 0.0000 0.0000
# 5 0.0000 0.0000 0.0000 0.0000 -37.3415 0.0000
# 6 0.0000 0.0000 0.0000 0.0000 0.0000 33.8634
#
#
#
# Elastic Compliance Matrix: (Units=1/GPa)
#
#
# Indices 1 2 3 4 5 6 
#
# 1 0.010427 0.006978 -0.003142 0.000000 0.000000 0.000000
# 2 0.006978 0.030734 0.000143 0.000000 0.000000 0.000000
# 3 -0.003142 0.000143 0.021609 0.000000 0.000000 0.000000
# 4 0.000000 0.000000 0.000000 -0.326664 0.000000 0.000000
# 5 0.000000 0.000000 0.000000 0.000000 -0.026780 0.000000
# 6 0.000000 0.000000 0.000000 0.000000 0.000000 0.029530
#
#
# Mechanical properties :
#
#
# Convention : Reuss Voigt Hill
#
# Bulk Modulus (GPa) = 14.13866 19.91671 17.02768
# Shear Modulus (GPa) = -20.36450 13.41393 -3.47528
#
# Velocity S-wave (km/s) = -2.84945 2.31261 -1.17711
# Velocity P-wave (km/s) = 2.27787 3.88223 2.22295
#
# Compressibility (1/GPa) = 0.07072808
#
# Stress axis : x y z
#
# Youngs Moduli (GPa) = 95.90657 32.53730 46.27660
#
# Poissons Ratio (x) = -0.22704 0.14539
# Poissons Ratio (y) = -0.66923 -0.00661
# Poissons Ratio (z) = 0.30131 -0.00465
#
# Static dielectric constant tensor:
#      x y z
#    x 2.049260 0.000000 0.000000 
#    y 0.000000 2.027400 0.000000 
#    z 0.000000 0.000000 1.956350 
# 
# From -- ./inp_files/6691.got.cif
#   From: 2010.05.17/outbox.cif.g08.bks.cpg/sg55_4_cif.got.tgz:6691.got - 2010.06.03 13:27:54.
