data_PCOD9426112
_publ_section_title
;
Structure prediction by ZEFSAII (Michael W. Deem and Ramdas Pophale) SiO2 
 PCOD9426112
Probable space group: P B A M
;
_chemical_formula_sum "Si O2"
_cell_formula_units_Z 48
_cell_length_a 28.439595
_cell_length_b 10.107055
_cell_length_c 7.874436
_cell_angle_alpha 90.000000
_cell_angle_beta 90.000000
_cell_angle_gamma 90.000000
_cell_volume 2263.432221
_symmetry_space_group_name_H-M "P B A M"
_symmetry_group_IT_number 55
_symmetry_cell_setting 'orthorhombic'
loop_
_space_group_symop_operation_xyz
x,y,z
-x,-y,z
1/2+x,1/2-y,-z
1/2-x,1/2+y,-z
-x,-y,-z
x,y,-z
1/2-x,1/2+y,z
1/2+x,1/2-y,z
loop_
_atom_site_type_symbol
_atom_site_label
_atom_site_fract_x
_atom_site_fract_y
_atom_site_fract_z
Si Si1 0.609229 0.794539 0.793416
Si Si2 0.390642 0.712392 0.205540
Si Si3 0.211500 0.318979 0.694745
Si Si4 0.552685 0.540734 0.792132
Si Si5 0.709078 0.876446 0.803371
Si Si6 0.949848 0.546283 0.206610
O O1 0.573656 0.680795 0.733730
O O2 0.663120 0.799060 0.734004
O O3 0.588215 0.936582 0.748940
O O4 0.609344 0.781823 0.000000
O O5 0.341282 0.768237 0.269440
O O6 0.408208 0.567924 0.256411
O O7 0.431760 0.812014 0.261631
O O8 0.388004 0.714592 0.000000
O O9 0.222851 0.295122 0.500000
O O10 0.247220 0.223118 0.793327
O O11 0.216045 0.476621 0.727571
O O12 0.500000 0.500000 0.735889
O O13 0.550361 0.542971 0.000000
O O14 0.698890 0.905331 0.000000
O O15 0.000000 0.500000 0.271148
O O16 0.952668 0.550578 0.000000
#
# Coordination Sequence:
#
# PCOD9426112 Si02
#       6
#     8   8   8   8   8   8
#     4   9  17  30  50  82 117 149 190 242 295 349
#     4  10  19  34  57  86 119 157 200 245 299 364
#     4  12  26  43  62  90 125 160 201 255 318 375
#     4   9  17  29  50  87 126 154 191 249 307 353
#     4  11  23  42  66  91 119 158 209 258 305 368
#     4   9  15  26  49  82 116 148 189 247 303 346
#
# _framework density 21.206731000000001
#
# number of rings (size 3 to 8) (size 9 to 14) (size 15 to 20)
#    0.000    2.000    1.667    3.000    2.333    4.000 
#    0.000    0.000    0.000    1.000    0.000    0.000 
#    0.000    0.000    0.000    0.000    0.000    0.000 
#
# Total GULP energy -267863.561488 kJ/mol
# GULP energy per Si atom -5580.490864 kJ/mol
# Density = 2.115846 g / cm^3
# Si number density = 21.206731 Si / 1000 Ang^3
#
#
#
# Elastic Constant Matrix: (Units=GPa)
#
#
# Indices 1 2 3 4 5 6 
#
# 1 78.0790 -11.4750 -6.6688 0.0000 0.0000 0.0000
# 2 -11.4750 64.6608 2.1193 0.0000 0.0000 0.0000
# 3 -6.6688 2.1193 21.9805 0.0000 0.0000 0.0000
# 4 0.0000 0.0000 0.0000 -4.6046 0.0000 0.0000
# 5 0.0000 0.0000 0.0000 0.0000 -17.5163 0.0000
# 6 0.0000 0.0000 0.0000 0.0000 0.0000 33.2819
#
#
#
# Elastic Compliance Matrix: (Units=1/GPa)
#
#
# Indices 1 2 3 4 5 6 
#
# 1 0.013471 0.002264 0.003869 0.000000 0.000000 0.000000
# 2 0.002264 0.015895 -0.000846 0.000000 0.000000 0.000000
# 3 0.003869 -0.000846 0.046750 0.000000 0.000000 0.000000
# 4 0.000000 0.000000 0.000000 -0.217174 0.000000 0.000000
# 5 0.000000 0.000000 0.000000 0.000000 -0.057090 0.000000
# 6 0.000000 0.000000 0.000000 0.000000 0.000000 0.030046
#
#
# Mechanical properties :
#
#
# Convention : Reuss Voigt Hill
#
# Bulk Modulus (GPa) = 11.53548 14.74127 13.13837
# Shear Modulus (GPa) = -33.38260 14.28185 -9.55037
#
# Velocity S-wave (km/s) = -3.97186 2.59792 -2.12444
# Velocity P-wave (km/s) = 3.94752 3.99565 0.43724
#
# Compressibility (1/GPa) = 0.08668904
#
# Stress axis : x y z
#
# Youngs Moduli (GPa) = 74.23538 62.91379 21.39030
#
# Poissons Ratio (x) = -0.14242 -0.08275
# Poissons Ratio (y) = -0.16805 0.01809
# Poissons Ratio (z) = -0.28719 0.05321
#
# Static dielectric constant tensor:
#      x y z
#    x 1.777480 0.000000 0.000000 
#    y 0.000000 1.757190 0.000000 
#    z 0.000000 0.000000 1.780620 
# 
# From -- ./inp_files/10523.got.cif
#   From: 2010.05.17/outbox.cif.g08.bks.cpg/sg55_6_cif.got.tgz:10523.got - 2010.06.03 13:27:54.
