data_PCOD9426135
_publ_section_title
;
Structure prediction by ZEFSAII (Michael W. Deem and Ramdas Pophale) SiO2 
 PCOD9426135
Probable space group: P B A M
;
_chemical_formula_sum "Si O2"
_cell_formula_units_Z 64
_cell_length_a 25.535917
_cell_length_b 14.823519
_cell_length_c 8.408157
_cell_angle_alpha 90.000000
_cell_angle_beta 90.000000
_cell_angle_gamma 90.000000
_cell_volume 3182.757754
_symmetry_space_group_name_H-M "P B A M"
_symmetry_group_IT_number 55
_symmetry_cell_setting 'orthorhombic'
loop_
_space_group_symop_operation_xyz
x,y,z
-x,-y,z
1/2+x,1/2-y,-z
1/2-x,1/2+y,-z
-x,-y,-z
x,y,-z
1/2-x,1/2+y,z
1/2+x,1/2-y,z
loop_
_atom_site_type_symbol
_atom_site_label
_atom_site_fract_x
_atom_site_fract_y
_atom_site_fract_z
Si Si1 0.159634 0.245414 0.692744
Si Si2 0.059465 0.357362 0.307158
Si Si3 0.052793 0.716724 0.310524
Si Si4 0.104789 0.536062 0.809696
Si Si5 0.666565 0.462768 0.688038
Si Si6 0.629654 0.641296 0.185086
Si Si7 0.279795 0.045030 0.813230
Si Si8 0.775320 0.254666 0.311690
O O1 0.156889 0.246026 0.500000
O O2 0.110329 0.302120 0.750112
O O3 0.217577 0.280919 0.735216
O O4 0.157635 0.140323 0.742301
O O5 0.059694 0.361696 0.500000
O O6 0.065196 0.458167 0.242151
O O7 0.005848 0.308867 0.258468
O O8 0.053133 0.728507 0.500000
O O9 0.088560 0.630765 0.266415
O O10 0.077623 0.805000 0.232539
O O11 0.163810 0.508575 0.758484
O O12 0.105295 0.546327 0.000000
O O13 0.657781 0.466964 0.500000
O O14 0.630695 0.536210 0.772617
O O15 0.727563 0.484904 0.723291
O O16 0.677707 0.687113 0.279304
O O17 0.639909 0.654219 0.000000
O O18 0.283937 0.152782 0.783754
O O19 0.272886 0.026318 0.000000
O O20 0.773693 0.277069 0.500000
#
# Coordination Sequence:
#
# PCOD9426135 Si02
#       8
#     8   8   8   8   8   8   8   8
#     4   8  18  38  61  87 116 147 191 245 297 342
#     4  10  22  40  62  87 115 153 202 254 298 351
#     4  11  23  40  62  86 115 155 205 250 296 354
#     4  11  23  37  56  86 123 161 195 238 298 358
#     4  10  21  38  61  86 117 157 198 244 295 356
#     4  12  24  38  58  86 121 156 195 247 303 358
#     4  10  20  35  54  84 123 159 191 233 291 348
#     4  10  19  34  58  86 115 153 196 237 290 355
#
# _framework density 20.108347999999999
#
# number of rings (size 3 to 8) (size 9 to 14) (size 15 to 20)
#    0.000    1.750    1.250    4.125    1.750    4.000 
#    0.000    3.750    0.000    3.750    0.000    0.000 
#    0.000    0.000    0.000    0.000    0.000    0.000 
#
# Total GULP energy -357621.398515 kJ/mol
# GULP energy per Si atom -5587.834352 kJ/mol
# Density = 2.006258 g / cm^3
# Si number density = 20.108348 Si / 1000 Ang^3
#
#
#
# Elastic Constant Matrix: (Units=GPa)
#
#
# Indices 1 2 3 4 5 6 
#
# 1 65.7030 3.0941 2.9221 0.0000 0.0000 0.0000
# 2 3.0941 27.2107 -5.1370 0.0000 0.0000 0.0000
# 3 2.9221 -5.1370 19.5576 0.0000 0.0000 0.0000
# 4 0.0000 0.0000 0.0000 1.4119 0.0000 0.0000
# 5 0.0000 0.0000 0.0000 0.0000 2.5568 0.0000
# 6 0.0000 0.0000 0.0000 0.0000 0.0000 33.2372
#
#
#
# Elastic Compliance Matrix: (Units=1/GPa)
#
#
# Indices 1 2 3 4 5 6 
#
# 1 0.015458 -0.002308 -0.002916 0.000000 0.000000 0.000000
# 2 -0.002308 0.039012 0.010592 0.000000 0.000000 0.000000
# 3 -0.002916 0.010592 0.054349 0.000000 0.000000 0.000000
# 4 0.000000 0.000000 0.000000 0.708252 0.000000 0.000000
# 5 0.000000 0.000000 0.000000 0.000000 0.391107 0.000000
# 6 0.000000 0.000000 0.000000 0.000000 0.000000 0.030087
#
#
# Mechanical properties :
#
#
# Convention : Reuss Voigt Hill
#
# Bulk Modulus (GPa) = 8.36436 12.69219 10.52828
# Shear Modulus (GPa) = 3.94514 14.88067 9.41291
#
# Velocity S-wave (km/s) = 1.40221 2.72329 2.16593
# Velocity P-wave (km/s) = 2.60582 4.02666 3.39148
#
# Compressibility (1/GPa) = 0.11955486
#
# Stress axis : x y z
#
# Youngs Moduli (GPa) = 64.68980 25.63294 18.39970
#
# Poissons Ratio (x) = 0.05917 0.05365
# Poissons Ratio (y) = 0.14932 -0.19489
# Poissons Ratio (z) = 0.18863 -0.27150
#
# Static dielectric constant tensor:
#      x y z
#    x 1.726520 0.000000 0.000000 
#    y 0.000000 1.701560 0.000000 
#    z 0.000000 0.000000 1.683630 
# 
# From -- ./inp_files/6571.got.cif
#   From: 2010.05.17/outbox.cif.g08.bks.cpg/sg55_4_cif.got.tgz:6571.got - 2010.06.03 13:27:54.
