data_PCOD9426055
_publ_section_title
;
Structure prediction by ZEFSAII (Michael W. Deem and Ramdas Pophale) SiO2 
 PCOD9426055
Probable space group: P B A M
;
_chemical_formula_sum "Si O2"
_cell_formula_units_Z 48
_cell_length_a 16.765544
_cell_length_b 18.302568
_cell_length_c 9.287786
_cell_angle_alpha 90.000000
_cell_angle_beta 90.000000
_cell_angle_gamma 90.000000
_cell_volume 2849.980438
_symmetry_space_group_name_H-M "P B A M"
_symmetry_group_IT_number 55
_symmetry_cell_setting 'orthorhombic'
loop_
_space_group_symop_operation_xyz
x,y,z
-x,-y,z
1/2+x,1/2-y,-z
1/2-x,1/2+y,-z
-x,-y,-z
x,y,-z
1/2-x,1/2+y,z
1/2+x,1/2-y,z
loop_
_atom_site_type_symbol
_atom_site_label
_atom_site_fract_x
_atom_site_fract_y
_atom_site_fract_z
Si Si1 0.414079 0.968291 0.171831
Si Si2 0.250224 0.045245 0.828857
Si Si3 0.837716 0.668462 0.328972
Si Si4 0.327931 0.409440 0.329409
Si Si5 0.645586 0.320835 0.828788
Si Si6 0.013272 0.914928 0.828730
O O1 0.390351 0.895007 0.255646
O O2 0.500000 0.000000 0.213004
O O3 0.342713 0.026455 0.197672
O O4 0.415086 0.953249 0.000000
O O5 0.219899 0.126040 0.792761
O O6 0.199322 0.985716 0.742235
O O7 0.234571 0.034726 0.000000
O O8 0.851014 0.669178 0.500000
O O9 0.745516 0.645477 0.302792
O O10 0.854141 0.746535 0.259253
O O11 0.337487 0.418244 0.500000
O O12 0.410312 0.386305 0.256663
O O13 0.566023 0.368307 0.801082
O O14 0.648381 0.304937 0.000000
O O15 0.029258 0.912717 0.000000
O O16 0.000000 0.000000 0.789545
#
# Coordination Sequence:
#
# PCOD9426055 Si02
#       6
#     8   8   8   8   8   8
#     4   9  18  35  60  84 106 136 183 231 269 317
#     4   9  17  33  56  78 104 138 176 221 267 313
#     4  10  22  38  54  76 111 147 179 218 268 322
#     4  10  20  34  53  78 107 142 179 211 258 321
#     4  10  20  35  55  79 107 141 181 223 272 319
#     4  10  19  34  56  82 109 137 177 224 267 316
#
# _framework density 16.842222
#
# number of rings (size 3 to 8) (size 9 to 14) (size 15 to 20)
#    0.000    2.333    1.667    1.000    0.000    4.000 
#    3.000    0.000    0.000    0.000    0.000    0.000 
#    0.000    0.000    0.000    0.000    0.000    0.000 
#
# Total GULP energy -267760.021505 kJ/mol
# GULP energy per Si atom -5578.333781 kJ/mol
# Density = 1.680389 g / cm^3
# Si number density = 16.842222 Si / 1000 Ang^3
#
#
#
# Elastic Constant Matrix: (Units=GPa)
#
#
# Indices 1 2 3 4 5 6 
#
# 1 119.5296 75.9879 63.0823 0.0000 0.0000 0.0000
# 2 75.9879 135.4475 66.8606 0.0000 0.0000 0.0000
# 3 63.0823 66.8606 52.4219 0.0000 0.0000 0.0000
# 4 0.0000 0.0000 0.0000 2.7715 0.0000 0.0000
# 5 0.0000 0.0000 0.0000 0.0000 24.9706 0.0000
# 6 0.0000 0.0000 0.0000 0.0000 0.0000 16.3800
#
#
#
# Elastic Compliance Matrix: (Units=1/GPa)
#
#
# Indices 1 2 3 4 5 6 
#
# 1 0.023137 0.002061 -0.030471 0.000000 0.000000 0.000000
# 2 0.002061 0.020115 -0.028136 0.000000 0.000000 0.000000
# 3 -0.030471 -0.028136 0.091629 0.000000 0.000000 0.000000
# 4 0.000000 0.000000 0.000000 0.360810 0.000000 0.000000
# 5 0.000000 0.000000 0.000000 0.000000 0.040047 0.000000
# 6 0.000000 0.000000 0.000000 0.000000 0.000000 0.061050
#
#
# Mechanical properties :
#
#
# Convention : Reuss Voigt Hill
#
# Bulk Modulus (GPa) = 45.89325 79.91784 62.90554
# Shear Modulus (GPa) = 6.97211 15.58898 11.28055
#
# Velocity S-wave (km/s) = 2.03682 3.04565 2.59081
# Velocity P-wave (km/s) = 5.73059 7.74092 6.81034
#
# Compressibility (1/GPa) = 0.02178970
#
# Stress axis : x y z
#
# Youngs Moduli (GPa) = 43.22078 49.71343 10.91360
#
# Poissons Ratio (x) = -0.10246 0.33255
# Poissons Ratio (y) = -0.08908 0.30706
# Poissons Ratio (z) = 1.31698 1.39873
#
# Static dielectric constant tensor:
#      x y z
#    x 1.573720 0.000000 0.000000 
#    y 0.000000 1.536590 0.000000 
#    z 0.000000 0.000000 1.556150 
# 
# From -- ./inp_files/5629.got.cif
#   From: 2010.05.17/outbox.cif.g08.bks.cpg/sg55_3_cif.got.tgz:5629.got - 2010.06.03 13:27:54.
