data_PCOD9426596
_publ_section_title
;
Structure prediction by ZEFSAII (Michael W. Deem and Ramdas Pophale) SiO2 
 PCOD9426596
Probable space group: P B A M
;
_chemical_formula_sum "Si O2"
_cell_formula_units_Z 64
_cell_length_a 29.745910
_cell_length_b 12.882621
_cell_length_c 9.330125
_cell_angle_alpha 90.000000
_cell_angle_beta 90.000000
_cell_angle_gamma 90.000000
_cell_volume 3575.353208
_symmetry_space_group_name_H-M "P B A M"
_symmetry_group_IT_number 55
_symmetry_cell_setting 'orthorhombic'
loop_
_space_group_symop_operation_xyz
x,y,z
-x,-y,z
1/2+x,1/2-y,-z
1/2-x,1/2+y,-z
-x,-y,-z
x,y,-z
1/2-x,1/2+y,z
1/2+x,1/2-y,z
loop_
_atom_site_type_symbol
_atom_site_label
_atom_site_fract_x
_atom_site_fract_y
_atom_site_fract_z
Si Si1 0.380874 0.292187 0.826627
Si Si2 0.953148 0.373978 0.173864
Si Si3 0.876673 0.788356 0.169294
Si Si4 0.854040 0.995456 0.672957
Si Si5 0.057166 0.395334 0.174217
Si Si6 0.749873 0.526190 0.668155
Si Si7 0.195888 0.625988 0.840880
Si Si8 0.274687 0.785407 0.156654
O O1 0.425163 0.227200 0.783550
O O2 0.373229 0.399282 0.743777
O O3 0.340421 0.211317 0.796055
O O4 0.380853 0.310381 0.000000
O O5 0.932729 0.485759 0.220493
O O6 0.005481 0.372548 0.215562
O O7 0.951962 0.375144 0.000000
O O8 0.877570 0.894082 0.259912
O O9 0.909999 0.696970 0.220188
O O10 0.826091 0.744280 0.177963
O O11 0.885662 0.810253 0.000000
O O12 0.857932 0.997978 0.500000
O O13 0.800580 0.991023 0.710729
O O14 0.059046 0.396115 0.000000
O O15 0.752508 0.514128 0.500000
O O16 0.792039 0.467623 0.738603
O O17 0.755477 0.643353 0.719518
O O18 0.243265 0.685508 0.849613
O O19 0.182332 0.589421 0.000000
O O20 0.269851 0.838871 0.000000
#
# Coordination Sequence:
#
# PCOD9426596 Si02
#       8
#     8   8   8   8   8   8   8   8
#     4  10  20  34  56  81 105 138 179 218 260 312
#     4   8  15  30  54  84 112 133 161 211 269 316
#     4  10  20  34  56  81 105 138 179 218 260 312
#     4  11  23  37  52  72 107 147 181 218 261 310
#     4   8  15  30  54  84 112 133 161 211 269 316
#     4  11  23  35  49  70 103 144 178 215 261 312
#     4  10  20  33  51  75 103 135 173 219 262 306
#     4  10  20  33  51  75 103 135 173 219 262 306
#
# _framework density 17.900328999999999
#
# number of rings (size 3 to 8) (size 9 to 14) (size 15 to 20)
#    0.000    2.250    2.500    1.500    1.750    2.500 
#    0.000    0.625    0.000    4.500    0.000    1.750 
#    0.000    0.000    0.000    0.000    0.000    0.000 
#
# Total GULP energy -356616.315152 kJ/mol
# GULP energy per Si atom -5572.129924 kJ/mol
# Density = 1.785959 g / cm^3
# Si number density = 17.900329 Si / 1000 Ang^3
#
#
#
# Elastic Constant Matrix: (Units=GPa)
#
#
# Indices 1 2 3 4 5 6 
#
# 1 39.3707 1.1272 5.2067 0.0000 0.0000 0.0000
# 2 1.1272 37.1419 18.5431 0.0000 0.0000 0.0000
# 3 5.2067 18.5431 15.4993 0.0000 0.0000 0.0000
# 4 0.0000 0.0000 0.0000 -9.0157 0.0000 0.0000
# 5 0.0000 0.0000 0.0000 0.0000 10.8282 0.0000
# 6 0.0000 0.0000 0.0000 0.0000 0.0000 30.4010
#
#
#
# Elastic Compliance Matrix: (Units=1/GPa)
#
#
# Indices 1 2 3 4 5 6 
#
# 1 0.027870 0.009506 -0.020736 0.000000 0.000000 0.000000
# 2 0.009506 0.070099 -0.087059 0.000000 0.000000 0.000000
# 3 -0.020736 -0.087059 0.175640 0.000000 0.000000 0.000000
# 4 0.000000 0.000000 0.000000 -0.110918 0.000000 0.000000
# 5 0.000000 0.000000 0.000000 0.000000 0.092352 0.000000
# 6 0.000000 0.000000 0.000000 0.000000 0.000000 0.032894
#
#
# Mechanical properties :
#
#
# Convention : Reuss Voigt Hill
#
# Bulk Modulus (GPa) = 12.98146 15.75179 14.36663
# Shear Modulus (GPa) = 9.80025 10.91836 10.35930
#
# Velocity S-wave (km/s) = 2.34239 2.47240 2.40827
# Velocity P-wave (km/s) = 3.81884 4.11937 3.97195
#
# Compressibility (1/GPa) = 0.07703294
#
# Stress axis : x y z
#
# Youngs Moduli (GPa) = 35.88123 14.26545 5.69345
#
# Poissons Ratio (x) = -0.13561 0.11806
# Poissons Ratio (y) = -0.34110 0.49567
# Poissons Ratio (z) = 0.74402 1.24194
#
# Static dielectric constant tensor:
#      x y z
#    x 1.619830 0.000000 0.000000 
#    y 0.000000 1.613850 0.000000 
#    z 0.000000 0.000000 1.626290 
# 
# From -- ./inp_files/10755.got.cif
#   From: 2010.05.17/outbox.cif.g08.bks.cpg/sg55_6_cif.got.tgz:10755.got - 2010.06.03 13:27:54.
