data_PCOD9426306
_publ_section_title
;
Structure prediction by ZEFSAII (Michael W. Deem and Ramdas Pophale) SiO2 
 PCOD9426306
Probable space group: P B A M
;
_chemical_formula_sum "Si O2"
_cell_formula_units_Z 64
_cell_length_a 31.737079
_cell_length_b 12.262914
_cell_length_c 8.447695
_cell_angle_alpha 90.000000
_cell_angle_beta 90.000000
_cell_angle_gamma 90.000000
_cell_volume 3287.750564
_symmetry_space_group_name_H-M "P B A M"
_symmetry_group_IT_number 55
_symmetry_cell_setting 'orthorhombic'
loop_
_space_group_symop_operation_xyz
x,y,z
-x,-y,z
1/2+x,1/2-y,-z
1/2-x,1/2+y,-z
-x,-y,-z
x,y,-z
1/2-x,1/2+y,z
1/2+x,1/2-y,z
loop_
_atom_site_type_symbol
_atom_site_label
_atom_site_fract_x
_atom_site_fract_y
_atom_site_fract_z
Si Si1 0.929569 0.509816 0.691616
Si Si2 0.301266 0.762728 0.191919
Si Si3 0.951626 0.754616 0.691938
Si Si4 0.044165 0.724395 0.693291
Si Si5 0.372531 0.352956 0.310792
Si Si6 0.293704 0.215591 0.811827
Si Si7 0.125025 0.099261 0.189372
Si Si8 0.668519 0.003636 0.311059
O O1 0.933683 0.512832 0.500000
O O2 0.942274 0.630242 0.745976
O O3 0.954477 0.402401 0.745261
O O4 0.880677 0.490440 0.730138
O O5 0.253466 0.741633 0.245172
O O6 0.334210 0.669343 0.242654
O O7 0.316805 0.878052 0.256526
O O8 0.301758 0.765795 0.000000
O O9 0.948870 0.757147 0.500000
O O10 0.916718 0.836163 0.757348
O O11 0.999883 0.778546 0.738480
O O12 0.045157 0.722903 0.500000
O O13 0.085956 0.787442 0.747421
O O14 0.373862 0.350284 0.500000
O O15 0.330009 0.292691 0.257584
O O16 0.373788 0.477270 0.254779
O O17 0.305201 0.092013 0.768739
O O18 0.294173 0.229335 0.000000
O O19 0.125915 0.094414 0.000000
O O20 0.672133 0.993699 0.500000
#
# Coordination Sequence:
#
# PCOD9426306 Si02
#       8
#     8   8   8   8   8   8   8   8
#     4   9  16  31  57  90 122 147 185 240 295 347
#     4  10  24  43  62  84 118 161 202 239 292 362
#     4  10  19  35  62  90 116 155 199 244 296 355
#     4   9  18  34  59  89 120 152 193 243 300 357
#     4  11  23  41  62  88 119 154 202 256 299 349
#     4  11  24  42  63  88 121 163 201 239 297 365
#     4  11  24  42  60  83 119 161 201 247 300 361
#     4  11  21  37  64  95 123 151 195 251 298 343
#
# _framework density 19.466197999999999
#
# number of rings (size 3 to 8) (size 9 to 14) (size 15 to 20)
#    0.000    1.750    2.500    1.875    1.750    3.500 
#    0.000    3.750    0.000    0.750    0.000    0.000 
#    0.000    0.000    0.000    0.000    0.000    0.000 
#
# Total GULP energy -357498.570214 kJ/mol
# GULP energy per Si atom -5585.915160 kJ/mol
# Density = 1.942189 g / cm^3
# Si number density = 19.466198 Si / 1000 Ang^3
#
#
#
# Elastic Constant Matrix: (Units=GPa)
#
#
# Indices 1 2 3 4 5 6 
#
# 1 104.3208 35.6154 22.1756 0.0000 0.0000 0.0000
# 2 35.6154 112.3563 14.1253 0.0000 0.0000 0.0000
# 3 22.1756 14.1253 18.9810 0.0000 0.0000 0.0000
# 4 0.0000 0.0000 0.0000 29.2401 0.0000 0.0000
# 5 0.0000 0.0000 0.0000 0.0000 68.5816 0.0000
# 6 0.0000 0.0000 0.0000 0.0000 0.0000 -6.5902
#
#
#
# Elastic Compliance Matrix: (Units=1/GPa)
#
#
# Indices 1 2 3 4 5 6 
#
# 1 0.013364 -0.002508 -0.013747 0.000000 0.000000 0.000000
# 2 -0.002508 0.010290 -0.004727 0.000000 0.000000 0.000000
# 3 -0.013747 -0.004727 0.072263 0.000000 0.000000 0.000000
# 4 0.000000 0.000000 0.000000 0.034200 0.000000 0.000000
# 5 0.000000 0.000000 0.000000 0.000000 0.014581 0.000000
# 6 0.000000 0.000000 0.000000 0.000000 0.000000 -0.151739
#
#
# Mechanical properties :
#
#
# Convention : Reuss Voigt Hill
#
# Bulk Modulus (GPa) = 18.53493 42.16563 30.35028
# Shear Modulus (GPa) = 94.50560 29.16241 61.83401
#
# Velocity S-wave (km/s) = 6.97524 3.87474 5.64214
# Velocity P-wave (km/s) = 8.62637 6.45957 7.62038
#
# Compressibility (1/GPa) = 0.05395219
#
# Stress axis : x y z
#
# Youngs Moduli (GPa) = 74.82616 97.18590 13.83835
#
# Poissons Ratio (x) = 0.24375 0.19024
# Poissons Ratio (y) = 0.18767 0.06542
# Poissons Ratio (z) = 1.02865 0.45941
#
# Static dielectric constant tensor:
#      x y z
#    x 1.685980 0.000000 0.000000 
#    y 0.000000 1.645500 0.000000 
#    z 0.000000 0.000000 1.678050 
# 
# From -- ./inp_files/4524.got.cif
#   From: 2010.05.17/outbox.cif.g08.bks.cpg/sg55_3_cif.got.tgz:4524.got - 2010.06.03 13:27:54.
