data_PCOD9426942
_publ_section_title
;
Structure prediction by ZEFSAII (Michael W. Deem and Ramdas Pophale) SiO2 
 PCOD9426942
Probable space group: P B A M
;
_chemical_formula_sum "Si O2"
_cell_formula_units_Z 64
_cell_length_a 22.936481
_cell_length_b 16.001231
_cell_length_c 9.420549
_cell_angle_alpha 90.000000
_cell_angle_beta 90.000000
_cell_angle_gamma 90.000000
_cell_volume 3457.453878
_symmetry_space_group_name_H-M "P B A M"
_symmetry_group_IT_number 55
_symmetry_cell_setting 'orthorhombic'
loop_
_space_group_symop_operation_xyz
x,y,z
-x,-y,z
1/2+x,1/2-y,-z
1/2-x,1/2+y,-z
-x,-y,-z
x,y,-z
1/2-x,1/2+y,z
1/2+x,1/2-y,z
loop_
_atom_site_type_symbol
_atom_site_label
_atom_site_fract_x
_atom_site_fract_y
_atom_site_fract_z
Si Si1 0.271214 0.869553 0.336459
Si Si2 0.837021 0.081745 0.164676
Si Si3 0.047077 0.569077 0.671778
Si Si4 0.214815 0.105130 0.838155
Si Si5 0.517154 0.240586 0.667568
Si Si6 0.679214 0.941497 0.337728
Si Si7 0.137243 0.258198 0.169591
Si Si8 0.957822 0.078692 0.668142
O O1 0.268487 0.840589 0.500000
O O2 0.208519 0.866462 0.260168
O O3 0.317260 0.820087 0.242362
O O4 0.294994 0.964732 0.339093
O O5 0.900074 0.078513 0.236810
O O6 0.810460 0.988218 0.166154
O O7 0.839332 0.109329 0.000000
O O8 0.049115 0.559193 0.500000
O O9 0.113529 0.556925 0.722355
O O10 0.000000 0.500000 0.723136
O O11 0.025282 0.662924 0.701305
O O12 0.272967 0.111558 0.745983
O O13 0.163232 0.166979 0.795613
O O14 0.230500 0.125248 0.000000
O O15 0.532176 0.233297 0.500000
O O16 0.574514 0.231448 0.761113
O O17 0.489399 0.332023 0.689035
O O18 0.676032 0.911426 0.500000
O O19 0.134949 0.269009 0.000000
O O20 0.942747 0.071871 0.500000
O O21 0.000000 0.000000 0.701644
#
# Coordination Sequence:
#
# PCOD9426942 Si02
#       8
#     8   8   8   8   8   8   8   8
#     4  10  20  35  56  80 106 138 177 221 271 327
#     4  10  20  36  57  80 108 142 181 224 275 330
#     4   9  17  32  54  78 105 135 171 217 265 313
#     4   9  20  36  53  76 107 140 173 218 271 322
#     4  10  21  36  55  79 106 140 182 225 270 323
#     4   9  18  33  55  80 103 134 177 221 267 320
#     4  11  22  36  54  78 108 140 178 222 271 325
#     4  10  21  36  54  79 113 149 185 227 272 325
#
# _framework density 18.510732000000001
#
# number of rings (size 3 to 8) (size 9 to 14) (size 15 to 20)
#    0.000    2.250    0.000    2.625    0.000    5.750 
#    0.000    1.875    0.000    1.500    0.000    0.000 
#    0.000    0.000    0.000    0.000    0.000    0.000 
#
# Total GULP energy -357006.422998 kJ/mol
# GULP energy per Si atom -5578.225359 kJ/mol
# Density = 1.846860 g / cm^3
# Si number density = 18.510732 Si / 1000 Ang^3
#
#
#
# Elastic Constant Matrix: (Units=GPa)
#
#
# Indices 1 2 3 4 5 6 
#
# 1 128.5639 7.8425 69.3432 0.0000 0.0000 0.0000
# 2 7.8425 37.7420 21.7605 0.0000 0.0000 0.0000
# 3 69.3432 21.7605 67.7086 0.0000 0.0000 0.0000
# 4 0.0000 0.0000 0.0000 14.0224 0.0000 0.0000
# 5 0.0000 0.0000 0.0000 0.0000 6.0881 0.0000
# 6 0.0000 0.0000 0.0000 0.0000 0.0000 18.8278
#
#
#
# Elastic Compliance Matrix: (Units=1/GPa)
#
#
# Indices 1 2 3 4 5 6 
#
# 1 0.019700 0.009253 -0.023149 0.000000 0.000000 0.000000
# 2 0.009253 0.036868 -0.021326 0.000000 0.000000 0.000000
# 3 -0.023149 -0.021326 0.045331 0.000000 0.000000 0.000000
# 4 0.000000 0.000000 0.000000 0.071315 0.000000 0.000000
# 5 0.000000 0.000000 0.000000 0.000000 0.164255 0.000000
# 6 0.000000 0.000000 0.000000 0.000000 0.000000 0.053113
#
#
# Mechanical properties :
#
#
# Convention : Reuss Voigt Hill
#
# Bulk Modulus (GPa) = 31.79036 47.98966 39.89001
# Shear Modulus (GPa) = 10.60425 16.79220 13.69822
#
# Velocity S-wave (km/s) = 2.39607 3.01518 2.72327
# Velocity P-wave (km/s) = 4.98660 6.17279 5.61113
#
# Compressibility (1/GPa) = 0.03145607
#
# Stress axis : x y z
#
# Youngs Moduli (GPa) = 50.76231 27.12352 22.06003
#
# Poissons Ratio (x) = -0.25098 0.51067
# Poissons Ratio (y) = -0.46972 0.47044
# Poissons Ratio (z) = 1.17510 0.57843
#
# Static dielectric constant tensor:
#      x y z
#    x 1.603070 0.000000 0.000000 
#    y 0.000000 1.654410 0.000000 
#    z 0.000000 0.000000 1.628750 
# 
# From -- ./inp_files/9012.got.cif
#   From: 2010.05.17/outbox.cif.g08.bks.cpg/sg55_5_cif.got.tgz:9012.got - 2010.06.03 13:27:54.
