data_PCOD9426686
_publ_section_title
;
Structure prediction by ZEFSAII (Michael W. Deem and Ramdas Pophale) SiO2 
 PCOD9426686
Probable space group: P B A M
;
_chemical_formula_sum "Si O2"
_cell_formula_units_Z 64
_cell_length_a 28.042123
_cell_length_b 9.578047
_cell_length_c 14.632018
_cell_angle_alpha 90.000000
_cell_angle_beta 90.000000
_cell_angle_gamma 90.000000
_cell_volume 3929.995748
_symmetry_space_group_name_H-M "P B A M"
_symmetry_group_IT_number 55
_symmetry_cell_setting 'orthorhombic'
loop_
_space_group_symop_operation_xyz
x,y,z
-x,-y,z
1/2+x,1/2-y,-z
1/2-x,1/2+y,-z
-x,-y,-z
x,y,-z
1/2-x,1/2+y,z
1/2+x,1/2-y,z
loop_
_atom_site_type_symbol
_atom_site_label
_atom_site_fract_x
_atom_site_fract_y
_atom_site_fract_z
Si Si1 0.547904 0.690246 0.210718
Si Si2 0.794310 0.881761 0.889047
Si Si3 0.922126 0.542396 0.602009
Si Si4 0.798221 0.557534 0.889463
Si Si5 0.101008 0.047117 0.893669
Si Si6 0.606589 0.963605 0.791241
Si Si7 0.958814 0.675078 0.893982
Si Si8 0.989185 0.265057 0.601934
O O1 0.566996 0.550132 0.165564
O O2 0.505575 0.758706 0.151224
O O3 0.527827 0.673868 0.313227
O O4 0.590847 0.802771 0.211933
O O5 0.792973 0.719524 0.861545
O O6 0.748008 0.968592 0.860945
O O7 0.844404 0.950695 0.860866
O O8 0.795143 0.882313 0.000000
O O9 0.901123 0.551439 0.500000
O O10 0.888452 0.523613 0.688651
O O11 0.955732 0.403997 0.603500
O O12 0.957700 0.673384 0.615296
O O13 0.846213 0.493072 0.848364
O O14 0.801508 0.553599 0.000000
O O15 0.081518 0.204690 0.891390
O O16 0.099185 0.000478 0.000000
O O17 0.562344 0.046309 0.837578
O O18 0.967054 0.639144 0.000000
O O19 0.985525 0.203890 0.500000
#
# Coordination Sequence:
#
# PCOD9426686 Si02
#       8
#     8   8   8   8   8   8   8   8
#     4  11  21  30  48  76 100 132 173 200 239 291
#     4   9  19  35  52  69  93 127 166 207 247 287
#     4   8  14  27  47  70  97 128 161 201 245 290
#     4  10  20  34  52  73  98 127 162 206 252 292
#     4  10  21  36  49  65  97 140 174 199 240 299
#     4  11  20  31  50  78 101 124 164 212 247 287
#     4  11  21  34  46  64 103 144 169 194 236 288
#     4   8  14  27  46  68  97 129 163 205 243 279
#
# _framework density 16.285005000000002
#
# number of rings (size 3 to 8) (size 9 to 14) (size 15 to 20)
#    0.000    2.250    2.500    2.250    1.750    3.500 
#    0.000    0.000    0.000    2.250    0.000    1.750 
#    0.000    0.000    0.000    0.000    0.000    0.000 
#
# Total GULP energy -356931.101848 kJ/mol
# GULP energy per Si atom -5577.048466 kJ/mol
# Density = 1.624794 g / cm^3
# Si number density = 16.285005 Si / 1000 Ang^3
#
#
#
# Elastic Constant Matrix: (Units=GPa)
#
#
# Indices 1 2 3 4 5 6 
#
# 1 62.5253 1.9890 8.9835 0.0000 0.0000 0.0000
# 2 1.9890 29.8265 11.5621 0.0000 0.0000 0.0000
# 3 8.9835 11.5621 76.2596 0.0000 0.0000 0.0000
# 4 0.0000 0.0000 0.0000 7.9659 0.0000 0.0000
# 5 0.0000 0.0000 0.0000 0.0000 9.1867 0.0000
# 6 0.0000 0.0000 0.0000 0.0000 0.0000 25.8130
#
#
#
# Elastic Compliance Matrix: (Units=1/GPa)
#
#
# Indices 1 2 3 4 5 6 
#
# 1 0.016273 -0.000363 -0.001862 0.000000 0.000000 0.000000
# 2 -0.000363 0.035629 -0.005359 0.000000 0.000000 0.000000
# 3 -0.001862 -0.005359 0.014145 0.000000 0.000000 0.000000
# 4 0.000000 0.000000 0.000000 0.125534 0.000000 0.000000
# 5 0.000000 0.000000 0.000000 0.000000 0.108853 0.000000
# 6 0.000000 0.000000 0.000000 0.000000 0.000000 0.038740
#
#
# Mechanical properties :
#
#
# Convention : Reuss Voigt Hill
#
# Bulk Modulus (GPa) = 19.65496 23.74230 21.69863
# Shear Modulus (GPa) = 13.46613 18.33158 15.89886
#
# Velocity S-wave (km/s) = 2.87871 3.35874 3.12795
# Velocity P-wave (km/s) = 4.81091 5.44541 5.13796
#
# Compressibility (1/GPa) = 0.05087776
#
# Stress axis : x y z
#
# Youngs Moduli (GPa) = 61.45307 28.06712 70.69658
#
# Poissons Ratio (x) = 0.01020 0.13163
# Poissons Ratio (y) = 0.02233 0.37887
# Poissons Ratio (z) = 0.11442 0.15041
#
# Static dielectric constant tensor:
#      x y z
#    x 1.533590 0.000000 0.000000 
#    y 0.000000 1.548980 0.000000 
#    z 0.000000 0.000000 1.559230 
# 
# From -- ./inp_files/20184.got.cif
#   From: 2010.05.17/outbox.cif.g08.bks.cpg/sg55_11_cif.got.tgz:20184.got - 2010.06.03 13:27:54.
