data_PCOD9426735
_publ_section_title
;
Structure prediction by ZEFSAII (Michael W. Deem and Ramdas Pophale) SiO2 
 PCOD9426735
Probable space group: P B A M
;
_chemical_formula_sum "Si O2"
_cell_formula_units_Z 52
_cell_length_a 9.379740
_cell_length_b 19.910738
_cell_length_c 15.114246
_cell_angle_alpha 90.000000
_cell_angle_beta 90.000000
_cell_angle_gamma 90.000000
_cell_volume 2822.699487
_symmetry_space_group_name_H-M "P B A M"
_symmetry_group_IT_number 55
_symmetry_cell_setting 'orthorhombic'
loop_
_space_group_symop_operation_xyz
x,y,z
-x,-y,z
1/2+x,1/2-y,-z
1/2-x,1/2+y,-z
-x,-y,-z
x,y,-z
1/2-x,1/2+y,z
1/2+x,1/2-y,z
loop_
_atom_site_type_symbol
_atom_site_label
_atom_site_fract_x
_atom_site_fract_y
_atom_site_fract_z
Si Si1 0.033397 0.816984 0.096790
Si Si2 0.029756 0.863359 0.709944
Si Si3 0.212696 0.386511 0.402266
Si Si4 0.804609 0.323527 0.096636
Si Si5 0.975157 0.279336 0.393108
Si Si6 0.798855 0.387503 0.284655
Si Si7 0.000000 0.500000 0.353785
O O1 0.067301 0.856039 0.186457
O O2 0.108845 0.745288 0.102151
O O3 0.863347 0.807104 0.098484
O O4 0.070224 0.847136 0.000000
O O5 0.158488 0.901507 0.662941
O O6 0.025900 0.790433 0.660469
O O7 0.871131 0.893338 0.702881
O O8 0.272919 0.377005 0.500000
O O9 0.124886 0.318953 0.378185
O O10 0.096319 0.445515 0.403813
O O11 0.831875 0.365598 0.184281
O O12 0.835706 0.354909 0.000000
O O13 0.957450 0.271746 0.500000
O O14 0.857293 0.329337 0.350893
O O15 0.886571 0.454699 0.302060
#
# Coordination Sequence:
#
# PCOD9426735 Si02
#       7
#     8   8   8   8   8   8   4
#     4   9  18  30  50  81 116 144 168 207 265 327
#     4  11  20  32  56  85 112 135 177 223 272 321
#     4  10  22  38  57  79 108 146 183 224 267 320
#     4   9  17  31  52  80 111 142 174 213 264 322
#     4  10  20  34  53  81 115 142 168 213 277 330
#     4  10  21  36  55  78 108 146 179 224 265 319
#     4  10  23  42  57  70 104 148 191 224 271 314
#
# _framework density 18.422080999999999
#
# number of rings (size 3 to 8) (size 9 to 14) (size 15 to 20)
#    0.000    2.154    1.538    1.615    2.154    3.692 
#    0.000    1.154    0.000    0.923    0.000    4.308 
#    0.000    0.000    0.000    0.000    0.000    0.000 
#
# Total GULP energy -289840.981254 kJ/mol
# GULP energy per Si atom -5573.865024 kJ/mol
# Density = 1.838015 g / cm^3
# Si number density = 18.422081 Si / 1000 Ang^3
#
#
#
# Elastic Constant Matrix: (Units=GPa)
#
#
# Indices 1 2 3 4 5 6 
#
# 1 62.9888 41.1124 66.4325 0.0000 0.0000 0.0000
# 2 41.1124 20.3272 5.8065 0.0000 0.0000 0.0000
# 3 66.4325 5.8065 119.5030 0.0000 0.0000 0.0000
# 4 0.0000 0.0000 0.0000 2.1581 0.0000 0.0000
# 5 0.0000 0.0000 0.0000 0.0000 25.4656 0.0000
# 6 0.0000 0.0000 0.0000 0.0000 0.0000 17.6618
#
#
#
# Elastic Compliance Matrix: (Units=1/GPa)
#
#
# Indices 1 2 3 4 5 6 
#
# 1 -0.021958 0.041499 0.010190 0.000000 0.000000 0.000000
# 2 0.041499 -0.028545 -0.021683 0.000000 0.000000 0.000000
# 3 0.010190 -0.021683 0.003757 0.000000 0.000000 0.000000
# 4 0.000000 0.000000 0.000000 0.463379 0.000000 0.000000
# 5 0.000000 0.000000 0.000000 0.000000 0.039269 0.000000
# 6 0.000000 0.000000 0.000000 0.000000 0.000000 0.056619
#
#
# Mechanical properties :
#
#
# Convention : Reuss Voigt Hill
#
# Bulk Modulus (GPa) = 75.37325 47.72466 61.54896
# Shear Modulus (GPa) = 10.94259 15.02159 12.98209
#
# Velocity S-wave (km/s) = 2.43984 2.85864 2.65750
# Velocity P-wave (km/s) = 6.99575 6.07110 6.54976
#
# Compressibility (1/GPa) = 0.01326731
#
# Stress axis : x y z
#
# Youngs Moduli (GPa) = -45.54191 -35.03227 266.18250
#
# Poissons Ratio (x) = 1.45382 -2.71242
# Poissons Ratio (y) = 1.88997 5.77159
# Poissons Ratio (z) = 0.46407 -0.75960
#
# Static dielectric constant tensor:
#      x y z
#    x 1.574330 0.000000 0.000000 
#    y 0.000000 1.623450 0.000000 
#    z 0.000000 0.000000 1.665540 
# 
# From -- ./inp_files/17552.got.cif
#   From: 2010.05.17/outbox.cif.g08.bks.cpg/sg55_9_cif.got.tgz:17552.got - 2010.06.03 13:27:54.
