data_PCOD9426831
_publ_section_title
;
Structure prediction by ZEFSAII (Michael W. Deem and Ramdas Pophale) SiO2 
 PCOD9426831
Probable space group: P B A M
;
_chemical_formula_sum "Si O2"
_cell_formula_units_Z 64
_cell_length_a 26.996554
_cell_length_b 13.514940
_cell_length_c 7.538126
_cell_angle_alpha 90.000000
_cell_angle_beta 90.000000
_cell_angle_gamma 90.000000
_cell_volume 2750.336587
_symmetry_space_group_name_H-M "P B A M"
_symmetry_group_IT_number 55
_symmetry_cell_setting 'orthorhombic'
loop_
_space_group_symop_operation_xyz
x,y,z
-x,-y,z
1/2+x,1/2-y,-z
1/2-x,1/2+y,-z
-x,-y,-z
x,y,-z
1/2-x,1/2+y,z
1/2+x,1/2-y,z
loop_
_atom_site_type_symbol
_atom_site_label
_atom_site_fract_x
_atom_site_fract_y
_atom_site_fract_z
Si Si1 0.845225 0.620065 0.711561
Si Si2 0.794773 0.823939 0.709315
Si Si3 0.625915 0.739247 0.784667
Si Si4 0.350719 0.472204 0.785808
Si Si5 0.514003 0.726195 0.204351
Si Si6 0.304617 0.086489 0.708663
Si Si7 0.450626 0.563642 0.799221
Si Si8 0.041245 0.431632 0.800768
O O1 0.838537 0.621495 0.500000
O O2 0.825331 0.727698 0.779314
O O3 0.814895 0.523740 0.781593
O O4 0.903490 0.595453 0.738347
O O5 0.789554 0.804048 0.500000
O O6 0.820342 0.931623 0.728318
O O7 0.740329 0.847687 0.785907
O O8 0.657031 0.641558 0.726911
O O9 0.569154 0.727700 0.721927
O O10 0.647844 0.843214 0.724431
O O11 0.625340 0.741239 0.000000
O O12 0.406172 0.500610 0.724928
O O13 0.347466 0.468333 0.000000
O O14 0.471142 0.660722 0.293073
O O15 0.489688 0.831628 0.190696
O O16 0.520360 0.687969 0.000000
O O17 0.293672 0.072639 0.500000
O O18 0.500000 0.500000 0.807250
O O19 0.433531 0.589873 0.000000
O O20 0.000000 0.500000 0.706361
O O21 0.049290 0.473880 0.000000
#
# Coordination Sequence:
#
# PCOD9426831 Si02
#       8
#     8   8   8   8   8   8   8   8
#     4  10  22  41  60  84 115 149 196 248 294 342
#     4  10  23  41  62  83 109 150 196 242 291 347
#     4  10  20  35  57  88 121 149 185 237 286 333
#     4  10  20  34  57  89 119 147 186 232 282 337
#     4   9  16  28  49  78 113 149 183 219 267 331
#     4  10  23  41  62  82 106 148 197 239 288 347
#     4   9  14  25  46  75 109 144 176 208 256 321
#     4  10  20  34  56  86 116 151 192 231 279 341
#
# _framework density 23.269879
#
# number of rings (size 3 to 8) (size 9 to 14) (size 15 to 20)
#    0.000    2.250    1.250    1.500    1.750    4.250 
#    0.000    0.625    0.000    1.125    0.000    0.000 
#    0.000    0.000    0.000    0.000    0.000    0.000 
#
# Total GULP energy -356464.120367 kJ/mol
# GULP energy per Si atom -5569.751881 kJ/mol
# Density = 2.321692 g / cm^3
# Si number density = 23.269879 Si / 1000 Ang^3
#
#
#
# Elastic Constant Matrix: (Units=GPa)
#
#
# Indices 1 2 3 4 5 6 
#
# 1 73.6826 38.0745 0.9635 0.0000 0.0000 0.0000
# 2 38.0745 134.5896 6.1619 0.0000 0.0000 0.0000
# 3 0.9635 6.1619 61.4618 0.0000 0.0000 0.0000
# 4 0.0000 0.0000 0.0000 32.1214 0.0000 0.0000
# 5 0.0000 0.0000 0.0000 0.0000 11.9288 0.0000
# 6 0.0000 0.0000 0.0000 0.0000 0.0000 32.7030
#
#
#
# Elastic Compliance Matrix: (Units=1/GPa)
#
#
# Indices 1 2 3 4 5 6 
#
# 1 0.015898 -0.004507 0.000203 0.000000 0.000000 0.000000
# 2 -0.004507 0.008742 -0.000806 0.000000 0.000000 0.000000
# 3 0.000203 -0.000806 0.016348 0.000000 0.000000 0.000000
# 4 0.000000 0.000000 0.000000 0.031132 0.000000 0.000000
# 5 0.000000 0.000000 0.000000 0.000000 0.083831 0.000000
# 6 0.000000 0.000000 0.000000 0.000000 0.000000 0.030578
#
#
# Mechanical properties :
#
#
# Convention : Reuss Voigt Hill
#
# Bulk Modulus (GPa) = 32.50148 40.01486 36.25817
# Shear Modulus (GPa) = 24.15414 30.31960 27.23687
#
# Velocity S-wave (km/s) = 3.22530 3.61356 3.42494
# Velocity P-wave (km/s) = 5.27897 5.88590 5.59068
#
# Compressibility (1/GPa) = 0.03076783
#
# Stress axis : x y z
#
# Youngs Moduli (GPa) = 62.90168 114.39309 61.17005
#
# Poissons Ratio (x) = 0.51553 -0.01239
# Poissons Ratio (y) = 0.28348 0.04929
# Poissons Ratio (z) = -0.01274 0.09217
#
# Static dielectric constant tensor:
#      x y z
#    x 2.126260 0.000000 0.000000 
#    y 0.000000 1.949540 0.000000 
#    z 0.000000 0.000000 2.078310 
# 
# From -- ./inp_files/10720.got.cif
#   From: 2010.05.17/outbox.cif.g08.bks.cpg/sg55_6_cif.got.tgz:10720.got - 2010.06.03 13:27:54.
