data_PCOD9426534
_publ_section_title
;
Structure prediction by ZEFSAII (Michael W. Deem and Ramdas Pophale) SiO2 
 PCOD9426534
Probable space group: P B A M
;
_chemical_formula_sum "Si O2"
_cell_formula_units_Z 48
_cell_length_a 17.410898
_cell_length_b 17.291931
_cell_length_c 8.597753
_cell_angle_alpha 90.000000
_cell_angle_beta 90.000000
_cell_angle_gamma 90.000000
_cell_volume 2588.508703
_symmetry_space_group_name_H-M "P B A M"
_symmetry_group_IT_number 55
_symmetry_cell_setting 'orthorhombic'
loop_
_space_group_symop_operation_xyz
x,y,z
-x,-y,z
1/2+x,1/2-y,-z
1/2-x,1/2+y,-z
-x,-y,-z
x,y,-z
1/2-x,1/2+y,z
1/2+x,1/2-y,z
loop_
_atom_site_type_symbol
_atom_site_label
_atom_site_fract_x
_atom_site_fract_y
_atom_site_fract_z
Si Si1 0.400038 0.072572 0.189487
Si Si2 0.887239 0.002214 0.184820
Si Si3 0.236180 0.117254 0.186744
Si Si4 0.928142 0.602727 0.187575
Si Si5 0.009855 0.879804 0.684662
Si Si6 0.113048 0.237828 0.685743
O O1 0.323588 0.115660 0.243768
O O2 0.482324 0.105838 0.238410
O O3 0.398092 0.982003 0.233813
O O4 0.399699 0.074099 0.000000
O O5 0.803893 0.966312 0.218393
O O6 0.944851 0.943352 0.271768
O O7 0.900313 0.995979 0.000000
O O8 0.912708 0.087567 0.237526
O O9 0.181990 0.183691 0.254963
O O10 0.235995 0.126578 0.000000
O O11 0.883217 0.675292 0.254197
O O12 0.926134 0.606167 0.000000
O O13 0.020824 0.877806 0.500000
O O14 0.968366 0.801090 0.738388
O O15 0.113343 0.235971 0.500000
#
# Coordination Sequence:
#
# PCOD9426534 Si02
#       6
#     8   8   8   8   8   8
#     4   8  16  33  56  78  96 121 164 209 247 292
#     4   9  15  23  40  65  90 118 155 195 232 277
#     4   9  17  31  51  74 100 128 160 203 251 295
#     4   9  17  33  57  77  95 125 164 206 249 291
#     4   9  16  26  40  58  88 128 160 188 227 278
#     4  10  20  32  47  72 104 134 165 201 243 293
#
# _framework density 18.543495
#
# number of rings (size 3 to 8) (size 9 to 14) (size 15 to 20)
#    0.000    3.000    0.000    3.500    0.000    2.667 
#    0.000    5.000    0.000    8.000    0.000    0.000 
#    0.000    0.000    0.000    0.000    0.000    0.000 
#
# Total GULP energy -267215.952895 kJ/mol
# GULP energy per Si atom -5566.999019 kJ/mol
# Density = 1.850129 g / cm^3
# Si number density = 18.543495 Si / 1000 Ang^3
#
#
#
# Elastic Constant Matrix: (Units=GPa)
#
#
# Indices 1 2 3 4 5 6 
#
# 1 79.8335 36.6142 15.2759 0.0000 0.0000 0.0000
# 2 36.6142 73.7361 12.0306 0.0000 0.0000 0.0000
# 3 15.2759 12.0306 10.2733 0.0000 0.0000 0.0000
# 4 0.0000 0.0000 0.0000 24.8549 0.0000 0.0000
# 5 0.0000 0.0000 0.0000 0.0000 30.3832 0.0000
# 6 0.0000 0.0000 0.0000 0.0000 0.0000 11.5197
#
#
#
# Elastic Compliance Matrix: (Units=1/GPa)
#
#
# Indices 1 2 3 4 5 6 
#
# 1 0.019516 -0.006127 -0.021844 0.000000 0.000000 0.000000
# 2 -0.006127 0.018688 -0.012775 0.000000 0.000000 0.000000
# 3 -0.021844 -0.012775 0.144782 0.000000 0.000000 0.000000
# 4 0.000000 0.000000 0.000000 0.040234 0.000000 0.000000
# 5 0.000000 0.000000 0.000000 0.000000 0.032913 0.000000
# 6 0.000000 0.000000 0.000000 0.000000 0.000000 0.086808
#
#
# Mechanical properties :
#
#
# Convention : Reuss Voigt Hill
#
# Bulk Modulus (GPa) = 9.85282 32.40934 21.13108
# Shear Modulus (GPa) = 10.91072 20.01304 15.46188
#
# Velocity S-wave (km/s) = 2.42830 3.28876 2.89072
# Velocity P-wave (km/s) = 3.63140 5.65125 4.74993
#
# Compressibility (1/GPa) = 0.10149375
#
# Stress axis : x y z
#
# Youngs Moduli (GPa) = 51.24047 53.50891 6.90693
#
# Poissons Ratio (x) = 0.32783 0.15088
# Poissons Ratio (y) = 0.31393 0.08824
# Poissons Ratio (z) = 1.11932 0.68359
#
# Static dielectric constant tensor:
#      x y z
#    x 1.674350 0.000000 0.000000 
#    y 0.000000 1.662060 0.000000 
#    z 0.000000 0.000000 1.624960 
# 
# From -- ./inp_files/7561.got.cif
#   From: 2010.05.17/outbox.cif.g08.bks.cpg/sg55_4_cif.got.tgz:7561.got - 2010.06.03 13:27:54.
