data_PCOD9426927
_publ_section_title
;
Structure prediction by ZEFSAII (Michael W. Deem and Ramdas Pophale) SiO2 
 PCOD9426927
Probable space group: P B A M
;
_chemical_formula_sum "Si O2"
_cell_formula_units_Z 56
_cell_length_a 21.870662
_cell_length_b 14.531512
_cell_length_c 9.126302
_cell_angle_alpha 90.000000
_cell_angle_beta 90.000000
_cell_angle_gamma 90.000000
_cell_volume 2900.464603
_symmetry_space_group_name_H-M "P B A M"
_symmetry_group_IT_number 55
_symmetry_cell_setting 'orthorhombic'
loop_
_space_group_symop_operation_xyz
x,y,z
-x,-y,z
1/2+x,1/2-y,-z
1/2-x,1/2+y,-z
-x,-y,-z
x,y,-z
1/2-x,1/2+y,z
1/2+x,1/2-y,z
loop_
_atom_site_type_symbol
_atom_site_label
_atom_site_fract_x
_atom_site_fract_y
_atom_site_fract_z
Si Si1 0.961057 0.151580 0.331252
Si Si2 0.083674 0.131479 0.829409
Si Si3 0.133024 0.334423 0.829351
Si Si4 0.774716 0.174092 0.174716
Si Si5 0.845252 0.015742 0.668139
Si Si6 0.885101 0.307430 0.175733
Si Si7 0.427746 0.006182 0.675021
O O1 0.972005 0.178812 0.500000
O O2 0.936186 0.237586 0.238100
O O3 0.022182 0.112748 0.259916
O O4 0.907508 0.076166 0.329691
O O5 0.096104 0.239885 0.816391
O O6 0.139362 0.074367 0.760744
O O7 0.076657 0.107278 0.000000
O O8 0.203559 0.311291 0.794915
O O9 0.105422 0.414063 0.729938
O O10 0.130441 0.364506 0.000000
O O11 0.820171 0.258406 0.214059
O O12 0.796180 0.082577 0.258008
O O13 0.782453 0.160139 0.000000
O O14 0.830034 0.994529 0.500000
O O15 0.896752 0.405885 0.248065
O O16 0.889284 0.313922 0.000000
O O17 0.423025 0.015509 0.500000
O O18 0.500000 0.000000 0.713245
#
# Coordination Sequence:
#
# PCOD9426927 Si02
#       7
#     8   8   8   8   8   8   8
#     4  10  20  35  55  82 117 150 183 228 279 333
#     4  11  22  35  55  83 113 147 187 230 279 334
#     4  10  23  41  59  81 111 147 189 237 283 334
#     4   9  20  40  61  82 110 145 187 233 282 336
#     4  10  21  36  56  83 114 148 184 225 276 334
#     4  10  20  36  61  87 112 148 191 235 286 344
#     4  11  24  40  59  86 119 154 193 240 293 345
#
# _framework density 19.307251000000001
#
# number of rings (size 3 to 8) (size 9 to 14) (size 15 to 20)
#    0.000    1.857    0.000    3.429    0.000   10.286 
#    0.000    2.857    0.000    0.000    0.000    0.000 
#    0.000    0.000    0.000    0.000    0.000    0.000 
#
# Total GULP energy -312879.399007 kJ/mol
# GULP energy per Si atom -5587.132125 kJ/mol
# Density = 1.926331 g / cm^3
# Si number density = 19.307251 Si / 1000 Ang^3
#
#
#
# Elastic Constant Matrix: (Units=GPa)
#
#
# Indices 1 2 3 4 5 6 
#
# 1 68.9115 7.2056 32.6378 0.0000 0.0000 0.0000
# 2 7.2056 70.5497 38.0663 0.0000 0.0000 0.0000
# 3 32.6378 38.0663 76.0097 0.0000 0.0000 0.0000
# 4 0.0000 0.0000 0.0000 15.8175 0.0000 0.0000
# 5 0.0000 0.0000 0.0000 0.0000 25.2340 0.0000
# 6 0.0000 0.0000 0.0000 0.0000 0.0000 15.7179
#
#
#
# Elastic Compliance Matrix: (Units=1/GPa)
#
#
# Indices 1 2 3 4 5 6 
#
# 1 0.018771 0.003332 -0.009729 0.000000 0.000000 0.000000
# 2 0.003332 0.020014 -0.011454 0.000000 0.000000 0.000000
# 3 -0.009729 -0.011454 0.023070 0.000000 0.000000 0.000000
# 4 0.000000 0.000000 0.000000 0.063221 0.000000 0.000000
# 5 0.000000 0.000000 0.000000 0.000000 0.039629 0.000000
# 6 0.000000 0.000000 0.000000 0.000000 0.000000 0.063622
#
#
# Mechanical properties :
#
#
# Convention : Reuss Voigt Hill
#
# Bulk Modulus (GPa) = 38.23573 41.25449 39.74511
# Shear Modulus (GPa) = 18.33209 20.52464 19.42837
#
# Velocity S-wave (km/s) = 3.08473 3.26399 3.17562
# Velocity P-wave (km/s) = 5.70388 5.96813 5.83750
#
# Compressibility (1/GPa) = 0.02615355
#
# Stress axis : x y z
#
# Youngs Moduli (GPa) = 53.27464 49.96415 43.34639
#
# Poissons Ratio (x) = -0.16649 0.42170
# Poissons Ratio (y) = -0.17752 0.49650
# Poissons Ratio (z) = 0.51829 0.57230
#
# Static dielectric constant tensor:
#      x y z
#    x 1.677450 0.000000 0.000000 
#    y 0.000000 1.662540 0.000000 
#    z 0.000000 0.000000 1.654100 
# 
# From -- ./inp_files/6088.got.cif
#   From: 2010.05.17/outbox.cif.g08.bks.cpg/sg55_4_cif.got.tgz:6088.got - 2010.06.03 13:27:54.
