data_PCOD9426537
_publ_section_title
;
Structure prediction by ZEFSAII (Michael W. Deem and Ramdas Pophale) SiO2 
 PCOD9426537
Probable space group: P B A M
;
_chemical_formula_sum "Si O2"
_cell_formula_units_Z 44
_cell_length_a 27.113426
_cell_length_b 5.350454
_cell_length_c 13.591442
_cell_angle_alpha 90.000000
_cell_angle_beta 90.000000
_cell_angle_gamma 90.000000
_cell_volume 1971.698783
_symmetry_space_group_name_H-M "P B A M"
_symmetry_group_IT_number 55
_symmetry_cell_setting 'orthorhombic'
loop_
_space_group_symop_operation_xyz
x,y,z
-x,-y,z
1/2+x,1/2-y,-z
1/2-x,1/2+y,-z
-x,-y,-z
x,y,-z
1/2-x,1/2+y,z
1/2+x,1/2-y,z
loop_
_atom_site_type_symbol
_atom_site_label
_atom_site_fract_x
_atom_site_fract_y
_atom_site_fract_z
Si Si1 0.766889 0.249019 0.193013
Si Si2 0.533461 0.247163 0.891484
Si Si3 0.942106 0.935439 0.697059
Si Si4 0.698426 0.249645 0.608874
Si Si5 0.852993 0.253512 0.673465
Si Si6 0.533122 0.246294 0.500000
O O1 0.748703 0.496789 0.141488
O O2 0.736323 0.244438 0.298839
O O3 0.823852 0.256627 0.222740
O O4 0.500000 0.500000 0.896915
O O5 0.569002 0.292170 0.798558
O O6 0.500000 0.000000 0.873940
O O7 0.556414 0.216956 0.000000
O O8 0.936322 0.768470 0.599976
O O9 0.909890 0.184577 0.686518
O O10 0.000000 0.000000 0.701299
O O11 0.721357 0.237638 0.500000
O O12 0.668850 0.508235 0.619015
O O13 0.663518 0.008276 0.622153
O O14 0.500000 0.500000 0.500000
O O15 0.500000 0.000000 0.500000
#
# Coordination Sequence:
#
# PCOD9426537 Si02
#       6
#     8   8   8   8   8   4
#     4   8  16  30  45  65  89 115 159 205 256 293
#     4   9  18  34  57  78  95 124 168 218 263 292
#     4  10  22  38  52  73 105 140 174 209 245 301
#     4  10  20  32  48  67  91 123 169 216 252 289
#     4  10  21  32  47  69  92 128 166 201 253 299
#     4  10  22  36  48  64  94 140 174 196 230 282
#
# _framework density 22.315781000000001
#
# number of rings (size 3 to 8) (size 9 to 14) (size 15 to 20)
#    0.000    2.545    0.000    1.091    2.545   12.364 
#    0.000    0.000    0.000    0.000    0.000    0.000 
#    0.000   13.091    0.000    0.000    0.000   14.727 
#
# Total GULP energy -245458.486067 kJ/mol
# GULP energy per Si atom -5578.601956 kJ/mol
# Density = 2.226499 g / cm^3
# Si number density = 22.315781 Si / 1000 Ang^3
#
#
#
# Elastic Constant Matrix: (Units=GPa)
#
#
# Indices 1 2 3 4 5 6 
#
# 1 79.9639 15.7839 -18.5797 0.0000 0.0000 0.0000
# 2 15.7839 171.8048 -1.7976 0.0000 0.0000 0.0000
# 3 -18.5797 -1.7976 105.2182 0.0000 0.0000 0.0000
# 4 0.0000 0.0000 0.0000 -5.2021 0.0000 0.0000
# 5 0.0000 0.0000 0.0000 0.0000 -7.4156 0.0000
# 6 0.0000 0.0000 0.0000 0.0000 0.0000 41.1456
#
#
#
# Elastic Compliance Matrix: (Units=1/GPa)
#
#
# Indices 1 2 3 4 5 6 
#
# 1 0.013282 -0.001196 0.002325 0.000000 0.000000 0.000000
# 2 -0.001196 0.005929 -0.000110 0.000000 0.000000 0.000000
# 3 0.002325 -0.000110 0.009913 0.000000 0.000000 0.000000
# 4 0.000000 0.000000 0.000000 -0.192231 0.000000 0.000000
# 5 0.000000 0.000000 0.000000 0.000000 -0.134851 0.000000
# 6 0.000000 0.000000 0.000000 0.000000 0.000000 0.024304
#
#
# Mechanical properties :
#
#
# Convention : Reuss Voigt Hill
#
# Bulk Modulus (GPa) = 32.09015 38.64444 35.36729
# Shear Modulus (GPa) = -18.84625 29.81093 5.48234
#
# Velocity S-wave (km/s) = -2.90922 3.65892 1.56909
# Velocity P-wave (km/s) = 1.76818 5.93337 4.37786
#
# Compressibility (1/GPa) = 0.03116221
#
# Stress axis : x y z
#
# Youngs Moduli (GPa) = 75.29041 168.65459 100.88046
#
# Poissons Ratio (x) = 0.20169 -0.23454
# Poissons Ratio (y) = 0.09004 0.01108
# Poissons Ratio (z) = -0.17504 0.01853
#
# Static dielectric constant tensor:
#      x y z
#    x 1.863370 0.000000 0.000000 
#    y 0.000000 1.842760 0.000000 
#    z 0.000000 0.000000 2.011590 
# 
# From -- ./inp_files/20033.got.cif
#   From: 2010.05.17/outbox.cif.g08.bks.cpg/sg55_11_cif.got.tgz:20033.got - 2010.06.03 13:27:54.
