data_PCOD9426466
_publ_section_title
;
Structure prediction by ZEFSAII (Michael W. Deem and Ramdas Pophale) SiO2 
 PCOD9426466
Probable space group: P B A M
;
_chemical_formula_sum "Si O2"
_cell_formula_units_Z 64
_cell_length_a 8.885217
_cell_length_b 20.460675
_cell_length_c 19.628520
_cell_angle_alpha 90.000000
_cell_angle_beta 90.000000
_cell_angle_gamma 90.000000
_cell_volume 3568.416598
_symmetry_space_group_name_H-M "P B A M"
_symmetry_group_IT_number 55
_symmetry_cell_setting 'orthorhombic'
loop_
_space_group_symop_operation_xyz
x,y,z
-x,-y,z
1/2+x,1/2-y,-z
1/2-x,1/2+y,-z
-x,-y,-z
x,y,-z
1/2-x,1/2+y,z
1/2+x,1/2-y,z
loop_
_atom_site_type_symbol
_atom_site_label
_atom_site_fract_x
_atom_site_fract_y
_atom_site_fract_z
Si Si1 0.239490 0.165721 0.080914
Si Si2 0.678457 0.667599 0.789397
Si Si3 0.831036 0.084210 0.652511
Si Si4 0.525321 0.227164 0.151766
Si Si5 0.832949 0.694900 0.422215
Si Si6 0.328024 0.565784 0.327452
Si Si7 0.065040 0.072385 0.171051
Si Si8 0.686550 0.826288 0.419041
O O1 0.403402 0.187739 0.107780
O O2 0.121152 0.221296 0.106475
O O3 0.184914 0.099099 0.117165
O O4 0.237342 0.160895 0.000000
O O5 0.683709 0.629909 0.718703
O O6 0.845581 0.683766 0.813843
O O7 0.575372 0.732777 0.793111
O O8 0.582007 0.618246 0.835762
O O9 0.740436 0.126630 0.598992
O O10 0.008342 0.076881 0.637958
O O11 0.779741 0.009918 0.665710
O O12 0.788223 0.704545 0.500000
O O13 0.774016 0.762500 0.390171
O O14 0.010960 0.690289 0.416292
O O15 0.361305 0.579327 0.247071
O O16 0.220333 0.613943 0.368399
O O17 0.000000 0.000000 0.164503
O O18 0.723853 0.840488 0.500000
#
# Coordination Sequence:
#
# PCOD9426466 Si02
#       8
#     8   8   8   8   8   8   8   8
#     4  10  20  34  57  84 112 148 185 229 283 335
#     4   9  18  34  55  83 111 146 183 226 289 328
#     4  10  20  35  58  81 111 146 190 231 279 341
#     4   9  19  34  55  84 116 141 180 233 281 337
#     4  10  22  38  55  81 114 148 187 237 285 339
#     4  10  20  38  59  83 111 150 190 235 280 334
#     4  10  19  38  59  77 112 150 188 235 271 333
#     4  10  22  39  58  81 113 149 188 232 287 342
#
# _framework density 17.935124999999999
#
# number of rings (size 3 to 8) (size 9 to 14) (size 15 to 20)
#    0.000    2.250    2.500    1.125    0.000    8.750 
#    0.000    3.750    0.000    0.750    0.000    0.000 
#    0.000    0.000    0.000    0.000    0.000    0.000 
#
# Total GULP energy -356453.643630 kJ/mol
# GULP energy per Si atom -5569.588182 kJ/mol
# Density = 1.789430 g / cm^3
# Si number density = 17.935125 Si / 1000 Ang^3
#
#
#
# Elastic Constant Matrix: (Units=GPa)
#
#
# Indices 1 2 3 4 5 6 
#
# 1 157.0844 116.5139 107.7596 0.0000 0.0000 0.0000
# 2 116.5139 170.2903 118.6673 0.0000 0.0000 0.0000
# 3 107.7596 118.6673 107.9144 0.0000 0.0000 0.0000
# 4 0.0000 0.0000 0.0000 17.4330 0.0000 0.0000
# 5 0.0000 0.0000 0.0000 0.0000 17.7025 0.0000
# 6 0.0000 0.0000 0.0000 0.0000 0.0000 28.6176
#
#
#
# Elastic Compliance Matrix: (Units=1/GPa)
#
#
# Indices 1 2 3 4 5 6 
#
# 1 0.020251 0.001009 -0.021331 0.000000 0.000000 0.000000
# 2 0.001009 0.025177 -0.028693 0.000000 0.000000 0.000000
# 3 -0.021331 -0.028693 0.062119 0.000000 0.000000 0.000000
# 4 0.000000 0.000000 0.000000 0.057362 0.000000 0.000000
# 5 0.000000 0.000000 0.000000 0.000000 0.056489 0.000000
# 6 0.000000 0.000000 0.000000 0.000000 0.000000 0.034944
#
#
# Mechanical properties :
#
#
# Convention : Reuss Voigt Hill
#
# Bulk Modulus (GPa) = 105.08261 124.57451 114.82856
# Shear Modulus (GPa) = 13.98425 18.90719 16.44572
#
# Velocity S-wave (km/s) = 2.79536 3.25037 3.03141
# Velocity P-wave (km/s) = 8.31483 9.14853 8.74163
#
# Compressibility (1/GPa) = 0.00951632
#
# Stress axis : x y z
#
# Youngs Moduli (GPa) = 49.38061 39.71928 16.09801
#
# Poissons Ratio (x) = -0.04008 0.34339
# Poissons Ratio (y) = -0.04983 0.46190
# Poissons Ratio (z) = 1.05336 1.13967
#
# Static dielectric constant tensor:
#      x y z
#    x 1.619680 0.000000 0.000000 
#    y 0.000000 1.637620 0.000000 
#    z 0.000000 0.000000 1.637770 
# 
# From -- ./inp_files/22737.got.cif
#   From: 2010.05.17/outbox.cif.g08.bks.cpg/sg55_12_cif.got.tgz:22737.got - 2010.06.03 13:27:54.
