data_PCOD9426431
_publ_section_title
;
Structure prediction by ZEFSAII (Michael W. Deem and Ramdas Pophale) SiO2 
 PCOD9426431
Probable space group: P B A M
;
_chemical_formula_sum "Si O2"
_cell_formula_units_Z 48
_cell_length_a 9.875984
_cell_length_b 15.597206
_cell_length_c 17.216217
_cell_angle_alpha 90.000000
_cell_angle_beta 90.000000
_cell_angle_gamma 90.000000
_cell_volume 2651.947449
_symmetry_space_group_name_H-M "P B A M"
_symmetry_group_IT_number 55
_symmetry_cell_setting 'orthorhombic'
loop_
_space_group_symop_operation_xyz
x,y,z
-x,-y,z
1/2+x,1/2-y,-z
1/2-x,1/2+y,-z
-x,-y,-z
x,y,-z
1/2-x,1/2+y,z
1/2+x,1/2-y,z
loop_
_atom_site_type_symbol
_atom_site_label
_atom_site_fract_x
_atom_site_fract_y
_atom_site_fract_z
Si Si1 0.103407 0.926502 0.343842
Si Si2 0.277093 0.230855 0.799916
Si Si3 0.161399 0.089972 0.908116
Si Si4 0.594667 0.080387 0.407411
Si Si5 0.858181 0.087866 0.159705
Si Si6 0.525259 0.248763 0.311091
O O1 0.249225 0.934060 0.383421
O O2 0.124866 0.935293 0.250668
O O3 0.037369 0.832211 0.353291
O O4 0.000000 0.000000 0.369764
O O5 0.250924 0.157631 0.861920
O O6 0.275156 0.324197 0.840388
O O7 0.164150 0.227037 0.732406
O O8 0.420188 0.224552 0.756825
O O9 0.007262 0.101749 0.876794
O O10 0.201934 0.993309 0.884765
O O11 0.164641 0.101247 0.000000
O O12 0.584910 0.089255 0.500000
O O13 0.547646 0.167785 0.366097
O O14 0.500000 0.000000 0.383719
#
# Coordination Sequence:
#
# PCOD9426431 Si02
#       6
#     8   8   8   8   8   8
#     4  11  21  40  70  94 124 167 219 254 301 385
#     4  11  21  39  64  94 120 162 220 254 310 371
#     4  11  22  37  61  92 126 163 208 263 317 366
#     4  11  27  44  63  98 132 163 204 263 326 367
#     4  10  19  37  61  88 121 164 210 248 302 374
#     4  11  22  41  66  93 122 169 211 259 307 379
#
# _framework density 18.099906000000001
#
# number of rings (size 3 to 8) (size 9 to 14) (size 15 to 20)
#    0.000    1.167    8.333    1.000    4.667    2.333 
#    0.000    0.000    0.000    1.000    0.000    0.000 
#    0.000    0.000    0.000    0.000    0.000    0.000 
#
# Total GULP energy -268014.017221 kJ/mol
# GULP energy per Si atom -5583.625359 kJ/mol
# Density = 1.805871 g / cm^3
# Si number density = 18.099906 Si / 1000 Ang^3
#
#
#
# Elastic Constant Matrix: (Units=GPa)
#
#
# Indices 1 2 3 4 5 6 
#
# 1 50.4959 44.1280 8.6562 0.0000 0.0000 0.0000
# 2 44.1280 137.6339 42.0084 0.0000 0.0000 0.0000
# 3 8.6562 42.0084 66.0082 0.0000 0.0000 0.0000
# 4 0.0000 0.0000 0.0000 18.8779 0.0000 0.0000
# 5 0.0000 0.0000 0.0000 0.0000 22.0876 0.0000
# 6 0.0000 0.0000 0.0000 0.0000 0.0000 37.7726
#
#
#
# Elastic Compliance Matrix: (Units=1/GPa)
#
#
# Indices 1 2 3 4 5 6 
#
# 1 0.027846 -0.009697 0.002520 0.000000 0.000000 0.000000
# 2 -0.009697 0.012394 -0.006616 0.000000 0.000000 0.000000
# 3 0.002520 -0.006616 0.019030 0.000000 0.000000 0.000000
# 4 0.000000 0.000000 0.000000 0.052972 0.000000 0.000000
# 5 0.000000 0.000000 0.000000 0.000000 0.045274 0.000000
# 6 0.000000 0.000000 0.000000 0.000000 0.000000 0.026474
#
#
# Mechanical properties :
#
#
# Convention : Reuss Voigt Hill
#
# Bulk Modulus (GPa) = 31.56293 49.30257 40.43275
# Shear Modulus (GPa) = 22.50856 26.37064 24.43960
#
# Velocity S-wave (km/s) = 3.53026 3.82114 3.67858
# Velocity P-wave (km/s) = 5.83892 6.83860 6.35844
#
# Compressibility (1/GPa) = 0.03168274
#
# Stress axis : x y z
#
# Youngs Moduli (GPa) = 35.91217 80.68432 52.54927
#
# Poissons Ratio (x) = 0.78238 -0.13240
# Poissons Ratio (y) = 0.34824 0.34767
# Poissons Ratio (z) = -0.09048 0.53381
#
# Static dielectric constant tensor:
#      x y z
#    x 1.609090 0.000000 0.000000 
#    y 0.000000 1.642420 0.000000 
#    z 0.000000 0.000000 1.589570 
# 
# From -- ./inp_files/20773.got.cif
#   From: 2010.05.17/outbox.cif.g08.bks.cpg/sg55_11_cif.got.tgz:20773.got - 2010.06.03 13:27:54.
