data_PCOD9426767
_publ_section_title
;
Structure prediction by ZEFSAII (Michael W. Deem and Ramdas Pophale) SiO2 
 PCOD9426767
Probable space group: P B A M
;
_chemical_formula_sum "Si O2"
_cell_formula_units_Z 64
_cell_length_a 13.275668
_cell_length_b 27.659053
_cell_length_c 7.546487
_cell_angle_alpha 90.000000
_cell_angle_beta 90.000000
_cell_angle_gamma 90.000000
_cell_volume 2771.012709
_symmetry_space_group_name_H-M "P B A M"
_symmetry_group_IT_number 55
_symmetry_cell_setting 'orthorhombic'
loop_
_space_group_symop_operation_xyz
x,y,z
-x,-y,z
1/2+x,1/2-y,-z
1/2-x,1/2+y,-z
-x,-y,-z
x,y,-z
1/2-x,1/2+y,z
1/2+x,1/2-y,z
loop_
_atom_site_type_symbol
_atom_site_label
_atom_site_fract_x
_atom_site_fract_y
_atom_site_fract_z
Si Si1 0.945795 0.549025 0.282953
Si Si2 0.915023 0.772525 0.789315
Si Si3 0.601550 0.870081 0.289513
Si Si4 0.282039 0.807044 0.706843
Si Si5 0.264975 0.413467 0.714242
Si Si6 0.381005 0.237621 0.710050
Si Si7 0.007515 0.945487 0.789346
Si Si8 0.169854 0.125998 0.785711
O O1 0.946042 0.549515 0.500000
O O2 0.829102 0.553357 0.227344
O O3 0.000000 0.500000 0.226429
O O4 0.014792 0.594147 0.222228
O O5 0.888593 0.719202 0.716248
O O6 0.854215 0.819175 0.721655
O O7 0.031053 0.776352 0.737511
O O8 0.907700 0.771080 0.000000
O O9 0.583266 0.867057 0.500000
O O10 0.600803 0.815610 0.213971
O O11 0.716499 0.888474 0.264596
O O12 0.255814 0.811497 0.500000
O O13 0.264457 0.859767 0.780551
O O14 0.214925 0.764634 0.789046
O O15 0.263031 0.413938 0.500000
O O16 0.378357 0.426944 0.765172
O O17 0.365267 0.230685 0.500000
O O18 0.919337 0.909674 0.722187
O O19 0.989697 0.948258 0.000000
O O20 0.000000 0.000000 0.716652
O O21 0.165866 0.127420 0.000000
#
# Coordination Sequence:
#
# PCOD9426767 Si02
#       8
#     8   8   8   8   8   8   8   8
#     4   9  19  35  56  84 116 146 180 235 298 341
#     4  11  22  34  54  83 116 154 192 234 282 338
#     4  10  20  36  60  87 114 151 194 236 286 348
#     4  10  20  36  56  81 114 150 187 233 286 338
#     4  10  21  38  61  88 116 148 194 247 291 344
#     4  10  20  34  54  80 112 150 190 232 279 336
#     4  10  23  42  62  84 117 160 198 241 300 354
#     4  10  22  39  57  84 121 155 192 242 291 342
#
# _framework density 23.096249
#
# number of rings (size 3 to 8) (size 9 to 14) (size 15 to 20)
#    0.000    2.000    1.250    1.875    1.750    4.750 
#    0.000    0.625    0.000    0.750    0.000    0.000 
#    0.000    0.000    0.000    0.000    0.000    0.000 
#
# Total GULP energy -357251.476898 kJ/mol
# GULP energy per Si atom -5582.054327 kJ/mol
# Density = 2.304368 g / cm^3
# Si number density = 23.096249 Si / 1000 Ang^3
#
#
#
# Elastic Constant Matrix: (Units=GPa)
#
#
# Indices 1 2 3 4 5 6 
#
# 1 99.8212 10.3002 -19.0254 0.0000 0.0000 0.0000
# 2 10.3002 75.9177 0.9299 0.0000 0.0000 0.0000
# 3 -19.0254 0.9299 53.8045 0.0000 0.0000 0.0000
# 4 0.0000 0.0000 0.0000 6.5329 0.0000 0.0000
# 5 0.0000 0.0000 0.0000 0.0000 -5.0587 0.0000
# 6 0.0000 0.0000 0.0000 0.0000 0.0000 32.2299
#
#
#
# Elastic Compliance Matrix: (Units=1/GPa)
#
#
# Indices 1 2 3 4 5 6 
#
# 1 0.010916 -0.001529 0.003886 0.000000 0.000000 0.000000
# 2 -0.001529 0.013389 -0.000772 0.000000 0.000000 0.000000
# 3 0.003886 -0.000772 0.019973 0.000000 0.000000 0.000000
# 4 0.000000 0.000000 0.000000 0.153071 0.000000 0.000000
# 5 0.000000 0.000000 0.000000 0.000000 -0.197681 0.000000
# 6 0.000000 0.000000 0.000000 0.000000 0.000000 0.031027
#
#
# Mechanical properties :
#
#
# Convention : Reuss Voigt Hill
#
# Bulk Modulus (GPa) = 21.07460 23.77254 22.42357
# Shear Modulus (GPa) = 115.36418 22.56341 68.96379
#
# Velocity S-wave (km/s) = 7.07515 3.12898 5.47029
# Velocity P-wave (km/s) = 8.71138 4.83417 7.04476
#
# Compressibility (1/GPa) = 0.04745050
#
# Stress axis : x y z
#
# Youngs Moduli (GPa) = 91.60534 74.68805 50.06654
#
# Poissons Ratio (x) = 0.11418 -0.19458
# Poissons Ratio (y) = 0.14004 0.03865
# Poissons Ratio (z) = -0.35602 0.05766
#
# Static dielectric constant tensor:
#      x y z
#    x 1.888280 0.000000 0.000000 
#    y 0.000000 1.890340 0.000000 
#    z 0.000000 0.000000 1.951350 
# 
# From -- ./inp_files/4504.got.cif
#   From: 2010.05.17/outbox.cif.g08.bks.cpg/sg55_3_cif.got.tgz:4504.got - 2010.06.03 13:27:54.
