data_PCOD9426714
_publ_section_title
;
Structure prediction by ZEFSAII (Michael W. Deem and Ramdas Pophale) SiO2 
 PCOD9426714
Probable space group: P B A M
;
_chemical_formula_sum "Si O2"
_cell_formula_units_Z 56
_cell_length_a 21.411429
_cell_length_b 14.965774
_cell_length_c 8.816694
_cell_angle_alpha 90.000000
_cell_angle_beta 90.000000
_cell_angle_gamma 90.000000
_cell_volume 2825.209148
_symmetry_space_group_name_H-M "P B A M"
_symmetry_group_IT_number 55
_symmetry_cell_setting 'orthorhombic'
loop_
_space_group_symop_operation_xyz
x,y,z
-x,-y,z
1/2+x,1/2-y,-z
1/2-x,1/2+y,-z
-x,-y,-z
x,y,-z
1/2-x,1/2+y,z
1/2+x,1/2-y,z
loop_
_atom_site_type_symbol
_atom_site_label
_atom_site_fract_x
_atom_site_fract_y
_atom_site_fract_z
Si Si1 0.897271 0.271041 0.181121
Si Si2 0.968309 0.768629 0.822785
Si Si3 0.729711 0.490406 0.821820
Si Si4 0.157869 0.166485 0.679371
Si Si5 0.453453 0.917765 0.674906
Si Si6 0.851556 0.440988 0.325896
Si Si7 0.758920 0.195446 0.818026
O O1 0.897709 0.361733 0.277928
O O2 0.829694 0.228474 0.212071
O O3 0.959024 0.213416 0.218033
O O4 0.900867 0.290129 0.000000
O O5 0.912701 0.814225 0.731398
O O6 0.960532 0.663033 0.789212
O O7 0.959533 0.787782 0.000000
O O8 0.678610 0.430938 0.737979
O O9 0.794224 0.439242 0.788484
O O10 0.741026 0.591805 0.768010
O O11 0.715795 0.492763 0.000000
O O12 0.162659 0.170972 0.500000
O O13 0.206055 0.240990 0.746326
O O14 0.462713 0.886993 0.500000
O O15 0.500000 0.000000 0.702347
O O16 0.386075 0.964420 0.685114
O O17 0.831042 0.427954 0.500000
O O18 0.749035 0.197740 0.000000
#
# Coordination Sequence:
#
# PCOD9426714 Si02
#       7
#     8   8   8   8   8   8   8
#     4  10  21  38  61  88 119 156 201 251 302 360
#     4  11  23  38  59  87 121 162 206 254 309 366
#     4  11  23  40  63  89 120 156 202 256 307 365
#     4  12  25  41  63  91 125 164 204 253 311 370
#     4  10  20  34  52  81 122 159 195 241 299 367
#     4  11  21  34  56  85 118 157 196 242 303 362
#     4  10  22  42  67  93 121 159 206 258 310 363
#
# _framework density 19.821541
#
# number of rings (size 3 to 8) (size 9 to 14) (size 15 to 20)
#    0.000    1.286    2.857    3.429    0.000    5.429 
#    0.000    0.714    0.000    4.286    0.000    0.000 
#    0.000    0.000    0.000    0.000    0.000    0.000 
#
# Total GULP energy -312722.674905 kJ/mol
# GULP energy per Si atom -5584.333480 kJ/mol
# Density = 1.977643 g / cm^3
# Si number density = 19.821541 Si / 1000 Ang^3
#
#
#
# Elastic Constant Matrix: (Units=GPa)
#
#
# Indices 1 2 3 4 5 6 
#
# 1 75.3648 9.1172 19.8010 0.0000 0.0000 0.0000
# 2 9.1172 53.5086 17.0118 0.0000 0.0000 0.0000
# 3 19.8010 17.0118 45.6165 0.0000 0.0000 0.0000
# 4 0.0000 0.0000 0.0000 3.3528 0.0000 0.0000
# 5 0.0000 0.0000 0.0000 0.0000 17.5968 0.0000
# 6 0.0000 0.0000 0.0000 0.0000 0.0000 24.1433
#
#
#
# Elastic Compliance Matrix: (Units=1/GPa)
#
#
# Indices 1 2 3 4 5 6 
#
# 1 0.014991 -0.000551 -0.006302 0.000000 0.000000 0.000000
# 2 -0.000551 0.021223 -0.007676 0.000000 0.000000 0.000000
# 3 -0.006302 -0.007676 0.027520 0.000000 0.000000 0.000000
# 4 0.000000 0.000000 0.000000 0.298261 0.000000 0.000000
# 5 0.000000 0.000000 0.000000 0.000000 0.056829 0.000000
# 6 0.000000 0.000000 0.000000 0.000000 0.000000 0.041419
#
#
# Mechanical properties :
#
#
# Convention : Reuss Voigt Hill
#
# Bulk Modulus (GPa) = 28.83733 29.59446 29.21589
# Shear Modulus (GPa) = 9.98287 17.58923 13.78605
#
# Velocity S-wave (km/s) = 2.24662 2.98212 2.64011
# Velocity P-wave (km/s) = 4.61625 5.17883 4.90561
#
# Compressibility (1/GPa) = 0.03467727
#
# Stress axis : x y z
#
# Youngs Moduli (GPa) = 66.70604 47.11943 36.33744
#
# Poissons Ratio (x) = 0.02595 0.22899
# Poissons Ratio (y) = 0.03674 0.27891
# Poissons Ratio (z) = 0.42037 0.36167
#
# Static dielectric constant tensor:
#      x y z
#    x 1.751410 0.000000 0.000000 
#    y 0.000000 1.700290 0.000000 
#    z 0.000000 0.000000 1.665590 
# 
# From -- ./inp_files/8676.got.cif
#   From: 2010.05.17/outbox.cif.g08.bks.cpg/sg55_5_cif.got.tgz:8676.got - 2010.06.03 13:27:54.
