data_PCOD9426609
_publ_section_title
;
Structure prediction by ZEFSAII (Michael W. Deem and Ramdas Pophale) SiO2 
 PCOD9426609
Probable space group: P B A M
;
_chemical_formula_sum "Si O2"
_cell_formula_units_Z 40
_cell_length_a 19.502205
_cell_length_b 9.424419
_cell_length_c 10.474342
_cell_angle_alpha 90.000000
_cell_angle_beta 90.000000
_cell_angle_gamma 90.000000
_cell_volume 1925.152127
_symmetry_space_group_name_H-M "P B A M"
_symmetry_group_IT_number 55
_symmetry_cell_setting 'orthorhombic'
loop_
_space_group_symop_operation_xyz
x,y,z
-x,-y,z
1/2+x,1/2-y,-z
1/2-x,1/2+y,-z
-x,-y,-z
x,y,-z
1/2-x,1/2+y,z
1/2+x,1/2-y,z
loop_
_atom_site_type_symbol
_atom_site_label
_atom_site_fract_x
_atom_site_fract_y
_atom_site_fract_z
Si Si1 0.423596 0.564639 0.363440
Si Si2 0.664994 0.129991 0.151257
Si Si3 0.399757 0.344494 0.147344
Si Si4 0.022570 0.347768 0.262019
Si Si5 0.234470 0.648717 0.851276
O O1 0.500000 0.500000 0.370534
O O2 0.388505 0.535113 0.500000
O O3 0.395237 0.479844 0.240764
O O4 0.438947 0.731583 0.348682
O O5 0.584025 0.114973 0.165548
O O6 0.699957 0.271946 0.205594
O O7 0.705195 0.995103 0.207414
O O8 0.678203 0.133276 0.000000
O O9 0.459406 0.237343 0.197414
O O10 0.328365 0.259876 0.149943
O O11 0.414312 0.385385 0.000000
O O12 0.000000 0.500000 0.318079
O O13 0.250454 0.615830 0.000000
#
# Coordination Sequence:
#
# PCOD9426609 Si02
#       5
#     8   8   8   8   8
#     4   9  21  39  57  81 116 155 191 233 289 351
#     4  10  20  33  51  80 120 156 186 231 291 349
#     4  10  20  36  59  89 119 149 192 242 289 341
#     4  11  21  34  57  87 117 150 191 244 294 337
#     4   9  19  33  51  79 117 157 190 226 285 353
#
# _framework density 20.777578999999999
#
# number of rings (size 3 to 8) (size 9 to 14) (size 15 to 20)
#    0.000    2.200    2.000    0.600    2.800    5.600 
#    0.000    0.000    0.000    1.200    0.000    0.000 
#    0.000    0.000    0.000    0.000    0.000    0.000 
#
# Total GULP energy -222777.715124 kJ/mol
# GULP energy per Si atom -5569.442878 kJ/mol
# Density = 2.073029 g / cm^3
# Si number density = 20.777579 Si / 1000 Ang^3
#
#
#
# Elastic Constant Matrix: (Units=GPa)
#
#
# Indices 1 2 3 4 5 6 
#
# 1 66.2899 25.7236 -15.1365 0.0000 0.0000 0.0000
# 2 25.7236 154.4703 39.1032 0.0000 0.0000 0.0000
# 3 -15.1365 39.1032 67.5098 0.0000 0.0000 0.0000
# 4 0.0000 0.0000 0.0000 -5.7601 0.0000 0.0000
# 5 0.0000 0.0000 0.0000 0.0000 -6.1548 0.0000
# 6 0.0000 0.0000 0.0000 0.0000 0.0000 27.9229
#
#
#
# Elastic Compliance Matrix: (Units=1/GPa)
#
#
# Indices 1 2 3 4 5 6 
#
# 1 0.018563 -0.004857 0.006975 0.000000 0.000000 0.000000
# 2 -0.004857 0.008857 -0.006219 0.000000 0.000000 0.000000
# 3 0.006975 -0.006219 0.019979 0.000000 0.000000 0.000000
# 4 0.000000 0.000000 0.000000 -0.173607 0.000000 0.000000
# 5 0.000000 0.000000 0.000000 0.000000 -0.162475 0.000000
# 6 0.000000 0.000000 0.000000 0.000000 0.000000 0.035813
#
#
# Mechanical properties :
#
#
# Convention : Reuss Voigt Hill
#
# Bulk Modulus (GPa) = 25.51231 43.07227 34.29229
# Shear Modulus (GPa) = -21.58864 19.10690 -1.24087
#
# Velocity S-wave (km/s) = -3.22690 3.03577 -0.77364
# Velocity P-wave (km/s) = 1.25637 5.75004 3.96765
#
# Compressibility (1/GPa) = 0.03919677
#
# Stress axis : x y z
#
# Youngs Moduli (GPa) = 53.87154 112.90674 50.05302
#
# Poissons Ratio (x) = 0.54838 -0.34913
# Poissons Ratio (y) = 0.26165 0.31128
# Poissons Ratio (z) = -0.37576 0.70218
#
# Static dielectric constant tensor:
#      x y z
#    x 1.744680 0.000000 0.000000 
#    y 0.000000 1.818240 0.000000 
#    z 0.000000 0.000000 1.773230 
# 
# From -- ./inp_files/12059.got.cif
#   From: 2010.05.17/outbox.cif.g08.bks.cpg/sg55_7_cif.got.tgz:12059.got - 2010.06.03 13:27:54.
