data_PCOD9426107
_publ_section_title
;
Structure prediction by ZEFSAII (Michael W. Deem and Ramdas Pophale) SiO2 
 PCOD9426107
Probable space group: P B A M
;
_chemical_formula_sum "Si O2"
_cell_formula_units_Z 64
_cell_length_a 20.515771
_cell_length_b 19.970221
_cell_length_c 8.562464
_cell_angle_alpha 90.000000
_cell_angle_beta 90.000000
_cell_angle_gamma 90.000000
_cell_volume 3508.079868
_symmetry_space_group_name_H-M "P B A M"
_symmetry_group_IT_number 55
_symmetry_cell_setting 'orthorhombic'
loop_
_space_group_symop_operation_xyz
x,y,z
-x,-y,z
1/2+x,1/2-y,-z
1/2-x,1/2+y,-z
-x,-y,-z
x,y,-z
1/2-x,1/2+y,z
1/2+x,1/2-y,z
loop_
_atom_site_type_symbol
_atom_site_label
_atom_site_fract_x
_atom_site_fract_y
_atom_site_fract_z
Si Si1 0.068089 0.468045 0.313257
Si Si2 0.279348 0.748262 0.812157
Si Si3 0.012857 0.789123 0.811254
Si Si4 0.316271 0.596196 0.811170
Si Si5 0.039317 0.065769 0.191148
Si Si6 0.093394 0.321730 0.811384
Si Si7 0.141220 0.718118 0.684917
Si Si8 0.172165 0.571280 0.187466
O O1 0.069770 0.470814 0.500000
O O2 0.072483 0.391989 0.258082
O O3 0.127118 0.512078 0.247723
O O4 0.000000 0.500000 0.258551
O O5 0.309912 0.675226 0.776166
O O6 0.332984 0.802456 0.765939
O O7 0.209489 0.752408 0.732221
O O8 0.270041 0.750607 0.000000
O O9 0.080523 0.760139 0.748704
O O10 0.994947 0.864550 0.761308
O O11 0.955571 0.737723 0.764339
O O12 0.015313 0.789277 0.000000
O O13 0.385156 0.567428 0.755462
O O14 0.247539 0.565169 0.757628
O O15 0.317220 0.590635 0.000000
O O16 0.040086 0.065535 0.000000
O O17 0.000000 0.000000 0.241638
O O18 0.091662 0.325383 0.000000
O O19 0.136200 0.711844 0.500000
O O20 0.144890 0.643248 0.756668
O O21 0.172219 0.571791 0.000000
#
# Coordination Sequence:
#
# PCOD9426107 Si02
#       8
#     8   8   8   8   8   8   8   8
#     4  11  24  39  54  78 116 153 187 230 284 345
#     4   9  17  34  57  79 104 139 187 236 277 325
#     4  10  19  34  57  85 113 145 184 229 281 335
#     4   8  14  29  53  79 107 137 176 226 272 318
#     4   9  16  29  53  84 113 139 174 225 280 328
#     4  10  20  35  59  83 107 143 192 243 285 331
#     4  11  22  35  54  82 116 150 185 227 280 338
#     4  10  20  36  59  82 110 147 192 238 277 326
#
# _framework density 18.243597999999999
#
# number of rings (size 3 to 8) (size 9 to 14) (size 15 to 20)
#    0.000    2.250    1.250    3.375    0.000    4.000 
#    2.250    0.000    0.000    0.375    0.000    0.000 
#    0.000    0.000    0.000    0.000    0.000    0.000 
#
# Total GULP energy -357138.095547 kJ/mol
# GULP energy per Si atom -5580.282743 kJ/mol
# Density = 1.820207 g / cm^3
# Si number density = 18.243598 Si / 1000 Ang^3
#
#
#
# Elastic Constant Matrix: (Units=GPa)
#
#
# Indices 1 2 3 4 5 6 
#
# 1 145.0711 87.7771 25.8912 0.0000 0.0000 0.0000
# 2 87.7771 135.1854 29.5953 0.0000 0.0000 0.0000
# 3 25.8912 29.5953 20.2845 0.0000 0.0000 0.0000
# 4 0.0000 0.0000 0.0000 -0.2311 0.0000 0.0000
# 5 0.0000 0.0000 0.0000 0.0000 -0.9437 0.0000
# 6 0.0000 0.0000 0.0000 0.0000 0.0000 31.2454
#
#
#
# Elastic Compliance Matrix: (Units=1/GPa)
#
#
# Indices 1 2 3 4 5 6 
#
# 1 0.011786 -0.006405 -0.005698 0.000000 0.000000 0.000000
# 2 -0.006405 0.014350 -0.012761 0.000000 0.000000 0.000000
# 3 -0.005698 -0.012761 0.075190 0.000000 0.000000 0.000000
# 4 0.000000 0.000000 0.000000 -4.327971 0.000000 0.000000
# 5 0.000000 0.000000 0.000000 0.000000 -1.059647 0.000000
# 6 0.000000 0.000000 0.000000 0.000000 0.000000 0.032005
#
#
# Mechanical properties :
#
#
# Convention : Reuss Voigt Hill
#
# Bulk Modulus (GPa) = 19.38091 65.22982 42.30537
# Shear Modulus (GPa) = -0.96388 16.49928 7.76770
#
# Velocity S-wave (km/s) = -0.72766 3.01057 2.06567
# Velocity P-wave (km/s) = 3.15285 6.92223 5.37855
#
# Compressibility (1/GPa) = 0.05159716
#
# Stress axis : x y z
#
# Youngs Moduli (GPa) = 84.84946 69.68738 13.29958
#
# Poissons Ratio (x) = 0.44635 0.07578
# Poissons Ratio (y) = 0.54346 0.16972
# Poissons Ratio (z) = 0.48349 0.88929
#
# Static dielectric constant tensor:
#      x y z
#    x 1.632070 0.000000 0.000000 
#    y 0.000000 1.597970 0.000000 
#    z 0.000000 0.000000 1.615240 
# 
# From -- ./inp_files/7956.got.cif
#   From: 2010.05.17/outbox.cif.g08.bks.cpg/sg55_4_cif.got.tgz:7956.got - 2010.06.03 13:27:54.
