data_PCOD9426343
_publ_section_title
;
Structure prediction by ZEFSAII (Michael W. Deem and Ramdas Pophale) SiO2 
 PCOD9426343
Probable space group: P B A M
;
_chemical_formula_sum "Si O2"
_cell_formula_units_Z 40
_cell_length_a 8.534041
_cell_length_b 29.816715
_cell_length_c 8.072493
_cell_angle_alpha 90.000000
_cell_angle_beta 90.000000
_cell_angle_gamma 90.000000
_cell_volume 2054.102903
_symmetry_space_group_name_H-M "P B A M"
_symmetry_group_IT_number 55
_symmetry_cell_setting 'orthorhombic'
loop_
_space_group_symop_operation_xyz
x,y,z
-x,-y,z
1/2+x,1/2-y,-z
1/2-x,1/2+y,-z
-x,-y,-z
x,y,-z
1/2-x,1/2+y,z
1/2+x,1/2-y,z
loop_
_atom_site_type_symbol
_atom_site_label
_atom_site_fract_x
_atom_site_fract_y
_atom_site_fract_z
Si Si1 0.308331 0.702416 0.810032
Si Si2 0.691639 0.948296 0.000000
Si Si3 0.189460 0.608863 0.682955
Si Si4 0.345704 0.294273 0.305436
Si Si5 0.311532 0.889474 0.312258
Si Si6 0.308310 0.948331 0.000000
O O1 0.246623 0.659433 0.711435
O O2 0.245262 0.749126 0.739402
O O3 0.495218 0.703001 0.796868
O O4 0.256619 0.697776 0.000000
O O5 0.743687 0.922049 0.164969
O O6 0.500035 0.947883 0.000000
O O7 0.741262 0.999976 0.000000
O O8 0.239029 0.593172 0.500000
O O9 0.000343 0.609366 0.687213
O O10 0.387031 0.293015 0.500000
O O11 0.244074 0.338882 0.276910
O O12 0.259077 0.901372 0.500000
O O13 0.257014 0.922249 0.165908
#
# Coordination Sequence:
#
# PCOD9426343 Si02
#       6
#     8   4   8   8   8   4
#     4  12  24  37  57  85 114 149 191 230 277 332
#     4   9  18  34  52  89 110 147 182 231 284 337
#     4  10  19  36  58  82 115 150 187 231 277 331
#     4  11  23  39  57  81 114 151 189 228 277 332
#     4   9  20  35  57  84 111 149 189 227 277 334
#     4   9  18  32  58  79 120 141 180 235 286 327
#
# _framework density 19.473220999999999
#
# number of rings (size 3 to 8) (size 9 to 14) (size 15 to 20)
#    0.000    1.800    1.000    3.600    2.800    2.400 
#    0.000    4.000    0.000    2.400    0.000    4.200 
#    0.000    0.000    0.000    0.000    0.000    0.000 
#
# Total GULP energy -223412.978265 kJ/mol
# GULP energy per Si atom -5585.324457 kJ/mol
# Density = 1.942890 g / cm^3
# Si number density = 19.473221 Si / 1000 Ang^3
#
#
#
# Elastic Constant Matrix: (Units=GPa)
#
#
# Indices 1 2 3 4 5 6 
#
# 1 6.2048 9.7950 19.9337 0.0000 0.0000 0.0000
# 2 9.7950 153.6602 100.0208 0.0000 0.0000 0.0000
# 3 19.9337 100.0208 158.6150 0.0000 0.0000 0.0000
# 4 0.0000 0.0000 0.0000 15.4003 0.0000 0.0000
# 5 0.0000 0.0000 0.0000 0.0000 11.7975 0.0000
# 6 0.0000 0.0000 0.0000 0.0000 0.0000 18.6596
#
#
#
# Elastic Compliance Matrix: (Units=1/GPa)
#
#
# Indices 1 2 3 4 5 6 
#
# 1 0.276650 0.008475 -0.040111 0.000000 0.000000 0.000000
# 2 0.008475 0.011299 -0.008190 0.000000 0.000000 0.000000
# 3 -0.040111 -0.008190 0.016510 0.000000 0.000000 0.000000
# 4 0.000000 0.000000 0.000000 0.064934 0.000000 0.000000
# 5 0.000000 0.000000 0.000000 0.000000 0.084763 0.000000
# 6 0.000000 0.000000 0.000000 0.000000 0.000000 0.053592
#
#
# Mechanical properties :
#
#
# Convention : Reuss Voigt Hill
#
# Bulk Modulus (GPa) = 4.44830 64.21987 34.33409
# Shear Modulus (GPa) = 7.54904 21.75352 14.65128
#
# Velocity S-wave (km/s) = 1.97105 3.34593 2.74593
# Velocity P-wave (km/s) = 2.73301 6.92655 5.26529
#
# Compressibility (1/GPa) = 0.22480486
#
# Stress axis : x y z
#
# Youngs Moduli (GPa) = 3.61468 88.50688 60.56978
#
# Poissons Ratio (x) = -0.75006 2.42954
# Poissons Ratio (y) = -0.03063 0.49605
# Poissons Ratio (z) = 0.14499 0.72485
#
# Static dielectric constant tensor:
#      x y z
#    x 1.667950 0.000000 0.000000 
#    y 0.000000 1.639030 0.000000 
#    z 0.000000 0.000000 1.694980 
# 
# From -- ./inp_files/2392.got.cif
#   From: 2010.05.17/outbox.cif.g08.bks.cpg/sg55_2_cif.got.tgz:2392.got - 2010.06.03 13:27:54.
