data_PCOD9426984
_publ_section_title
;
Structure prediction by ZEFSAII (Michael W. Deem and Ramdas Pophale) SiO2 
 PCOD9426984
Probable space group: P B A M
;
_chemical_formula_sum "Si O2"
_cell_formula_units_Z 56
_cell_length_a 15.385723
_cell_length_b 21.272025
_cell_length_c 8.969319
_cell_angle_alpha 90.000000
_cell_angle_beta 90.000000
_cell_angle_gamma 90.000000
_cell_volume 2935.527913
_symmetry_space_group_name_H-M "P B A M"
_symmetry_group_IT_number 55
_symmetry_cell_setting 'orthorhombic'
loop_
_space_group_symop_operation_xyz
x,y,z
-x,-y,z
1/2+x,1/2-y,-z
1/2-x,1/2+y,-z
-x,-y,-z
x,y,-z
1/2-x,1/2+y,z
1/2+x,1/2-y,z
loop_
_atom_site_type_symbol
_atom_site_label
_atom_site_fract_x
_atom_site_fract_y
_atom_site_fract_z
Si Si1 0.566419 0.232614 0.173858
Si Si2 0.623115 0.347833 0.335925
Si Si3 0.134439 0.733579 0.178103
Si Si4 0.754312 0.022610 0.679049
Si Si5 0.179309 0.604925 0.668093
Si Si6 0.584495 0.459161 0.165134
Si Si7 0.776593 0.669842 0.677665
O O1 0.617683 0.296336 0.209366
O O2 0.466710 0.246270 0.219158
O O3 0.626007 0.184129 0.264042
O O4 0.566440 0.216399 0.000000
O O5 0.601645 0.322559 0.500000
O O6 0.718813 0.376925 0.341505
O O7 0.564126 0.404714 0.282958
O O8 0.144982 0.660598 0.227763
O O9 0.204371 0.781914 0.252204
O O10 0.144340 0.739323 0.000000
O O11 0.769249 0.016570 0.500000
O O12 0.738987 0.096037 0.710024
O O13 0.680839 0.968869 0.713182
O O14 0.837302 0.000702 0.772334
O O15 0.142340 0.610703 0.500000
O O16 0.500000 0.500000 0.151773
O O17 0.607651 0.433760 0.000000
O O18 0.772957 0.679701 0.500000
#
# Coordination Sequence:
#
# PCOD9426984 Si02
#       7
#     8   8   8   8   8   8   8
#     4  11  24  40  59  87 122 158 199 248 304 362
#     4  10  20  35  57  82 112 152 195 241 291 347
#     4  11  24  39  60  89 122 159 200 247 301 364
#     4   9  21  39  59  84 114 152 200 250 302 357
#     4   9  18  37  61  85 113 150 196 243 292 352
#     4  10  21  34  51  80 117 155 195 237 292 358
#     4  11  23  41  64  91 121 157 201 253 307 359
#
# _framework density 19.076636000000001
#
# number of rings (size 3 to 8) (size 9 to 14) (size 15 to 20)
#    0.000    1.857    1.429    3.000    2.000    6.857 
#    0.000    0.714    0.000    4.286    0.000    0.000 
#    0.000    0.000    0.000    0.000    0.000    0.000 
#
# Total GULP energy -311776.261582 kJ/mol
# GULP energy per Si atom -5567.433243 kJ/mol
# Density = 1.903322 g / cm^3
# Si number density = 19.076636 Si / 1000 Ang^3
#
#
#
# Elastic Constant Matrix: (Units=GPa)
#
#
# Indices 1 2 3 4 5 6 
#
# 1 38.2226 22.3109 21.0243 0.0000 0.0000 0.0000
# 2 22.3109 103.4204 27.5451 0.0000 0.0000 0.0000
# 3 21.0243 27.5451 44.6291 0.0000 0.0000 0.0000
# 4 0.0000 0.0000 0.0000 24.2111 0.0000 0.0000
# 5 0.0000 0.0000 0.0000 0.0000 23.8813 0.0000
# 6 0.0000 0.0000 0.0000 0.0000 0.0000 19.0018
#
#
#
# Elastic Compliance Matrix: (Units=1/GPa)
#
#
# Indices 1 2 3 4 5 6 
#
# 1 0.036617 -0.003955 -0.014809 0.000000 0.000000 0.000000
# 2 -0.003955 0.011999 -0.005542 0.000000 0.000000 0.000000
# 3 -0.014809 -0.005542 0.032804 0.000000 0.000000 0.000000
# 4 0.000000 0.000000 0.000000 0.041303 0.000000 0.000000
# 5 0.000000 0.000000 0.000000 0.000000 0.041874 0.000000
# 6 0.000000 0.000000 0.000000 0.000000 0.000000 0.052627
#
#
# Mechanical properties :
#
#
# Convention : Reuss Voigt Hill
#
# Bulk Modulus (GPa) = 30.48139 36.44808 33.46473
# Shear Modulus (GPa) = 18.06549 21.11164 19.58857
#
# Velocity S-wave (km/s) = 3.08067 3.33028 3.20790
# Velocity P-wave (km/s) = 5.35417 5.82540 5.59475
#
# Compressibility (1/GPa) = 0.03280691
#
# Stress axis : x y z
#
# Youngs Moduli (GPa) = 27.30999 83.34252 30.48421
#
# Poissons Ratio (x) = 0.32963 0.45143
# Poissons Ratio (y) = 0.10802 0.16895
# Poissons Ratio (z) = 0.40442 0.46191
#
# Static dielectric constant tensor:
#      x y z
#    x 1.673070 0.000000 0.000000 
#    y 0.000000 1.724450 0.000000 
#    z 0.000000 0.000000 1.702220 
# 
# From -- ./inp_files/6006.got.cif
#   From: 2010.05.17/outbox.cif.g08.bks.cpg/sg55_4_cif.got.tgz:6006.got - 2010.06.03 13:27:54.
