data_PCOD9426331
_publ_section_title
;
Structure prediction by ZEFSAII (Michael W. Deem and Ramdas Pophale) SiO2 
 PCOD9426331
Probable space group: P B A M
;
_chemical_formula_sum "Si O2"
_cell_formula_units_Z 40
_cell_length_a 27.228600
_cell_length_b 10.380270
_cell_length_c 7.544860
_cell_angle_alpha 90.000000
_cell_angle_beta 90.000000
_cell_angle_gamma 90.000000
_cell_volume 2132.480888
_symmetry_space_group_name_H-M "P B A M"
_symmetry_group_IT_number 55
_symmetry_cell_setting 'orthorhombic'
loop_
_space_group_symop_operation_xyz
x,y,z
-x,-y,z
1/2+x,1/2-y,-z
1/2-x,1/2+y,-z
-x,-y,-z
x,y,-z
1/2-x,1/2+y,z
1/2+x,1/2-y,z
loop_
_atom_site_type_symbol
_atom_site_label
_atom_site_fract_x
_atom_site_fract_y
_atom_site_fract_z
Si Si1 0.052768 0.332530 0.500000
Si Si2 0.560696 0.857856 0.500000
Si Si3 0.705007 0.030434 0.797115
Si Si4 0.371000 0.751362 0.216199
Si Si5 0.349517 0.224075 0.700791
Si Si6 0.813385 0.000553 0.794453
O O1 0.060028 0.487399 0.500000
O O2 0.079711 0.277038 0.673862
O O3 0.994589 0.308418 0.500000
O O4 0.593366 0.810045 0.667166
O O5 0.678134 0.892990 0.793362
O O6 0.758925 0.016255 0.714264
O O7 0.667638 0.137291 0.726227
O O8 0.713152 0.072949 0.000000
O O9 0.346882 0.615651 0.272260
O O10 0.378059 0.756341 0.000000
O O11 0.328918 0.228903 0.500000
O O12 0.340122 0.362493 0.782879
O O13 0.805341 0.965045 0.000000
#
# Coordination Sequence:
#
# PCOD9426331 Si02
#       6
#     4   4   8   8   8   8
#     4  11  20  43  64  80 117 142 187 259 290 326
#     4   9  22  39  60  84 107 144 189 243 300 334
#     4  10  19  36  57  80 116 155 189 228 274 333
#     4  10  21  37  59  88 113 151 197 228 285 343
#     4  10  20  36  53  85 111 144 192 227 281 337
#     4  10  21  36  55  82 121 156 183 227 282 341
#
# _framework density 18.757494999999999
#
# number of rings (size 3 to 8) (size 9 to 14) (size 15 to 20)
#    0.600    1.400    2.000    1.800    1.400    4.000 
#    3.600    6.000    0.000    2.400    0.000    0.000 
#    0.000    0.000    0.000    0.000    0.000    0.000 
#
# Total GULP energy -222861.856085 kJ/mol
# GULP energy per Si atom -5571.546402 kJ/mol
# Density = 1.871480 g / cm^3
# Si number density = 18.757495 Si / 1000 Ang^3
#
#
#
# Elastic Constant Matrix: (Units=GPa)
#
#
# Indices 1 2 3 4 5 6 
#
# 1 170.6944 60.8489 21.7519 0.0000 0.0000 0.0000
# 2 60.8489 121.9885 -6.0001 0.0000 0.0000 0.0000
# 3 21.7519 -6.0001 57.6329 0.0000 0.0000 0.0000
# 4 0.0000 0.0000 0.0000 38.6761 0.0000 0.0000
# 5 0.0000 0.0000 0.0000 0.0000 -3.3158 0.0000
# 6 0.0000 0.0000 0.0000 0.0000 0.0000 8.3468
#
#
#
# Elastic Compliance Matrix: (Units=1/GPa)
#
#
# Indices 1 2 3 4 5 6 
#
# 1 0.007712 -0.004011 -0.003328 0.000000 0.000000 0.000000
# 2 -0.004011 0.010325 0.002589 0.000000 0.000000 0.000000
# 3 -0.003328 0.002589 0.018877 0.000000 0.000000 0.000000
# 4 0.000000 0.000000 0.000000 0.025856 0.000000 0.000000
# 5 0.000000 0.000000 0.000000 0.000000 -0.301586 0.000000
# 6 0.000000 0.000000 0.000000 0.000000 0.000000 0.119807
#
#
# Mechanical properties :
#
#
# Convention : Reuss Voigt Hill
#
# Bulk Modulus (GPa) = 36.47783 55.94637 46.21210
# Shear Modulus (GPa) = -49.81538 26.98908 -11.41315
#
# Velocity S-wave (km/s) = -5.15900 3.79732 -2.46937
# Velocity P-wave (km/s) = 3.99971 7.00836 4.06936
#
# Compressibility (1/GPa) = 0.02741391
#
# Stress axis : x y z
#
# Youngs Moduli (GPa) = 129.66351 96.84886 52.97482
#
# Poissons Ratio (x) = 0.38843 0.17632
# Poissons Ratio (y) = 0.52004 -0.13713
# Poissons Ratio (z) = 0.43156 -0.25071
#
# Static dielectric constant tensor:
#      x y z
#    x 1.645390 0.000000 0.000000 
#    y 0.000000 1.634980 0.000000 
#    z 0.000000 0.000000 1.674710 
# 
# From -- ./inp_files/10003.got.cif
#   From: 2010.05.17/outbox.cif.g08.bks.cpg/sg55_6_cif.got.tgz:10003.got - 2010.06.03 13:27:54.
