data_PCOD9426823
_publ_section_title
;
Structure prediction by ZEFSAII (Michael W. Deem and Ramdas Pophale) SiO2 
 PCOD9426823
Probable space group: P B A M
;
_chemical_formula_sum "Si O2"
_cell_formula_units_Z 40
_cell_length_a 9.349976
_cell_length_b 19.803957
_cell_length_c 10.101426
_cell_angle_alpha 90.000000
_cell_angle_beta 90.000000
_cell_angle_gamma 90.000000
_cell_volume 1870.445926
_symmetry_space_group_name_H-M "P B A M"
_symmetry_group_IT_number 55
_symmetry_cell_setting 'orthorhombic'
loop_
_space_group_symop_operation_xyz
x,y,z
-x,-y,z
1/2+x,1/2-y,-z
1/2-x,1/2+y,-z
-x,-y,-z
x,y,-z
1/2-x,1/2+y,z
1/2+x,1/2-y,z
loop_
_atom_site_type_symbol
_atom_site_label
_atom_site_fract_x
_atom_site_fract_y
_atom_site_fract_z
Si Si1 0.920387 0.843903 0.151928
Si Si2 0.861067 0.043191 0.151485
Si Si3 0.327520 0.756363 0.352895
Si Si4 0.363669 0.912964 0.651489
Si Si5 0.187409 0.622932 0.348867
O O1 0.919002 0.774139 0.232459
O O2 0.806431 0.888438 0.236825
O O3 0.071520 0.881332 0.151401
O O4 0.874116 0.836133 0.000000
O O5 0.728304 0.042645 0.249309
O O6 0.823774 0.024811 0.000000
O O7 0.000000 0.000000 0.190234
O O8 0.391970 0.744703 0.500000
O O9 0.306622 0.835698 0.341875
O O10 0.190766 0.705670 0.350542
O O11 0.348161 0.936331 0.500000
O O12 0.532268 0.906531 0.680666
O O13 0.227586 0.602889 0.500000
#
# Coordination Sequence:
#
# PCOD9426823 Si02
#       5
#     8   8   8   8   8
#     4   9  18  33  54  77 104 141 184 221 265 328
#     4  10  23  41  56  76 110 150 190 232 274 317
#     4   8  17  31  52  79 112 141 168 217 278 325
#     4  10  20  34  56  83 108 140 184 224 270 331
#     4   8  17  33  52  79 110 137 170 219 274 324
#
# _framework density 21.385275
#
# number of rings (size 3 to 8) (size 9 to 14) (size 15 to 20)
#    1.200    1.800    0.000    0.000    2.800    3.600 
#    0.000    1.000    0.000    6.000    0.000    0.000 
#    0.000    0.000    0.000    0.000    0.000    0.000 
#
# Total GULP energy -222724.806745 kJ/mol
# GULP energy per Si atom -5568.120169 kJ/mol
# Density = 2.133660 g / cm^3
# Si number density = 21.385275 Si / 1000 Ang^3
#
#
#
# Elastic Constant Matrix: (Units=GPa)
#
#
# Indices 1 2 3 4 5 6 
#
# 1 78.2154 7.0930 70.0928 0.0000 0.0000 0.0000
# 2 7.0930 51.3783 21.0975 0.0000 0.0000 0.0000
# 3 70.0928 21.0975 132.7609 0.0000 0.0000 0.0000
# 4 0.0000 0.0000 0.0000 16.1696 0.0000 0.0000
# 5 0.0000 0.0000 0.0000 0.0000 15.7235 0.0000
# 6 0.0000 0.0000 0.0000 0.0000 0.0000 31.5012
#
#
#
# Elastic Compliance Matrix: (Units=1/GPa)
#
#
# Indices 1 2 3 4 5 6 
#
# 1 0.024469 0.002061 -0.013246 0.000000 0.000000 0.000000
# 2 0.002061 0.020996 -0.004425 0.000000 0.000000 0.000000
# 3 -0.013246 -0.004425 0.015229 0.000000 0.000000 0.000000
# 4 0.000000 0.000000 0.000000 0.061844 0.000000 0.000000
# 5 0.000000 0.000000 0.000000 0.000000 0.063599 0.000000
# 6 0.000000 0.000000 0.000000 0.000000 0.000000 0.031745
#
#
# Mechanical properties :
#
#
# Convention : Reuss Voigt Hill
#
# Bulk Modulus (GPa) = 33.92791 50.99124 42.45958
# Shear Modulus (GPa) = 19.31051 23.61695 21.46373
#
# Velocity S-wave (km/s) = 3.00823 3.32679 3.17151
# Velocity P-wave (km/s) = 5.28823 6.21712 5.77139
#
# Compressibility (1/GPa) = 0.02947426
#
# Stress axis : x y z
#
# Youngs Moduli (GPa) = 40.86816 47.62841 65.66410
#
# Poissons Ratio (x) = -0.09817 0.86980
# Poissons Ratio (y) = -0.08424 0.29055
# Poissons Ratio (z) = 0.54135 0.21075
#
# Static dielectric constant tensor:
#      x y z
#    x 1.761920 0.000000 0.000000 
#    y 0.000000 1.864390 0.000000 
#    z 0.000000 0.000000 1.750780 
# 
# From -- ./inp_files/12297.got.cif
#   From: 2010.05.17/outbox.cif.g08.bks.cpg/sg55_7_cif.got.tgz:12297.got - 2010.06.03 13:27:54.
