data_PCOD9426797
_publ_section_title
;
Structure prediction by ZEFSAII (Michael W. Deem and Ramdas Pophale) SiO2 
 PCOD9426797
Probable space group: P B A M
;
_chemical_formula_sum "Si O2"
_cell_formula_units_Z 48
_cell_length_a 7.807714
_cell_length_b 16.492158
_cell_length_c 15.903129
_cell_angle_alpha 90.000000
_cell_angle_beta 90.000000
_cell_angle_gamma 90.000000
_cell_volume 2047.783150
_symmetry_space_group_name_H-M "P B A M"
_symmetry_group_IT_number 55
_symmetry_cell_setting 'orthorhombic'
loop_
_space_group_symop_operation_xyz
x,y,z
-x,-y,z
1/2+x,1/2-y,-z
1/2-x,1/2+y,-z
-x,-y,-z
x,y,-z
1/2-x,1/2+y,z
1/2+x,1/2-y,z
loop_
_atom_site_type_symbol
_atom_site_label
_atom_site_fract_x
_atom_site_fract_y
_atom_site_fract_z
Si Si1 0.775991 0.034217 0.000000
Si Si2 0.733037 0.790345 0.500000
Si Si3 0.873456 0.120261 0.166308
Si Si4 0.092807 0.629098 0.334114
Si Si5 0.725884 0.538558 0.334920
Si Si6 0.489165 0.785468 0.166683
Si Si7 0.598025 0.619995 0.500000
Si Si8 0.410959 0.129044 0.000000
O O1 0.867603 0.065398 0.083794
O O2 0.590360 0.079148 0.000000
O O3 0.735439 0.938939 0.000000
O O4 0.635928 0.818818 0.584049
O O5 0.735929 0.693309 0.500000
O O6 0.916190 0.834572 0.500000
O O7 0.866394 0.068936 0.251045
O O8 0.696277 0.172408 0.165758
O O9 0.017929 0.188596 0.166018
O O10 0.229165 0.556087 0.329261
O O11 0.083063 0.683828 0.251016
O O12 0.908608 0.585280 0.340160
O O13 0.627026 0.566298 0.417736
O O14 0.585250 0.816544 0.083146
#
# Coordination Sequence:
#
# PCOD9426797 Si02
#       8
#     4   4   8   8   8   8   4   4
#     4   9  17  32  55  81 108 141 184 228 268 319
#     4  12  25  40  59  83 111 145 185 228 277 330
#     4  10  20  34  55  82 111 145 183 224 271 323
#     4  10  21  38  59  83 112 146 184 227 276 329
#     4  10  21  38  59  83 112 146 184 227 276 329
#     4  10  20  34  55  82 111 145 183 224 271 323
#     4  12  25  40  59  83 111 145 185 228 277 330
#     4   9  17  32  55  81 108 141 184 228 268 319
#
# _framework density 23.439982000000001
#
# number of rings (size 3 to 8) (size 9 to 14) (size 15 to 20)
#    0.000    1.833    0.000    4.500    0.000   10.667 
#    0.000    0.000    0.000    4.000    0.000    0.000 
#    0.000    0.000    0.000    0.000    0.000    0.000 
#
# Total GULP energy -269028.077543 kJ/mol
# GULP energy per Si atom -5604.751615 kJ/mol
# Density = 2.338663 g / cm^3
# Si number density = 23.439982 Si / 1000 Ang^3
#
#
#
# Elastic Constant Matrix: (Units=GPa)
#
#
# Indices 1 2 3 4 5 6 
#
# 1 92.2897 28.2113 38.5014 0.0000 0.0000 0.0000
# 2 28.2113 89.7360 36.3440 0.0000 0.0000 0.0000
# 3 38.5014 36.3440 188.0524 0.0000 0.0000 0.0000
# 4 0.0000 0.0000 0.0000 32.8995 0.0000 0.0000
# 5 0.0000 0.0000 0.0000 0.0000 42.3623 0.0000
# 6 0.0000 0.0000 0.0000 0.0000 0.0000 48.7580
#
#
#
# Elastic Compliance Matrix: (Units=1/GPa)
#
#
# Indices 1 2 3 4 5 6 
#
# 1 0.012628 -0.003171 -0.001973 0.000000 0.000000 0.000000
# 2 -0.003171 0.012886 -0.001841 0.000000 0.000000 0.000000
# 3 -0.001973 -0.001841 0.006077 0.000000 0.000000 0.000000
# 4 0.000000 0.000000 0.000000 0.030396 0.000000 0.000000
# 5 0.000000 0.000000 0.000000 0.000000 0.023606 0.000000
# 6 0.000000 0.000000 0.000000 0.000000 0.000000 0.020509
#
#
# Mechanical properties :
#
#
# Convention : Reuss Voigt Hill
#
# Bulk Modulus (GPa) = 56.74768 64.02130 60.38449
# Shear Modulus (GPa) = 39.69958 42.60540 41.15249
#
# Velocity S-wave (km/s) = 4.11989 4.26800 4.19460
# Velocity P-wave (km/s) = 6.84789 7.18748 7.01974
#
# Compressibility (1/GPa) = 0.01762186
#
# Stress axis : x y z
#
# Youngs Moduli (GPa) = 79.19122 77.60096 164.54486
#
# Poissons Ratio (x) = 0.24607 0.32457
# Poissons Ratio (y) = 0.25112 0.30297
# Poissons Ratio (z) = 0.15621 0.14288
#
# Static dielectric constant tensor:
#      x y z
#    x 1.932150 0.000000 0.000000 
#    y 0.000000 1.818570 0.000000 
#    z 0.000000 0.000000 1.796260 
# 
# From -- ./inp_files/17431.got.cif
#   From: 2010.05.17/outbox.cif.g08.bks.cpg/sg55_9_cif.got.tgz:17431.got - 2010.06.03 13:27:54.
