data_PCOD9426590
_publ_section_title
;
Structure prediction by ZEFSAII (Michael W. Deem and Ramdas Pophale) SiO2 
 PCOD9426590
Probable space group: P B A M
;
_chemical_formula_sum "Si O2"
_cell_formula_units_Z 64
_cell_length_a 27.923069
_cell_length_b 9.609004
_cell_length_c 14.642780
_cell_angle_alpha 90.000000
_cell_angle_beta 90.000000
_cell_angle_gamma 90.000000
_cell_volume 3928.846498
_symmetry_space_group_name_H-M "P B A M"
_symmetry_group_IT_number 55
_symmetry_cell_setting 'orthorhombic'
loop_
_space_group_symop_operation_xyz
x,y,z
-x,-y,z
1/2+x,1/2-y,-z
1/2-x,1/2+y,-z
-x,-y,-z
x,y,-z
1/2-x,1/2+y,z
1/2+x,1/2-y,z
loop_
_atom_site_type_symbol
_atom_site_label
_atom_site_fract_x
_atom_site_fract_y
_atom_site_fract_z
Si Si1 0.401864 0.040182 0.892768
Si Si2 0.506309 0.264980 0.601940
Si Si3 0.920777 0.029234 0.601971
Si Si4 0.041278 0.313458 0.789588
Si Si5 0.047388 0.825767 0.106661
Si Si6 0.202916 0.439487 0.889357
Si Si7 0.704780 0.384517 0.110462
Si Si8 0.607892 0.447640 0.790694
O O1 0.413293 0.202851 0.886583
O O2 0.440725 0.953929 0.835890
O O3 0.348476 0.001112 0.861384
O O4 0.406607 0.000073 0.000000
O O5 0.508682 0.203671 0.500000
O O6 0.542810 0.397103 0.603495
O O7 0.454261 0.335245 0.615424
O O8 0.521288 0.171686 0.687061
O O9 0.899664 0.035096 0.500000
O O10 0.886857 0.005394 0.687922
O O11 0.086305 0.207681 0.787740
O O12 0.000270 0.237035 0.848357
O O13 0.067875 0.957422 0.160191
O O14 0.039527 0.857317 0.000000
O O15 0.207888 0.278074 0.863313
O O16 0.248012 0.531785 0.859973
O O17 0.203041 0.443610 0.000000
O O18 0.656915 0.447566 0.153838
O O19 0.701118 0.391746 0.000000
#
# Coordination Sequence:
#
# PCOD9426590 Si02
#       8
#     8   8   8   8   8   8   8   8
#     4  10  21  36  49  65  98 140 173 200 242 299
#     4   8  14  26  46  70  96 126 162 206 245 282
#     4   8  14  27  46  70  99 126 157 201 248 293
#     4  11  19  32  50  71 100 133 171 202 246 290
#     4  11  23  32  44  68 103 142 170 196 236 294
#     4   9  19  35  52  70  94 128 164 206 249 286
#     4  10  20  33  51  73  99 126 161 207 250 291
#     4  11  20  31  50  78  99 124 166 212 247 286
#
# _framework density 16.289769
#
# number of rings (size 3 to 8) (size 9 to 14) (size 15 to 20)
#    0.000    2.250    2.500    2.250    1.750    3.000 
#    0.000    0.000    0.000    2.250    0.000    1.750 
#    0.000    0.000    0.000    0.000    0.000    0.000 
#
# Total GULP energy -356907.666770 kJ/mol
# GULP energy per Si atom -5576.682293 kJ/mol
# Density = 1.625269 g / cm^3
# Si number density = 16.289769 Si / 1000 Ang^3
#
#
#
# Elastic Constant Matrix: (Units=GPa)
#
#
# Indices 1 2 3 4 5 6 
#
# 1 65.1442 10.5905 12.0395 0.0000 0.0000 0.0000
# 2 10.5905 37.6868 13.7363 0.0000 0.0000 0.0000
# 3 12.0395 13.7363 76.9523 0.0000 0.0000 0.0000
# 4 0.0000 0.0000 0.0000 11.5005 0.0000 0.0000
# 5 0.0000 0.0000 0.0000 0.0000 10.3160 0.0000
# 6 0.0000 0.0000 0.0000 0.0000 0.0000 25.8654
#
#
#
# Elastic Compliance Matrix: (Units=1/GPa)
#
#
# Indices 1 2 3 4 5 6 
#
# 1 0.016330 -0.003912 -0.001857 0.000000 0.000000 0.000000
# 2 -0.003912 0.029318 -0.004621 0.000000 0.000000 0.000000
# 3 -0.001857 -0.004621 0.014110 0.000000 0.000000 0.000000
# 4 0.000000 0.000000 0.000000 0.086953 0.000000 0.000000
# 5 0.000000 0.000000 0.000000 0.000000 0.096937 0.000000
# 6 0.000000 0.000000 0.000000 0.000000 0.000000 0.038662
#
#
# Mechanical properties :
#
#
# Convention : Reuss Voigt Hill
#
# Bulk Modulus (GPa) = 25.65530 28.05733 26.85632
# Shear Modulus (GPa) = 15.81862 19.09749 17.45806
#
# Velocity S-wave (km/s) = 3.11959 3.42769 3.27726
# Velocity P-wave (km/s) = 5.36277 5.73818 5.55365
#
# Compressibility (1/GPa) = 0.03897830
#
# Stress axis : x y z
#
# Youngs Moduli (GPa) = 61.23825 34.10841 70.86943
#
# Poissons Ratio (x) = 0.13344 0.13157
# Poissons Ratio (y) = 0.23957 0.32751
# Poissons Ratio (z) = 0.11369 0.15763
#
# Static dielectric constant tensor:
#      x y z
#    x 1.529460 0.000000 0.000000 
#    y 0.000000 1.551880 0.000000 
#    z 0.000000 0.000000 1.556560 
# 
# From -- ./inp_files/17797.got.cif
#   From: 2010.05.17/outbox.cif.g08.bks.cpg/sg55_9_cif.got.tgz:17797.got - 2010.06.03 13:27:54.
