data_PCOD9426994
_publ_section_title
;
Structure prediction by ZEFSAII (Michael W. Deem and Ramdas Pophale) SiO2 
 PCOD9426994
Probable space group: P B A M
;
_chemical_formula_sum "Si O2"
_cell_formula_units_Z 64
_cell_length_a 31.755711
_cell_length_b 11.463837
_cell_length_c 8.484289
_cell_angle_alpha 90.000000
_cell_angle_beta 90.000000
_cell_angle_gamma 90.000000
_cell_volume 3088.640037
_symmetry_space_group_name_H-M "P B A M"
_symmetry_group_IT_number 55
_symmetry_cell_setting 'orthorhombic'
loop_
_space_group_symop_operation_xyz
x,y,z
-x,-y,z
1/2+x,1/2-y,-z
1/2-x,1/2+y,-z
-x,-y,-z
x,y,-z
1/2-x,1/2+y,z
1/2+x,1/2-y,z
loop_
_atom_site_type_symbol
_atom_site_label
_atom_site_fract_x
_atom_site_fract_y
_atom_site_fract_z
Si Si1 0.176923 0.776861 0.181282
Si Si2 0.516581 0.875205 0.315241
Si Si3 0.383714 0.100147 0.680260
Si Si4 0.611979 0.551193 0.314707
Si Si5 0.977735 0.120054 0.187218
Si Si6 0.257213 0.092082 0.187779
Si Si7 0.678336 0.096673 0.685146
Si Si8 0.831730 0.855967 0.309972
O O1 0.142159 0.674320 0.194068
O O2 0.154317 0.874477 0.283918
O O3 0.219219 0.712484 0.239555
O O4 0.182381 0.815113 0.000000
O O5 0.504479 0.872833 0.500000
O O6 0.567032 0.885654 0.302519
O O7 0.505994 0.746125 0.248757
O O8 0.500000 0.000000 0.248884
O O9 0.372501 0.139259 0.500000
O O10 0.366236 0.969915 0.694333
O O11 0.602460 0.549992 0.500000
O O12 0.571662 0.605109 0.229912
O O13 0.626455 0.423766 0.256574
O O14 0.982518 0.121952 0.000000
O O15 0.000000 0.000000 0.247611
O O16 0.286821 0.984419 0.234817
O O17 0.211495 0.082091 0.261502
O O18 0.254148 0.097290 0.000000
O O19 0.689613 0.104212 0.500000
O O20 0.673172 0.225148 0.751815
O O21 0.834183 0.853100 0.500000
#
# Coordination Sequence:
#
# PCOD9426994 Si02
#       8
#     8   8   8   8   8   8   8   8
#     4  10  20  35  57  84 114 151 194 240 291 353
#     4  10  21  37  62  97 128 159 205 259 316 377
#     4   9  17  33  58  84 111 147 189 237 293 352
#     4  11  23  39  62  90 118 156 206 254 306 368
#     4  11  25  44  65  92 129 171 215 263 323 389
#     4  10  22  37  56  84 117 155 197 243 299 356
#     4   9  19  37  57  79 111 150 195 245 296 355
#     4  10  23  39  57  85 119 157 201 249 303 360
#
# _framework density 20.721094000000001
#
# number of rings (size 3 to 8) (size 9 to 14) (size 15 to 20)
#    0.000    2.000    1.250    1.500    1.750    5.250 
#    0.000    2.500    0.000    3.000    0.000    0.000 
#    0.000    0.000    0.000    0.000    0.000    0.000 
#
# Total GULP energy -356947.501233 kJ/mol
# GULP energy per Si atom -5577.304707 kJ/mol
# Density = 2.067393 g / cm^3
# Si number density = 20.721094 Si / 1000 Ang^3
#
#
#
# Elastic Constant Matrix: (Units=GPa)
#
#
# Indices 1 2 3 4 5 6 
#
# 1 39.4035 35.9334 6.3824 0.0000 0.0000 0.0000
# 2 35.9334 138.9739 16.2257 0.0000 0.0000 0.0000
# 3 6.3824 16.2257 19.2764 0.0000 0.0000 0.0000
# 4 0.0000 0.0000 0.0000 8.3358 0.0000 0.0000
# 5 0.0000 0.0000 0.0000 0.0000 5.4029 0.0000
# 6 0.0000 0.0000 0.0000 0.0000 0.0000 24.1203
#
#
#
# Elastic Compliance Matrix: (Units=1/GPa)
#
#
# Indices 1 2 3 4 5 6 
#
# 1 0.033515 -0.008173 -0.004217 0.000000 0.000000 0.000000
# 2 -0.008173 0.009973 -0.005689 0.000000 0.000000 0.000000
# 3 -0.004217 -0.005689 0.058061 0.000000 0.000000 0.000000
# 4 0.000000 0.000000 0.000000 0.119965 0.000000 0.000000
# 5 0.000000 0.000000 0.000000 0.000000 0.185085 0.000000
# 6 0.000000 0.000000 0.000000 0.000000 0.000000 0.041459
#
#
# Mechanical properties :
#
#
# Convention : Reuss Voigt Hill
#
# Bulk Modulus (GPa) = 15.29245 34.97077 25.13161
# Shear Modulus (GPa) = 9.88116 16.84596 13.36356
#
# Velocity S-wave (km/s) = 2.18609 2.85438 2.54229
# Velocity P-wave (km/s) = 3.71055 5.27038 4.55769
#
# Compressibility (1/GPa) = 0.06539173
#
# Stress axis : x y z
#
# Youngs Moduli (GPa) = 29.83731 100.26993 17.22313
#
# Poissons Ratio (x) = 0.81954 0.07263
# Poissons Ratio (y) = 0.24387 0.09797
# Poissons Ratio (z) = 0.12583 0.57039
#
# Static dielectric constant tensor:
#      x y z
#    x 1.723410 0.000000 0.000000 
#    y 0.000000 1.835170 0.000000 
#    z 0.000000 0.000000 1.722940 
# 
# From -- ./inp_files/10734.got.cif
#   From: 2010.05.17/outbox.cif.g08.bks.cpg/sg55_6_cif.got.tgz:10734.got - 2010.06.03 13:27:54.
