data_PCOD9426079
_publ_section_title
;
Structure prediction by ZEFSAII (Michael W. Deem and Ramdas Pophale) SiO2 
 PCOD9426079
Probable space group: P B A M
;
_chemical_formula_sum "Si O2"
_cell_formula_units_Z 40
_cell_length_a 13.987537
_cell_length_b 14.698283
_cell_length_c 7.337903
_cell_angle_alpha 90.000000
_cell_angle_beta 90.000000
_cell_angle_gamma 90.000000
_cell_volume 1508.619857
_symmetry_space_group_name_H-M "P B A M"
_symmetry_group_IT_number 55
_symmetry_cell_setting 'orthorhombic'
loop_
_space_group_symop_operation_xyz
x,y,z
-x,-y,z
1/2+x,1/2-y,-z
1/2-x,1/2+y,-z
-x,-y,-z
x,y,-z
1/2-x,1/2+y,z
1/2+x,1/2-y,z
loop_
_atom_site_type_symbol
_atom_site_label
_atom_site_fract_x
_atom_site_fract_y
_atom_site_fract_z
Si Si1 0.192241 0.068205 0.707535
Si Si2 0.394222 0.389776 0.722705
Si Si3 0.502995 0.220411 0.719353
Si Si4 0.211652 0.272618 0.277857
Si Si5 0.902222 0.458173 0.208794
O O1 0.159447 0.083926 0.500000
O O2 0.207018 0.168162 0.787491
O O3 0.299370 0.025390 0.703329
O O4 0.121455 0.992594 0.787048
O O5 0.395349 0.394854 0.500000
O O6 0.480981 0.323963 0.776330
O O7 0.300740 0.332260 0.780339
O O8 0.498018 0.219054 0.500000
O O9 0.608227 0.188421 0.773471
O O10 0.424454 0.149638 0.785100
O O11 0.218122 0.270331 0.500000
O O12 0.000000 0.500000 0.289851
O O13 0.895155 0.487872 0.000000
#
# Coordination Sequence:
#
# PCOD9426079 Si02
#       5
#     8   8   8   8   8
#     4  10  19  34  57  80 110 144 178 224 276 326
#     4   9  17  30  51  82 111 138 179 223 266 326
#     4  10  19  34  57  80 110 144 178 224 276 326
#     4   9  17  30  51  82 111 138 179 223 266 326
#     4  11  23  37  53  79 111 142 189 234 269 319
#
# _framework density 26.514302000000001
#
# number of rings (size 3 to 8) (size 9 to 14) (size 15 to 20)
#    0.000    2.200    2.000    1.800    0.000    4.000 
#    0.000    6.000    0.000    0.000    0.000    2.800 
#    0.000    0.000    0.000    0.000    0.000    0.000 
#
# Total GULP energy -223756.773343 kJ/mol
# GULP energy per Si atom -5593.919334 kJ/mol
# Density = 2.645395 g / cm^3
# Si number density = 26.514302 Si / 1000 Ang^3
#
#
#
# Elastic Constant Matrix: (Units=GPa)
#
#
# Indices 1 2 3 4 5 6 
#
# 1 82.9914 -9.3461 -4.9580 0.0000 0.0000 0.0000
# 2 -9.3461 105.9889 -0.2226 0.0000 0.0000 0.0000
# 3 -4.9580 -0.2226 107.5339 0.0000 0.0000 0.0000
# 4 0.0000 0.0000 0.0000 26.0629 0.0000 0.0000
# 5 0.0000 0.0000 0.0000 0.0000 -60.2006 0.0000
# 6 0.0000 0.0000 0.0000 0.0000 0.0000 47.5554
#
#
#
# Elastic Compliance Matrix: (Units=1/GPa)
#
#
# Indices 1 2 3 4 5 6 
#
# 1 0.012205 0.001077 0.000565 0.000000 0.000000 0.000000
# 2 0.001077 0.009530 0.000069 0.000000 0.000000 0.000000
# 3 0.000565 0.000069 0.009326 0.000000 0.000000 0.000000
# 4 0.000000 0.000000 0.000000 0.038369 0.000000 0.000000
# 5 0.000000 0.000000 0.000000 0.000000 -0.016611 0.000000
# 6 0.000000 0.000000 0.000000 0.000000 0.000000 0.021028
#
#
# Mechanical properties :
#
#
# Convention : Reuss Voigt Hill
#
# Bulk Modulus (GPa) = 28.99926 29.71787 29.35856
# Shear Modulus (GPa) = 61.03738 23.41960 42.22849
#
# Velocity S-wave (km/s) = 4.80318 2.97523 3.99515
# Velocity P-wave (km/s) = 6.45923 4.79950 5.69021
#
# Compressibility (1/GPa) = 0.03448364
#
# Stress axis : x y z
#
# Youngs Moduli (GPa) = 81.93686 104.93068 107.23194
#
# Poissons Ratio (x) = -0.11305 -0.06058
# Poissons Ratio (y) = -0.08828 -0.00744
# Poissons Ratio (z) = -0.04629 -0.00728
#
# Static dielectric constant tensor:
#      x y z
#    x 2.031950 0.000000 0.000000 
#    y 0.000000 2.108860 0.000000 
#    z 0.000000 0.000000 2.022690 
# 
# From -- ./inp_files/5185.got.cif
#   From: 2010.05.17/outbox.cif.g08.bks.cpg/sg55_3_cif.got.tgz:5185.got - 2010.06.03 13:27:54.
