data_PCOD9426172
_publ_section_title
;
Structure prediction by ZEFSAII (Michael W. Deem and Ramdas Pophale) SiO2 
 PCOD9426172
Probable space group: P B A M
;
_chemical_formula_sum "Si O2"
_cell_formula_units_Z 56
_cell_length_a 11.006505
_cell_length_b 21.466088
_cell_length_c 10.618926
_cell_angle_alpha 90.000000
_cell_angle_beta 90.000000
_cell_angle_gamma 90.000000
_cell_volume 2508.897594
_symmetry_space_group_name_H-M "P B A M"
_symmetry_group_IT_number 55
_symmetry_cell_setting 'orthorhombic'
loop_
_space_group_symop_operation_xyz
x,y,z
-x,-y,z
1/2+x,1/2-y,-z
1/2-x,1/2+y,-z
-x,-y,-z
x,y,-z
1/2-x,1/2+y,z
1/2+x,1/2-y,z
loop_
_atom_site_type_symbol
_atom_site_label
_atom_site_fract_x
_atom_site_fract_y
_atom_site_fract_z
Si Si1 0.176356 0.164661 0.296749
Si Si2 0.116958 0.456971 0.000000
Si Si3 0.869959 0.967387 0.000000
Si Si4 0.935904 0.162337 0.139165
Si Si5 0.393467 0.798708 0.638289
Si Si6 0.868773 0.967178 0.706285
Si Si7 0.775873 0.585048 0.753958
Si Si8 0.902967 0.301029 0.144538
O O1 0.181988 0.233643 0.358995
O O2 0.165500 0.097274 0.362542
O O3 0.288973 0.162655 0.200375
O O4 0.044529 0.169712 0.233695
O O5 0.125850 0.421352 0.866499
O O6 0.000000 0.500000 0.000000
O O7 0.242660 0.495465 0.000000
O O8 0.870154 0.944929 0.853797
O O9 0.000000 0.000000 0.000000
O O10 0.845703 0.108261 0.175887
O O11 0.865525 0.227952 0.137199
O O12 0.986684 0.151787 0.000000
O O13 0.453477 0.801631 0.500000
O O14 0.311753 0.860143 0.659115
O O15 0.488524 0.802514 0.754083
O O16 0.764096 0.019547 0.693967
O O17 0.000000 0.000000 0.676979
O O18 0.934249 0.319374 0.000000
#
# Coordination Sequence:
#
# PCOD9426172 Si02
#       8
#     8   4   4   8   8   8   8   8
#     4  11  22  39  66 103 137 176 229 291 353 420
#     4  10  22  36  63 100 144 182 231 288 352 423
#     4   8  18  32  51  86 134 184 216 265 341 422
#     4  10  19  34  62  99 139 181 216 278 355 419
#     4  11  27  48  70  97 138 193 238 286 354 430
#     4  10  20  34  61  98 139 177 220 277 349 426
#     4  11  21  41  66  95 143 187 228 277 352 421
#     4  10  23  41  66 103 139 175 232 299 352 411
#
# _framework density 22.320558999999999
#
# number of rings (size 3 to 8) (size 9 to 14) (size 15 to 20)
#    0.000    1.714    3.571    0.429    3.000    3.429 
#    0.000    0.714    0.000    3.857    0.000    0.000 
#    0.000    0.000    0.000    0.000    0.000    0.000 
#
# Total GULP energy -312022.471495 kJ/mol
# GULP energy per Si atom -5571.829848 kJ/mol
# Density = 2.226976 g / cm^3
# Si number density = 22.320559 Si / 1000 Ang^3
#
#
#
# Elastic Constant Matrix: (Units=GPa)
#
#
# Indices 1 2 3 4 5 6 
#
# 1 55.8125 55.5314 24.6920 0.0000 0.0000 0.0000
# 2 55.5314 161.7747 39.1219 0.0000 0.0000 0.0000
# 3 24.6920 39.1219 116.2407 0.0000 0.0000 0.0000
# 4 0.0000 0.0000 0.0000 -44.5544 0.0000 0.0000
# 5 0.0000 0.0000 0.0000 0.0000 -10.1518 0.0000
# 6 0.0000 0.0000 0.0000 0.0000 0.0000 44.1438
#
#
#
# Elastic Compliance Matrix: (Units=1/GPa)
#
#
# Indices 1 2 3 4 5 6 
#
# 1 0.028119 -0.008935 -0.002966 0.000000 0.000000 0.000000
# 2 -0.008935 0.009568 -0.001322 0.000000 0.000000 0.000000
# 3 -0.002966 -0.001322 0.009678 0.000000 0.000000 0.000000
# 4 0.000000 0.000000 0.000000 -0.022444 0.000000 0.000000
# 5 0.000000 0.000000 0.000000 0.000000 -0.098505 0.000000
# 6 0.000000 0.000000 0.000000 0.000000 0.000000 0.022653
#
#
# Mechanical properties :
#
#
# Convention : Reuss Voigt Hill
#
# Bulk Modulus (GPa) = 47.80372 63.61318 55.70845
# Shear Modulus (GPa) = -285.53884 12.18637 -136.67624
#
# Velocity S-wave (km/s) = -11.32273 2.33914 -7.83366
# Velocity P-wave (km/s) = 12.22601 5.98808 7.53718
#
# Compressibility (1/GPa) = 0.02091887
#
# Stress axis : x y z
#
# Youngs Moduli (GPa) = 35.56257 104.51163 103.32817
#
# Poissons Ratio (x) = 0.93382 0.30647
# Poissons Ratio (y) = 0.31776 0.13663
# Poissons Ratio (z) = 0.10548 0.13819
#
# Static dielectric constant tensor:
#      x y z
#    x 1.771470 0.000000 0.000000 
#    y 0.000000 1.945420 0.000000 
#    z 0.000000 0.000000 1.863450 
# 
# From -- ./inp_files/13415.got.cif
#   From: 2010.05.17/outbox.cif.g08.bks.cpg/sg55_7_cif.got.tgz:13415.got - 2010.06.03 13:27:54.
