data_PCOD9426307
_publ_section_title
;
Structure prediction by ZEFSAII (Michael W. Deem and Ramdas Pophale) SiO2 
 PCOD9426307
Probable space group: P B A M
;
_chemical_formula_sum "Si O2"
_cell_formula_units_Z 32
_cell_length_a 8.231069
_cell_length_b 22.861380
_cell_length_c 7.896274
_cell_angle_alpha 90.000000
_cell_angle_beta 90.000000
_cell_angle_gamma 90.000000
_cell_volume 1485.870275
_symmetry_space_group_name_H-M "P B A M"
_symmetry_group_IT_number 55
_symmetry_cell_setting 'orthorhombic'
loop_
_space_group_symop_operation_xyz
x,y,z
-x,-y,z
1/2+x,1/2-y,-z
1/2-x,1/2+y,-z
-x,-y,-z
x,y,-z
1/2-x,1/2+y,z
1/2+x,1/2-y,z
loop_
_atom_site_type_symbol
_atom_site_label
_atom_site_fract_x
_atom_site_fract_y
_atom_site_fract_z
Si Si1 0.326722 0.145944 0.813872
Si Si2 0.636844 0.081961 0.693279
Si Si3 0.843226 0.162101 0.500000
Si Si4 0.201913 0.215695 0.500000
Si Si5 0.670374 0.471589 0.294122
O O1 0.505305 0.117641 0.795822
O O2 0.292901 0.191624 0.665628
O O3 0.207663 0.090940 0.783410
O O4 0.303931 0.171229 0.000000
O O5 0.568359 0.075518 0.500000
O O6 0.799776 0.120246 0.658398
O O7 0.690851 0.018522 0.754042
O O8 0.713092 0.214529 0.500000
O O9 0.020430 0.189526 0.500000
O O10 0.500000 0.500000 0.244342
O O11 0.670817 0.466297 0.500000
#
# Coordination Sequence:
#
# PCOD9426307 Si02
#       5
#     8   8   4   4   8
#     4  12  24  38  63  94 128 167 202 251 308 368
#     4   9  19  38  62  94 115 161 207 242 308 362
#     4  10  22  41  74  89 114 168 202 258 318 352
#     4  12  22  45  66  91 124 156 212 256 306 370
#     4  10  19  35  62  92 125 163 204 255 305 364
#
# _framework density 21.536201999999999
#
# number of rings (size 3 to 8) (size 9 to 14) (size 15 to 20)
#    0.750    0.750    2.500    3.750    0.000    4.500 
#    0.000    8.750    0.000    0.000    0.000    0.000 
#    0.000    0.000    0.000    0.000    0.000    0.000 
#
# Total GULP energy -178830.045749 kJ/mol
# GULP energy per Si atom -5588.438930 kJ/mol
# Density = 2.148718 g / cm^3
# Si number density = 21.536202 Si / 1000 Ang^3
#
#
#
# Elastic Constant Matrix: (Units=GPa)
#
#
# Indices 1 2 3 4 5 6 
#
# 1 69.2489 -19.3716 9.0107 0.0000 0.0000 0.0000
# 2 -19.3716 64.8233 12.5026 0.0000 0.0000 0.0000
# 3 9.0107 12.5026 88.2873 0.0000 0.0000 0.0000
# 4 0.0000 0.0000 0.0000 -5.5453 0.0000 0.0000
# 5 0.0000 0.0000 0.0000 0.0000 -0.2219 0.0000
# 6 0.0000 0.0000 0.0000 0.0000 0.0000 37.0274
#
#
#
# Elastic Compliance Matrix: (Units=1/GPa)
#
#
# Indices 1 2 3 4 5 6 
#
# 1 0.016242 0.005319 -0.002411 0.000000 0.000000 0.000000
# 2 0.005319 0.017601 -0.003035 0.000000 0.000000 0.000000
# 3 -0.002411 -0.003035 0.012003 0.000000 0.000000 0.000000
# 4 0.000000 0.000000 0.000000 -0.180333 0.000000 0.000000
# 5 0.000000 0.000000 0.000000 0.000000 -4.507268 0.000000
# 6 0.000000 0.000000 0.000000 0.000000 0.000000 0.027007
#
#
# Mechanical properties :
#
#
# Convention : Reuss Voigt Hill
#
# Bulk Modulus (GPa) = 21.93410 25.18256 23.55833
# Shear Modulus (GPa) = -1.08712 20.93325 9.92306
#
# Velocity S-wave (km/s) = -0.71126 3.12108 2.14887
# Velocity P-wave (km/s) = 3.08745 4.97058 4.13757
#
# Compressibility (1/GPa) = 0.04559110
#
# Stress axis : x y z
#
# Youngs Moduli (GPa) = 61.56793 56.81354 83.31552
#
# Poissons Ratio (x) = -0.30218 0.20087
# Poissons Ratio (y) = -0.32747 0.25290
# Poissons Ratio (z) = 0.14843 0.17245
#
# Static dielectric constant tensor:
#      x y z
#    x 1.828560 0.000000 0.000000 
#    y 0.000000 1.732350 0.000000 
#    z 0.000000 0.000000 1.802400 
# 
# From -- ./inp_files/2070.got.cif
#   From: 2010.05.17/outbox.cif.g08.bks.cpg/sg55_2_cif.got.tgz:2070.got - 2010.06.03 13:27:54.
