data_PCOD9426985
_publ_section_title
;
Structure prediction by ZEFSAII (Michael W. Deem and Ramdas Pophale) SiO2 
 PCOD9426985
Probable space group: P B A M
;
_chemical_formula_sum "Si O2"
_cell_formula_units_Z 32
_cell_length_a 14.719246
_cell_length_b 5.127285
_cell_length_c 19.392594
_cell_angle_alpha 90.000000
_cell_angle_beta 90.000000
_cell_angle_gamma 90.000000
_cell_volume 1463.554594
_symmetry_space_group_name_H-M "P B A M"
_symmetry_group_IT_number 55
_symmetry_cell_setting 'orthorhombic'
loop_
_space_group_symop_operation_xyz
x,y,z
-x,-y,z
1/2+x,1/2-y,-z
1/2-x,1/2+y,-z
-x,-y,-z
x,y,-z
1/2-x,1/2+y,z
1/2+x,1/2-y,z
loop_
_atom_site_type_symbol
_atom_site_label
_atom_site_fract_x
_atom_site_fract_y
_atom_site_fract_z
Si Si1 0.111073 0.482485 0.422214
Si Si2 0.608831 0.519735 0.656019
Si Si3 0.806727 0.235699 0.794381
Si Si4 0.063057 0.746513 0.078176
O O1 0.137478 0.413249 0.500000
O O2 0.141606 0.768434 0.399594
O O3 0.000000 0.500000 0.421175
O O4 0.141553 0.265545 0.367071
O O5 0.500000 0.500000 0.653494
O O6 0.634641 0.635503 0.729932
O O7 0.778139 0.537458 0.791128
O O8 0.859650 0.206248 0.865935
O O9 0.000000 0.500000 0.097408
O O10 0.097712 0.700888 0.000000
O O11 0.000000 0.000000 0.077119
#
# Coordination Sequence:
#
# PCOD9426985 Si02
#       4
#     8   8   8   8
#     4   9  17  31  55  85 110 139 192 255 300 338
#     4  10  20  35  57  82 112 153 197 242 292 350
#     4  12  25  39  59  88 125 161 195 242 294 352
#     4  10  22  42  67  92 119 154 198 244 290 348
#
# _framework density 21.864574999999999
#
# number of rings (size 3 to 8) (size 9 to 14) (size 15 to 20)
#    0.000    1.750    0.000    4.500    0.000    7.000 
#    0.000    0.000    0.000   15.000    0.000    0.000 
#    0.000    0.000    0.000    0.000    0.000    0.000 
#
# Total GULP energy -178856.917246 kJ/mol
# GULP energy per Si atom -5589.278664 kJ/mol
# Density = 2.181481 g / cm^3
# Si number density = 21.864575 Si / 1000 Ang^3
#
#
#
# Elastic Constant Matrix: (Units=GPa)
#
#
# Indices 1 2 3 4 5 6 
#
# 1 36.5945 8.3724 25.2893 0.0000 0.0000 0.0000
# 2 8.3724 105.5235 26.4285 0.0000 0.0000 0.0000
# 3 25.2893 26.4285 123.1555 0.0000 0.0000 0.0000
# 4 0.0000 0.0000 0.0000 25.0865 0.0000 0.0000
# 5 0.0000 0.0000 0.0000 0.0000 -25.5832 0.0000
# 6 0.0000 0.0000 0.0000 0.0000 0.0000 22.9322
#
#
#
# Elastic Compliance Matrix: (Units=1/GPa)
#
#
# Indices 1 2 3 4 5 6 
#
# 1 0.031934 -0.000942 -0.006355 0.000000 0.000000 0.000000
# 2 -0.000942 0.010043 -0.001962 0.000000 0.000000 0.000000
# 3 -0.006355 -0.001962 0.009846 0.000000 0.000000 0.000000
# 4 0.000000 0.000000 0.000000 0.039862 0.000000 0.000000
# 5 0.000000 0.000000 0.000000 0.000000 -0.039088 0.000000
# 6 0.000000 0.000000 0.000000 0.000000 0.000000 0.043607
#
#
# Mechanical properties :
#
#
# Convention : Reuss Voigt Hill
#
# Bulk Modulus (GPa) = 30.02600 42.82822 36.42711
# Shear Modulus (GPa) = 39.73853 18.16600 28.95227
#
# Velocity S-wave (km/s) = 4.26782 2.88556 3.64285
# Velocity P-wave (km/s) = 6.16833 5.54368 5.86433
#
# Compressibility (1/GPa) = 0.03330447
#
# Stress axis : x y z
#
# Youngs Moduli (GPa) = 31.31457 99.57583 101.56607
#
# Poissons Ratio (x) = 0.09380 0.64549
# Poissons Ratio (y) = 0.02950 0.19924
# Poissons Ratio (z) = 0.19901 0.19533
#
# Static dielectric constant tensor:
#      x y z
#    x 1.811280 0.000000 0.000000 
#    y 0.000000 1.725070 0.000000 
#    z 0.000000 0.000000 1.780300 
# 
# From -- ./inp_files/21414.got.cif
#   From: 2010.05.17/outbox.cif.g08.bks.cpg/sg55_11_cif.got.tgz:21414.got - 2010.06.03 13:27:54.
