data_PCOD9426210
_publ_section_title
;
Structure prediction by ZEFSAII (Michael W. Deem and Ramdas Pophale) SiO2 
 PCOD9426210
Probable space group: P B A M
;
_chemical_formula_sum "Si O2"
_cell_formula_units_Z 64
_cell_length_a 12.926078
_cell_length_b 28.197003
_cell_length_c 9.111771
_cell_angle_alpha 90.000000
_cell_angle_beta 90.000000
_cell_angle_gamma 90.000000
_cell_volume 3321.027862
_symmetry_space_group_name_H-M "P B A M"
_symmetry_group_IT_number 55
_symmetry_cell_setting 'orthorhombic'
loop_
_space_group_symop_operation_xyz
x,y,z
-x,-y,z
1/2+x,1/2-y,-z
1/2-x,1/2+y,-z
-x,-y,-z
x,y,-z
1/2-x,1/2+y,z
1/2+x,1/2-y,z
loop_
_atom_site_type_symbol
_atom_site_label
_atom_site_fract_x
_atom_site_fract_y
_atom_site_fract_z
Si Si1 0.467176 0.119044 0.325304
Si Si2 0.353234 0.674839 0.330678
Si Si3 0.415077 0.563757 0.329664
Si Si4 0.691813 0.965320 0.675996
Si Si5 0.056466 0.803400 0.825940
Si Si6 0.147836 0.440068 0.823823
Si Si7 0.855887 0.297883 0.826323
Si Si8 0.119486 0.910590 0.824944
O O1 0.482072 0.122339 0.500000
O O2 0.369120 0.083803 0.299746
O O3 0.565478 0.095001 0.248860
O O4 0.439378 0.169596 0.256380
O O5 0.331840 0.686335 0.500000
O O6 0.381574 0.619140 0.323008
O O7 0.452739 0.701463 0.267781
O O8 0.254850 0.686409 0.233278
O O9 0.429984 0.551139 0.500000
O O10 0.311841 0.537455 0.273985
O O11 0.524513 0.560993 0.248105
O O12 0.691241 0.973748 0.500000
O O13 0.634308 0.007263 0.759902
O O14 0.127133 0.757883 0.799043
O O15 0.105527 0.854580 0.790101
O O16 0.031038 0.804394 0.000000
O O17 0.265453 0.425900 0.782226
O O18 0.138237 0.439268 0.000000
O O19 0.864052 0.306247 0.000000
O O20 0.110096 0.916023 0.000000
#
# Coordination Sequence:
#
# PCOD9426210 Si02
#       8
#     8   8   8   8   8   8   8   8
#     4  11  23  41  61  83 116 154 197 244 296 352
#     4  10  19  35  57  83 114 147 188 240 290 338
#     4   9  18  35  59  84 111 146 192 240 285 341
#     4  10  21  39  60  84 115 154 194 242 299 350
#     4   9  20  38  58  82 112 152 194 232 287 349
#     4  11  24  39  57  86 121 156 196 242 293 351
#     4  11  22  36  59  88 116 150 194 241 293 352
#     4   9  20  39  58  80 116 155 190 237 292 346
#
# _framework density 19.271142000000001
#
# number of rings (size 3 to 8) (size 9 to 14) (size 15 to 20)
#    0.000    2.000    1.250    1.875    0.000    7.000 
#    0.000    5.000    0.000    0.000    0.000    0.000 
#    0.000    0.000    0.000    0.000    0.000    0.000 
#
# Total GULP energy -357428.235556 kJ/mol
# GULP energy per Si atom -5584.816181 kJ/mol
# Density = 1.922728 g / cm^3
# Si number density = 19.271142 Si / 1000 Ang^3
#
#
#
# Elastic Constant Matrix: (Units=GPa)
#
#
# Indices 1 2 3 4 5 6 
#
# 1 91.9609 10.7718 31.6064 0.0000 0.0000 0.0000
# 2 10.7718 49.2335 24.3238 0.0000 0.0000 0.0000
# 3 31.6064 24.3238 41.5811 0.0000 0.0000 0.0000
# 4 0.0000 0.0000 0.0000 23.1922 0.0000 0.0000
# 5 0.0000 0.0000 0.0000 0.0000 18.7677 0.0000
# 6 0.0000 0.0000 0.0000 0.0000 0.0000 24.9628
#
#
#
# Elastic Compliance Matrix: (Units=1/GPa)
#
#
# Indices 1 2 3 4 5 6 
#
# 1 0.015098 0.003328 -0.013423 0.000000 0.000000 0.000000
# 2 0.003328 0.029301 -0.019670 0.000000 0.000000 0.000000
# 3 -0.013423 -0.019670 0.045759 0.000000 0.000000 0.000000
# 4 0.000000 0.000000 0.000000 0.043118 0.000000 0.000000
# 5 0.000000 0.000000 0.000000 0.000000 0.053283 0.000000
# 6 0.000000 0.000000 0.000000 0.000000 0.000000 0.040060
#
#
# Mechanical properties :
#
#
# Convention : Reuss Voigt Hill
#
# Bulk Modulus (GPa) = 32.64983 35.13106 33.89045
# Shear Modulus (GPa) = 16.87147 21.12276 18.99712
#
# Velocity S-wave (km/s) = 2.96206 3.31431 3.14312
# Velocity P-wave (km/s) = 5.35514 5.73721 5.54947
#
# Compressibility (1/GPa) = 0.03062803
#
# Stress axis : x y z
#
# Youngs Moduli (GPa) = 66.23513 34.12821 21.85358
#
# Poissons Ratio (x) = -0.11359 0.29334
# Poissons Ratio (y) = -0.22046 0.42987
# Poissons Ratio (z) = 0.88908 0.67132
#
# Static dielectric constant tensor:
#      x y z
#    x 1.665110 0.000000 0.000000 
#    y 0.000000 1.668150 0.000000 
#    z 0.000000 0.000000 1.641650 
# 
# From -- ./inp_files/4521.got.cif
#   From: 2010.05.17/outbox.cif.g08.bks.cpg/sg55_3_cif.got.tgz:4521.got - 2010.06.03 13:27:54.
