data_PCOD9426646
_publ_section_title
;
Structure prediction by ZEFSAII (Michael W. Deem and Ramdas Pophale) SiO2 
 PCOD9426646
Probable space group: P B A M
;
_chemical_formula_sum "Si O2"
_cell_formula_units_Z 40
_cell_length_a 21.863933
_cell_length_b 7.901282
_cell_length_c 10.497602
_cell_angle_alpha 90.000000
_cell_angle_beta 90.000000
_cell_angle_gamma 90.000000
_cell_volume 1813.493291
_symmetry_space_group_name_H-M "P B A M"
_symmetry_group_IT_number 55
_symmetry_cell_setting 'orthorhombic'
loop_
_space_group_symop_operation_xyz
x,y,z
-x,-y,z
1/2+x,1/2-y,-z
1/2-x,1/2+y,-z
-x,-y,-z
x,y,-z
1/2-x,1/2+y,z
1/2+x,1/2-y,z
loop_
_atom_site_type_symbol
_atom_site_label
_atom_site_fract_x
_atom_site_fract_y
_atom_site_fract_z
Si Si1 0.413029 0.807425 0.248897
Si Si2 0.651162 0.824837 0.760158
Si Si3 0.844604 0.767329 0.500000
Si Si4 0.345703 0.703181 0.000000
Si Si5 0.712324 0.888687 0.500000
Si Si6 0.275749 0.058849 0.000000
Si Si7 0.468524 0.316863 0.851637
O O1 0.386671 0.721721 0.375501
O O2 0.386419 0.713822 0.124715
O O3 0.485578 0.798475 0.230886
O O4 0.386183 0.997233 0.246217
O O5 0.686277 0.801792 0.627679
O O6 0.699442 0.848324 0.873909
O O7 0.599340 0.689710 0.794802
O O8 0.785694 0.887580 0.500000
O O9 0.813787 0.579623 0.500000
O O10 0.297147 0.553937 0.000000
O O11 0.304815 0.873337 0.000000
O O12 0.500000 0.500000 0.848459
O O13 0.465302 0.259855 0.000000
#
# Coordination Sequence:
#
# PCOD9426646 Si02
#       7
#     8   8   4   4   4   4   8
#     4  10  21  38  59  83 114 154 192 230 284 345
#     4  10  21  38  59  83 114 154 192 230 284 345
#     4  10  22  39  60  87 119 154 192 234 283 340
#     4  10  20  33  54  81 109 146 190 232 279 332
#     4  10  22  39  60  87 119 154 192 234 283 340
#     4  10  20  33  54  81 109 146 190 232 279 332
#     4  11  23  38  59  88 116 146 191 246 294 335
#
# _framework density 22.056878999999999
#
# number of rings (size 3 to 8) (size 9 to 14) (size 15 to 20)
#    0.000    1.800    2.000    1.800    0.000    4.800 
#    0.000    4.000    0.000    0.000    0.000    0.000 
#    0.000    0.000    0.000    0.000    0.000    0.000 
#
# Total GULP energy -223788.463524 kJ/mol
# GULP energy per Si atom -5594.711588 kJ/mol
# Density = 2.200668 g / cm^3
# Si number density = 22.056879 Si / 1000 Ang^3
#
#
#
# Elastic Constant Matrix: (Units=GPa)
#
#
# Indices 1 2 3 4 5 6 
#
# 1 68.6173 11.8449 31.8287 0.0000 0.0000 0.0000
# 2 11.8449 42.5706 18.6508 0.0000 0.0000 0.0000
# 3 31.8287 18.6508 166.3414 0.0000 0.0000 0.0000
# 4 0.0000 0.0000 0.0000 -36.5242 0.0000 0.0000
# 5 0.0000 0.0000 0.0000 0.0000 21.9319 0.0000
# 6 0.0000 0.0000 0.0000 0.0000 0.0000 40.1172
#
#
#
# Elastic Compliance Matrix: (Units=1/GPa)
#
#
# Indices 1 2 3 4 5 6 
#
# 1 0.016438 -0.003361 -0.002768 0.000000 0.000000 0.000000
# 2 -0.003361 0.025391 -0.002204 0.000000 0.000000 0.000000
# 3 -0.002768 -0.002204 0.006789 0.000000 0.000000 0.000000
# 4 0.000000 0.000000 0.000000 -0.027379 0.000000 0.000000
# 5 0.000000 0.000000 0.000000 0.000000 0.045596 0.000000
# 6 0.000000 0.000000 0.000000 0.000000 0.000000 0.024927
#
#
# Mechanical properties :
#
#
# Convention : Reuss Voigt Hill
#
# Bulk Modulus (GPa) = 31.29767 44.68644 37.99206
# Shear Modulus (GPa) = 41.98937 19.45199 30.72068
#
# Velocity S-wave (km/s) = 4.36786 2.97290 3.73606
# Velocity P-wave (km/s) = 6.29745 5.66461 5.98940
#
# Compressibility (1/GPa) = 0.03195126
#
# Stress axis : x y z
#
# Youngs Moduli (GPa) = 60.83496 39.38394 147.30623
#
# Poissons Ratio (x) = 0.13236 0.40782
# Poissons Ratio (y) = 0.20445 0.32464
# Poissons Ratio (z) = 0.16842 0.08680
#
# Static dielectric constant tensor:
#      x y z
#    x 1.773990 0.000000 0.000000 
#    y 0.000000 1.858730 0.000000 
#    z 0.000000 0.000000 1.758150 
# 
# From -- ./inp_files/12104.got.cif
#   From: 2010.05.17/outbox.cif.g08.bks.cpg/sg55_7_cif.got.tgz:12104.got - 2010.06.03 13:27:54.
