data_PCOD9426133
_publ_section_title
;
Structure prediction by ZEFSAII (Michael W. Deem and Ramdas Pophale) SiO2 
 PCOD9426133
Probable space group: P B A M
;
_chemical_formula_sum "Si O2"
_cell_formula_units_Z 64
_cell_length_a 16.901739
_cell_length_b 20.848160
_cell_length_c 8.708247
_cell_angle_alpha 90.000000
_cell_angle_beta 90.000000
_cell_angle_gamma 90.000000
_cell_volume 3068.526380
_symmetry_space_group_name_H-M "P B A M"
_symmetry_group_IT_number 55
_symmetry_cell_setting 'orthorhombic'
loop_
_space_group_symop_operation_xyz
x,y,z
-x,-y,z
1/2+x,1/2-y,-z
1/2-x,1/2+y,-z
-x,-y,-z
x,y,-z
1/2-x,1/2+y,z
1/2+x,1/2-y,z
loop_
_atom_site_type_symbol
_atom_site_label
_atom_site_fract_x
_atom_site_fract_y
_atom_site_fract_z
Si Si1 0.144802 0.481813 0.816003
Si Si2 0.466114 0.881238 0.324947
Si Si3 0.621564 0.354981 0.685031
Si Si4 0.451761 0.349624 0.814705
Si Si5 0.714593 0.611585 0.816411
Si Si6 0.790112 0.391205 0.317230
Si Si7 0.098638 0.705726 0.181854
Si Si8 0.181662 0.283413 0.675847
O O1 0.069567 0.446430 0.743055
O O2 0.223256 0.442046 0.763000
O O3 0.158599 0.553701 0.761492
O O4 0.139011 0.478383 0.000000
O O5 0.495040 0.889581 0.500000
O O6 0.530847 0.845780 0.222688
O O7 0.391745 0.832655 0.327890
O O8 0.615631 0.354218 0.500000
O O9 0.536284 0.370971 0.751796
O O10 0.697831 0.397183 0.728292
O O11 0.646754 0.283201 0.735906
O O12 0.375869 0.390923 0.761875
O O13 0.432241 0.275823 0.768464
O O14 0.455083 0.350813 0.000000
O O15 0.751171 0.680394 0.770851
O O16 0.713092 0.607689 0.000000
O O17 0.795434 0.396733 0.500000
O O18 0.824491 0.322315 0.266651
O O19 0.113180 0.707869 0.000000
O O20 0.208863 0.273635 0.500000
#
# Coordination Sequence:
#
# PCOD9426133 Si02
#       8
#     8   8   8   8   8   8   8   8
#     4  10  21  39  60  81 112 150 195 240 281 331
#     4  10  19  34  58  85 116 150 185 227 278 334
#     4  10  21  37  56  81 113 148 186 230 281 338
#     4  10  21  36  57  87 118 146 182 228 280 340
#     4   9  19  35  56  82 110 144 185 230 278 330
#     4  11  24  40  58  81 112 151 194 237 282 334
#     4  11  22  36  57  88 121 149 184 228 282 343
#     4   9  17  31  53  81 110 142 179 220 274 334
#
# _framework density 20.856918
#
# number of rings (size 3 to 8) (size 9 to 14) (size 15 to 20)
#    0.000    2.000    1.250    2.250    0.000    4.000 
#    0.000    3.125    0.000    3.750    0.000    0.000 
#    0.000    0.000    0.000    0.000    0.000    0.000 
#
# Total GULP energy -357483.242392 kJ/mol
# GULP energy per Si atom -5585.675662 kJ/mol
# Density = 2.080945 g / cm^3
# Si number density = 20.856918 Si / 1000 Ang^3
#
#
#
# Elastic Constant Matrix: (Units=GPa)
#
#
# Indices 1 2 3 4 5 6 
#
# 1 76.6671 -15.8215 0.4739 0.0000 0.0000 0.0000
# 2 -15.8215 36.8838 2.7863 0.0000 0.0000 0.0000
# 3 0.4739 2.7863 12.6901 0.0000 0.0000 0.0000
# 4 0.0000 0.0000 0.0000 17.5317 0.0000 0.0000
# 5 0.0000 0.0000 0.0000 0.0000 22.9085 0.0000
# 6 0.0000 0.0000 0.0000 0.0000 0.0000 27.4108
#
#
#
# Elastic Compliance Matrix: (Units=1/GPa)
#
#
# Indices 1 2 3 4 5 6 
#
# 1 0.014356 0.006303 -0.001920 0.000000 0.000000 0.000000
# 2 0.006303 0.030337 -0.006896 0.000000 0.000000 0.000000
# 3 -0.001920 -0.006896 0.080388 0.000000 0.000000 0.000000
# 4 0.000000 0.000000 0.000000 0.057040 0.000000 0.000000
# 5 0.000000 0.000000 0.000000 0.000000 0.043652 0.000000
# 6 0.000000 0.000000 0.000000 0.000000 0.000000 0.036482
#
#
# Mechanical properties :
#
#
# Convention : Reuss Voigt Hill
#
# Bulk Modulus (GPa) = 8.32959 11.23538 9.78249
# Shear Modulus (GPa) = 16.27083 22.82367 19.54725
#
# Velocity S-wave (km/s) = 2.79609 3.31161 3.06470
# Velocity P-wave (km/s) = 3.79822 4.47447 4.15014
#
# Compressibility (1/GPa) = 0.12005391
#
# Stress axis : x y z
#
# Youngs Moduli (GPa) = 69.65719 32.96317 12.43974
#
# Poissons Ratio (x) = -0.20777 0.02388
# Poissons Ratio (y) = -0.43906 0.08579
# Poissons Ratio (z) = 0.13374 0.22733
#
# Static dielectric constant tensor:
#      x y z
#    x 1.786260 0.000000 0.000000 
#    y 0.000000 1.747870 0.000000 
#    z 0.000000 0.000000 1.707840 
# 
# From -- ./inp_files/6716.got.cif
#   From: 2010.05.17/outbox.cif.g08.bks.cpg/sg55_4_cif.got.tgz:6716.got - 2010.06.03 13:27:54.
