data_PCOD9426003
_publ_section_title
;
Structure prediction by ZEFSAII (Michael W. Deem and Ramdas Pophale) SiO2 
 PCOD9426003
Probable space group: P B A M
;
_chemical_formula_sum "Si O2"
_cell_formula_units_Z 48
_cell_length_a 16.552169
_cell_length_b 5.240286
_cell_length_c 27.157440
_cell_angle_alpha 90.000000
_cell_angle_beta 90.000000
_cell_angle_gamma 90.000000
_cell_volume 2355.584732
_symmetry_space_group_name_H-M "P B A M"
_symmetry_group_IT_number 55
_symmetry_cell_setting 'orthorhombic'
loop_
_space_group_symop_operation_xyz
x,y,z
-x,-y,z
1/2+x,1/2-y,-z
1/2-x,1/2+y,-z
-x,-y,-z
x,y,-z
1/2-x,1/2+y,z
1/2+x,1/2-y,z
loop_
_atom_site_type_symbol
_atom_site_label
_atom_site_fract_x
_atom_site_fract_y
_atom_site_fract_z
Si Si1 0.202360 0.871939 0.808148
Si Si2 0.290959 0.378191 0.073376
Si Si3 0.054817 0.751267 0.256811
Si Si4 0.193036 0.673159 0.337989
Si Si5 0.195562 0.731897 0.446937
Si Si6 0.968840 0.250038 0.056043
O O1 0.261069 0.641906 0.791117
O O2 0.204047 0.873887 0.867408
O O3 0.112761 0.817911 0.789277
O O4 0.275744 0.669382 0.058395
O O5 0.373936 0.267698 0.053769
O O6 0.120129 0.696977 0.299793
O O7 0.000000 0.500000 0.249251
O O8 0.000000 0.000000 0.267408
O O9 0.244344 0.411233 0.332470
O O10 0.156661 0.690699 0.393603
O O11 0.152094 0.701714 0.500000
O O12 0.265005 0.513251 0.446867
O O13 0.000000 0.500000 0.081866
O O14 0.003649 0.250451 0.000000
O O15 0.000000 0.000000 0.082302
#
# Coordination Sequence:
#
# PCOD9426003 Si02
#       6
#     8   8   8   8   8   8
#     4  10  21  39  58  77 104 137 174 213 260 313
#     4  10  21  36  57  82 105 134 174 220 261 302
#     4  12  24  36  53  79 107 135 172 215 257 305
#     4  10  19  34  55  75 101 138 172 208 257 305
#     4   8  14  25  45  73  97 121 164 213 247 287
#     4  10  21  36  54  78 110 145 176 209 254 308
#
# _framework density 20.377106999999999
#
# number of rings (size 3 to 8) (size 9 to 14) (size 15 to 20)
#    0.000    2.000    0.000    4.000    0.000    2.000 
#    0.000    0.000    0.000    1.000    0.000    0.000 
#    0.000    0.000    0.000    0.000    0.000    0.000 
#
# Total GULP energy -267710.553075 kJ/mol
# GULP energy per Si atom -5577.303189 kJ/mol
# Density = 2.033073 g / cm^3
# Si number density = 20.377107 Si / 1000 Ang^3
#
#
#
# Elastic Constant Matrix: (Units=GPa)
#
#
# Indices 1 2 3 4 5 6 
#
# 1 60.5839 18.6480 4.8539 0.0000 0.0000 0.0000
# 2 18.6480 120.8760 0.4226 0.0000 0.0000 0.0000
# 3 4.8539 0.4226 57.6954 0.0000 0.0000 0.0000
# 4 0.0000 0.0000 0.0000 18.7718 0.0000 0.0000
# 5 0.0000 0.0000 0.0000 0.0000 16.9253 0.0000
# 6 0.0000 0.0000 0.0000 0.0000 0.0000 33.8225
#
#
#
# Elastic Compliance Matrix: (Units=1/GPa)
#
#
# Indices 1 2 3 4 5 6 
#
# 1 0.017449 -0.002687 -0.001448 0.000000 0.000000 0.000000
# 2 -0.002687 0.008687 0.000162 0.000000 0.000000 0.000000
# 3 -0.001448 0.000162 0.017453 0.000000 0.000000 0.000000
# 4 0.000000 0.000000 0.000000 0.053271 0.000000 0.000000
# 5 0.000000 0.000000 0.000000 0.000000 0.059083 0.000000
# 6 0.000000 0.000000 0.000000 0.000000 0.000000 0.029566
#
#
# Mechanical properties :
#
#
# Convention : Reuss Voigt Hill
#
# Bulk Modulus (GPa) = 28.05560 31.88938 29.97249
# Shear Modulus (GPa) = 24.35028 28.25263 26.30146
#
# Velocity S-wave (km/s) = 3.46060 3.72760 3.59658
# Velocity P-wave (km/s) = 5.45580 5.84895 5.65579
#
# Compressibility (1/GPa) = 0.03564350
#
# Stress axis : x y z
#
# Youngs Moduli (GPa) = 57.30952 115.11599 57.29652
#
# Poissons Ratio (x) = 0.30930 0.08298
# Poissons Ratio (y) = 0.15398 -0.00931
# Poissons Ratio (z) = 0.08300 -0.01870
#
# Static dielectric constant tensor:
#      x y z
#    x 1.685910 0.000000 0.000000 
#    y 0.000000 1.765170 0.000000 
#    z 0.000000 0.000000 1.786420 
# 
# From -- ./inp_files/23980.got.cif
#   From: 2010.05.17/outbox.cif.g08.bks.cpg/sg55_12_cif.got.tgz:23980.got - 2010.06.03 13:27:54.
