data_PCOD9426722
_publ_section_title
;
Structure prediction by ZEFSAII (Michael W. Deem and Ramdas Pophale) SiO2 
 PCOD9426722
Probable space group: P B A M
;
_chemical_formula_sum "Si O2"
_cell_formula_units_Z 64
_cell_length_a 29.314002
_cell_length_b 14.657900
_cell_length_c 8.184089
_cell_angle_alpha 90.000000
_cell_angle_beta 90.000000
_cell_angle_gamma 90.000000
_cell_volume 3516.553356
_symmetry_space_group_name_H-M "P B A M"
_symmetry_group_IT_number 55
_symmetry_cell_setting 'orthorhombic'
loop_
_space_group_symop_operation_xyz
x,y,z
-x,-y,z
1/2+x,1/2-y,-z
1/2-x,1/2+y,-z
-x,-y,-z
x,y,-z
1/2-x,1/2+y,z
1/2+x,1/2-y,z
loop_
_atom_site_type_symbol
_atom_site_label
_atom_site_fract_x
_atom_site_fract_y
_atom_site_fract_z
Si Si1 0.821680 0.255924 0.305029
Si Si2 0.500599 0.603771 0.199549
Si Si3 0.074262 0.749937 0.197134
Si Si4 0.926392 0.750121 0.800524
Si Si5 0.249416 0.101340 0.194728
Si Si6 0.000270 0.603794 0.800435
Si Si7 0.249555 0.393352 0.694855
Si Si8 0.177326 0.250756 0.803174
O O1 0.819155 0.257386 0.500000
O O2 0.874073 0.251002 0.254648
O O3 0.795673 0.345622 0.241237
O O4 0.792210 0.168508 0.245071
O O5 0.500000 0.500000 0.257147
O O6 0.545049 0.661593 0.250254
O O7 0.456156 0.661912 0.248705
O O8 0.500810 0.602418 0.000000
O O9 0.044635 0.661955 0.250018
O O10 0.074413 0.749954 0.000000
O O11 0.874503 0.750724 0.742120
O O12 0.955782 0.661721 0.750823
O O13 0.925499 0.749886 0.000000
O O14 0.208163 0.165973 0.257587
O O15 0.247471 0.998385 0.256295
O O16 0.246301 0.098750 0.000000
O O17 0.000000 0.500000 0.742922
O O18 0.000413 0.602487 0.000000
O O19 0.248849 0.388116 0.500000
O O20 0.204418 0.342580 0.759231
O O21 0.175799 0.244616 0.000000
#
# Coordination Sequence:
#
# PCOD9426722 Si02
#       8
#     8   8   8   8   8   8   8   8
#     4  10  21  36  52  71 101 138 169 202 249 304
#     4   8  14  25  43  69 100 129 157 197 247 292
#     4   9  17  29  48  73  96 123 165 208 242 286
#     4   8  14  25  41  64  94 125 158 195 238 288
#     4  10  20  34  53  76 100 126 164 213 254 291
#     4   8  14  25  42  67  98 126 153 191 239 288
#     4  10  21  36  52  71  99 134 167 200 247 304
#     4   9  18  32  51  75 100 128 165 208 248 288
#
# _framework density 18.199639000000001
#
# number of rings (size 3 to 8) (size 9 to 14) (size 15 to 20)
#    0.000    3.000    0.000    2.625    0.000    4.000 
#    0.000    5.000    0.000    3.750    0.000    0.000 
#    0.000    0.000    0.000    0.000    0.000    0.000 
#
# Total GULP energy -356762.114803 kJ/mol
# GULP energy per Si atom -5574.408044 kJ/mol
# Density = 1.815822 g / cm^3
# Si number density = 18.199639 Si / 1000 Ang^3
#
#
#
# Elastic Constant Matrix: (Units=GPa)
#
#
# Indices 1 2 3 4 5 6 
#
# 1 177.3335 90.2287 12.3448 0.0000 0.0000 0.0000
# 2 90.2287 180.2919 9.9137 0.0000 0.0000 0.0000
# 3 12.3448 9.9137 10.7715 0.0000 0.0000 0.0000
# 4 0.0000 0.0000 0.0000 9.5802 0.0000 0.0000
# 5 0.0000 0.0000 0.0000 0.0000 3.5963 0.0000
# 6 0.0000 0.0000 0.0000 0.0000 0.0000 6.6851
#
#
#
# Elastic Compliance Matrix: (Units=1/GPa)
#
#
# Indices 1 2 3 4 5 6 
#
# 1 0.007884 -0.003632 -0.005692 0.000000 0.000000 0.000000
# 2 -0.003632 0.007516 -0.002754 0.000000 0.000000 0.000000
# 3 -0.005692 -0.002754 0.101895 0.000000 0.000000 0.000000
# 4 0.000000 0.000000 0.000000 0.104382 0.000000 0.000000
# 5 0.000000 0.000000 0.000000 0.000000 0.278067 0.000000
# 6 0.000000 0.000000 0.000000 0.000000 0.000000 0.149587
#
#
# Mechanical properties :
#
#
# Convention : Reuss Voigt Hill
#
# Bulk Modulus (GPa) = 10.73681 65.93012 38.33347
# Shear Modulus (GPa) = 7.09689 21.03296 14.06493
#
# Velocity S-wave (km/s) = 1.97685 3.40322 2.78297
# Velocity P-wave (km/s) = 3.33509 7.19355 5.60670
#
# Compressibility (1/GPa) = 0.09313755
#
# Stress axis : x y z
#
# Youngs Moduli (GPa) = 126.84703 133.05160 9.81399
#
# Poissons Ratio (x) = 0.48330 0.05586
# Poissons Ratio (y) = 0.46076 0.02703
# Poissons Ratio (z) = 0.72199 0.36648
#
# Static dielectric constant tensor:
#      x y z
#    x 1.614650 0.000000 0.000000 
#    y 0.000000 1.615370 0.000000 
#    z 0.000000 0.000000 1.627510 
# 
# From -- ./inp_files/10777.got.cif
#   From: 2010.05.17/outbox.cif.g08.bks.cpg/sg55_6_cif.got.tgz:10777.got - 2010.06.03 13:27:54.
