data_PCOD9426883
_publ_section_title
;
Structure prediction by ZEFSAII (Michael W. Deem and Ramdas Pophale) SiO2 
 PCOD9426883
Probable space group: P B A M
;
_chemical_formula_sum "Si O2"
_cell_formula_units_Z 64
_cell_length_a 16.381008
_cell_length_b 12.522096
_cell_length_c 13.637571
_cell_angle_alpha 90.000000
_cell_angle_beta 90.000000
_cell_angle_gamma 90.000000
_cell_volume 2797.400679
_symmetry_space_group_name_H-M "P B A M"
_symmetry_group_IT_number 55
_symmetry_cell_setting 'orthorhombic'
loop_
_space_group_symop_operation_xyz
x,y,z
-x,-y,z
1/2+x,1/2-y,-z
1/2-x,1/2+y,-z
-x,-y,-z
x,y,-z
1/2-x,1/2+y,z
1/2+x,1/2-y,z
loop_
_atom_site_type_symbol
_atom_site_label
_atom_site_fract_x
_atom_site_fract_y
_atom_site_fract_z
Si Si1 0.623069 0.520369 0.606131
Si Si2 0.365392 0.083969 0.281279
Si Si3 0.931932 0.087906 0.883579
Si Si4 0.681147 0.433991 0.789383
Si Si5 0.693702 0.114580 0.389624
Si Si6 0.521384 0.838167 0.884877
Si Si7 0.887248 0.730498 0.230300
Si Si8 0.534498 0.738484 0.383913
O O1 0.603652 0.475288 0.500000
O O2 0.631114 0.432055 0.687245
O O3 0.713963 0.571078 0.604561
O O4 0.561987 0.615837 0.629600
O O5 0.275048 0.080099 0.234971
O O6 0.424802 0.091584 0.188220
O O7 0.391607 0.185099 0.347602
O O8 0.365489 0.981734 0.353688
O O9 0.953929 0.211823 0.864860
O O10 0.847571 0.044155 0.837807
O O11 0.926019 0.077861 0.000000
O O12 0.000000 0.000000 0.850680
O O13 0.642801 0.329322 0.836634
O O14 0.673218 0.152487 0.500000
O O15 0.687760 0.194692 0.298419
O O16 0.428295 0.847634 0.848571
O O17 0.532142 0.858903 0.000000
O O18 0.958389 0.737821 0.313704
O O19 0.520406 0.755427 0.500000
#
# Coordination Sequence:
#
# PCOD9426883 Si02
#       8
#     8   8   8   8   8   8   8   8
#     4   9  20  35  54  80 117 154 186 231 293 349
#     4  10  22  38  59  82 112 155 197 236 286 337
#     4  10  20  37  63  89 114 147 183 229 292 355
#     4  11  21  35  59  88 117 147 192 240 284 345
#     4  10  21  39  57  80 113 155 202 241 277 336
#     4  10  22  41  61  86 118 148 184 235 296 353
#     4  11  22  34  57  87 113 149 194 242 289 336
#     4  10  20  35  53  79 113 151 192 237 286 342
#
# _framework density 22.878381999999998
#
# number of rings (size 3 to 8) (size 9 to 14) (size 15 to 20)
#    0.000    1.875    1.250    3.000    0.000    5.000 
#    0.000    5.625    0.000    0.750    0.000    0.000 
#    0.000    0.000    0.000    0.000    0.000    0.000 
#
# Total GULP energy -357124.910520 kJ/mol
# GULP energy per Si atom -5580.076727 kJ/mol
# Density = 2.282631 g / cm^3
# Si number density = 22.878382 Si / 1000 Ang^3
#
#
#
# Elastic Constant Matrix: (Units=GPa)
#
#
# Indices 1 2 3 4 5 6 
#
# 1 56.7024 2.4622 16.5432 0.0000 0.0000 0.0000
# 2 2.4622 55.2499 -0.1326 0.0000 0.0000 0.0000
# 3 16.5432 -0.1326 78.1474 0.0000 0.0000 0.0000
# 4 0.0000 0.0000 0.0000 26.4514 0.0000 0.0000
# 5 0.0000 0.0000 0.0000 0.0000 21.3534 0.0000
# 6 0.0000 0.0000 0.0000 0.0000 0.0000 35.2651
#
#
#
# Elastic Compliance Matrix: (Units=1/GPa)
#
#
# Indices 1 2 3 4 5 6 
#
# 1 0.018837 -0.000849 -0.003989 0.000000 0.000000 0.000000
# 2 -0.000849 0.018138 0.000211 0.000000 0.000000 0.000000
# 3 -0.003989 0.000211 0.013641 0.000000 0.000000 0.000000
# 4 0.000000 0.000000 0.000000 0.037805 0.000000 0.000000
# 5 0.000000 0.000000 0.000000 0.000000 0.046831 0.000000
# 6 0.000000 0.000000 0.000000 0.000000 0.000000 0.028357
#
#
# Mechanical properties :
#
#
# Convention : Reuss Voigt Hill
#
# Bulk Modulus (GPa) = 24.17757 25.31614 24.74685
# Shear Modulus (GPa) = 26.78806 28.02912 27.40859
#
# Velocity S-wave (km/s) = 3.42554 3.50399 3.46499
# Velocity P-wave (km/s) = 5.12216 5.24024 5.18154
#
# Compressibility (1/GPa) = 0.04136064
#
# Stress axis : x y z
#
# Youngs Moduli (GPa) = 53.08815 55.13311 73.30778
#
# Poissons Ratio (x) = 0.04681 0.29242
# Poissons Ratio (y) = 0.04507 -0.01543
# Poissons Ratio (z) = 0.21177 -0.01161
#
# Static dielectric constant tensor:
#      x y z
#    x 1.874010 0.000000 0.000000 
#    y 0.000000 1.958860 0.000000 
#    z 0.000000 0.000000 1.859920 
# 
# From -- ./inp_files/19491.got.cif
#   From: 2010.05.17/outbox.cif.g08.bks.cpg/sg55_10_cif.got.tgz:19491.got - 2010.06.03 13:27:54.
