data_PCOD9426461
_publ_section_title
;
Structure prediction by ZEFSAII (Michael W. Deem and Ramdas Pophale) SiO2 
 PCOD9426461
Probable space group: P B A M
;
_chemical_formula_sum "Si O2"
_cell_formula_units_Z 40
_cell_length_a 14.232803
_cell_length_b 14.488072
_cell_length_c 7.675065
_cell_angle_alpha 90.000000
_cell_angle_beta 90.000000
_cell_angle_gamma 90.000000
_cell_volume 1582.643491
_symmetry_space_group_name_H-M "P B A M"
_symmetry_group_IT_number 55
_symmetry_cell_setting 'orthorhombic'
loop_
_space_group_symop_operation_xyz
x,y,z
-x,-y,z
1/2+x,1/2-y,-z
1/2-x,1/2+y,-z
-x,-y,-z
x,y,-z
1/2-x,1/2+y,z
1/2+x,1/2-y,z
loop_
_atom_site_type_symbol
_atom_site_label
_atom_site_fract_x
_atom_site_fract_y
_atom_site_fract_z
Si Si1 0.200261 0.437941 0.285843
Si Si2 0.595150 0.537253 0.302388
Si Si3 0.504913 0.710490 0.199069
Si Si4 0.297522 0.726954 0.290114
Si Si5 0.610840 0.881839 0.289838
O O1 0.200714 0.435343 0.500000
O O2 0.301977 0.476946 0.228617
O O3 0.196972 0.332676 0.226232
O O4 0.122150 0.512207 0.232576
O O5 0.500000 0.500000 0.216070
O O6 0.597755 0.499757 0.500000
O O7 0.575778 0.647240 0.308369
O O8 0.397785 0.684695 0.239454
O O9 0.524515 0.818037 0.234821
O O10 0.526507 0.691650 0.000000
O O11 0.293603 0.727911 0.500000
O O12 0.205154 0.672746 0.230707
O O13 0.609426 0.883193 0.500000
#
# Coordination Sequence:
#
# PCOD9426461 Si02
#       5
#     8   8   8   8   8
#     4   9  18  34  61  92 113 145 198 255 305 346
#     4  10  19  37  65  93 117 148 201 258 305 349
#     4  12  25  38  56  86 127 166 198 236 299 370
#     4  10  20  38  62  86 117 155 203 256 299 349
#     4  10  20  39  65  89 116 151 201 257 302 349
#
# _framework density 25.274168
#
# number of rings (size 3 to 8) (size 9 to 14) (size 15 to 20)
#    0.000    1.800    2.000    3.000    0.000    5.200 
#    0.000    6.000    0.000    0.000    0.000    0.000 
#    0.000    0.000    0.000    0.000    0.000    0.000 
#
# Total GULP energy -223722.196516 kJ/mol
# GULP energy per Si atom -5593.054913 kJ/mol
# Density = 2.521664 g / cm^3
# Si number density = 25.274168 Si / 1000 Ang^3
#
#
#
# Elastic Constant Matrix: (Units=GPa)
#
#
# Indices 1 2 3 4 5 6 
#
# 1 68.2436 -12.2455 -7.3551 0.0000 0.0000 0.0000
# 2 -12.2455 91.3217 5.9504 0.0000 0.0000 0.0000
# 3 -7.3551 5.9504 64.4513 0.0000 0.0000 0.0000
# 4 0.0000 0.0000 0.0000 -17.5480 0.0000 0.0000
# 5 0.0000 0.0000 0.0000 0.0000 -254.2380 0.0000
# 6 0.0000 0.0000 0.0000 0.0000 0.0000 47.1540
#
#
#
# Elastic Compliance Matrix: (Units=1/GPa)
#
#
# Indices 1 2 3 4 5 6 
#
# 1 0.015168 0.001933 0.001552 0.000000 0.000000 0.000000
# 2 0.001933 0.011263 -0.000819 0.000000 0.000000 0.000000
# 3 0.001552 -0.000819 0.015768 0.000000 0.000000 0.000000
# 4 0.000000 0.000000 0.000000 -0.056987 0.000000 0.000000
# 5 0.000000 0.000000 0.000000 0.000000 -0.003933 0.000000
# 6 0.000000 0.000000 0.000000 0.000000 0.000000 0.021207
#
#
# Mechanical properties :
#
#
# Convention : Reuss Voigt Hill
#
# Bulk Modulus (GPa) = 21.03913 21.85736 21.44824
# Shear Modulus (GPa) = 384.68595 -29.08196 177.80200
#
# Velocity S-wave (km/s) = 12.35053 -3.39582 8.39655
# Velocity P-wave (km/s) = 14.55071 2.59009 10.12459
#
# Compressibility (1/GPa) = 0.04753049
#
# Stress axis : x y z
#
# Youngs Moduli (GPa) = 65.93043 88.78757 63.41795
#
# Poissons Ratio (x) = -0.17160 -0.09845
# Poissons Ratio (y) = -0.12742 0.05196
# Poissons Ratio (z) = -0.10236 0.07274
#
# Static dielectric constant tensor:
#      x y z
#    x 1.945800 0.000000 0.000000 
#    y 0.000000 2.078020 0.000000 
#    z 0.000000 0.000000 1.980710 
# 
# From -- ./inp_files/3620.got.cif
#   From: 2010.05.17/outbox.cif.g08.bks.cpg/sg55_2_cif.got.tgz:3620.got - 2010.06.03 13:27:54.
