data_PCOD9426411
_publ_section_title
;
Structure prediction by ZEFSAII (Michael W. Deem and Ramdas Pophale) SiO2 
 PCOD9426411
Probable space group: P B A M
;
_chemical_formula_sum "Si O2"
_cell_formula_units_Z 44
_cell_length_a 8.346376
_cell_length_b 13.819050
_cell_length_c 19.097371
_cell_angle_alpha 90.000000
_cell_angle_beta 90.000000
_cell_angle_gamma 90.000000
_cell_volume 2202.671431
_symmetry_space_group_name_H-M "P B A M"
_symmetry_group_IT_number 55
_symmetry_cell_setting 'orthorhombic'
loop_
_space_group_symop_operation_xyz
x,y,z
-x,-y,z
1/2+x,1/2-y,-z
1/2-x,1/2+y,-z
-x,-y,-z
x,y,-z
1/2-x,1/2+y,z
1/2+x,1/2-y,z
loop_
_atom_site_type_symbol
_atom_site_label
_atom_site_fract_x
_atom_site_fract_y
_atom_site_fract_z
Si Si1 0.939469 0.798301 0.500000
Si Si2 0.000000 0.000000 0.872509
Si Si3 0.519426 0.200776 0.176285
Si Si4 0.210213 0.401718 0.500000
Si Si5 0.199695 0.830163 0.078781
Si Si6 0.287515 0.617535 0.764474
Si Si7 0.827780 0.948901 0.606914
O O1 0.922617 0.682478 0.500000
O O2 0.848381 0.847740 0.565732
O O3 0.121464 0.840038 0.500000
O O4 0.083338 0.920790 0.919715
O O5 0.867758 0.952396 0.821673
O O6 0.653065 0.148402 0.130321
O O7 0.402383 0.248553 0.118332
O O8 0.398757 0.137731 0.221331
O O9 0.609959 0.282766 0.222923
O O10 0.212869 0.475168 0.433597
O O11 0.248154 0.803888 0.000000
O O12 0.299899 0.573174 0.687650
O O13 0.000000 0.000000 0.600300
#
# Coordination Sequence:
#
# PCOD9426411 Si02
#       7
#     4   4   8   4   8   8   8
#     4   9  19  35  58  86 116 147 203 231 281 359
#     4  10  21  34  58  81 118 150 186 240 296 359
#     4   9  21  35  57  85 112 148 200 245 283 355
#     4   9  19  37  60  86 118 153 197 240 290 351
#     4  10  19  37  58  84 114 152 191 239 297 350
#     4  10  19  37  56  80 115 151 196 238 297 349
#     4   9  18  35  60  82 114 164 192 235 300 351
#
# _framework density 19.975745
#
# number of rings (size 3 to 8) (size 9 to 14) (size 15 to 20)
#    0.000    2.545    0.909    1.909    0.000    3.636 
#    3.273    5.455    4.000    0.000    0.000    0.000 
#    0.000    0.000    0.000    0.000    0.000    0.000 
#
# Total GULP energy -245340.579192 kJ/mol
# GULP energy per Si atom -5575.922254 kJ/mol
# Density = 1.993028 g / cm^3
# Si number density = 19.975745 Si / 1000 Ang^3
#
#
#
# Elastic Constant Matrix: (Units=GPa)
#
#
# Indices 1 2 3 4 5 6 
#
# 1 56.4718 4.9683 18.7359 0.0000 0.0000 0.0000
# 2 4.9683 46.5512 32.9854 0.0000 0.0000 0.0000
# 3 18.7359 32.9854 106.2769 0.0000 0.0000 0.0000
# 4 0.0000 0.0000 0.0000 39.8076 0.0000 0.0000
# 5 0.0000 0.0000 0.0000 0.0000 25.1796 0.0000
# 6 0.0000 0.0000 0.0000 0.0000 0.0000 19.3124
#
#
#
# Elastic Compliance Matrix: (Units=1/GPa)
#
#
# Indices 1 2 3 4 5 6 
#
# 1 0.018815 0.000439 -0.003453 0.000000 0.000000 0.000000
# 2 0.000439 0.027548 -0.008628 0.000000 0.000000 0.000000
# 3 -0.003453 -0.008628 0.012696 0.000000 0.000000 0.000000
# 4 0.000000 0.000000 0.000000 0.025121 0.000000 0.000000
# 5 0.000000 0.000000 0.000000 0.000000 0.039715 0.000000
# 6 0.000000 0.000000 0.000000 0.000000 0.000000 0.051780
#
#
# Mechanical properties :
#
#
# Convention : Reuss Voigt Hill
#
# Bulk Modulus (GPa) = 27.95224 35.85322 31.90273
# Shear Modulus (GPa) = 23.70971 27.03393 25.37182
#
# Velocity S-wave (km/s) = 3.44892 3.68277 3.56776
# Velocity P-wave (km/s) = 5.46658 6.00592 5.74258
#
# Compressibility (1/GPa) = 0.03577530
#
# Stress axis : x y z
#
# Youngs Moduli (GPa) = 53.14905 36.29992 78.76552
#
# Poissons Ratio (x) = -0.01593 0.27199
# Poissons Ratio (y) = -0.02332 0.67956
# Poissons Ratio (z) = 0.18353 0.31318
#
# Static dielectric constant tensor:
#      x y z
#    x 1.735160 0.000000 0.000000 
#    y 0.000000 1.716940 0.000000 
#    z 0.000000 0.000000 1.688030 
# 
# From -- ./inp_files/20738.got.cif
#   From: 2010.05.17/outbox.cif.g08.bks.cpg/sg55_11_cif.got.tgz:20738.got - 2010.06.03 13:27:54.
