data_PCOD9426483
_publ_section_title
;
Structure prediction by ZEFSAII (Michael W. Deem and Ramdas Pophale) SiO2 
 PCOD9426483
Probable space group: P B A M
;
_chemical_formula_sum "Si O2"
_cell_formula_units_Z 32
_cell_length_a 9.886925
_cell_length_b 17.249412
_cell_length_c 8.261937
_cell_angle_alpha 90.000000
_cell_angle_beta 90.000000
_cell_angle_gamma 90.000000
_cell_volume 1409.020832
_symmetry_space_group_name_H-M "P B A M"
_symmetry_group_IT_number 55
_symmetry_cell_setting 'orthorhombic'
loop_
_space_group_symop_operation_xyz
x,y,z
-x,-y,z
1/2+x,1/2-y,-z
1/2-x,1/2+y,-z
-x,-y,-z
x,y,-z
1/2-x,1/2+y,z
1/2+x,1/2-y,z
loop_
_atom_site_type_symbol
_atom_site_label
_atom_site_fract_x
_atom_site_fract_y
_atom_site_fract_z
Si Si1 0.845573 0.994971 0.302238
Si Si2 0.700793 0.323094 0.686968
Si Si3 0.961160 0.261805 0.183866
Si Si4 0.084848 0.420788 0.306098
O O1 0.847402 0.995177 0.500000
O O2 0.789589 0.910938 0.252602
O O3 0.738661 0.060414 0.253865
O O4 0.000000 0.000000 0.246355
O O5 0.742415 0.322006 0.500000
O O6 0.547231 0.295361 0.704511
O O7 0.802668 0.266972 0.779324
O O8 0.019121 0.347822 0.218842
O O9 0.985860 0.239190 0.000000
O O10 0.083482 0.404898 0.500000
O O11 0.000000 0.500000 0.281855
#
# Coordination Sequence:
#
# PCOD9426483 Si02
#       4
#     8   8   8   8
#     4   9  19  36  62  95 122 151 207 272 311 356
#     4  11  23  43  67  92 123 170 220 260 309 381
#     4  12  26  42  61  93 134 169 206 264 331 381
#     4  10  19  38  65  91 119 160 215 262 306 373
#
# _framework density 22.710805000000001
#
# number of rings (size 3 to 8) (size 9 to 14) (size 15 to 20)
#    0.000    1.500    2.500    3.000    3.500    0.500 
#    0.000    0.000    0.000    3.750    0.000    0.000 
#    0.000    0.000    0.000    0.000    0.000    0.000 
#
# Total GULP energy -178993.718270 kJ/mol
# GULP energy per Si atom -5593.553696 kJ/mol
# Density = 2.265911 g / cm^3
# Si number density = 22.710805 Si / 1000 Ang^3
#
#
#
# Elastic Constant Matrix: (Units=GPa)
#
#
# Indices 1 2 3 4 5 6 
#
# 1 102.8053 -16.3474 -0.8087 0.0000 0.0000 0.0000
# 2 -16.3474 28.7860 -1.1141 0.0000 0.0000 0.0000
# 3 -0.8087 -1.1141 22.0494 0.0000 0.0000 0.0000
# 4 0.0000 0.0000 0.0000 150.7354 0.0000 0.0000
# 5 0.0000 0.0000 0.0000 0.0000 16.2793 0.0000
# 6 0.0000 0.0000 0.0000 0.0000 0.0000 33.2536
#
#
#
# Elastic Compliance Matrix: (Units=1/GPa)
#
#
# Indices 1 2 3 4 5 6 
#
# 1 0.010704 0.006106 0.000701 0.000000 0.000000 0.000000
# 2 0.006106 0.038290 0.002159 0.000000 0.000000 0.000000
# 3 0.000701 0.002159 0.045487 0.000000 0.000000 0.000000
# 4 0.000000 0.000000 0.000000 0.006634 0.000000 0.000000
# 5 0.000000 0.000000 0.000000 0.000000 0.061428 0.000000
# 6 0.000000 0.000000 0.000000 0.000000 0.000000 0.030072
#
#
# Mechanical properties :
#
#
# Convention : Reuss Voigt Hill
#
# Bulk Modulus (GPa) = 8.89587 13.01114 10.95351
# Shear Modulus (GPa) = 23.56773 51.51439 37.54106
#
# Velocity S-wave (km/s) = 3.22488 4.76781 4.07013
# Velocity P-wave (km/s) = 4.21806 6.00423 5.18859
#
# Compressibility (1/GPa) = 0.11241165
#
# Stress axis : x y z
#
# Youngs Moduli (GPa) = 93.42734 26.11649 21.98407
#
# Poissons Ratio (x) = -0.15946 -0.01541
# Poissons Ratio (y) = -0.57043 -0.04746
# Poissons Ratio (z) = -0.06550 -0.05638
#
# Static dielectric constant tensor:
#      x y z
#    x 1.865520 0.000000 0.000000 
#    y 0.000000 1.816030 0.000000 
#    z 0.000000 0.000000 1.793420 
# 
# From -- ./inp_files/2003.got.cif
#   From: 2010.05.17/outbox.cif.g08.bks.cpg/sg55_2_cif.got.tgz:2003.got - 2010.06.03 13:27:54.
