data_PCOD9426562
_publ_section_title
;
Structure prediction by ZEFSAII (Michael W. Deem and Ramdas Pophale) SiO2 
 PCOD9426562
Probable space group: P B A M
;
_chemical_formula_sum "Si O2"
_cell_formula_units_Z 64
_cell_length_a 24.480832
_cell_length_b 9.199901
_cell_length_c 14.751036
_cell_angle_alpha 90.000000
_cell_angle_beta 90.000000
_cell_angle_gamma 90.000000
_cell_volume 3322.246483
_symmetry_space_group_name_H-M "P B A M"
_symmetry_group_IT_number 55
_symmetry_cell_setting 'orthorhombic'
loop_
_space_group_symop_operation_xyz
x,y,z
-x,-y,z
1/2+x,1/2-y,-z
1/2-x,1/2+y,-z
-x,-y,-z
x,y,-z
1/2-x,1/2+y,z
1/2+x,1/2-y,z
loop_
_atom_site_type_symbol
_atom_site_label
_atom_site_fract_x
_atom_site_fract_y
_atom_site_fract_z
Si Si1 0.334136 0.030851 0.603796
Si Si2 0.626367 0.704867 0.895880
Si Si3 0.858978 0.542238 0.898134
Si Si4 0.936714 0.011887 0.746837
Si Si5 0.868439 0.137318 0.396675
Si Si6 0.871904 0.715518 0.717300
Si Si7 0.281805 0.568414 0.298594
Si Si8 0.770601 0.018644 0.097759
O O1 0.321042 0.989106 0.500000
O O2 0.358460 0.192006 0.603556
O O3 0.278297 0.046572 0.661903
O O4 0.376659 0.919012 0.648816
O O5 0.595139 0.598198 0.827053
O O6 0.690320 0.659079 0.895253
O O7 0.623752 0.876177 0.874846
O O8 0.607427 0.684095 0.000000
O O9 0.874201 0.648670 0.817623
O O10 0.793288 0.549410 0.902473
O O11 0.879588 0.575850 0.000000
O O12 0.923900 0.101833 0.655868
O O13 0.911570 0.853647 0.723661
O O14 0.000000 0.000000 0.768653
O O15 0.867690 0.083434 0.500000
O O16 0.820259 0.057343 0.340399
O O17 0.813416 0.781535 0.683637
O O18 0.281803 0.565365 0.189730
O O19 0.784342 0.947512 0.000000
#
# Coordination Sequence:
#
# PCOD9426562 Si02
#       8
#     8   8   8   8   8   8   8   8
#     4  11  23  38  59  87 123 159 191 232 287 355
#     4  10  21  40  61  84 121 164 200 236 282 346
#     4  10  22  35  57  91 129 167 195 229 281 341
#     4  11  25  44  65  86 108 146 198 257 312 352
#     4  10  22  41  62  84 115 154 193 239 292 353
#     4  11  23  36  59  87 121 155 196 248 284 343
#     4  11  21  34  58  90 126 167 196 225 273 342
#     4  10  20  32  55  89 127 163 192 222 270 336
#
# _framework density 19.264071999999999
#
# number of rings (size 3 to 8) (size 9 to 14) (size 15 to 20)
#    0.000    1.500    3.750    1.875    1.750    5.000 
#    0.000    2.500    0.000    3.000    0.000    0.000 
#    0.000    0.000    0.000    0.000    0.000    0.000 
#
# Total GULP energy -356935.358187 kJ/mol
# GULP energy per Si atom -5577.114972 kJ/mol
# Density = 1.922023 g / cm^3
# Si number density = 19.264072 Si / 1000 Ang^3
#
#
#
# Elastic Constant Matrix: (Units=GPa)
#
#
# Indices 1 2 3 4 5 6 
#
# 1 55.3691 29.8707 27.4682 0.0000 0.0000 0.0000
# 2 29.8707 85.8608 47.3721 0.0000 0.0000 0.0000
# 3 27.4682 47.3721 120.3097 0.0000 0.0000 0.0000
# 4 0.0000 0.0000 0.0000 22.3115 0.0000 0.0000
# 5 0.0000 0.0000 0.0000 0.0000 7.9943 0.0000
# 6 0.0000 0.0000 0.0000 0.0000 0.0000 6.3561
#
#
#
# Elastic Compliance Matrix: (Units=1/GPa)
#
#
# Indices 1 2 3 4 5 6 
#
# 1 0.022886 -0.006489 -0.002670 0.000000 0.000000 0.000000
# 2 -0.006489 0.016719 -0.005102 0.000000 0.000000 0.000000
# 3 -0.002670 -0.005102 0.010930 0.000000 0.000000 0.000000
# 4 0.000000 0.000000 0.000000 0.044820 0.000000 0.000000
# 5 0.000000 0.000000 0.000000 0.000000 0.125089 0.000000
# 6 0.000000 0.000000 0.000000 0.000000 0.000000 0.157328
#
#
# Mechanical properties :
#
#
# Convention : Reuss Voigt Hill
#
# Bulk Modulus (GPa) = 45.42569 52.32907 48.87738
# Shear Modulus (GPa) = 12.08804 17.78761 14.93783
#
# Velocity S-wave (km/s) = 2.50770 3.04198 2.78766
# Velocity P-wave (km/s) = 5.65831 6.28977 5.98238
#
# Compressibility (1/GPa) = 0.02201398
#
# Stress axis : x y z
#
# Youngs Moduli (GPa) = 43.69518 59.81256 91.48883
#
# Poissons Ratio (x) = 0.38811 0.24429
# Poissons Ratio (y) = 0.28352 0.46674
# Poissons Ratio (z) = 0.11667 0.30514
#
# Static dielectric constant tensor:
#      x y z
#    x 1.656610 0.000000 0.000000 
#    y 0.000000 1.696410 0.000000 
#    z 0.000000 0.000000 1.711070 
# 
# From -- ./inp_files/19969.got.cif
#   From: 2010.05.17/outbox.cif.g08.bks.cpg/sg55_10_cif.got.tgz:19969.got - 2010.06.03 13:27:54.
