data_PCOD9426709
_publ_section_title
;
Structure prediction by ZEFSAII (Michael W. Deem and Ramdas Pophale) SiO2 
 PCOD9426709
Probable space group: P B A M
;
_chemical_formula_sum "Si O2"
_cell_formula_units_Z 56
_cell_length_a 22.641972
_cell_length_b 14.940711
_cell_length_c 7.637259
_cell_angle_alpha 90.000000
_cell_angle_beta 90.000000
_cell_angle_gamma 90.000000
_cell_volume 2583.586658
_symmetry_space_group_name_H-M "P B A M"
_symmetry_group_IT_number 55
_symmetry_cell_setting 'orthorhombic'
loop_
_space_group_symop_operation_xyz
x,y,z
-x,-y,z
1/2+x,1/2-y,-z
1/2-x,1/2+y,-z
-x,-y,-z
x,y,-z
1/2-x,1/2+y,z
1/2+x,1/2-y,z
loop_
_atom_site_type_symbol
_atom_site_label
_atom_site_fract_x
_atom_site_fract_y
_atom_site_fract_z
Si Si1 0.411791 0.335782 0.798413
Si Si2 0.354046 0.155472 0.298133
Si Si3 0.777729 0.824518 0.285241
Si Si4 0.040333 0.125913 0.795828
Si Si5 0.885199 0.703361 0.712476
Si Si6 0.568327 0.009471 0.714672
Si Si7 0.351871 0.507996 0.301553
O O1 0.391373 0.246077 0.706562
O O2 0.473783 0.373290 0.727774
O O3 0.363416 0.413870 0.788677
O O4 0.422775 0.312233 0.000000
O O5 0.342872 0.130221 0.500000
O O6 0.289482 0.177584 0.222764
O O7 0.391855 0.073673 0.222897
O O8 0.779141 0.823314 0.500000
O O9 0.821688 0.744151 0.231583
O O10 0.806511 0.918937 0.227953
O O11 0.066512 0.225543 0.778207
O O12 0.086213 0.061487 0.701187
O O13 0.040429 0.098206 0.000000
O O14 0.886599 0.705279 0.500000
O O15 0.902429 0.603659 0.767820
O O16 0.567408 0.008000 0.500000
O O17 0.500000 0.000000 0.770234
O O18 0.333995 0.487961 0.500000
#
# Coordination Sequence:
#
# PCOD9426709 Si02
#       7
#     8   8   8   8   8   8   8
#     4  11  23  36  50  75 110 142 173 213 262 313
#     4  10  20  35  55  76 102 138 178 220 266 314
#     4   8  17  33  53  79 103 127 167 217 263 307
#     4  10  20  34  52  77 110 141 170 211 262 316
#     4   9  17  32  54  77 103 134 173 220 264 314
#     4   9  17  29  49  77 102 128 169 219 263 302
#     4  10  20  35  57  81 104 134 174 217 262 317
#
# _framework density 21.675294999999998
#
# number of rings (size 3 to 8) (size 9 to 14) (size 15 to 20)
#    0.000    2.429    0.000    3.429    0.000    6.286 
#    0.000    8.571    0.000    2.571    0.000    0.000 
#    0.000    0.000    0.000    0.000    0.000    0.000 
#
# Total GULP energy -312630.573914 kJ/mol
# GULP energy per Si atom -5582.688820 kJ/mol
# Density = 2.162596 g / cm^3
# Si number density = 21.675295 Si / 1000 Ang^3
#
#
#
# Elastic Constant Matrix: (Units=GPa)
#
#
# Indices 1 2 3 4 5 6 
#
# 1 60.3430 -5.4664 1.7066 0.0000 0.0000 0.0000
# 2 -5.4664 93.7491 -3.7490 0.0000 0.0000 0.0000
# 3 1.7066 -3.7490 41.7776 0.0000 0.0000 0.0000
# 4 0.0000 0.0000 0.0000 35.9710 0.0000 0.0000
# 5 0.0000 0.0000 0.0000 0.0000 9.8365 0.0000
# 6 0.0000 0.0000 0.0000 0.0000 0.0000 9.6158
#
#
#
# Elastic Compliance Matrix: (Units=1/GPa)
#
#
# Indices 1 2 3 4 5 6 
#
# 1 0.016675 0.000948 -0.000596 0.000000 0.000000 0.000000
# 2 0.000948 0.010759 0.000927 0.000000 0.000000 0.000000
# 3 -0.000596 0.000927 0.024044 0.000000 0.000000 0.000000
# 4 0.000000 0.000000 0.000000 0.027800 0.000000 0.000000
# 5 0.000000 0.000000 0.000000 0.000000 0.101662 0.000000
# 6 0.000000 0.000000 0.000000 0.000000 0.000000 0.103995
#
#
# Mechanical properties :
#
#
# Convention : Reuss Voigt Hill
#
# Bulk Modulus (GPa) = 18.50620 20.09467 19.30043
# Shear Modulus (GPa) = 16.64512 24.64323 20.64418
#
# Velocity S-wave (km/s) = 2.77416 3.37549 3.08949
# Velocity P-wave (km/s) = 4.33794 4.94801 4.65299
#
# Compressibility (1/GPa) = 0.05403596
#
# Stress axis : x y z
#
# Youngs Moduli (GPa) = 59.97104 92.94429 41.59077
#
# Poissons Ratio (x) = -0.08815 0.02479
# Poissons Ratio (y) = -0.05688 -0.03854
# Poissons Ratio (z) = 0.03574 -0.08614
#
# Static dielectric constant tensor:
#      x y z
#    x 1.789500 0.000000 0.000000 
#    y 0.000000 1.752760 0.000000 
#    z 0.000000 0.000000 1.789970 
# 
# From -- ./inp_files/8675.got.cif
#   From: 2010.05.17/outbox.cif.g08.bks.cpg/sg55_5_cif.got.tgz:8675.got - 2010.06.03 13:27:54.
