data_PCOD9426629
_publ_section_title
;
Structure prediction by ZEFSAII (Michael W. Deem and Ramdas Pophale) SiO2 
 PCOD9426629
Probable space group: P B A M
;
_chemical_formula_sum "Si O2"
_cell_formula_units_Z 64
_cell_length_a 15.093028
_cell_length_b 25.302048
_cell_length_c 7.816937
_cell_angle_alpha 90.000000
_cell_angle_beta 90.000000
_cell_angle_gamma 90.000000
_cell_volume 2985.167226
_symmetry_space_group_name_H-M "P B A M"
_symmetry_group_IT_number 55
_symmetry_cell_setting 'orthorhombic'
loop_
_space_group_symop_operation_xyz
x,y,z
-x,-y,z
1/2+x,1/2-y,-z
1/2-x,1/2+y,-z
-x,-y,-z
x,y,-z
1/2-x,1/2+y,z
1/2+x,1/2-y,z
loop_
_atom_site_type_symbol
_atom_site_label
_atom_site_fract_x
_atom_site_fract_y
_atom_site_fract_z
Si Si1 0.131300 0.845385 0.702561
Si Si2 0.560063 0.373046 0.293711
Si Si3 0.019223 0.667363 0.796346
Si Si4 0.682104 0.766374 0.196550
Si Si5 0.749226 0.062134 0.206373
Si Si6 0.451677 0.946314 0.209863
Si Si7 0.097149 0.013874 0.202262
Si Si8 0.882702 0.757862 0.300954
O O1 0.126582 0.835259 0.500000
O O2 0.132605 0.789709 0.795536
O O3 0.216471 0.879992 0.744632
O O4 0.043619 0.877661 0.753165
O O5 0.567908 0.374002 0.500000
O O6 0.611057 0.423686 0.225004
O O7 0.589919 0.315481 0.230585
O O8 0.995051 0.608979 0.731704
O O9 0.938220 0.708835 0.772853
O O10 0.111595 0.691934 0.727912
O O11 0.032099 0.663040 0.000000
O O12 0.776604 0.756234 0.283796
O O13 0.701529 0.780406 0.000000
O O14 0.650209 0.052369 0.266835
O O15 0.822234 0.020690 0.273267
O O16 0.747484 0.058926 0.000000
O O17 0.500000 0.000000 0.263245
O O18 0.452724 0.945304 0.000000
O O19 0.093298 0.002310 0.000000
O O20 0.000000 0.000000 0.276749
O O21 0.906974 0.757907 0.500000
#
# Coordination Sequence:
#
# PCOD9426629 Si02
#       8
#     8   8   8   8   8   8   8   8
#     4  11  21  36  58  84 115 154 198 240 294 354
#     4  10  22  37  55  81 114 155 193 236 292 353
#     4  10  21  38  62  90 117 151 197 246 296 350
#     4  11  23  37  58  88 120 154 196 245 298 355
#     4  10  20  35  58  86 115 152 197 245 295 350
#     4   9  19  37  60  84 111 145 189 239 288 340
#     4  10  20  33  52  82 117 151 188 235 292 351
#     4  11  23  40  60  86 121 157 197 241 296 359
#
# _framework density 21.439333999999999
#
# number of rings (size 3 to 8) (size 9 to 14) (size 15 to 20)
#    0.000    1.750    2.500    1.875    0.000    4.750 
#    0.000    2.500    0.000    1.500    0.000    0.000 
#    0.000    0.000    0.000    0.000    0.000    0.000 
#
# Total GULP energy -357429.327718 kJ/mol
# GULP energy per Si atom -5584.833246 kJ/mol
# Density = 2.139054 g / cm^3
# Si number density = 21.439334 Si / 1000 Ang^3
#
#
#
# Elastic Constant Matrix: (Units=GPa)
#
#
# Indices 1 2 3 4 5 6 
#
# 1 89.8155 49.5595 1.0536 0.0000 0.0000 0.0000
# 2 49.5595 145.5548 -4.2305 0.0000 0.0000 0.0000
# 3 1.0536 -4.2305 23.1608 0.0000 0.0000 0.0000
# 4 0.0000 0.0000 0.0000 121.6316 0.0000 0.0000
# 5 0.0000 0.0000 0.0000 0.0000 37.2959 0.0000
# 6 0.0000 0.0000 0.0000 0.0000 0.0000 37.2798
#
#
#
# Elastic Compliance Matrix: (Units=1/GPa)
#
#
# Indices 1 2 3 4 5 6 
#
# 1 0.013761 -0.004729 -0.001490 0.000000 0.000000 0.000000
# 2 -0.004729 0.008532 0.001774 0.000000 0.000000 0.000000
# 3 -0.001490 0.001774 0.043568 0.000000 0.000000 0.000000
# 4 0.000000 0.000000 0.000000 0.008222 0.000000 0.000000
# 5 0.000000 0.000000 0.000000 0.000000 0.026813 0.000000
# 6 0.000000 0.000000 0.000000 0.000000 0.000000 0.026824
#
#
# Mechanical properties :
#
#
# Convention : Reuss Voigt Hill
#
# Bulk Modulus (GPa) = 17.55277 39.03292 28.29284
# Shear Modulus (GPa) = 32.13392 53.38469 42.75931
#
# Velocity S-wave (km/s) = 3.87567 4.99544 4.47075
# Velocity P-wave (km/s) = 5.31345 7.17762 6.31471
#
# Compressibility (1/GPa) = 0.05697106
#
# Stress axis : x y z
#
# Youngs Moduli (GPa) = 72.67113 117.20796 22.95255
#
# Poissons Ratio (x) = 0.55423 0.03419
# Poissons Ratio (y) = 0.34363 -0.04071
# Poissons Ratio (z) = 0.10826 -0.20787
#
# Static dielectric constant tensor:
#      x y z
#    x 1.794520 0.000000 0.000000 
#    y 0.000000 1.768770 0.000000 
#    z 0.000000 0.000000 1.768190 
# 
# From -- ./inp_files/6677.got.cif
#   From: 2010.05.17/outbox.cif.g08.bks.cpg/sg55_4_cif.got.tgz:6677.got - 2010.06.03 13:27:54.
