data_PCOD9426847
_publ_section_title
;
Structure prediction by ZEFSAII (Michael W. Deem and Ramdas Pophale) SiO2 
 PCOD9426847
Probable space group: P B A M
;
_chemical_formula_sum "Si O2"
_cell_formula_units_Z 36
_cell_length_a 5.047777
_cell_length_b 24.743449
_cell_length_c 13.678240
_cell_angle_alpha 90.000000
_cell_angle_beta 90.000000
_cell_angle_gamma 90.000000
_cell_volume 1708.404144
_symmetry_space_group_name_H-M "P B A M"
_symmetry_group_IT_number 55
_symmetry_cell_setting 'orthorhombic'
loop_
_space_group_symop_operation_xyz
x,y,z
-x,-y,z
1/2+x,1/2-y,-z
1/2-x,1/2+y,-z
-x,-y,-z
x,y,-z
1/2-x,1/2+y,z
1/2+x,1/2-y,z
loop_
_atom_site_type_symbol
_atom_site_label
_atom_site_fract_x
_atom_site_fract_y
_atom_site_fract_z
Si Si1 0.252596 0.637832 0.389736
Si Si2 0.414711 0.392073 0.885520
Si Si3 0.592971 0.938637 0.221514
Si Si4 0.403545 0.787228 0.500000
Si Si5 0.991825 0.211472 0.770433
O O1 0.352489 0.625482 0.500000
O O2 0.170541 0.586444 0.326391
O O3 0.995489 0.675478 0.410042
O O4 0.446167 0.673543 0.323175
O O5 0.649580 0.430435 0.846288
O O6 0.501050 0.330936 0.859542
O O7 0.147958 0.404877 0.825629
O O8 0.370783 0.399498 0.000000
O O9 0.500000 0.000000 0.228296
O O10 0.615945 0.738059 0.500000
O O11 0.718858 0.243454 0.771739
#
# Coordination Sequence:
#
# PCOD9426847 Si02
#       5
#     8   8   8   4   8
#     4   9  22  40  61  96 130 169 214 263 306 384
#     4  11  25  44  66  96 130 165 220 279 330 398
#     4  11  24  44  67  95 129 170 221 276 333 387
#     4  10  20  34  57  86 121 162 202 244 296 362
#     4  11  22  38  62  92 128 168 207 255 318 384
#
# _framework density 21.072299999999998
#
# number of rings (size 3 to 8) (size 9 to 14) (size 15 to 20)
#    0.667    0.889    0.000    5.333    0.000    7.556 
#    0.000    0.000    0.000    6.667    0.000    0.000 
#    0.000    0.000    0.000    0.000    0.000    0.000 
#
# Total GULP energy -201274.931695 kJ/mol
# GULP energy per Si atom -5590.970325 kJ/mol
# Density = 2.102434 g / cm^3
# Si number density = 21.072300 Si / 1000 Ang^3
#
#
#
# Elastic Constant Matrix: (Units=GPa)
#
#
# Indices 1 2 3 4 5 6 
#
# 1 70.9760 -3.7656 -1.8952 0.0000 0.0000 0.0000
# 2 -3.7656 74.6849 36.3120 0.0000 0.0000 0.0000
# 3 -1.8952 36.3120 96.6048 0.0000 0.0000 0.0000
# 4 0.0000 0.0000 0.0000 -35.6401 0.0000 0.0000
# 5 0.0000 0.0000 0.0000 0.0000 11.7955 0.0000
# 6 0.0000 0.0000 0.0000 0.0000 0.0000 19.3628
#
#
#
# Elastic Compliance Matrix: (Units=1/GPa)
#
#
# Indices 1 2 3 4 5 6 
#
# 1 0.014127 0.000707 0.000012 0.000000 0.000000 0.000000
# 2 0.000707 0.016419 -0.006158 0.000000 0.000000 0.000000
# 3 0.000012 -0.006158 0.012666 0.000000 0.000000 0.000000
# 4 0.000000 0.000000 0.000000 -0.028058 0.000000 0.000000
# 5 0.000000 0.000000 0.000000 0.000000 0.084778 0.000000
# 6 0.000000 0.000000 0.000000 0.000000 0.000000 0.051645
#
#
# Mechanical properties :
#
#
# Convention : Reuss Voigt Hill
#
# Bulk Modulus (GPa) = 30.92784 33.72978 32.32881
# Shear Modulus (GPa) = 28.86256 13.21127 21.03691
#
# Velocity S-wave (km/s) = 3.70495 2.50661 3.16305
# Velocity P-wave (km/s) = 5.74553 4.94155 5.35864
#
# Compressibility (1/GPa) = 0.03233333
#
# Stress axis : x y z
#
# Youngs Moduli (GPa) = 70.78604 60.90448 78.94971
#
# Poissons Ratio (x) = -0.04304 -0.00091
# Poissons Ratio (y) = -0.05002 0.48616
# Poissons Ratio (z) = -0.00082 0.37504
#
# Static dielectric constant tensor:
#      x y z
#    x 1.762540 0.000000 0.000000 
#    y 0.000000 1.750520 0.000000 
#    z 0.000000 0.000000 1.789630 
# 
# From -- ./inp_files/16533.got.cif
#   From: 2010.05.17/outbox.cif.g08.bks.cpg/sg55_9_cif.got.tgz:16533.got - 2010.06.03 13:27:54.
