data_PCOD9426374
_publ_section_title
;
Structure prediction by ZEFSAII (Michael W. Deem and Ramdas Pophale) SiO2 
 PCOD9426374
Probable space group: P B A M
;
_chemical_formula_sum "Si O2"
_cell_formula_units_Z 64
_cell_length_a 31.642287
_cell_length_b 11.691899
_cell_length_c 9.121313
_cell_angle_alpha 90.000000
_cell_angle_beta 90.000000
_cell_angle_gamma 90.000000
_cell_volume 3374.506580
_symmetry_space_group_name_H-M "P B A M"
_symmetry_group_IT_number 55
_symmetry_cell_setting 'orthorhombic'
loop_
_space_group_symop_operation_xyz
x,y,z
-x,-y,z
1/2+x,1/2-y,-z
1/2-x,1/2+y,-z
-x,-y,-z
x,y,-z
1/2-x,1/2+y,z
1/2+x,1/2-y,z
loop_
_atom_site_type_symbol
_atom_site_label
_atom_site_fract_x
_atom_site_fract_y
_atom_site_fract_z
Si Si1 0.683316 0.047158 0.832027
Si Si2 0.724249 0.250366 0.667711
Si Si3 0.526251 0.118673 0.177146
Si Si4 0.809445 0.205930 0.832923
Si Si5 0.722094 0.452859 0.159703
Si Si6 0.487684 0.370475 0.176196
Si Si7 0.406088 0.240579 0.174787
Si Si8 0.401437 0.007972 0.325703
O O1 0.696459 0.169420 0.769503
O O2 0.728107 0.981871 0.829191
O O3 0.646669 0.997783 0.731470
O O4 0.668639 0.049795 0.000000
O O5 0.721253 0.216405 0.500000
O O6 0.772629 0.245319 0.724270
O O7 0.709664 0.377523 0.702995
O O8 0.509672 0.247208 0.221304
O O9 0.500000 0.000000 0.213780
O O10 0.571329 0.092426 0.251232
O O11 0.528854 0.119791 0.000000
O O12 0.857289 0.233172 0.792653
O O13 0.802904 0.070395 0.839931
O O14 0.802157 0.249857 0.000000
O O15 0.715147 0.396214 0.000000
O O16 0.500000 0.500000 0.229880
O O17 0.438216 0.343744 0.205264
O O18 0.493965 0.374077 0.000000
O O19 0.418512 0.128809 0.265288
O O20 0.409567 0.214717 0.000000
O O21 0.403686 0.001860 0.500000
#
# Coordination Sequence:
#
# PCOD9426374 Si02
#       8
#     8   8   8   8   8   8   8   8
#     4  10  21  38  58  79 107 146 195 242 284 333
#     4  11  21  33  52  78 112 148 183 231 291 346
#     4  10  19  37  63  89 116 152 196 239 291 351
#     4   9  19  34  54  78 106 146 195 241 283 336
#     4   9  18  34  53  75 105 145 190 233 281 340
#     4   9  18  35  61  91 119 147 193 250 296 342
#     4  10  19  36  60  85 115 150 197 247 290 341
#     4  12  24  36  56  88 122 150 189 239 297 354
#
# _framework density 18.965736
#
# number of rings (size 3 to 8) (size 9 to 14) (size 15 to 20)
#    0.000    2.000    1.250    4.125    0.000    6.250 
#    2.250    0.000    0.000    1.500    0.000    0.000 
#    0.000    0.000    0.000    0.000    0.000    0.000 
#
# Total GULP energy -356531.261212 kJ/mol
# GULP energy per Si atom -5570.800956 kJ/mol
# Density = 1.892257 g / cm^3
# Si number density = 18.965736 Si / 1000 Ang^3
#
#
#
# Elastic Constant Matrix: (Units=GPa)
#
#
# Indices 1 2 3 4 5 6 
#
# 1 60.4355 42.7637 10.4460 0.0000 0.0000 0.0000
# 2 42.7637 120.9669 25.0805 0.0000 0.0000 0.0000
# 3 10.4460 25.0805 25.3167 0.0000 0.0000 0.0000
# 4 0.0000 0.0000 0.0000 -0.7287 0.0000 0.0000
# 5 0.0000 0.0000 0.0000 0.0000 2.9856 0.0000
# 6 0.0000 0.0000 0.0000 0.0000 0.0000 -285.2563
#
#
#
# Elastic Compliance Matrix: (Units=1/GPa)
#
#
# Indices 1 2 3 4 5 6 
#
# 1 0.022127 -0.007462 -0.001738 0.000000 0.000000 0.000000
# 2 -0.007462 0.012920 -0.009721 0.000000 0.000000 0.000000
# 3 -0.001738 -0.009721 0.049846 0.000000 0.000000 0.000000
# 4 0.000000 0.000000 0.000000 -1.372230 0.000000 0.000000
# 5 0.000000 0.000000 0.000000 0.000000 0.334937 0.000000
# 6 0.000000 0.000000 0.000000 0.000000 0.000000 -0.003506
#
#
# Mechanical properties :
#
#
# Convention : Reuss Voigt Hill
#
# Bulk Modulus (GPa) = 21.25255 40.36662 30.80958
# Shear Modulus (GPa) = -5.54090 -48.03796 -26.78943
#
# Velocity S-wave (km/s) = -1.71110 -5.03823 -3.76242
# Velocity P-wave (km/s) = 2.70671 3.53764 1.61069
#
# Compressibility (1/GPa) = 0.04705318
#
# Stress axis : x y z
#
# Youngs Moduli (GPa) = 45.19381 77.39916 20.06165
#
# Poissons Ratio (x) = 0.57755 0.03486
# Poissons Ratio (y) = 0.33723 0.19501
# Poissons Ratio (z) = 0.07853 0.75236
#
# Static dielectric constant tensor:
#      x y z
#    x 1.675140 0.000000 0.000000 
#    y 0.000000 1.715890 0.000000 
#    z 0.000000 0.000000 1.640660 
# 
# From -- ./inp_files/10870.got.cif
#   From: 2010.05.17/outbox.cif.g08.bks.cpg/sg55_6_cif.got.tgz:10870.got - 2010.06.03 13:27:54.
