data_PCOD9426987
_publ_section_title
;
Structure prediction by ZEFSAII (Michael W. Deem and Ramdas Pophale) SiO2 
 PCOD9426987
Probable space group: P B A M
;
_chemical_formula_sum "Si O2"
_cell_formula_units_Z 56
_cell_length_a 19.690412
_cell_length_b 14.189545
_cell_length_c 9.355732
_cell_angle_alpha 90.000000
_cell_angle_beta 90.000000
_cell_angle_gamma 90.000000
_cell_volume 2613.972689
_symmetry_space_group_name_H-M "P B A M"
_symmetry_group_IT_number 55
_symmetry_cell_setting 'orthorhombic'
loop_
_space_group_symop_operation_xyz
x,y,z
-x,-y,z
1/2+x,1/2-y,-z
1/2-x,1/2+y,-z
-x,-y,-z
x,y,-z
1/2-x,1/2+y,z
1/2+x,1/2-y,z
loop_
_atom_site_type_symbol
_atom_site_label
_atom_site_fract_x
_atom_site_fract_y
_atom_site_fract_z
Si Si1 0.785121 0.938244 0.168482
Si Si2 0.510990 0.732450 0.165850
Si Si3 0.143364 0.780676 0.664961
Si Si4 0.932815 0.954010 0.168075
Si Si5 0.082172 0.398141 0.171407
Si Si6 0.149251 0.552859 0.334579
Si Si7 0.277810 0.788790 0.165600
O O1 0.857950 0.973447 0.224932
O O2 0.720356 0.970478 0.256832
O O3 0.787445 0.824165 0.176742
O O4 0.777119 0.961860 0.000000
O O5 0.575042 0.693719 0.251423
O O6 0.450124 0.656795 0.170391
O O7 0.479850 0.831207 0.217007
O O8 0.531377 0.742850 0.000000
O O9 0.141192 0.808755 0.500000
O O10 0.142882 0.665826 0.672846
O O11 0.212655 0.813688 0.739443
O O12 0.930167 0.982858 0.000000
O O13 0.000000 0.000000 0.233510
O O14 0.091106 0.496486 0.251078
O O15 0.152030 0.340641 0.201392
O O16 0.077523 0.411356 0.000000
O O17 0.150204 0.524908 0.500000
O O18 0.262017 0.809784 0.000000
#
# Coordination Sequence:
#
# PCOD9426987 Si02
#       7
#     8   8   8   8   8   8   8
#     4   9  16  32  56  79 105 137 177 224 272 325
#     4  10  20  36  57  83 113 146 186 232 280 333
#     4  10  22  38  54  78 114 152 187 226 277 336
#     4   9  17  31  55  85 113 140 173 220 278 334
#     4  10  20  35  57  83 109 142 190 237 281 330
#     4  10  22  37  53  78 111 147 187 231 277 328
#     4   9  17  33  57  79 102 139 185 233 277 323
#
# _framework density 21.423328999999999
#
# number of rings (size 3 to 8) (size 9 to 14) (size 15 to 20)
#    0.000    2.429    1.429    0.857    0.000    4.571 
#    0.000    6.429    0.000    0.857    0.000    0.000 
#    0.000    0.000    0.000    0.000    0.000    0.000 
#
# Total GULP energy -312819.465527 kJ/mol
# GULP energy per Si atom -5586.061884 kJ/mol
# Density = 2.137457 g / cm^3
# Si number density = 21.423329 Si / 1000 Ang^3
#
#
#
# Elastic Constant Matrix: (Units=GPa)
#
#
# Indices 1 2 3 4 5 6 
#
# 1 96.3594 2.2587 31.2918 0.0000 0.0000 0.0000
# 2 2.2587 47.6639 -0.4674 0.0000 0.0000 0.0000
# 3 31.2918 -0.4674 39.0934 0.0000 0.0000 0.0000
# 4 0.0000 0.0000 0.0000 11.6255 0.0000 0.0000
# 5 0.0000 0.0000 0.0000 0.0000 -348.7578 0.0000
# 6 0.0000 0.0000 0.0000 0.0000 0.0000 36.4189
#
#
#
# Elastic Compliance Matrix: (Units=1/GPa)
#
#
# Indices 1 2 3 4 5 6 
#
# 1 0.014051 -0.000776 -0.011257 0.000000 0.000000 0.000000
# 2 -0.000776 0.021026 0.000873 0.000000 0.000000 0.000000
# 3 -0.011257 0.000873 0.034600 0.000000 0.000000 0.000000
# 4 0.000000 0.000000 0.000000 0.086018 0.000000 0.000000
# 5 0.000000 0.000000 0.000000 0.000000 -0.002867 0.000000
# 6 0.000000 0.000000 0.000000 0.000000 0.000000 0.027458
#
#
# Mechanical properties :
#
#
# Convention : Reuss Voigt Hill
#
# Bulk Modulus (GPa) = 21.11612 27.69810 24.40711
# Shear Modulus (GPa) = 22.89456 -50.14044 -13.62294
#
# Velocity S-wave (km/s) = 3.27260 -4.84308 -2.52443
# Velocity P-wave (km/s) = 4.91507 4.27982 1.70896
#
# Compressibility (1/GPa) = 0.04735719
#
# Stress axis : x y z
#
# Youngs Moduli (GPa) = 71.16678 47.56113 28.90135
#
# Poissons Ratio (x) = 0.03692 0.32533
# Poissons Ratio (y) = 0.05524 -0.02522
# Poissons Ratio (z) = 0.80110 -0.04151
#
# Static dielectric constant tensor:
#      x y z
#    x 1.766810 0.000000 0.000000 
#    y 0.000000 1.849260 0.000000 
#    z 0.000000 0.000000 1.720500 
# 
# From -- ./inp_files/8745.got.cif
#   From: 2010.05.17/outbox.cif.g08.bks.cpg/sg55_5_cif.got.tgz:8745.got - 2010.06.03 13:27:54.
