data_PCOD9426493
_publ_section_title
;
Structure prediction by ZEFSAII (Michael W. Deem and Ramdas Pophale) SiO2 
 PCOD9426493
Probable space group: P B A M
;
_chemical_formula_sum "Si O2"
_cell_formula_units_Z 56
_cell_length_a 12.362487
_cell_length_b 15.464435
_cell_length_c 14.035704
_cell_angle_alpha 90.000000
_cell_angle_beta 90.000000
_cell_angle_gamma 90.000000
_cell_volume 2683.330124
_symmetry_space_group_name_H-M "P B A M"
_symmetry_group_IT_number 55
_symmetry_cell_setting 'orthorhombic'
loop_
_space_group_symop_operation_xyz
x,y,z
-x,-y,z
1/2+x,1/2-y,-z
1/2-x,1/2+y,-z
-x,-y,-z
x,y,-z
1/2-x,1/2+y,z
1/2+x,1/2-y,z
loop_
_atom_site_type_symbol
_atom_site_label
_atom_site_fract_x
_atom_site_fract_y
_atom_site_fract_z
Si Si1 0.407044 0.754019 0.391072
Si Si2 0.224318 0.553268 0.228955
Si Si3 0.571366 0.914753 0.607276
Si Si4 0.036104 0.094672 0.263074
Si Si5 0.679696 0.141525 0.224470
Si Si6 0.461535 0.126340 0.892675
Si Si7 0.119473 0.822882 0.893051
O O1 0.368228 0.742475 0.500000
O O2 0.497377 0.829837 0.393014
O O3 0.454098 0.666312 0.345810
O O4 0.323955 0.793873 0.313861
O O5 0.168170 0.597283 0.319780
O O6 0.344921 0.586695 0.215907
O O7 0.226133 0.451701 0.251957
O O8 0.140302 0.570562 0.143553
O O9 0.610655 0.930995 0.500000
O O10 0.500000 0.000000 0.633999
O O11 0.952473 0.125751 0.182812
O O12 0.000000 0.000000 0.297908
O O13 0.560872 0.124497 0.180871
O O14 0.757440 0.177467 0.142695
O O15 0.422590 0.225187 0.893487
O O16 0.494318 0.102410 0.000000
O O17 0.111518 0.858792 0.000000
#
# Coordination Sequence:
#
# PCOD9426493 Si02
#       7
#     8   8   8   8   8   8   8
#     4  11  24  44  74 103 137 182 231 287 356 418
#     4  12  23  40  68  99 137 180 224 294 346 409
#     4  10  19  38  68 102 132 169 222 283 352 419
#     4  12  26  48  67  95 144 191 240 286 341 416
#     4  12  22  43  71 100 142 175 229 288 350 410
#     4  11  24  41  68 103 135 174 225 288 352 413
#     4  11  25  46  70  99 137 190 238 283 346 420
#
# _framework density 20.869589999999999
#
# number of rings (size 3 to 8) (size 9 to 14) (size 15 to 20)
#    0.000    0.714    5.714    1.714    0.000    3.429 
#    0.000    2.143    0.000    0.000    0.000    0.000 
#    0.000    0.000    0.000    0.000    0.000    0.000 
#
# Total GULP energy -313077.756486 kJ/mol
# GULP energy per Si atom -5590.674223 kJ/mol
# Density = 2.082209 g / cm^3
# Si number density = 20.869590 Si / 1000 Ang^3
#
#
#
# Elastic Constant Matrix: (Units=GPa)
#
#
# Indices 1 2 3 4 5 6 
#
# 1 84.3392 11.8461 25.4173 0.0000 0.0000 0.0000
# 2 11.8461 124.3861 33.8923 0.0000 0.0000 0.0000
# 3 25.4173 33.8923 129.8290 0.0000 0.0000 0.0000
# 4 0.0000 0.0000 0.0000 19.6665 0.0000 0.0000
# 5 0.0000 0.0000 0.0000 0.0000 22.9325 0.0000
# 6 0.0000 0.0000 0.0000 0.0000 0.0000 20.2567
#
#
#
# Elastic Compliance Matrix: (Units=1/GPa)
#
#
# Indices 1 2 3 4 5 6 
#
# 1 0.012638 -0.000570 -0.002325 0.000000 0.000000 0.000000
# 2 -0.000570 0.008681 -0.002155 0.000000 0.000000 0.000000
# 3 -0.002325 -0.002155 0.008720 0.000000 0.000000 0.000000
# 4 0.000000 0.000000 0.000000 0.050848 0.000000 0.000000
# 5 0.000000 0.000000 0.000000 0.000000 0.043606 0.000000
# 6 0.000000 0.000000 0.000000 0.000000 0.000000 0.049366
#
#
# Mechanical properties :
#
#
# Convention : Reuss Voigt Hill
#
# Bulk Modulus (GPa) = 50.15320 53.42951 51.79135
# Shear Modulus (GPa) = 26.23224 30.39773 28.31499
#
# Velocity S-wave (km/s) = 3.54921 3.82063 3.68742
# Velocity P-wave (km/s) = 6.39373 6.71715 6.55743
#
# Compressibility (1/GPa) = 0.01993891
#
# Stress axis : x y z
#
# Youngs Moduli (GPa) = 79.12808 115.19632 114.67692
#
# Poissons Ratio (x) = 0.06566 0.26667
# Poissons Ratio (y) = 0.04510 0.24708
# Poissons Ratio (z) = 0.18400 0.24820
#
# Static dielectric constant tensor:
#      x y z
#    x 1.745050 0.000000 0.000000 
#    y 0.000000 1.759830 0.000000 
#    z 0.000000 0.000000 1.757760 
# 
# From -- ./inp_files/18400.got.cif
#   From: 2010.05.17/outbox.cif.g08.bks.cpg/sg55_10_cif.got.tgz:18400.got - 2010.06.03 13:27:54.
