data_PCOD9426380
_publ_section_title
;
Structure prediction by ZEFSAII (Michael W. Deem and Ramdas Pophale) SiO2 
 PCOD9426380
Probable space group: P B A M
;
_chemical_formula_sum "Si O2"
_cell_formula_units_Z 58
_cell_length_a 8.227448
_cell_length_b 23.462031
_cell_length_c 13.166502
_cell_angle_alpha 90.000000
_cell_angle_beta 90.000000
_cell_angle_gamma 90.000000
_cell_volume 2541.564641
_symmetry_space_group_name_H-M "P B A M"
_symmetry_group_IT_number 55
_symmetry_cell_setting 'orthorhombic'
loop_
_space_group_symop_operation_xyz
x,y,z
-x,-y,z
1/2+x,1/2-y,-z
1/2-x,1/2+y,-z
-x,-y,-z
x,y,-z
1/2-x,1/2+y,z
1/2+x,1/2-y,z
loop_
_atom_site_type_symbol
_atom_site_label
_atom_site_fract_x
_atom_site_fract_y
_atom_site_fract_z
Si Si1 0.500000 0.000000 0.000000
Si Si2 0.074246 0.314080 0.381012
Si Si3 0.577930 0.584553 0.828044
Si Si4 0.775349 0.281150 0.745285
Si Si5 0.661494 0.589500 0.390721
Si Si6 0.240491 0.533527 0.834898
Si Si7 0.515776 0.699914 0.115237
Si Si8 0.174829 0.530411 0.390851
O O1 0.406319 0.037370 0.911387
O O2 0.054433 0.300157 0.500000
O O3 0.183334 0.265719 0.325306
O O4 0.174514 0.373322 0.375761
O O5 0.900995 0.315444 0.325020
O O6 0.556793 0.598250 0.708584
O O7 0.407275 0.562506 0.870259
O O8 0.709015 0.534026 0.833860
O O9 0.623619 0.642665 0.882164
O O10 0.639860 0.311914 0.813199
O O11 0.885263 0.248614 0.828126
O O12 0.591628 0.607171 0.500000
O O13 0.700072 0.522619 0.394806
O O14 0.198829 0.554614 0.721491
O O15 0.471362 0.714091 0.000000
O O16 0.188616 0.562255 0.500000
O O17 0.000000 0.500000 0.390877
#
# Coordination Sequence:
#
# PCOD9426380 Si02
#       8
#     2   8   8   8   8   8   8   8
#     4  12  24  42  58  92 120 158 204 262 292 374
#     4  10  19  36  60  88 121 156 192 245 310 368
#     4  10  22  41  61  90 119 161 197 250 305 367
#     4  10  22  39  59  88 118 158 201 258 298 370
#     4   9  18  34  58  87 119 153 193 238 294 364
#     4  10  23  39  62  87 126 157 200 250 304 362
#     4  11  23  41  62  84 118 159 210 257 307 356
#     4   9  17  33  55  81 114 153 191 236 290 344
#
# _framework density 22.820588000000001
#
# number of rings (size 3 to 8) (size 9 to 14) (size 15 to 20)
#    0.000    2.069    2.069    0.828    1.931    2.207 
#    0.000    3.448    3.034    0.000    0.000    0.000 
#    0.000    0.000    0.000    0.000    0.000    0.000 
#
# Total GULP energy -323287.996538 kJ/mol
# GULP energy per Si atom -5573.930975 kJ/mol
# Density = 2.276865 g / cm^3
# Si number density = 22.820588 Si / 1000 Ang^3
#
#
#
# Elastic Constant Matrix: (Units=GPa)
#
#
# Indices 1 2 3 4 5 6 
#
# 1 70.5552 2.7768 32.1609 0.0000 0.0000 0.0000
# 2 2.7768 39.4528 20.5559 0.0000 0.0000 0.0000
# 3 32.1609 20.5559 167.1808 0.0000 0.0000 0.0000
# 4 0.0000 0.0000 0.0000 -425.1748 0.0000 0.0000
# 5 0.0000 0.0000 0.0000 0.0000 20.2526 0.0000
# 6 0.0000 0.0000 0.0000 0.0000 0.0000 17.7020
#
#
#
# Elastic Compliance Matrix: (Units=1/GPa)
#
#
# Indices 1 2 3 4 5 6 
#
# 1 0.015545 0.000496 -0.003051 0.000000 0.000000 0.000000
# 2 0.000496 0.027098 -0.003427 0.000000 0.000000 0.000000
# 3 -0.003051 -0.003427 0.006990 0.000000 0.000000 0.000000
# 4 0.000000 0.000000 0.000000 -0.002352 0.000000 0.000000
# 5 0.000000 0.000000 0.000000 0.000000 0.049376 0.000000
# 6 0.000000 0.000000 0.000000 0.000000 0.000000 0.056491
#
#
# Mechanical properties :
#
#
# Convention : Reuss Voigt Hill
#
# Bulk Modulus (GPa) = 26.54872 43.13065 34.83968
# Shear Modulus (GPa) = 28.14232 -62.66437 -17.26103
#
# Velocity S-wave (km/s) = 3.51550 -5.24587 -2.75322
# Velocity P-wave (km/s) = 5.30446 4.21323 2.27881
#
# Compressibility (1/GPa) = 0.03766661
#
# Stress axis : x y z
#
# Youngs Moduli (GPa) = 64.33076 36.90375 143.06300
#
# Poissons Ratio (x) = -0.01829 0.43653
# Poissons Ratio (y) = -0.03189 0.49030
# Poissons Ratio (z) = 0.19629 0.12648
#
# Static dielectric constant tensor:
#      x y z
#    x 1.866470 0.000000 0.000000 
#    y 0.000000 1.867670 0.000000 
#    z 0.000000 0.000000 1.868030 
# 
# From -- ./inp_files/12582.got.cif
#   From: 2010.05.17/outbox.cif.g08.bks.cpg/sg55_7_cif.got.tgz:12582.got - 2010.06.03 13:27:54.
