data_PCOD9426137
_publ_section_title
;
Structure prediction by ZEFSAII (Michael W. Deem and Ramdas Pophale) SiO2 
 PCOD9426137
Probable space group: P B A M
;
_chemical_formula_sum "Si O2"
_cell_formula_units_Z 64
_cell_length_a 18.369229
_cell_length_b 13.388159
_cell_length_c 13.494354
_cell_angle_alpha 90.000000
_cell_angle_beta 90.000000
_cell_angle_gamma 90.000000
_cell_volume 3318.668619
_symmetry_space_group_name_H-M "P B A M"
_symmetry_group_IT_number 55
_symmetry_cell_setting 'orthorhombic'
loop_
_space_group_symop_operation_xyz
x,y,z
-x,-y,z
1/2+x,1/2-y,-z
1/2-x,1/2+y,-z
-x,-y,-z
x,y,-z
1/2-x,1/2+y,z
1/2+x,1/2-y,z
loop_
_atom_site_type_symbol
_atom_site_label
_atom_site_fract_x
_atom_site_fract_y
_atom_site_fract_z
Si Si1 0.975361 0.795108 0.709216
Si Si2 0.787066 0.891134 0.886765
Si Si3 0.387367 0.371385 0.384308
Si Si4 0.877613 0.470139 0.116004
Si Si5 0.339876 0.576552 0.687598
Si Si6 0.385053 0.793340 0.885025
Si Si7 0.951129 0.408210 0.687150
Si Si8 0.194529 0.671316 0.615139
O O1 0.906310 0.850399 0.663020
O O2 0.945432 0.759635 0.816319
O O3 0.043867 0.867362 0.689930
O O4 0.004811 0.692148 0.663623
O O5 0.835620 0.947266 0.804973
O O6 0.811934 0.774787 0.874864
O O7 0.702051 0.918898 0.873596
O O8 0.805113 0.918715 0.000000
O O9 0.409711 0.356625 0.500000
O O10 0.347418 0.476080 0.373340
O O11 0.334274 0.280585 0.355560
O O12 0.873711 0.589434 0.140077
O O13 0.931739 0.420317 0.195541
O O14 0.899512 0.460154 0.000000
O O15 0.265222 0.634095 0.670026
O O16 0.406405 0.789685 0.000000
O O17 0.873245 0.401521 0.635156
O O18 0.000000 0.500000 0.656394
O O19 0.211965 0.674152 0.500000
#
# Coordination Sequence:
#
# PCOD9426137 Si02
#       8
#     8   8   8   8   8   8   8   8
#     4  10  22  37  57  86 118 153 198 246 305 351
#     4   9  19  35  55  86 121 153 191 243 297 349
#     4  10  23  42  62  86 119 153 198 255 305 361
#     4  10  19  34  58  86 120 162 205 244 293 357
#     4  11  21  38  65  87 115 160 201 245 297 364
#     4   9  18  34  58  85 118 156 201 247 292 355
#     4  11  21  37  57  87 123 157 193 247 306 357
#     4  10  23  41  60  88 118 150 198 255 299 354
#
# _framework density 19.284842999999999
#
# number of rings (size 3 to 8) (size 9 to 14) (size 15 to 20)
#    0.000    2.000    2.500    0.750    0.000    5.500 
#    0.000    0.625    0.000    3.000    0.000    0.000 
#    0.000    0.000    0.000    0.000    0.000    0.000 
#
# Total GULP energy -356693.940456 kJ/mol
# GULP energy per Si atom -5573.342820 kJ/mol
# Density = 1.924095 g / cm^3
# Si number density = 19.284843 Si / 1000 Ang^3
#
#
#
# Elastic Constant Matrix: (Units=GPa)
#
#
# Indices 1 2 3 4 5 6 
#
# 1 99.9648 47.2552 31.9997 0.0000 0.0000 0.0000
# 2 47.2552 72.3746 27.8570 0.0000 0.0000 0.0000
# 3 31.9997 27.8570 36.6272 0.0000 0.0000 0.0000
# 4 0.0000 0.0000 0.0000 23.2472 0.0000 0.0000
# 5 0.0000 0.0000 0.0000 0.0000 13.6461 0.0000
# 6 0.0000 0.0000 0.0000 0.0000 0.0000 24.1748
#
#
#
# Elastic Compliance Matrix: (Units=1/GPa)
#
#
# Indices 1 2 3 4 5 6 
#
# 1 0.016195 -0.007251 -0.008634 0.000000 0.000000 0.000000
# 2 -0.007251 0.022782 -0.010992 0.000000 0.000000 0.000000
# 3 -0.008634 -0.010992 0.043206 0.000000 0.000000 0.000000
# 4 0.000000 0.000000 0.000000 0.043016 0.000000 0.000000
# 5 0.000000 0.000000 0.000000 0.000000 0.073281 0.000000
# 6 0.000000 0.000000 0.000000 0.000000 0.000000 0.041365
#
#
# Mechanical properties :
#
#
# Convention : Reuss Voigt Hill
#
# Bulk Modulus (GPa) = 35.17641 47.02117 41.09879
# Shear Modulus (GPa) = 16.49748 19.00393 17.75070
#
# Velocity S-wave (km/s) = 2.92800 3.14257 3.03718
# Velocity P-wave (km/s) = 5.45078 6.13213 5.80147
#
# Compressibility (1/GPa) = 0.02842814
#
# Stress axis : x y z
#
# Youngs Moduli (GPa) = 61.74726 43.89388 23.14496
#
# Poissons Ratio (x) = 0.31827 0.19984
# Poissons Ratio (y) = 0.44772 0.25442
# Poissons Ratio (z) = 0.53315 0.48250
#
# Static dielectric constant tensor:
#      x y z
#    x 1.678050 0.000000 0.000000 
#    y 0.000000 1.675800 0.000000 
#    z 0.000000 0.000000 1.709850 
# 
# From -- ./inp_files/19487.got.cif
#   From: 2010.05.17/outbox.cif.g08.bks.cpg/sg55_10_cif.got.tgz:19487.got - 2010.06.03 13:27:54.
