data_PCOD9426157
_publ_section_title
;
Structure prediction by ZEFSAII (Michael W. Deem and Ramdas Pophale) SiO2 
 PCOD9426157
Probable space group: P B A M
;
_chemical_formula_sum "Si O2"
_cell_formula_units_Z 40
_cell_length_a 18.288283
_cell_length_b 9.982554
_cell_length_c 11.019988
_cell_angle_alpha 90.000000
_cell_angle_beta 90.000000
_cell_angle_gamma 90.000000
_cell_volume 2011.850583
_symmetry_space_group_name_H-M "P B A M"
_symmetry_group_IT_number 55
_symmetry_cell_setting 'orthorhombic'
loop_
_space_group_symop_operation_xyz
x,y,z
-x,-y,z
1/2+x,1/2-y,-z
1/2-x,1/2+y,-z
-x,-y,-z
x,y,-z
1/2-x,1/2+y,z
1/2+x,1/2-y,z
loop_
_atom_site_type_symbol
_atom_site_label
_atom_site_fract_x
_atom_site_fract_y
_atom_site_fract_z
Si Si1 0.374091 0.540570 0.860578
Si Si2 0.739305 0.852693 0.290998
Si Si3 0.160763 0.391202 0.631233
Si Si4 0.441914 0.831444 0.141975
Si Si5 0.599529 0.755239 0.855212
O O1 0.302589 0.573084 0.784132
O O2 0.424493 0.671747 0.857471
O O3 0.410648 0.401499 0.821740
O O4 0.351238 0.522346 0.000000
O O5 0.779829 0.727851 0.353422
O O6 0.674609 0.799693 0.205223
O O7 0.701707 0.967192 0.369811
O O8 0.122811 0.371702 0.500000
O O9 0.109949 0.387339 0.751784
O O10 0.527476 0.841593 0.174586
O O11 0.429137 0.875910 0.000000
O O12 0.605852 0.764171 0.000000
#
# Coordination Sequence:
#
# PCOD9426157 Si02
#       5
#     8   8   8   8   8
#     4   9  17  32  57  88 122 158 196 240 291 350
#     4  11  21  38  60  87 118 156 201 244 300 345
#     4  11  24  42  62  85 120 158 201 246 297 355
#     4   9  20  37  61  89 123 158 196 243 296 352
#     4  10  19  34  59  93 124 155 196 246 297 353
#
# _framework density 19.882193000000001
#
# number of rings (size 3 to 8) (size 9 to 14) (size 15 to 20)
#    0.000    2.000    2.000    1.800    0.000    5.600 
#    0.000    5.000    0.000    2.400    0.000    0.000 
#    0.000    0.000    0.000    0.000    0.000    0.000 
#
# Total GULP energy -223105.435536 kJ/mol
# GULP energy per Si atom -5577.635888 kJ/mol
# Density = 1.983694 g / cm^3
# Si number density = 19.882193 Si / 1000 Ang^3
#
#
#
# Elastic Constant Matrix: (Units=GPa)
#
#
# Indices 1 2 3 4 5 6 
#
# 1 89.4265 13.1117 58.4593 0.0000 0.0000 0.0000
# 2 13.1117 80.4920 25.3917 0.0000 0.0000 0.0000
# 3 58.4593 25.3917 72.8269 0.0000 0.0000 0.0000
# 4 0.0000 0.0000 0.0000 -27.8230 0.0000 0.0000
# 5 0.0000 0.0000 0.0000 0.0000 6.9967 0.0000
# 6 0.0000 0.0000 0.0000 0.0000 0.0000 30.1768
#
#
#
# Elastic Compliance Matrix: (Units=1/GPa)
#
#
# Indices 1 2 3 4 5 6 
#
# 1 0.023945 0.002430 -0.020068 0.000000 0.000000 0.000000
# 2 0.002430 0.014206 -0.006904 0.000000 0.000000 0.000000
# 3 -0.020068 -0.006904 0.032247 0.000000 0.000000 0.000000
# 4 0.000000 0.000000 0.000000 -0.035941 0.000000 0.000000
# 5 0.000000 0.000000 0.000000 0.000000 0.142924 0.000000
# 6 0.000000 0.000000 0.000000 0.000000 0.000000 0.033138
#
#
# Mechanical properties :
#
#
# Convention : Reuss Voigt Hill
#
# Bulk Modulus (GPa) = 46.91676 48.51897 47.71787
# Shear Modulus (GPa) = 18.74714 11.58893 15.16804
#
# Velocity S-wave (km/s) = 3.07402 2.41691 2.76505
# Velocity P-wave (km/s) = 6.02064 5.67845 5.85205
#
# Compressibility (1/GPa) = 0.02131434
#
# Stress axis : x y z
#
# Youngs Moduli (GPa) = 41.76242 70.39513 31.01028
#
# Poissons Ratio (x) = -0.17107 0.62232
# Poissons Ratio (y) = -0.10149 0.21408
# Poissons Ratio (z) = 0.83810 0.48598
#
# Static dielectric constant tensor:
#      x y z
#    x 1.676290 0.000000 0.000000 
#    y 0.000000 1.751770 0.000000 
#    z 0.000000 0.000000 1.735780 
# 
# From -- ./inp_files/11858.got.cif
#   From: 2010.05.17/outbox.cif.g08.bks.cpg/sg55_6_cif.got.tgz:11858.got - 2010.06.03 13:27:54.
