data_PCOD9426397
_publ_section_title
;
Structure prediction by ZEFSAII (Michael W. Deem and Ramdas Pophale) SiO2 
 PCOD9426397
Probable space group: P B A M
;
_chemical_formula_sum "Si O2"
_cell_formula_units_Z 64
_cell_length_a 11.141149
_cell_length_b 33.311577
_cell_length_c 9.081830
_cell_angle_alpha 90.000000
_cell_angle_beta 90.000000
_cell_angle_gamma 90.000000
_cell_volume 3370.532691
_symmetry_space_group_name_H-M "P B A M"
_symmetry_group_IT_number 55
_symmetry_cell_setting 'orthorhombic'
loop_
_space_group_symop_operation_xyz
x,y,z
-x,-y,z
1/2+x,1/2-y,-z
1/2-x,1/2+y,-z
-x,-y,-z
x,y,-z
1/2-x,1/2+y,z
1/2+x,1/2-y,z
loop_
_atom_site_type_symbol
_atom_site_label
_atom_site_fract_x
_atom_site_fract_y
_atom_site_fract_z
Si Si1 0.747542 0.690149 0.672952
Si Si2 0.403654 0.883448 0.678751
Si Si3 0.876820 0.524142 0.678730
Si Si4 0.723025 0.270768 0.831519
Si Si5 0.864259 0.987890 0.175376
Si Si6 0.846301 0.892911 0.171221
Si Si7 0.016283 0.824403 0.165526
Si Si8 0.648577 0.840462 0.675279
O O1 0.769491 0.694083 0.500000
O O2 0.799480 0.647280 0.723462
O O3 0.800905 0.728513 0.754878
O O4 0.608330 0.689808 0.713459
O O5 0.404934 0.885191 0.500000
O O6 0.391729 0.929385 0.727167
O O7 0.525806 0.861391 0.724722
O O8 0.868302 0.522376 0.500000
O O9 0.751995 0.507222 0.745285
O O10 0.000000 0.500000 0.719041
O O11 0.602782 0.297403 0.829590
O O12 0.822143 0.297807 0.749177
O O13 0.759750 0.264589 0.000000
O O14 0.854274 0.939980 0.194908
O O15 0.856688 0.996995 0.000000
O O16 0.000000 0.000000 0.224333
O O17 0.972139 0.869882 0.190189
O O18 0.752516 0.871295 0.277131
O O19 0.810427 0.885325 0.000000
O O20 0.067664 0.821140 0.000000
O O21 0.646324 0.835353 0.500000
#
# Coordination Sequence:
#
# PCOD9426397 Si02
#       8
#     8   8   8   8   8   8   8   8
#     4  11  23  37  56  82 115 150 187 237 288 339
#     4   9  21  38  56  85 121 149 185 240 293 341
#     4  10  21  40  64  89 121 160 200 247 304 364
#     4  10  22  40  59  83 114 149 191 237 285 342
#     4  10  22  38  59  88 122 158 199 250 301 356
#     4   9  19  37  58  82 116 152 189 237 291 343
#     4   9  20  38  58  80 110 148 188 234 285 341
#     4  10  19  36  62  88 112 148 194 237 285 342
#
# _framework density 18.988098000000001
#
# number of rings (size 3 to 8) (size 9 to 14) (size 15 to 20)
#    0.000    2.250    0.000    2.625    3.500    4.500 
#    0.000    3.750    0.000    0.000    0.000    0.000 
#    0.000    0.000    0.000    0.000    0.000    0.000 
#
# Total GULP energy -356956.413466 kJ/mol
# GULP energy per Si atom -5577.443960 kJ/mol
# Density = 1.894488 g / cm^3
# Si number density = 18.988098 Si / 1000 Ang^3
#
#
#
# Elastic Constant Matrix: (Units=GPa)
#
#
# Indices 1 2 3 4 5 6 
#
# 1 81.5262 43.0064 27.0111 0.0000 0.0000 0.0000
# 2 43.0064 137.6890 40.2062 0.0000 0.0000 0.0000
# 3 27.0111 40.2062 55.1695 0.0000 0.0000 0.0000
# 4 0.0000 0.0000 0.0000 24.6016 0.0000 0.0000
# 5 0.0000 0.0000 0.0000 0.0000 22.5635 0.0000
# 6 0.0000 0.0000 0.0000 0.0000 0.0000 23.3230
#
#
#
# Elastic Compliance Matrix: (Units=1/GPa)
#
#
# Indices 1 2 3 4 5 6 
#
# 1 0.015802 -0.003400 -0.005259 0.000000 0.000000 0.000000
# 2 -0.003400 0.009958 -0.005592 0.000000 0.000000 0.000000
# 3 -0.005259 -0.005592 0.024776 0.000000 0.000000 0.000000
# 4 0.000000 0.000000 0.000000 0.040648 0.000000 0.000000
# 5 0.000000 0.000000 0.000000 0.000000 0.044319 0.000000
# 6 0.000000 0.000000 0.000000 0.000000 0.000000 0.042876
#
#
# Mechanical properties :
#
#
# Convention : Reuss Voigt Hill
#
# Bulk Modulus (GPa) = 45.38523 54.98136 50.18330
# Shear Modulus (GPa) = 23.33986 25.04168 24.19077
#
# Velocity S-wave (km/s) = 3.50977 3.63548 3.57318
# Velocity P-wave (km/s) = 6.35441 6.82941 6.59619
#
# Compressibility (1/GPa) = 0.02203360
#
# Stress axis : x y z
#
# Youngs Moduli (GPa) = 63.28356 100.42465 40.36132
#
# Poissons Ratio (x) = 0.34145 0.21225
# Poissons Ratio (y) = 0.21517 0.22571
# Poissons Ratio (z) = 0.33279 0.56160
#
# Static dielectric constant tensor:
#      x y z
#    x 1.667090 0.000000 0.000000 
#    y 0.000000 1.659760 0.000000 
#    z 0.000000 0.000000 1.641430 
# 
# From -- ./inp_files/4631.got.cif
#   From: 2010.05.17/outbox.cif.g08.bks.cpg/sg55_3_cif.got.tgz:4631.got - 2010.06.03 13:27:54.
