data_PCOD9426051
_publ_section_title
;
Structure prediction by ZEFSAII (Michael W. Deem and Ramdas Pophale) SiO2 
 PCOD9426051
Probable space group: P B A M
;
_chemical_formula_sum "Si O2"
_cell_formula_units_Z 64
_cell_length_a 27.685560
_cell_length_b 12.978492
_cell_length_c 9.622502
_cell_angle_alpha 90.000000
_cell_angle_beta 90.000000
_cell_angle_gamma 90.000000
_cell_volume 3457.526809
_symmetry_space_group_name_H-M "P B A M"
_symmetry_group_IT_number 55
_symmetry_cell_setting 'orthorhombic'
loop_
_space_group_symop_operation_xyz
x,y,z
-x,-y,z
1/2+x,1/2-y,-z
1/2-x,1/2+y,-z
-x,-y,-z
x,y,-z
1/2-x,1/2+y,z
1/2+x,1/2-y,z
loop_
_atom_site_type_symbol
_atom_site_label
_atom_site_fract_x
_atom_site_fract_y
_atom_site_fract_z
Si Si1 0.588568 0.151918 0.847087
Si Si2 0.310012 0.162201 0.835221
Si Si3 0.900343 0.252517 0.665542
Si Si4 0.889367 0.834443 0.337149
Si Si5 0.553316 0.536052 0.668337
Si Si6 0.779144 0.757813 0.337025
Si Si7 0.555896 0.973326 0.651742
Si Si8 0.303637 0.919673 0.847530
O O1 0.581006 0.250817 0.751186
O O2 0.646038 0.140282 0.860908
O O3 0.574325 0.047648 0.770737
O O4 0.566740 0.161444 0.000000
O O5 0.352800 0.221646 0.755155
O O6 0.259800 0.187644 0.760245
O O7 0.315509 0.038679 0.821336
O O8 0.309699 0.186073 0.000000
O O9 0.888394 0.242529 0.500000
O O10 0.927883 0.148778 0.711691
O O11 0.934043 0.353658 0.679041
O O12 0.900629 0.819610 0.500000
O O13 0.832100 0.811189 0.322031
O O14 0.907307 0.948085 0.296898
O O15 0.500000 0.500000 0.717310
O O16 0.550401 0.540768 0.500000
O O17 0.766721 0.761225 0.500000
O O18 0.779301 0.640298 0.279345
O O19 0.578847 0.997750 0.500000
O O20 0.500000 0.000000 0.641813
O O21 0.278696 0.912437 0.000000
#
# Coordination Sequence:
#
# PCOD9426051 Si02
#       8
#     8   8   8   8   8   8   8   8
#     4  10  19  34  56  81 111 146 186 231 286 345
#     4  11  22  38  59  83 116 157 194 236 296 359
#     4  10  21  37  58  88 119 153 197 243 294 351
#     4   9  19  36  58  83 114 150 195 245 294 345
#     4   9  19  36  61  88 118 157 200 247 296 353
#     4  10  21  35  55  86 116 150 195 247 299 350
#     4  10  21  34  54  85 117 147 187 238 292 350
#     4   9  19  36  55  77 109 148 188 231 285 348
#
# _framework density 18.510341
#
# number of rings (size 3 to 8) (size 9 to 14) (size 15 to 20)
#    0.000    2.250    1.250    1.125    1.750    3.250 
#    0.000    1.875    0.000    0.750    0.000    0.000 
#    0.000    0.000    0.000    0.000    0.000    0.000 
#
# Total GULP energy -356465.005137 kJ/mol
# GULP energy per Si atom -5569.765705 kJ/mol
# Density = 1.846821 g / cm^3
# Si number density = 18.510341 Si / 1000 Ang^3
#
#
#
# Elastic Constant Matrix: (Units=GPa)
#
#
# Indices 1 2 3 4 5 6 
#
# 1 49.7683 44.3880 50.1668 0.0000 0.0000 0.0000
# 2 44.3880 129.4743 66.0338 0.0000 0.0000 0.0000
# 3 50.1668 66.0338 99.3119 0.0000 0.0000 0.0000
# 4 0.0000 0.0000 0.0000 14.8346 0.0000 0.0000
# 5 0.0000 0.0000 0.0000 0.0000 18.8200 0.0000
# 6 0.0000 0.0000 0.0000 0.0000 0.0000 13.1263
#
#
#
# Elastic Compliance Matrix: (Units=1/GPa)
#
#
# Indices 1 2 3 4 5 6 
#
# 1 0.043469 -0.005604 -0.018232 0.000000 0.000000 0.000000
# 2 -0.005604 0.012409 -0.005420 0.000000 0.000000 0.000000
# 3 -0.018232 -0.005420 0.022883 0.000000 0.000000 0.000000
# 4 0.000000 0.000000 0.000000 0.067410 0.000000 0.000000
# 5 0.000000 0.000000 0.000000 0.000000 0.053135 0.000000
# 6 0.000000 0.000000 0.000000 0.000000 0.000000 0.076183
#
#
# Mechanical properties :
#
#
# Convention : Reuss Voigt Hill
#
# Bulk Modulus (GPa) = 49.38518 66.63684 58.01101
# Shear Modulus (GPa) = 14.67346 17.22058 15.94702
#
# Velocity S-wave (km/s) = 2.81858 3.05343 2.93835
# Velocity P-wave (km/s) = 6.10984 6.96485 6.55131
#
# Compressibility (1/GPa) = 0.02024899
#
# Stress axis : x y z
#
# Youngs Moduli (GPa) = 23.00472 80.58558 43.70054
#
# Poissons Ratio (x) = 0.45161 0.79675
# Poissons Ratio (y) = 0.12892 0.23686
# Poissons Ratio (z) = 0.41942 0.43679
#
# Static dielectric constant tensor:
#      x y z
#    x 1.521650 0.000000 0.000000 
#    y 0.000000 1.637090 0.000000 
#    z 0.000000 0.000000 1.679290 
# 
# From -- ./inp_files/4552.got.cif
#   From: 2010.05.17/outbox.cif.g08.bks.cpg/sg55_3_cif.got.tgz:4552.got - 2010.06.03 13:27:54.
