data_PCOD9426124
_publ_section_title
;
Structure prediction by ZEFSAII (Michael W. Deem and Ramdas Pophale) SiO2 
 PCOD9426124
Probable space group: P B A M
;
_chemical_formula_sum "Si O2"
_cell_formula_units_Z 56
_cell_length_a 21.779213
_cell_length_b 14.792210
_cell_length_c 7.538163
_cell_angle_alpha 90.000000
_cell_angle_beta 90.000000
_cell_angle_gamma 90.000000
_cell_volume 2428.514887
_symmetry_space_group_name_H-M "P B A M"
_symmetry_group_IT_number 55
_symmetry_cell_setting 'orthorhombic'
loop_
_space_group_symop_operation_xyz
x,y,z
-x,-y,z
1/2+x,1/2-y,-z
1/2-x,1/2+y,-z
-x,-y,-z
x,y,-z
1/2-x,1/2+y,z
1/2+x,1/2-y,z
loop_
_atom_site_type_symbol
_atom_site_label
_atom_site_fract_x
_atom_site_fract_y
_atom_site_fract_z
Si Si1 0.172229 0.415065 0.216330
Si Si2 0.732463 0.896951 0.217073
Si Si3 0.097687 0.926748 0.301350
Si Si4 0.629140 0.382154 0.800816
Si Si5 0.031358 0.407570 0.783204
Si Si6 0.787860 0.198210 0.214571
Si Si7 0.009836 0.211752 0.785232
O O1 0.198451 0.512403 0.274747
O O2 0.102368 0.402416 0.272887
O O3 0.221170 0.338898 0.270642
O O4 0.171765 0.414577 0.000000
O O5 0.803252 0.892974 0.278456
O O6 0.702463 0.801816 0.268959
O O7 0.733025 0.901089 0.000000
O O8 0.092984 0.961636 0.500000
O O9 0.159503 0.868884 0.278442
O O10 0.041579 0.859781 0.266634
O O11 0.101250 0.017217 0.187738
O O12 0.576725 0.319904 0.718961
O O13 0.639811 0.345188 0.000000
O O14 0.998057 0.314800 0.729512
O O15 0.000000 0.500000 0.722499
O O16 0.030758 0.409609 0.000000
O O17 0.789754 0.195506 0.000000
O O18 0.011906 0.210294 0.000000
#
# Coordination Sequence:
#
# PCOD9426124 Si02
#       7
#     8   8   8   8   8   8   8
#     4   9  16  29  51  84 116 139 172 225 279 329
#     4   9  17  29  55  88 113 140 177 226 284 339
#     4  12  25  38  54  80 115 152 194 236 282 335
#     4  10  19  37  60  87 114 144 186 235 289 342
#     4   9  18  31  52  87 122 145 177 229 283 335
#     4  10  19  34  58  84 113 146 186 232 282 333
#     4  10  21  36  58  84 113 147 187 234 285 338
#
# _framework density 23.059360999999999
#
# number of rings (size 3 to 8) (size 9 to 14) (size 15 to 20)
#    0.000    2.143    1.429    2.571    2.000    5.714 
#    0.000    0.714    0.000    3.000    0.000    0.000 
#    0.000    0.000    0.000    0.000    0.000    0.000 
#
# Total GULP energy -313030.635851 kJ/mol
# GULP energy per Si atom -5589.832783 kJ/mol
# Density = 2.300688 g / cm^3
# Si number density = 23.059361 Si / 1000 Ang^3
#
#
#
# Elastic Constant Matrix: (Units=GPa)
#
#
# Indices 1 2 3 4 5 6 
#
# 1 56.7059 -4.0717 -5.1056 0.0000 0.0000 0.0000
# 2 -4.0717 104.2188 -2.2200 0.0000 0.0000 0.0000
# 3 -5.1056 -2.2200 64.5914 0.0000 0.0000 0.0000
# 4 0.0000 0.0000 0.0000 -39.7373 0.0000 0.0000
# 5 0.0000 0.0000 0.0000 0.0000 55.8761 0.0000
# 6 0.0000 0.0000 0.0000 0.0000 0.0000 28.8688
#
#
#
# Elastic Compliance Matrix: (Units=1/GPa)
#
#
# Indices 1 2 3 4 5 6 
#
# 1 0.017816 0.000727 0.001433 0.000000 0.000000 0.000000
# 2 0.000727 0.009632 0.000388 0.000000 0.000000 0.000000
# 3 0.001433 0.000388 0.015609 0.000000 0.000000 0.000000
# 4 0.000000 0.000000 0.000000 -0.025165 0.000000 0.000000
# 5 0.000000 0.000000 0.000000 0.000000 0.017897 0.000000
# 6 0.000000 0.000000 0.000000 0.000000 0.000000 0.034639
#
#
# Mechanical properties :
#
#
# Convention : Reuss Voigt Hill
#
# Bulk Modulus (GPa) = 20.76711 22.52463 21.64587
# Shear Modulus (GPa) = 61.43872 24.79574 43.11723
#
# Velocity S-wave (km/s) = 5.16736 3.28273 4.32885
# Velocity P-wave (km/s) = 6.68039 4.91506 5.86453
#
# Compressibility (1/GPa) = 0.04815306
#
# Stress axis : x y z
#
# Youngs Moduli (GPa) = 56.12914 103.82213 64.06738
#
# Poissons Ratio (x) = -0.07543 -0.09182
# Poissons Ratio (y) = -0.04078 -0.02489
# Poissons Ratio (z) = -0.08045 -0.04033
#
# Static dielectric constant tensor:
#      x y z
#    x 1.820370 0.000000 0.000000 
#    y 0.000000 1.824050 0.000000 
#    z 0.000000 0.000000 1.927930 
# 
# From -- ./inp_files/8713.got.cif
#   From: 2010.05.17/outbox.cif.g08.bks.cpg/sg55_5_cif.got.tgz:8713.got - 2010.06.03 13:27:54.
