data_PCOD9426798
_publ_section_title
;
Structure prediction by ZEFSAII (Michael W. Deem and Ramdas Pophale) SiO2 
 PCOD9426798
Probable space group: P B A M
;
_chemical_formula_sum "Si O2"
_cell_formula_units_Z 56
_cell_length_a 24.673603
_cell_length_b 13.616850
_cell_length_c 8.330187
_cell_angle_alpha 90.000000
_cell_angle_beta 90.000000
_cell_angle_gamma 90.000000
_cell_volume 2798.749164
_symmetry_space_group_name_H-M "P B A M"
_symmetry_group_IT_number 55
_symmetry_cell_setting 'orthorhombic'
loop_
_space_group_symop_operation_xyz
x,y,z
-x,-y,z
1/2+x,1/2-y,-z
1/2-x,1/2+y,-z
-x,-y,-z
x,y,-z
1/2-x,1/2+y,z
1/2+x,1/2-y,z
loop_
_atom_site_type_symbol
_atom_site_label
_atom_site_fract_x
_atom_site_fract_y
_atom_site_fract_z
Si Si1 0.832581 0.973912 0.193961
Si Si2 0.949962 0.288221 0.805400
Si Si3 0.631159 0.948321 0.812145
Si Si4 0.273942 0.923275 0.686156
Si Si5 0.156861 0.249789 0.811001
Si Si6 0.948032 0.061800 0.195890
Si Si7 0.438544 0.878023 0.313322
O O1 0.827093 0.859536 0.239607
O O2 0.784783 0.039607 0.263906
O O3 0.891619 0.012312 0.244291
O O4 0.829338 0.979486 0.000000
O O5 0.895524 0.346430 0.758357
O O6 0.950402 0.175165 0.753747
O O7 0.002326 0.343617 0.737963
O O8 0.952788 0.291600 0.000000
O O9 0.683067 0.989311 0.719838
O O10 0.584588 0.030677 0.787600
O O11 0.645303 0.942402 0.000000
O O12 0.275890 0.897400 0.500000
O O13 0.296043 0.829448 0.783265
O O14 0.104358 0.290628 0.718727
O O15 0.142956 0.247037 0.000000
O O16 0.949031 0.061306 0.000000
O O17 0.000000 0.000000 0.250883
O O18 0.437630 0.905458 0.500000
#
# Coordination Sequence:
#
# PCOD9426798 Si02
#       7
#     8   8   8   8   8   8   8
#     4  10  21  38  62  87 110 144 189 234 278 329
#     4  10  20  34  55  82 111 145 184 229 280 331
#     4  10  20  35  55  80 111 147 191 236 276 327
#     4  11  23  38  57  83 117 150 183 229 284 342
#     4  10  20  37  61  83 108 146 193 238 277 326
#     4   9  18  35  59  85 110 137 178 230 278 324
#     4  11  21  33  53  81 114 150 187 227 278 337
#
# _framework density 20.008938000000001
#
# number of rings (size 3 to 8) (size 9 to 14) (size 15 to 20)
#    0.000    1.857    0.000    6.429    0.000    7.429 
#    0.000    3.571    0.000    1.714    0.000    0.000 
#    0.000    0.000    0.000    0.000    0.000    0.000 
#
# Total GULP energy -312945.393532 kJ/mol
# GULP energy per Si atom -5588.310599 kJ/mol
# Density = 1.996340 g / cm^3
# Si number density = 20.008938 Si / 1000 Ang^3
#
#
#
# Elastic Constant Matrix: (Units=GPa)
#
#
# Indices 1 2 3 4 5 6 
#
# 1 114.8650 35.0987 -3.4864 0.0000 0.0000 0.0000
# 2 35.0987 44.2846 -7.5680 0.0000 0.0000 0.0000
# 3 -3.4864 -7.5680 21.1511 0.0000 0.0000 0.0000
# 4 0.0000 0.0000 0.0000 -12.1018 0.0000 0.0000
# 5 0.0000 0.0000 0.0000 0.0000 -27.0374 0.0000
# 6 0.0000 0.0000 0.0000 0.0000 0.0000 14.1059
#
#
#
# Elastic Compliance Matrix: (Units=1/GPa)
#
#
# Indices 1 2 3 4 5 6 
#
# 1 0.011530 -0.009388 -0.001458 0.000000 0.000000 0.000000
# 2 -0.009388 0.031695 0.009793 0.000000 0.000000 0.000000
# 3 -0.001458 0.009793 0.050543 0.000000 0.000000 0.000000
# 4 0.000000 0.000000 0.000000 -0.082632 0.000000 0.000000
# 5 0.000000 0.000000 0.000000 0.000000 -0.036986 0.000000
# 6 0.000000 0.000000 0.000000 0.000000 0.000000 0.070892
#
#
# Mechanical properties :
#
#
# Convention : Reuss Voigt Hill
#
# Bulk Modulus (GPa) = 10.90959 25.37660 18.14310
# Shear Modulus (GPa) = 64.34846 5.41043 34.87944
#
# Velocity S-wave (km/s) = 5.67712 1.64617 4.17969
# Velocity P-wave (km/s) = 6.95968 4.04021 5.69036
#
# Compressibility (1/GPa) = 0.09166245
#
# Stress axis : x y z
#
# Youngs Moduli (GPa) = 86.72902 31.55041 19.78528
#
# Poissons Ratio (x) = 0.29619 0.02886
# Poissons Ratio (y) = 0.81419 -0.19376
# Poissons Ratio (z) = 0.12649 -0.30898
#
# Static dielectric constant tensor:
#      x y z
#    x 1.676940 0.000000 0.000000 
#    y 0.000000 1.703370 0.000000 
#    z 0.000000 0.000000 1.687560 
# 
# From -- ./inp_files/8782.got.cif
#   From: 2010.05.17/outbox.cif.g08.bks.cpg/sg55_5_cif.got.tgz:8782.got - 2010.06.03 13:27:54.
