data_PCOD9426216
_publ_section_title
;
Structure prediction by ZEFSAII (Michael W. Deem and Ramdas Pophale) SiO2 
 PCOD9426216
Probable space group: P B A M
;
_chemical_formula_sum "Si O2"
_cell_formula_units_Z 48
_cell_length_a 10.119642
_cell_length_b 30.081120
_cell_length_c 9.236559
_cell_angle_alpha 90.000000
_cell_angle_beta 90.000000
_cell_angle_gamma 90.000000
_cell_volume 2811.702453
_symmetry_space_group_name_H-M "P B A M"
_symmetry_group_IT_number 55
_symmetry_cell_setting 'orthorhombic'
loop_
_space_group_symop_operation_xyz
x,y,z
-x,-y,z
1/2+x,1/2-y,-z
1/2-x,1/2+y,-z
-x,-y,-z
x,y,-z
1/2-x,1/2+y,z
1/2+x,1/2-y,z
loop_
_atom_site_type_symbol
_atom_site_label
_atom_site_fract_x
_atom_site_fract_y
_atom_site_fract_z
Si Si1 0.506015 0.712362 0.326646
Si Si2 0.863469 0.473654 0.669761
Si Si3 0.293944 0.114670 0.172145
Si Si4 0.302164 0.207213 0.325820
Si Si5 0.136126 0.972660 0.828939
Si Si6 0.019278 0.879321 0.172110
O O1 0.515898 0.707781 0.500000
O O2 0.598121 0.753531 0.283399
O O3 0.350723 0.719330 0.291771
O O4 0.549212 0.666257 0.253805
O O5 0.839364 0.465264 0.500000
O O6 0.863962 0.427153 0.754751
O O7 0.747906 0.503801 0.736431
O O8 0.000000 0.500000 0.685544
O O9 0.332941 0.161224 0.245192
O O10 0.135635 0.109570 0.197560
O O11 0.315591 0.115495 0.000000
O O12 0.311087 0.200877 0.500000
O O13 0.105939 0.921880 0.785537
O O14 0.171307 0.973733 0.000000
O O15 0.000000 0.000000 0.814286
O O16 0.034194 0.872796 0.000000
#
# Coordination Sequence:
#
# PCOD9426216 Si02
#       6
#     8   8   8   8   8   8
#     4   9  18  33  53  75 104 139 174 215 263 314
#     4  11  24  39  54  79 113 146 182 225 270 323
#     4  10  19  35  58  80 105 142 181 220 268 322
#     4   9  18  34  54  77 104 138 176 217 265 317
#     4  10  19  36  59  82 109 141 179 223 269 319
#     4   9  18  33  55  81 107 135 174 224 266 312
#
# _framework density 17.071507
#
# number of rings (size 3 to 8) (size 9 to 14) (size 15 to 20)
#    0.000    2.333    1.667    1.000    0.000    3.667 
#    3.000    0.000    0.000    0.000    0.000    0.000 
#    0.000    0.000    0.000    0.000    0.000    0.000 
#
# Total GULP energy -267812.115789 kJ/mol
# GULP energy per Si atom -5579.419079 kJ/mol
# Density = 1.703265 g / cm^3
# Si number density = 17.071507 Si / 1000 Ang^3
#
#
#
# Elastic Constant Matrix: (Units=GPa)
#
#
# Indices 1 2 3 4 5 6 
#
# 1 51.9781 63.5574 43.5138 0.0000 0.0000 0.0000
# 2 63.5574 172.0815 70.5446 0.0000 0.0000 0.0000
# 3 43.5138 70.5446 56.6480 0.0000 0.0000 0.0000
# 4 0.0000 0.0000 0.0000 39.7227 0.0000 0.0000
# 5 0.0000 0.0000 0.0000 0.0000 19.9480 0.0000
# 6 0.0000 0.0000 0.0000 0.0000 0.0000 29.6845
#
#
#
# Elastic Compliance Matrix: (Units=1/GPa)
#
#
# Indices 1 2 3 4 5 6 
#
# 1 0.057107 -0.006352 -0.035956 0.000000 0.000000 0.000000
# 2 -0.006352 0.012579 -0.010785 0.000000 0.000000 0.000000
# 3 -0.035956 -0.010785 0.058703 0.000000 0.000000 0.000000
# 4 0.000000 0.000000 0.000000 0.025175 0.000000 0.000000
# 5 0.000000 0.000000 0.000000 0.000000 0.050130 0.000000
# 6 0.000000 0.000000 0.000000 0.000000 0.000000 0.033688
#
#
# Mechanical properties :
#
#
# Convention : Reuss Voigt Hill
#
# Bulk Modulus (GPa) = 45.04031 70.65990 57.85011
# Shear Modulus (GPa) = 14.24635 24.74383 19.49509
#
# Velocity S-wave (km/s) = 2.89192 3.81126 3.38297
# Velocity P-wave (km/s) = 6.13120 7.80051 7.01568
#
# Compressibility (1/GPa) = 0.02220233
#
# Stress axis : x y z
#
# Youngs Moduli (GPa) = 17.51111 79.50010 17.03493
#
# Poissons Ratio (x) = 0.50499 0.61250
# Poissons Ratio (y) = 0.11123 0.18372
# Poissons Ratio (z) = 0.62963 0.85741
#
# Static dielectric constant tensor:
#      x y z
#    x 1.564480 0.000000 0.000000 
#    y 0.000000 1.559760 0.000000 
#    z 0.000000 0.000000 1.567250 
# 
# From -- ./inp_files/2813.got.cif
#   From: 2010.05.17/outbox.cif.g08.bks.cpg/sg55_2_cif.got.tgz:2813.got - 2010.06.03 13:27:54.
