data_PCOD9426067
_publ_section_title
;
Structure prediction by ZEFSAII (Michael W. Deem and Ramdas Pophale) SiO2 
 PCOD9426067
Probable space group: P B A M
;
_chemical_formula_sum "Si O2"
_cell_formula_units_Z 40
_cell_length_a 13.462534
_cell_length_b 11.657130
_cell_length_c 13.354407
_cell_angle_alpha 90.000000
_cell_angle_beta 90.000000
_cell_angle_gamma 90.000000
_cell_volume 2095.767305
_symmetry_space_group_name_H-M "P B A M"
_symmetry_group_IT_number 55
_symmetry_cell_setting 'orthorhombic'
loop_
_space_group_symop_operation_xyz
x,y,z
-x,-y,z
1/2+x,1/2-y,-z
1/2-x,1/2+y,-z
-x,-y,-z
x,y,-z
1/2-x,1/2+y,z
1/2+x,1/2-y,z
loop_
_atom_site_type_symbol
_atom_site_label
_atom_site_fract_x
_atom_site_fract_y
_atom_site_fract_z
Si Si1 0.612252 0.458573 0.608773
Si Si2 0.796045 0.132698 0.245514
Si Si3 0.628516 0.067220 0.884079
Si Si4 0.891922 0.684766 0.614123
Si Si5 0.550230 0.842897 0.775334
O O1 0.500000 0.500000 0.604535
O O2 0.659744 0.490038 0.500000
O O3 0.657183 0.519242 0.705661
O O4 0.608112 0.322591 0.615054
O O5 0.737483 0.112228 0.142576
O O6 0.706736 0.157225 0.323520
O O7 0.876665 0.234310 0.234119
O O8 0.543465 0.159440 0.852712
O O9 0.608470 0.955413 0.814229
O O10 0.618215 0.037449 0.000000
O O11 0.888343 0.644030 0.500000
O O12 0.991690 0.643679 0.670429
#
# Coordination Sequence:
#
# PCOD9426067 Si02
#       5
#     8   8   8   8   8
#     4  10  19  34  56  83 119 157 185 222 278 336
#     4  11  21  36  60  87 115 150 192 239 283 337
#     4  10  23  41  60  84 111 147 195 244 296 340
#     4  10  21  35  56  87 119 155 193 226 275 341
#     4  10  20  38  60  80 113 152 187 233 283 339
#
# _framework density 19.086086999999999
#
# number of rings (size 3 to 8) (size 9 to 14) (size 15 to 20)
#    0.000    1.800    2.000    3.000    0.000    2.400 
#    0.000    9.000    0.000    1.800    0.000    0.000 
#    0.000    0.000    0.000    0.000    0.000    0.000 
#
# Total GULP energy -222858.773350 kJ/mol
# GULP energy per Si atom -5571.469334 kJ/mol
# Density = 1.904265 g / cm^3
# Si number density = 19.086087 Si / 1000 Ang^3
#
#
#
# Elastic Constant Matrix: (Units=GPa)
#
#
# Indices 1 2 3 4 5 6 
#
# 1 81.0463 25.3620 41.9393 0.0000 0.0000 0.0000
# 2 25.3620 43.7885 40.6949 0.0000 0.0000 0.0000
# 3 41.9393 40.6949 109.5508 0.0000 0.0000 0.0000
# 4 0.0000 0.0000 0.0000 20.3924 0.0000 0.0000
# 5 0.0000 0.0000 0.0000 0.0000 17.1089 0.0000
# 6 0.0000 0.0000 0.0000 0.0000 0.0000 31.1533
#
#
#
# Elastic Compliance Matrix: (Units=1/GPa)
#
#
# Indices 1 2 3 4 5 6 
#
# 1 0.016220 -0.005534 -0.004154 0.000000 0.000000 0.000000
# 2 -0.005534 0.036766 -0.011539 0.000000 0.000000 0.000000
# 3 -0.004154 -0.011539 0.015005 0.000000 0.000000 0.000000
# 4 0.000000 0.000000 0.000000 0.049038 0.000000 0.000000
# 5 0.000000 0.000000 0.000000 0.000000 0.058449 0.000000
# 6 0.000000 0.000000 0.000000 0.000000 0.000000 0.032099
#
#
# Mechanical properties :
#
#
# Convention : Reuss Voigt Hill
#
# Bulk Modulus (GPa) = 39.15861 50.04200 44.60030
# Shear Modulus (GPa) = 19.33915 22.15687 20.74801
#
# Velocity S-wave (km/s) = 3.18663 3.41088 3.30066
# Velocity P-wave (km/s) = 5.83959 6.46438 6.15991
#
# Compressibility (1/GPa) = 0.02553717
#
# Stress axis : x y z
#
# Youngs Moduli (GPa) = 61.65277 27.19893 66.64583
#
# Poissons Ratio (x) = 0.15053 0.27682
# Poissons Ratio (y) = 0.34120 0.76902
# Poissons Ratio (z) = 0.25608 0.31385
#
# Static dielectric constant tensor:
#      x y z
#    x 1.646460 0.000000 0.000000 
#    y 0.000000 1.631000 0.000000 
#    z 0.000000 0.000000 1.695270 
# 
# From -- ./inp_files/12989.got.cif
#   From: 2010.05.17/outbox.cif.g08.bks.cpg/sg55_7_cif.got.tgz:12989.got - 2010.06.03 13:27:54.
