data_PCOD9426451
_publ_section_title
;
Structure prediction by ZEFSAII (Michael W. Deem and Ramdas Pophale) SiO2 
 PCOD9426451
Probable space group: P B A M
;
_chemical_formula_sum "Si O2"
_cell_formula_units_Z 40
_cell_length_a 14.768755
_cell_length_b 9.059045
_cell_length_c 13.422757
_cell_angle_alpha 90.000000
_cell_angle_beta 90.000000
_cell_angle_gamma 90.000000
_cell_volume 1795.841614
_symmetry_space_group_name_H-M "P B A M"
_symmetry_group_IT_number 55
_symmetry_cell_setting 'orthorhombic'
loop_
_space_group_symop_operation_xyz
x,y,z
-x,-y,z
1/2+x,1/2-y,-z
1/2-x,1/2+y,-z
-x,-y,-z
x,y,-z
1/2-x,1/2+y,z
1/2+x,1/2-y,z
loop_
_atom_site_type_symbol
_atom_site_label
_atom_site_fract_x
_atom_site_fract_y
_atom_site_fract_z
Si Si1 0.542376 0.341813 0.613137
Si Si2 0.542424 0.657479 0.111914
Si Si3 0.633342 0.782599 0.311807
Si Si4 0.312091 0.883039 0.298220
Si Si5 0.088961 0.416456 0.889663
O O1 0.500000 0.500000 0.646536
O O2 0.574366 0.361722 0.500000
O O3 0.453964 0.240945 0.621257
O O4 0.618309 0.248679 0.672086
O O5 0.500000 0.500000 0.138012
O O6 0.603214 0.733510 0.198249
O O7 0.452630 0.755775 0.102539
O O8 0.584440 0.651844 0.000000
O O9 0.715053 0.671078 0.333782
O O10 0.664048 0.950781 0.330364
O O11 0.324387 0.906396 0.179262
O O12 0.000000 0.500000 0.844784
O O13 0.104971 0.479524 0.000000
#
# Coordination Sequence:
#
# PCOD9426451 Si02
#       5
#     8   8   8   8   8
#     4  11  25  48  74  97 126 164 211 273 342 405
#     4  10  21  38  64  93 130 178 225 273 324 380
#     4  12  25  41  66  98 135 174 222 269 329 392
#     4  12  25  41  66  99 133 177 218 271 327 391
#     4  10  19  37  63  90 128 177 222 265 319 379
#
# _framework density 22.273678
#
# number of rings (size 3 to 8) (size 9 to 14) (size 15 to 20)
#    0.000    1.000    4.000    2.400    2.800    3.200 
#    0.000    0.000    0.000    0.000    0.000    0.000 
#    0.000    0.000    0.000    0.000    0.000    0.000 
#
# Total GULP energy -222832.046614 kJ/mol
# GULP energy per Si atom -5570.801165 kJ/mol
# Density = 2.222298 g / cm^3
# Si number density = 22.273678 Si / 1000 Ang^3
#
#
#
# Elastic Constant Matrix: (Units=GPa)
#
#
# Indices 1 2 3 4 5 6 
#
# 1 41.0956 -20.1878 -17.0628 0.0000 0.0000 0.0000
# 2 -20.1878 108.4032 -7.0919 0.0000 0.0000 0.0000
# 3 -17.0628 -7.0919 66.9981 0.0000 0.0000 0.0000
# 4 0.0000 0.0000 0.0000 17.4173 0.0000 0.0000
# 5 0.0000 0.0000 0.0000 0.0000 -3.9060 0.0000
# 6 0.0000 0.0000 0.0000 0.0000 0.0000 34.4141
#
#
#
# Elastic Compliance Matrix: (Units=1/GPa)
#
#
# Indices 1 2 3 4 5 6 
#
# 1 0.031001 0.006334 0.008566 0.000000 0.000000 0.000000
# 2 0.006334 0.010583 0.002733 0.000000 0.000000 0.000000
# 3 0.008566 0.002733 0.017397 0.000000 0.000000 0.000000
# 4 0.000000 0.000000 0.000000 0.057414 0.000000 0.000000
# 5 0.000000 0.000000 0.000000 0.000000 -0.256013 0.000000
# 6 0.000000 0.000000 0.000000 0.000000 0.000000 0.029058
#
#
# Mechanical properties :
#
#
# Convention : Reuss Voigt Hill
#
# Bulk Modulus (GPa) = 10.61047 14.20133 12.40590
# Shear Modulus (GPa) = -43.70238 26.97436 -8.36401
#
# Velocity S-wave (km/s) = -4.43432 3.48378 -1.93991
# Velocity P-wave (km/s) = 4.63073 4.75100 0.75111
#
# Compressibility (1/GPa) = 0.09424657
#
# Stress axis : x y z
#
# Youngs Moduli (GPa) = 32.25668 94.48975 57.48249
#
# Poissons Ratio (x) = -0.59847 -0.49238
# Poissons Ratio (y) = -0.20431 -0.15712
# Poissons Ratio (z) = -0.27630 -0.25827
#
# Static dielectric constant tensor:
#      x y z
#    x 1.789040 0.000000 0.000000 
#    y 0.000000 1.921930 0.000000 
#    z 0.000000 0.000000 1.947960 
# 
# From -- ./inp_files/18755.got.cif
#   From: 2010.05.17/outbox.cif.g08.bks.cpg/sg55_10_cif.got.tgz:18755.got - 2010.06.03 13:27:54.
