data_PCOD9426886
_publ_section_title
;
Structure prediction by ZEFSAII (Michael W. Deem and Ramdas Pophale) SiO2 
 PCOD9426886
Probable space group: P B A M
;
_chemical_formula_sum "Si O2"
_cell_formula_units_Z 64
_cell_length_a 18.858870
_cell_length_b 12.458231
_cell_length_c 14.428492
_cell_angle_alpha 90.000000
_cell_angle_beta 90.000000
_cell_angle_gamma 90.000000
_cell_volume 3389.947631
_symmetry_space_group_name_H-M "P B A M"
_symmetry_group_IT_number 55
_symmetry_cell_setting 'orthorhombic'
loop_
_space_group_symop_operation_xyz
x,y,z
-x,-y,z
1/2+x,1/2-y,-z
1/2-x,1/2+y,-z
-x,-y,-z
x,y,-z
1/2-x,1/2+y,z
1/2+x,1/2-y,z
loop_
_atom_site_type_symbol
_atom_site_label
_atom_site_fract_x
_atom_site_fract_y
_atom_site_fract_z
Si Si1 0.563297 0.422520 0.392894
Si Si2 0.581844 0.029707 0.394365
Si Si3 0.281837 0.505622 0.600150
Si Si4 0.383996 0.773090 0.736820
Si Si5 0.773786 0.161320 0.750637
Si Si6 0.175489 0.682540 0.396945
Si Si7 0.956546 0.840786 0.889560
Si Si8 0.388043 0.430900 0.110876
O O1 0.500000 0.500000 0.359835
O O2 0.547498 0.388743 0.500000
O O3 0.634104 0.493579 0.395851
O O4 0.585327 0.323037 0.328330
O O5 0.595215 0.068642 0.500000
O O6 0.600845 0.119451 0.320323
O O7 0.500000 0.000000 0.387057
O O8 0.624679 0.918900 0.382656
O O9 0.258417 0.460907 0.500000
O O10 0.254019 0.439784 0.686105
O O11 0.253079 0.626836 0.602119
O O12 0.300310 0.775615 0.764637
O O13 0.428070 0.758110 0.830947
O O14 0.824201 0.233231 0.684851
O O15 0.820879 0.117735 0.835318
O O16 0.161528 0.727676 0.500000
O O17 0.038391 0.868736 0.867720
O O18 0.907460 0.945056 0.865810
O O19 0.951901 0.826075 0.000000
O O20 0.377180 0.425440 0.000000
#
# Coordination Sequence:
#
# PCOD9426886 Si02
#       8
#     8   8   8   8   8   8   8   8
#     4  10  22  36  54  86 123 154 196 253 304 345
#     4  10  23  40  55  78 119 165 207 241 280 341
#     4  10  20  35  53  81 121 159 194 237 289 351
#     4  12  23  35  61  88 118 157 199 246 300 358
#     4  12  23  34  60  91 118 151 202 240 299 353
#     4  10  21  37  55  81 121 164 200 235 283 349
#     4   9  21  42  66  90 115 150 191 243 310 367
#     4   9  21  42  66  90 119 149 188 246 307 367
#
# _framework density 18.879346999999999
#
# number of rings (size 3 to 8) (size 9 to 14) (size 15 to 20)
#    0.000    1.750    2.500    2.250    5.250    1.500 
#    0.000    3.750    0.000    1.125    0.000    0.000 
#    0.000    0.000    0.000    0.000    0.000    0.000 
#
# Total GULP energy -356965.799849 kJ/mol
# GULP energy per Si atom -5577.590623 kJ/mol
# Density = 1.883638 g / cm^3
# Si number density = 18.879347 Si / 1000 Ang^3
#
#
#
# Elastic Constant Matrix: (Units=GPa)
#
#
# Indices 1 2 3 4 5 6 
#
# 1 104.1649 19.1997 34.8414 0.0000 0.0000 0.0000
# 2 19.1997 46.1508 33.9242 0.0000 0.0000 0.0000
# 3 34.8414 33.9242 80.6401 0.0000 0.0000 0.0000
# 4 0.0000 0.0000 0.0000 35.6936 0.0000 0.0000
# 5 0.0000 0.0000 0.0000 0.0000 -29.5955 0.0000
# 6 0.0000 0.0000 0.0000 0.0000 0.0000 27.5321
#
#
#
# Elastic Compliance Matrix: (Units=1/GPa)
#
#
# Indices 1 2 3 4 5 6 
#
# 1 0.011304 -0.001611 -0.004206 0.000000 0.000000 0.000000
# 2 -0.001611 0.031598 -0.012597 0.000000 0.000000 0.000000
# 3 -0.004206 -0.012597 0.019518 0.000000 0.000000 0.000000
# 4 0.000000 0.000000 0.000000 0.028016 0.000000 0.000000
# 5 0.000000 0.000000 0.000000 0.000000 -0.033789 0.000000
# 6 0.000000 0.000000 0.000000 0.000000 0.000000 0.036321
#
#
# Mechanical properties :
#
#
# Convention : Reuss Voigt Hill
#
# Bulk Modulus (GPa) = 39.07560 45.20959 42.14259
# Shear Modulus (GPa) = 36.14643 16.25875 26.20259
#
# Velocity S-wave (km/s) = 4.38036 2.93779 3.72949
# Velocity P-wave (km/s) = 6.80631 5.95870 6.39656
#
# Compressibility (1/GPa) = 0.02559142
#
# Stress axis : x y z
#
# Youngs Moduli (GPa) = 88.46414 31.64779 51.23595
#
# Poissons Ratio (x) = 0.05097 0.21552
# Poissons Ratio (y) = 0.14249 0.64541
# Poissons Ratio (z) = 0.37212 0.39866
#
# Static dielectric constant tensor:
#      x y z
#    x 1.695670 0.000000 0.000000 
#    y 0.000000 1.659610 0.000000 
#    z 0.000000 0.000000 1.672880 
# 
# From -- ./inp_files/19521.got.cif
#   From: 2010.05.17/outbox.cif.g08.bks.cpg/sg55_10_cif.got.tgz:19521.got - 2010.06.03 13:27:54.
