data_PCOD9426778
_publ_section_title
;
Structure prediction by ZEFSAII (Michael W. Deem and Ramdas Pophale) SiO2 
 PCOD9426778
Probable space group: P B A M
;
_chemical_formula_sum "Si O2"
_cell_formula_units_Z 56
_cell_length_a 16.769799
_cell_length_b 19.360349
_cell_length_c 7.496517
_cell_angle_alpha 90.000000
_cell_angle_beta 90.000000
_cell_angle_gamma 90.000000
_cell_volume 2433.887887
_symmetry_space_group_name_H-M "P B A M"
_symmetry_group_IT_number 55
_symmetry_cell_setting 'orthorhombic'
loop_
_space_group_symop_operation_xyz
x,y,z
-x,-y,z
1/2+x,1/2-y,-z
1/2-x,1/2+y,-z
-x,-y,-z
x,y,-z
1/2-x,1/2+y,z
1/2+x,1/2-y,z
loop_
_atom_site_type_symbol
_atom_site_label
_atom_site_fract_x
_atom_site_fract_y
_atom_site_fract_z
Si Si1 0.885864 0.202012 0.709783
Si Si2 0.676221 0.847875 0.283357
Si Si3 0.070272 0.197987 0.783651
Si Si4 0.988303 0.420889 0.284054
Si Si5 0.212505 0.925000 0.204234
Si Si6 0.144564 0.335142 0.793348
Si Si7 0.664343 0.428442 0.205274
O O1 0.870390 0.195379 0.500000
O O2 0.837328 0.268883 0.775040
O O3 0.857396 0.131229 0.796665
O O4 0.979540 0.214157 0.735611
O O5 0.680686 0.848713 0.500000
O O6 0.597209 0.890542 0.230940
O O7 0.754614 0.883994 0.210301
O O8 0.127994 0.259226 0.716433
O O9 0.098269 0.123145 0.716910
O O10 0.075307 0.197980 0.000000
O O11 0.991865 0.418288 0.500000
O O12 0.060610 0.374647 0.214792
O O13 0.000000 0.500000 0.228269
O O14 0.287796 0.884587 0.287336
O O15 0.183984 0.997014 0.287087
O O16 0.236354 0.942486 0.000000
O O17 0.167854 0.324763 0.000000
O O18 0.639835 0.441404 0.000000
#
# Coordination Sequence:
#
# PCOD9426778 Si02
#       7
#     8   8   8   8   8   8   8
#     4  11  23  39  60  86 115 153 197 238 286 344
#     4  10  21  37  56  84 118 150 191 236 285 347
#     4  10  21  38  59  84 113 150 193 238 291 344
#     4  10  20  34  54  81 117 155 186 228 286 343
#     4  10  22  40  60  86 119 152 192 243 292 342
#     4  10  20  35  57  84 113 147 191 237 283 341
#     4  10  22  39  61  87 116 153 194 239 293 345
#
# _framework density 23.008455000000001
#
# number of rings (size 3 to 8) (size 9 to 14) (size 15 to 20)
#    0.000    1.857    1.429    2.143    0.000    5.429 
#    0.000    2.857    0.000    0.000    0.000    0.000 
#    0.000    0.000    0.000    0.000    0.000    0.000 
#
# Total GULP energy -313077.487514 kJ/mol
# GULP energy per Si atom -5590.669420 kJ/mol
# Density = 2.295609 g / cm^3
# Si number density = 23.008455 Si / 1000 Ang^3
#
#
#
# Elastic Constant Matrix: (Units=GPa)
#
#
# Indices 1 2 3 4 5 6 
#
# 1 30.0935 19.4035 -9.2819 0.0000 0.0000 0.0000
# 2 19.4035 146.9710 -5.0378 0.0000 0.0000 0.0000
# 3 -9.2819 -5.0378 66.9799 0.0000 0.0000 0.0000
# 4 0.0000 0.0000 0.0000 -2.8241 0.0000 0.0000
# 5 0.0000 0.0000 0.0000 0.0000 35.7240 0.0000
# 6 0.0000 0.0000 0.0000 0.0000 0.0000 26.9785
#
#
#
# Elastic Compliance Matrix: (Units=1/GPa)
#
#
# Indices 1 2 3 4 5 6 
#
# 1 0.037850 -0.004830 0.004882 0.000000 0.000000 0.000000
# 2 -0.004830 0.007438 -0.000110 0.000000 0.000000 0.000000
# 3 0.004882 -0.000110 0.015598 0.000000 0.000000 0.000000
# 4 0.000000 0.000000 0.000000 -0.354099 0.000000 0.000000
# 5 0.000000 0.000000 0.000000 0.000000 0.027992 0.000000
# 6 0.000000 0.000000 0.000000 0.000000 0.000000 0.037067
#
#
# Mechanical properties :
#
#
# Convention : Reuss Voigt Hill
#
# Bulk Modulus (GPa) = 16.45544 28.24578 22.35061
# Shear Modulus (GPa) = -24.06361 27.90639 1.92139
#
# Velocity S-wave (km/s) = -3.23748 3.48641 0.91482
# Velocity P-wave (km/s) = 2.60914 5.33945 3.29409
#
# Compressibility (1/GPa) = 0.06077019
#
# Stress axis : x y z
#
# Youngs Moduli (GPa) = 26.42042 134.44613 64.11036
#
# Poissons Ratio (x) = 0.64933 -0.31298
# Poissons Ratio (y) = 0.12760 0.00704
# Poissons Ratio (z) = -0.12898 0.01477
#
# Static dielectric constant tensor:
#      x y z
#    x 1.808310 0.000000 0.000000 
#    y 0.000000 1.871250 0.000000 
#    z 0.000000 0.000000 1.404020 
# 
# From -- ./inp_files/6070.got.cif
#   From: 2010.05.17/outbox.cif.g08.bks.cpg/sg55_4_cif.got.tgz:6070.got - 2010.06.03 13:27:54.
