data_PCOD9426151
_publ_section_title
;
Structure prediction by ZEFSAII (Michael W. Deem and Ramdas Pophale) SiO2 
 PCOD9426151
Probable space group: P B A M
;
_chemical_formula_sum "Si O2"
_cell_formula_units_Z 64
_cell_length_a 12.558994
_cell_length_b 28.877640
_cell_length_c 8.267431
_cell_angle_alpha 90.000000
_cell_angle_beta 90.000000
_cell_angle_gamma 90.000000
_cell_volume 2998.383159
_symmetry_space_group_name_H-M "P B A M"
_symmetry_group_IT_number 55
_symmetry_cell_setting 'orthorhombic'
loop_
_space_group_symop_operation_xyz
x,y,z
-x,-y,z
1/2+x,1/2-y,-z
1/2-x,1/2+y,-z
-x,-y,-z
x,y,-z
1/2-x,1/2+y,z
1/2+x,1/2-y,z
loop_
_atom_site_type_symbol
_atom_site_label
_atom_site_fract_x
_atom_site_fract_y
_atom_site_fract_z
Si Si1 0.421751 0.790158 0.804075
Si Si2 0.867938 0.813700 0.196379
Si Si3 0.812005 0.615954 0.688639
Si Si4 0.642464 0.552842 0.185715
Si Si5 0.866238 0.336907 0.195611
Si Si6 0.980074 0.431981 0.191800
Si Si7 0.275619 0.030982 0.688580
Si Si8 0.077395 0.089372 0.693116
O O1 0.394731 0.738315 0.752448
O O2 0.352713 0.832934 0.737226
O O3 0.543100 0.800905 0.756892
O O4 0.413499 0.792529 0.000000
O O5 0.748997 0.824454 0.256809
O O6 0.935696 0.857009 0.258846
O O7 0.871561 0.814765 0.000000
O O8 0.786414 0.614864 0.500000
O O9 0.709636 0.599832 0.788835
O O10 0.908069 0.579330 0.723741
O O11 0.706404 0.515258 0.289699
O O12 0.521206 0.560496 0.237578
O O13 0.647402 0.538092 0.000000
O O14 0.909843 0.387014 0.241813
O O15 0.860676 0.336930 0.000000
O O16 0.892522 0.471410 0.229639
O O17 0.000334 0.431547 0.000000
O O18 0.295766 0.039669 0.500000
O O19 0.191730 0.069719 0.754126
O O20 0.077595 0.084552 0.500000
#
# Coordination Sequence:
#
# PCOD9426151 Si02
#       8
#     8   8   8   8   8   8   8   8
#     4   9  19  35  57  87 121 160 206 252 300 361
#     4  10  19  34  59  88 119 160 209 252 298 357
#     4  11  23  41  62  87 124 163 201 253 318 372
#     4  12  26  43  64  88 120 164 210 253 305 370
#     4   8  15  30  52  80 114 151 193 246 294 339
#     4  10  19  36  63  90 120 156 204 253 296 356
#     4  11  23  40  63  93 126 161 201 251 311 367
#     4  11  24  41  61  89 127 161 199 253 312 368
#
# _framework density 21.344836000000001
#
# number of rings (size 3 to 8) (size 9 to 14) (size 15 to 20)
#    0.000    1.750    1.250    4.500    0.000    5.000 
#    0.000    5.000    0.000    0.000    0.000    0.000 
#    0.000    0.000    0.000    0.000    0.000    0.000 
#
# Total GULP energy -357471.073657 kJ/mol
# GULP energy per Si atom -5585.485526 kJ/mol
# Density = 2.129625 g / cm^3
# Si number density = 21.344836 Si / 1000 Ang^3
#
#
#
# Elastic Constant Matrix: (Units=GPa)
#
#
# Indices 1 2 3 4 5 6 
#
# 1 72.9868 -5.3820 -1.3588 0.0000 0.0000 0.0000
# 2 -5.3820 79.3254 -10.3635 0.0000 0.0000 0.0000
# 3 -1.3588 -10.3635 40.0222 0.0000 0.0000 0.0000
# 4 0.0000 0.0000 0.0000 24.0297 0.0000 0.0000
# 5 0.0000 0.0000 0.0000 0.0000 22.7583 0.0000
# 6 0.0000 0.0000 0.0000 0.0000 0.0000 31.1601
#
#
#
# Elastic Compliance Matrix: (Units=1/GPa)
#
#
# Indices 1 2 3 4 5 6 
#
# 1 0.013791 0.001032 0.000735 0.000000 0.000000 0.000000
# 2 0.001032 0.013125 0.003434 0.000000 0.000000 0.000000
# 3 0.000735 0.003434 0.025900 0.000000 0.000000 0.000000
# 4 0.000000 0.000000 0.000000 0.041615 0.000000 0.000000
# 5 0.000000 0.000000 0.000000 0.000000 0.043940 0.000000
# 6 0.000000 0.000000 0.000000 0.000000 0.000000 0.032092
#
#
# Mechanical properties :
#
#
# Convention : Reuss Voigt Hill
#
# Bulk Modulus (GPa) = 15.81840 17.56953 16.69397
# Shear Modulus (GPa) = 27.60381 29.55220 28.57801
#
# Velocity S-wave (km/s) = 3.60005 3.72494 3.66303
# Velocity P-wave (km/s) = 4.97066 5.17198 5.07232
#
# Compressibility (1/GPa) = 0.06321751
#
# Stress axis : x y z
#
# Youngs Moduli (GPa) = 72.51167 76.19114 38.60975
#
# Poissons Ratio (x) = -0.07861 -0.02839
# Poissons Ratio (y) = -0.07481 -0.13257
# Poissons Ratio (z) = -0.05332 -0.26161
#
# Static dielectric constant tensor:
#      x y z
#    x 1.763930 0.000000 0.000000 
#    y 0.000000 1.823070 0.000000 
#    z 0.000000 0.000000 1.724530 
# 
# From -- ./inp_files/4512.got.cif
#   From: 2010.05.17/outbox.cif.g08.bks.cpg/sg55_3_cif.got.tgz:4512.got - 2010.06.03 13:27:54.
