data_PCOD9426425
_publ_section_title
;
Structure prediction by ZEFSAII (Michael W. Deem and Ramdas Pophale) SiO2 
 PCOD9426425
Probable space group: P B A M
;
_chemical_formula_sum "Si O2"
_cell_formula_units_Z 64
_cell_length_a 13.958687
_cell_length_b 13.602760
_cell_length_c 16.547770
_cell_angle_alpha 90.000000
_cell_angle_beta 90.000000
_cell_angle_gamma 90.000000
_cell_volume 3142.035450
_symmetry_space_group_name_H-M "P B A M"
_symmetry_group_IT_number 55
_symmetry_cell_setting 'orthorhombic'
loop_
_space_group_symop_operation_xyz
x,y,z
-x,-y,z
1/2+x,1/2-y,-z
1/2-x,1/2+y,-z
-x,-y,-z
x,y,-z
1/2-x,1/2+y,z
1/2+x,1/2-y,z
loop_
_atom_site_type_symbol
_atom_site_label
_atom_site_fract_x
_atom_site_fract_y
_atom_site_fract_z
Si Si1 0.233880 0.934232 0.904562
Si Si2 0.109812 0.021719 0.377111
Si Si3 0.999208 0.252546 0.764592
Si Si4 0.786330 0.251909 0.207088
Si Si5 0.602924 0.049399 0.784507
Si Si6 0.274283 0.887531 0.353893
Si Si7 0.123524 0.082005 0.195245
Si Si8 0.574366 0.263397 0.412641
O O1 0.220819 0.826167 0.865964
O O2 0.330146 0.974182 0.860331
O O3 0.148978 0.006095 0.874696
O O4 0.242145 0.931870 0.000000
O O5 0.115924 0.023723 0.279467
O O6 0.129100 0.132393 0.405975
O O7 0.190137 0.943283 0.400583
O O8 0.000000 0.000000 0.400762
O O9 0.077091 0.334560 0.786998
O O10 0.029653 0.150856 0.807190
O O11 0.008645 0.238606 0.667549
O O12 0.895099 0.288280 0.788831
O O13 0.770060 0.188806 0.288884
O O14 0.710698 0.339705 0.201787
O O15 0.665074 0.036733 0.702784
O O16 0.500000 0.000000 0.781387
O O17 0.350557 0.825366 0.404495
O O18 0.525298 0.258717 0.500000
#
# Coordination Sequence:
#
# PCOD9426425 Si02
#       8
#     8   8   8   8   8   8   8   8
#     4  11  24  39  59  89 128 156 196 261 312 353
#     4  11  21  37  66  91 120 163 213 254 299 375
#     4  10  21  37  65  86 114 161 207 250 287 370
#     4  11  20  40  64  88 116 159 210 240 300 370
#     4  10  19  37  62  87 113 160 207 242 294 370
#     4  10  19  37  60  90 121 163 204 254 296 360
#     4  11  20  38  61  92 116 157 209 244 298 364
#     4  10  22  38  57  91 130 158 200 257 312 350
#
# _framework density 20.368962
#
# number of rings (size 3 to 8) (size 9 to 14) (size 15 to 20)
#    0.000    1.500    7.500    2.250    0.000    1.500 
#    0.000    3.750    0.000    6.000    0.000    0.000 
#    0.000    0.000    0.000    0.000    0.000    0.000 
#
# Total GULP energy -357294.433503 kJ/mol
# GULP energy per Si atom -5582.725523 kJ/mol
# Density = 2.032260 g / cm^3
# Si number density = 20.368962 Si / 1000 Ang^3
#
#
#
# Elastic Constant Matrix: (Units=GPa)
#
#
# Indices 1 2 3 4 5 6 
#
# 1 103.3984 21.9508 23.4550 0.0000 0.0000 0.0000
# 2 21.9508 62.2649 22.2858 0.0000 0.0000 0.0000
# 3 23.4550 22.2858 110.0444 0.0000 0.0000 0.0000
# 4 0.0000 0.0000 0.0000 20.5194 0.0000 0.0000
# 5 0.0000 0.0000 0.0000 0.0000 1.9792 0.0000
# 6 0.0000 0.0000 0.0000 0.0000 0.0000 38.4566
#
#
#
# Elastic Compliance Matrix: (Units=1/GPa)
#
#
# Indices 1 2 3 4 5 6 
#
# 1 0.010721 -0.003193 -0.001638 0.000000 0.000000 0.000000
# 2 -0.003193 0.018267 -0.003019 0.000000 0.000000 0.000000
# 3 -0.001638 -0.003019 0.010048 0.000000 0.000000 0.000000
# 4 0.000000 0.000000 0.000000 0.048734 0.000000 0.000000
# 5 0.000000 0.000000 0.000000 0.000000 0.505249 0.000000
# 6 0.000000 0.000000 0.000000 0.000000 0.000000 0.026003
#
#
# Mechanical properties :
#
#
# Convention : Reuss Voigt Hill
#
# Bulk Modulus (GPa) = 42.85444 45.67676 44.26560
# Shear Modulus (GPa) = 7.78209 26.05878 16.92044
#
# Velocity S-wave (km/s) = 1.95675 3.58066 2.88531
# Velocity P-wave (km/s) = 5.11761 6.29033 5.73403
#
# Compressibility (1/GPa) = 0.02333481
#
# Stress axis : x y z
#
# Youngs Moduli (GPa) = 93.27604 54.74480 99.52442
#
# Poissons Ratio (x) = 0.17481 0.16306
# Poissons Ratio (y) = 0.29784 0.30043
# Poissons Ratio (z) = 0.15282 0.16526
#
# Static dielectric constant tensor:
#      x y z
#    x 1.745600 0.000000 0.000000 
#    y 0.000000 1.778480 0.000000 
#    z 0.000000 0.000000 1.688700 
# 
# From -- ./inp_files/21684.got.cif
#   From: 2010.05.17/outbox.cif.g08.bks.cpg/sg55_11_cif.got.tgz:21684.got - 2010.06.03 13:27:54.
