data_PCOD9426594
_publ_section_title
;
Structure prediction by ZEFSAII (Michael W. Deem and Ramdas Pophale) SiO2 
 PCOD9426594
Probable space group: P B A M
;
_chemical_formula_sum "Si O2"
_cell_formula_units_Z 40
_cell_length_a 8.047978
_cell_length_b 13.145432
_cell_length_c 17.040812
_cell_angle_alpha 90.000000
_cell_angle_beta 90.000000
_cell_angle_gamma 90.000000
_cell_volume 1802.818179
_symmetry_space_group_name_H-M "P B A M"
_symmetry_group_IT_number 55
_symmetry_cell_setting 'orthorhombic'
loop_
_space_group_symop_operation_xyz
x,y,z
-x,-y,z
1/2+x,1/2-y,-z
1/2-x,1/2+y,-z
-x,-y,-z
x,y,-z
1/2-x,1/2+y,z
1/2+x,1/2-y,z
loop_
_atom_site_type_symbol
_atom_site_label
_atom_site_fract_x
_atom_site_fract_y
_atom_site_fract_z
Si Si1 0.015311 0.214288 0.911399
Si Si2 0.827465 0.438053 0.373492
Si Si3 0.328684 0.563235 0.793030
Si Si4 0.963299 0.289851 0.500000
Si Si5 0.192065 0.913153 0.500000
Si Si6 0.324605 0.911841 0.088312
O O1 0.121868 0.159877 0.844870
O O2 0.022529 0.335186 0.900907
O O3 0.835054 0.163311 0.908818
O O4 0.080301 0.193845 0.000000
O O5 0.748334 0.412193 0.290638
O O6 0.871841 0.338839 0.424575
O O7 0.711312 0.513372 0.425053
O O8 0.000000 0.500000 0.362928
O O9 0.500000 0.500000 0.782054
O O10 0.206976 0.492613 0.844510
O O11 0.956096 0.168069 0.500000
O O12 0.145802 0.339444 0.500000
O O13 0.326772 0.955849 0.000000
#
# Coordination Sequence:
#
# PCOD9426594 Si02
#       6
#     8   8   8   4   4   8
#     4   9  18  33  51  71  98 133 171 208 246 290
#     4   9  20  37  53  74 104 132 161 200 247 298
#     4  10  20  33  51  75 102 132 166 205 248 292
#     4   9  19  37  58  76  98 131 165 199 244 296
#     4   9  19  37  58  76  98 131 165 199 244 296
#     4   9  18  33  51  71  98 133 171 208 246 290
#
# _framework density 22.187484000000001
#
# number of rings (size 3 to 8) (size 9 to 14) (size 15 to 20)
#    0.000    2.800    0.000    1.800    0.000    7.200 
#    0.000   10.000    0.000    6.000    0.000    0.000 
#    0.000    0.000    0.000    0.000    0.000    0.000 
#
# Total GULP energy -223671.570043 kJ/mol
# GULP energy per Si atom -5591.789251 kJ/mol
# Density = 2.213698 g / cm^3
# Si number density = 22.187484 Si / 1000 Ang^3
#
#
#
# Elastic Constant Matrix: (Units=GPa)
#
#
# Indices 1 2 3 4 5 6 
#
# 1 63.9042 31.1264 46.8426 0.0000 0.0000 0.0000
# 2 31.1264 48.2996 34.0800 0.0000 0.0000 0.0000
# 3 46.8426 34.0800 146.3244 0.0000 0.0000 0.0000
# 4 0.0000 0.0000 0.0000 5.7656 0.0000 0.0000
# 5 0.0000 0.0000 0.0000 0.0000 -38.4050 0.0000
# 6 0.0000 0.0000 0.0000 0.0000 0.0000 46.8777
#
#
#
# Elastic Compliance Matrix: (Units=1/GPa)
#
#
# Indices 1 2 3 4 5 6 
#
# 1 0.025785 -0.012915 -0.005246 0.000000 0.000000 0.000000
# 2 -0.012915 0.031244 -0.003143 0.000000 0.000000 0.000000
# 3 -0.005246 -0.003143 0.009246 0.000000 0.000000 0.000000
# 4 0.000000 0.000000 0.000000 0.173443 0.000000 0.000000
# 5 0.000000 0.000000 0.000000 0.000000 -0.026038 0.000000
# 6 0.000000 0.000000 0.000000 0.000000 0.000000 0.021332
#
#
# Mechanical properties :
#
#
# Convention : Reuss Voigt Hill
#
# Bulk Modulus (GPa) = 42.25328 53.62512 47.93920
# Shear Modulus (GPa) = 17.51263 12.61294 15.06278
#
# Velocity S-wave (km/s) = 2.81250 2.38685 2.60837
# Velocity P-wave (km/s) = 5.44352 5.64071 5.54299
#
# Compressibility (1/GPa) = 0.02366680
#
# Stress axis : x y z
#
# Youngs Moduli (GPa) = 38.78263 32.00564 108.15947
#
# Poissons Ratio (x) = 0.41335 0.56745
# Poissons Ratio (y) = 0.50088 0.33990
# Poissons Ratio (z) = 0.20347 0.10058
#
# Static dielectric constant tensor:
#      x y z
#    x 1.900540 0.000000 0.000000 
#    y 0.000000 1.778830 0.000000 
#    z 0.000000 0.000000 1.749800 
# 
# From -- ./inp_files/17125.got.cif
#   From: 2010.05.17/outbox.cif.g08.bks.cpg/sg55_9_cif.got.tgz:17125.got - 2010.06.03 13:27:54.
