data_PCOD9426315
_publ_section_title
;
Structure prediction by ZEFSAII (Michael W. Deem and Ramdas Pophale) SiO2 
 PCOD9426315
Probable space group: P B A M
;
_chemical_formula_sum "Si O2"
_cell_formula_units_Z 56
_cell_length_a 13.131573
_cell_length_b 9.284204
_cell_length_c 19.747203
_cell_angle_alpha 90.000000
_cell_angle_beta 90.000000
_cell_angle_gamma 90.000000
_cell_volume 2407.504001
_symmetry_space_group_name_H-M "P B A M"
_symmetry_group_IT_number 55
_symmetry_cell_setting 'orthorhombic'
loop_
_space_group_symop_operation_xyz
x,y,z
-x,-y,z
1/2+x,1/2-y,-z
1/2-x,1/2+y,-z
-x,-y,-z
x,y,-z
1/2-x,1/2+y,z
1/2+x,1/2-y,z
loop_
_atom_site_type_symbol
_atom_site_label
_atom_site_fract_x
_atom_site_fract_y
_atom_site_fract_z
Si Si1 0.035788 0.344950 0.578047
Si Si2 0.233379 0.946151 0.000000
Si Si3 0.469580 0.256698 0.851845
Si Si4 0.836336 0.406959 0.242677
Si Si5 0.780288 0.667613 0.669061
Si Si6 0.897958 0.080046 0.578039
Si Si7 0.844408 0.953710 0.141719
Si Si8 0.108589 0.665695 0.000000
O O1 0.069800 0.361571 0.500000
O O2 0.129335 0.279492 0.620063
O O3 0.000000 0.500000 0.604143
O O4 0.937111 0.244387 0.577812
O O5 0.180089 0.015390 0.064509
O O6 0.349042 0.002717 0.000000
O O7 0.205225 0.777644 0.000000
O O8 0.438882 0.147868 0.792638
O O9 0.400319 0.398812 0.836314
O O10 0.582984 0.317281 0.849284
O O11 0.446664 0.200469 0.928426
O O12 0.784742 0.288248 0.292082
O O13 0.834903 0.558779 0.279796
O O14 0.758464 0.425607 0.180689
O O15 0.700674 0.575158 0.624109
O O16 0.879049 0.033710 0.500000
O O17 0.000000 0.000000 0.602745
#
# Coordination Sequence:
#
# PCOD9426315 Si02
#       8
#     8   4   8   8   8   8   8   4
#     4  10  22  42  66  92 123 158 205 263 311 359
#     4  10  19  35  67  88 116 152 203 269 313 358
#     4  10  21  40  63  89 118 162 212 256 311 371
#     4  12  24  39  60  89 128 169 200 249 309 374
#     4  12  25  40  63  92 129 167 210 250 314 377
#     4  10  22  42  68  95 122 160 210 261 312 366
#     4  10  21  40  63  89 119 161 211 258 308 371
#     4  10  19  35  67  88 116 152 205 269 313 362
#
# _framework density 23.260605000000002
#
# number of rings (size 3 to 8) (size 9 to 14) (size 15 to 20)
#    0.000    1.429    2.857    2.571    0.000    5.143 
#    0.000    5.714    0.000    0.857    0.000    0.000 
#    0.000    0.000    0.000    0.000    0.000    0.000 
#
# Total GULP energy -313274.900147 kJ/mol
# GULP energy per Si atom -5594.194645 kJ/mol
# Density = 2.320766 g / cm^3
# Si number density = 23.260605 Si / 1000 Ang^3
#
#
#
# Elastic Constant Matrix: (Units=GPa)
#
#
# Indices 1 2 3 4 5 6 
#
# 1 44.4964 5.3951 30.5877 0.0000 0.0000 0.0000
# 2 5.3951 52.1951 12.0401 0.0000 0.0000 0.0000
# 3 30.5877 12.0401 67.6482 0.0000 0.0000 0.0000
# 4 0.0000 0.0000 0.0000 20.9438 0.0000 0.0000
# 5 0.0000 0.0000 0.0000 0.0000 45.9765 0.0000
# 6 0.0000 0.0000 0.0000 0.0000 0.0000 25.1955
#
#
#
# Elastic Compliance Matrix: (Units=1/GPa)
#
#
# Indices 1 2 3 4 5 6 
#
# 1 0.032610 0.000032 -0.014750 0.000000 0.000000 0.000000
# 2 0.000032 0.019979 -0.003570 0.000000 0.000000 0.000000
# 3 -0.014750 -0.003570 0.022087 0.000000 0.000000 0.000000
# 4 0.000000 0.000000 0.000000 0.047747 0.000000 0.000000
# 5 0.000000 0.000000 0.000000 0.000000 0.021750 0.000000
# 6 0.000000 0.000000 0.000000 0.000000 0.000000 0.039690
#
#
# Mechanical properties :
#
#
# Convention : Reuss Voigt Hill
#
# Bulk Modulus (GPa) = 26.24782 28.93172 27.58977
# Shear Modulus (GPa) = 21.44637 26.17762 23.81200
#
# Velocity S-wave (km/s) = 3.03975 3.35835 3.20301
# Velocity P-wave (km/s) = 4.86095 5.24434 5.05628
#
# Compressibility (1/GPa) = 0.03809840
#
# Stress axis : x y z
#
# Youngs Moduli (GPa) = 30.66590 50.05215 45.27494
#
# Poissons Ratio (x) = -0.00159 0.66782
# Poissons Ratio (y) = -0.00098 0.16165
# Poissons Ratio (z) = 0.45233 0.17870
#
# Static dielectric constant tensor:
#      x y z
#    x 1.835990 0.000000 0.000000 
#    y 0.000000 1.922390 0.000000 
#    z 0.000000 0.000000 1.880550 
# 
# From -- ./inp_files/22999.got.cif
#   From: 2010.05.17/outbox.cif.g08.bks.cpg/sg55_12_cif.got.tgz:22999.got - 2010.06.03 13:27:54.
