data_PCOD9426214
_publ_section_title
;
Structure prediction by ZEFSAII (Michael W. Deem and Ramdas Pophale) SiO2 
 PCOD9426214
Probable space group: P B A M
;
_chemical_formula_sum "Si O2"
_cell_formula_units_Z 64
_cell_length_a 5.625467
_cell_length_b 26.625088
_cell_length_c 19.884126
_cell_angle_alpha 90.000000
_cell_angle_beta 90.000000
_cell_angle_gamma 90.000000
_cell_volume 2978.215638
_symmetry_space_group_name_H-M "P B A M"
_symmetry_group_IT_number 55
_symmetry_cell_setting 'orthorhombic'
loop_
_space_group_symop_operation_xyz
x,y,z
-x,-y,z
1/2+x,1/2-y,-z
1/2-x,1/2+y,-z
-x,-y,-z
x,y,-z
1/2-x,1/2+y,z
1/2+x,1/2-y,z
loop_
_atom_site_type_symbol
_atom_site_label
_atom_site_fract_x
_atom_site_fract_y
_atom_site_fract_z
Si Si1 0.318521 0.888658 0.291663
Si Si2 0.180296 0.957342 0.812583
Si Si3 0.190219 0.135651 0.317079
Si Si4 0.177954 0.131789 0.838497
Si Si5 0.611505 0.279467 0.424279
Si Si6 0.928482 0.578602 0.925916
Si Si7 0.162856 0.815020 0.924309
Si Si8 0.314041 0.778865 0.782775
O O1 0.361640 0.936707 0.242750
O O2 0.552500 0.886200 0.337375
O O3 0.298835 0.833075 0.255419
O O4 0.053770 0.896223 0.321401
O O5 0.295458 0.965367 0.885442
O O6 0.031304 0.907039 0.824539
O O7 0.000000 0.000000 0.791665
O O8 0.232375 0.147902 0.237503
O O9 0.140480 0.182371 0.363907
O O10 0.369992 0.099464 0.877251
O O11 0.092270 0.175514 0.888528
O O12 0.623918 0.301528 0.500000
O O13 0.347796 0.255366 0.418931
O O14 0.765587 0.628588 0.932953
O O15 0.010585 0.564497 0.000000
O O16 0.311730 0.789851 0.863771
O O17 0.155895 0.792728 0.000000
O O18 0.562819 0.749974 0.767378
#
# Coordination Sequence:
#
# PCOD9426214 Si02
#       8
#     8   8   8   8   8   8   8   8
#     4  11  22  41  56  89 119 144 197 250 283 343
#     4  10  21  37  57  78 112 150 187 248 310 362
#     4  11  20  36  62  79 116 156 187 231 283 330
#     4  10  19  37  54  82 108 139 192 246 287 357
#     4  10  22  39  58  90 129 161 198 240 284 342
#     4  10  19  35  58  77 106 147 188 246 313 362
#     4  10  21  38  54  72 103 145 184 241 299 342
#     4  12  25  37  56  76 105 141 183 236 285 334
#
# _framework density 21.489379
#
# number of rings (size 3 to 8) (size 9 to 14) (size 15 to 20)
#    0.000    1.500    5.000    1.875    1.750    4.750 
#    0.000    0.625    0.000    0.000    0.000    0.000 
#    0.000   16.500    0.000    0.000    0.000    0.000 
#
# Total GULP energy -356611.805611 kJ/mol
# GULP energy per Si atom -5572.059463 kJ/mol
# Density = 2.144047 g / cm^3
# Si number density = 21.489379 Si / 1000 Ang^3
#
#
#
# Elastic Constant Matrix: (Units=GPa)
#
#
# Indices 1 2 3 4 5 6 
#
# 1 102.8443 2.4769 -6.6921 0.0000 0.0000 0.0000
# 2 2.4769 35.4239 2.6822 0.0000 0.0000 0.0000
# 3 -6.6921 2.6822 68.8277 0.0000 0.0000 0.0000
# 4 0.0000 0.0000 0.0000 11.4776 0.0000 0.0000
# 5 0.0000 0.0000 0.0000 0.0000 -224.6166 0.0000
# 6 0.0000 0.0000 0.0000 0.0000 0.0000 28.8537
#
#
#
# Elastic Compliance Matrix: (Units=1/GPa)
#
#
# Indices 1 2 3 4 5 6 
#
# 1 0.009806 -0.000760 0.000983 0.000000 0.000000 0.000000
# 2 -0.000760 0.028372 -0.001180 0.000000 0.000000 0.000000
# 3 0.000983 -0.001180 0.014671 0.000000 0.000000 0.000000
# 4 0.000000 0.000000 0.000000 0.087126 0.000000 0.000000
# 5 0.000000 0.000000 0.000000 0.000000 -0.004452 0.000000
# 6 0.000000 0.000000 0.000000 0.000000 0.000000 0.034658
#
#
# Mechanical properties :
#
#
# Convention : Reuss Voigt Hill
#
# Bulk Modulus (GPa) = 19.63283 22.66998 21.15141
# Shear Modulus (GPa) = 26.44499 -22.94848 1.74826
#
# Velocity S-wave (km/s) = 3.51181 -3.27142 0.90295
# Velocity P-wave (km/s) = 5.05961 1.92283 3.30926
#
# Compressibility (1/GPa) = 0.05093509
#
# Stress axis : x y z
#
# Youngs Moduli (GPa) = 101.98140 35.24606 68.16362
#
# Poissons Ratio (x) = 0.02679 -0.06701
# Poissons Ratio (y) = 0.07751 0.08040
# Poissons Ratio (z) = -0.10025 0.04157
#
# Static dielectric constant tensor:
#      x y z
#    x 1.967590 0.000000 0.000000 
#    y 0.000000 1.817830 0.000000 
#    z 0.000000 0.000000 1.863690 
# 
# From -- ./inp_files/20547.got.cif
#   From: 2010.05.17/outbox.cif.g08.bks.cpg/sg55_11_cif.got.tgz:20547.got - 2010.06.03 13:27:54.
