data_PCOD9426193
_publ_section_title
;
Structure prediction by ZEFSAII (Michael W. Deem and Ramdas Pophale) SiO2 
 PCOD9426193
Probable space group: P B A M
;
_chemical_formula_sum "Si O2"
_cell_formula_units_Z 64
_cell_length_a 15.007376
_cell_length_b 25.296634
_cell_length_c 8.790087
_cell_angle_alpha 90.000000
_cell_angle_beta 90.000000
_cell_angle_gamma 90.000000
_cell_volume 3337.034330
_symmetry_space_group_name_H-M "P B A M"
_symmetry_group_IT_number 55
_symmetry_cell_setting 'orthorhombic'
loop_
_space_group_symop_operation_xyz
x,y,z
-x,-y,z
1/2+x,1/2-y,-z
1/2-x,1/2+y,-z
-x,-y,-z
x,y,-z
1/2-x,1/2+y,z
1/2+x,1/2-y,z
loop_
_atom_site_type_symbol
_atom_site_label
_atom_site_fract_x
_atom_site_fract_y
_atom_site_fract_z
Si Si1 0.763382 0.511343 0.184128
Si Si2 0.867149 0.780804 0.675789
Si Si3 0.947617 0.197451 0.820048
Si Si4 0.837612 0.296613 0.683094
Si Si5 0.634729 0.155421 0.670251
Si Si6 0.636719 0.911909 0.184422
Si Si7 0.331124 0.393082 0.677927
Si Si8 0.445022 0.934945 0.177006
O O1 0.778974 0.449604 0.221953
O O2 0.687518 0.548521 0.254629
O O3 0.856425 0.537856 0.240558
O O4 0.758065 0.515665 0.000000
O O5 0.874929 0.798855 0.500000
O O6 0.766468 0.791354 0.728890
O O7 0.876119 0.717538 0.676655
O O8 0.949133 0.802747 0.771166
O O9 0.896724 0.248220 0.746692
O O10 0.901989 0.143453 0.762580
O O11 0.938885 0.201776 0.000000
O O12 0.842867 0.293976 0.500000
O O13 0.864529 0.354519 0.741363
O O14 0.607614 0.137164 0.500000
O O15 0.737573 0.139110 0.691341
O O16 0.576119 0.126567 0.795515
O O17 0.545369 0.942090 0.232441
O O18 0.633785 0.906923 0.000000
O O19 0.352768 0.396858 0.500000
O O20 0.445251 0.948599 0.000000
#
# Coordination Sequence:
#
# PCOD9426193 Si02
#       8
#     8   8   8   8   8   8   8   8
#     4   9  18  33  53  78 110 149 190 235 283 331
#     4  10  21  38  57  78 110 150 189 230 281 337
#     4  12  24  37  58  87 115 146 187 233 287 342
#     4  11  23  40  59  82 116 155 192 232 282 340
#     4   9  17  31  50  73 103 140 180 221 267 320
#     4  10  20  34  52  78 113 150 189 232 283 338
#     4  10  19  35  56  79 108 143 186 229 275 328
#     4   9  17  29  48  76 109 146 185 224 271 326
#
# _framework density 19.178706999999999
#
# number of rings (size 3 to 8) (size 9 to 14) (size 15 to 20)
#    0.000    2.000    1.250    3.000    0.000    6.500 
#    0.000    0.000    0.000    4.500    0.000    5.250 
#    0.000    0.000    0.000    0.000    0.000    0.000 
#
# Total GULP energy -356833.301722 kJ/mol
# GULP energy per Si atom -5575.520339 kJ/mol
# Density = 1.913506 g / cm^3
# Si number density = 19.178707 Si / 1000 Ang^3
#
#
#
# Elastic Constant Matrix: (Units=GPa)
#
#
# Indices 1 2 3 4 5 6 
#
# 1 57.6809 0.4197 21.4814 0.0000 0.0000 0.0000
# 2 0.4197 27.5395 1.5879 0.0000 0.0000 0.0000
# 3 21.4814 1.5879 46.8878 0.0000 0.0000 0.0000
# 4 0.0000 0.0000 0.0000 -19.2144 0.0000 0.0000
# 5 0.0000 0.0000 0.0000 0.0000 19.2276 0.0000
# 6 0.0000 0.0000 0.0000 0.0000 0.0000 23.0337
#
#
#
# Elastic Compliance Matrix: (Units=1/GPa)
#
#
# Indices 1 2 3 4 5 6 
#
# 1 0.020905 0.000234 -0.009585 0.000000 0.000000 0.000000
# 2 0.000234 0.036385 -0.001339 0.000000 0.000000 0.000000
# 3 -0.009585 -0.001339 0.025764 0.000000 0.000000 0.000000
# 4 0.000000 0.000000 0.000000 -0.052044 0.000000 0.000000
# 5 0.000000 0.000000 0.000000 0.000000 0.052009 0.000000
# 6 0.000000 0.000000 0.000000 0.000000 0.000000 0.043415
#
#
# Mechanical properties :
#
#
# Convention : Reuss Voigt Hill
#
# Bulk Modulus (GPa) = 16.21461 19.89847 18.05654
# Shear Modulus (GPa) = 29.69605 11.85064 20.77335
#
# Velocity S-wave (km/s) = 3.93922 2.48847 3.29469
# Velocity P-wave (km/s) = 5.40026 4.31908 4.88965
#
# Compressibility (1/GPa) = 0.06167278
#
# Stress axis : x y z
#
# Youngs Moduli (GPa) = 47.83589 27.48378 38.81330
#
# Poissons Ratio (x) = -0.00643 0.37204
# Poissons Ratio (y) = -0.01120 0.05199
# Poissons Ratio (z) = 0.45852 0.03681
#
# Static dielectric constant tensor:
#      x y z
#    x 1.690200 0.000000 0.000000 
#    y 0.000000 1.693660 0.000000 
#    z 0.000000 0.000000 1.668460 
# 
# From -- ./inp_files/6649.got.cif
#   From: 2010.05.17/outbox.cif.g08.bks.cpg/sg55_4_cif.got.tgz:6649.got - 2010.06.03 13:27:54.
