data_PCOD9426422
_publ_section_title
;
Structure prediction by ZEFSAII (Michael W. Deem and Ramdas Pophale) SiO2 
 PCOD9426422
Probable space group: P B A M
;
_chemical_formula_sum "Si O2"
_cell_formula_units_Z 30
_cell_length_a 9.616698
_cell_length_b 5.329427
_cell_length_c 21.160279
_cell_angle_alpha 90.000000
_cell_angle_beta 90.000000
_cell_angle_gamma 90.000000
_cell_volume 1084.495827
_symmetry_space_group_name_H-M "P B A M"
_symmetry_group_IT_number 55
_symmetry_cell_setting 'orthorhombic'
loop_
_space_group_symop_operation_xyz
x,y,z
-x,-y,z
1/2+x,1/2-y,-z
1/2-x,1/2+y,-z
-x,-y,-z
x,y,-z
1/2-x,1/2+y,z
1/2+x,1/2-y,z
loop_
_atom_site_type_symbol
_atom_site_label
_atom_site_fract_x
_atom_site_fract_y
_atom_site_fract_z
Si Si1 0.904456 0.750017 0.500000
Si Si2 0.906604 0.750282 0.229831
Si Si3 0.904648 0.749931 0.634845
Si Si4 0.000000 0.500000 0.000000
Si Si5 0.325882 0.735725 0.911105
O O1 0.826203 0.749966 0.567442
O O2 0.000000 0.500000 0.500000
O O3 0.000000 0.000000 0.500000
O O4 0.825009 0.761214 0.164668
O O5 0.000000 0.500000 0.227134
O O6 0.828158 0.747489 0.297512
O O7 0.000000 0.000000 0.229547
O O8 0.000000 0.500000 0.634958
O O9 0.000000 0.000000 0.634832
O O10 0.028279 0.287966 0.943840
O O11 0.254205 0.484200 0.933035
#
# Coordination Sequence:
#
# PCOD9426422 Si02
#       5
#     4   8   8   2   8
#     4   8  12  20  34  66 106 144 192 251 287 346
#     4  10  19  37  60  87 122 166 203 255 312 365
#     4   8  14  23  43  71 108 151 198 243 301 351
#     4  12  28  50  72  92 134 162 198 268 314 370
#     4  12  27  45  69 100 125 165 212 252 316 385
#
# _framework density 27.66262
#
# number of rings (size 3 to 8) (size 9 to 14) (size 15 to 20)
#    0.000    2.133    1.333    2.400    0.000    1.067 
#    0.000    0.000    0.000    0.000    0.000    1.867 
#    0.000    0.000    0.000    0.000    0.000    0.267 
#
# Total GULP energy -167427.974387 kJ/mol
# GULP energy per Si atom -5580.932480 kJ/mol
# Density = 2.759966 g / cm^3
# Si number density = 27.662620 Si / 1000 Ang^3
#
#
#
# Elastic Constant Matrix: (Units=GPa)
#
#
# Indices 1 2 3 4 5 6 
#
# 1 49.5205 62.1110 3.6331 0.0000 0.0000 0.0000
# 2 62.1110 268.3986 4.1715 0.0000 0.0000 0.0000
# 3 3.6331 4.1715 334.9126 0.0000 0.0000 0.0000
# 4 0.0000 0.0000 0.0000 -158.0406 0.0000 0.0000
# 5 0.0000 0.0000 0.0000 0.0000 -17.8847 0.0000
# 6 0.0000 0.0000 0.0000 0.0000 0.0000 78.3475
#
#
#
# Elastic Compliance Matrix: (Units=1/GPa)
#
#
# Indices 1 2 3 4 5 6 
#
# 1 0.028469 -0.006585 -0.000227 0.000000 0.000000 0.000000
# 2 -0.006585 0.005249 0.000006 0.000000 0.000000 0.000000
# 3 -0.000227 0.000006 0.002988 0.000000 0.000000 0.000000
# 4 0.000000 0.000000 0.000000 -0.006327 0.000000 0.000000
# 5 0.000000 0.000000 0.000000 0.000000 -0.055914 0.000000
# 6 0.000000 0.000000 0.000000 0.000000 0.000000 0.012764
#
#
# Mechanical properties :
#
#
# Convention : Reuss Voigt Hill
#
# Bulk Modulus (GPa) = 43.29749 88.07364 65.68557
# Shear Modulus (GPa) = 585.58696 19.34551 302.46624
#
# Velocity S-wave (km/s) = 14.56532 2.64737 10.46798
# Velocity P-wave (km/s) = 17.27862 6.42280 13.03463
#
# Compressibility (1/GPa) = 0.02309602
#
# Stress axis : x y z
#
# Youngs Moduli (GPa) = 35.12589 190.49539 334.64525
#
# Poissons Ratio (x) = 1.25433 0.07590
# Poissons Ratio (y) = 0.23129 -0.00202
# Poissons Ratio (z) = 0.00797 -0.00115
#
# Static dielectric constant tensor:
#      x y z
#    x 2.270720 0.000000 0.000000 
#    y 0.000000 2.068550 0.000000 
#    z 0.000000 0.000000 2.215260 
# 
# From -- ./inp_files/22782.got.cif
#   From: 2010.05.17/outbox.cif.g08.bks.cpg/sg55_12_cif.got.tgz:22782.got - 2010.06.03 13:27:54.
