data_PCOD9426095
_publ_section_title
;
Structure prediction by ZEFSAII (Michael W. Deem and Ramdas Pophale) SiO2 
 PCOD9426095
Probable space group: P B A M
;
_chemical_formula_sum "Si O2"
_cell_formula_units_Z 64
_cell_length_a 28.878328
_cell_length_b 12.981670
_cell_length_c 7.645245
_cell_angle_alpha 90.000000
_cell_angle_beta 90.000000
_cell_angle_gamma 90.000000
_cell_volume 2866.117674
_symmetry_space_group_name_H-M "P B A M"
_symmetry_group_IT_number 55
_symmetry_cell_setting 'orthorhombic'
loop_
_space_group_symop_operation_xyz
x,y,z
-x,-y,z
1/2+x,1/2-y,-z
1/2-x,1/2+y,-z
-x,-y,-z
x,y,-z
1/2-x,1/2+y,z
1/2+x,1/2-y,z
loop_
_atom_site_type_symbol
_atom_site_label
_atom_site_fract_x
_atom_site_fract_y
_atom_site_fract_z
Si Si1 0.711556 0.153163 0.714213
Si Si2 0.539322 0.192571 0.706834
Si Si3 0.415567 0.362173 0.796694
Si Si4 0.663231 0.363044 0.708147
Si Si5 0.311043 0.411426 0.708333
Si Si6 0.939995 0.916972 0.198956
Si Si7 0.620946 0.047489 0.714003
Si Si8 0.557462 0.864510 0.702998
O O1 0.713636 0.150950 0.500000
O O2 0.689955 0.262324 0.766338
O O3 0.763902 0.138467 0.775595
O O4 0.673480 0.068785 0.770469
O O5 0.539471 0.174047 0.500000
O O6 0.535438 0.315670 0.727716
O O7 0.494072 0.136407 0.782277
O O8 0.587129 0.141657 0.769697
O O9 0.360168 0.378626 0.786464
O O10 0.439627 0.467090 0.723388
O O11 0.426893 0.253994 0.709656
O O12 0.428728 0.353818 0.000000
O O13 0.653078 0.351335 0.500000
O O14 0.692928 0.465788 0.731853
O O15 0.613999 0.384093 0.795088
O O16 0.315151 0.391553 0.500000
O O17 0.955349 0.926579 0.000000
O O18 0.623062 0.047007 0.500000
O O19 0.595529 0.943395 0.774833
O O20 0.552397 0.895178 0.500000
#
# Coordination Sequence:
#
# PCOD9426095 Si02
#       8
#     8   8   8   8   8   8   8   8
#     4   9  16  28  52  83 107 134 173 220 270 315
#     4  10  19  34  57  84 110 139 176 222 272 318
#     4  10  22  39  54  72 107 148 181 221 274 321
#     4   9  16  30  51  75 105 138 172 218 269 314
#     4   9  18  31  52  80 105 134 178 222 265 319
#     4  10  20  34  54  77 102 139 184 224 264 314
#     4   9  17  32  55  83 113 139 172 219 269 319
#     4  10  21  35  56  83 111 144 180 218 265 325
#
# _framework density 22.329858999999999
#
# number of rings (size 3 to 8) (size 9 to 14) (size 15 to 20)
#    0.000    2.500    1.250    1.125    0.000    5.000 
#    0.000    7.500    0.000    4.500    0.000    0.000 
#    0.000    0.000    0.000    0.000    0.000    0.000 
#
# Total GULP energy -357160.753674 kJ/mol
# GULP energy per Si atom -5580.636776 kJ/mol
# Density = 2.227903 g / cm^3
# Si number density = 22.329859 Si / 1000 Ang^3
#
#
#
# Elastic Constant Matrix: (Units=GPa)
#
#
# Indices 1 2 3 4 5 6 
#
# 1 69.4593 8.9609 0.0001 0.0000 0.0000 0.0000
# 2 8.9609 79.9149 3.1021 0.0000 0.0000 0.0000
# 3 0.0001 3.1021 37.4841 0.0000 0.0000 0.0000
# 4 0.0000 0.0000 0.0000 -65.6190 0.0000 0.0000
# 5 0.0000 0.0000 0.0000 0.0000 543.7489 0.0000
# 6 0.0000 0.0000 0.0000 0.0000 0.0000 27.8177
#
#
#
# Elastic Compliance Matrix: (Units=1/GPa)
#
#
# Indices 1 2 3 4 5 6 
#
# 1 0.014609 -0.001643 0.000136 0.000000 0.000000 0.000000
# 2 -0.001643 0.012738 -0.001054 0.000000 0.000000 0.000000
# 3 0.000136 -0.001054 0.026765 0.000000 0.000000 0.000000
# 4 0.000000 0.000000 0.000000 -0.015239 0.000000 0.000000
# 5 0.000000 0.000000 0.000000 0.000000 0.001839 0.000000
# 6 0.000000 0.000000 0.000000 0.000000 0.000000 0.035948
#
#
# Mechanical properties :
#
#
# Convention : Reuss Voigt Hill
#
# Bulk Modulus (GPa) = 20.41259 23.44274 21.92766
# Shear Modulus (GPa) = 50.96134 112.84254 81.90194
#
# Velocity S-wave (km/s) = 4.78243 7.11647 6.06282
# Velocity P-wave (km/s) = 6.29736 8.83440 7.67148
#
# Compressibility (1/GPa) = 0.04898937
#
# Stress axis : x y z
#
# Youngs Moduli (GPa) = 68.45133 78.50219 37.36192
#
# Poissons Ratio (x) = 0.12901 -0.00508
# Poissons Ratio (y) = 0.11249 0.03939
# Poissons Ratio (z) = -0.00931 0.08276
#
# Static dielectric constant tensor:
#      x y z
#    x 1.828130 0.000000 0.000000 
#    y 0.000000 1.826720 0.000000 
#    z 0.000000 0.000000 1.869810 
# 
# From -- ./inp_files/10831.got.cif
#   From: 2010.05.17/outbox.cif.g08.bks.cpg/sg55_6_cif.got.tgz:10831.got - 2010.06.03 13:27:54.
