data_PCOD9426362
_publ_section_title
;
Structure prediction by ZEFSAII (Michael W. Deem and Ramdas Pophale) SiO2 
 PCOD9426362
Probable space group: P B A M
;
_chemical_formula_sum "Si O2"
_cell_formula_units_Z 64
_cell_length_a 8.783824
_cell_length_b 21.589093
_cell_length_c 16.724283
_cell_angle_alpha 90.000000
_cell_angle_beta 90.000000
_cell_angle_gamma 90.000000
_cell_volume 3171.505949
_symmetry_space_group_name_H-M "P B A M"
_symmetry_group_IT_number 55
_symmetry_cell_setting 'orthorhombic'
loop_
_space_group_symop_operation_xyz
x,y,z
-x,-y,z
1/2+x,1/2-y,-z
1/2-x,1/2+y,-z
-x,-y,-z
x,y,-z
1/2-x,1/2+y,z
1/2+x,1/2-y,z
loop_
_atom_site_type_symbol
_atom_site_label
_atom_site_fract_x
_atom_site_fract_y
_atom_site_fract_z
Si Si1 0.290400 0.946843 0.817932
Si Si2 0.672196 0.189806 0.662307
Si Si3 0.890958 0.303015 0.908162
Si Si4 0.668754 0.564803 0.641343
Si Si5 0.693744 0.429320 0.368146
Si Si6 0.349075 0.194893 0.410351
Si Si7 0.651721 0.920588 0.806155
Si Si8 0.731302 0.181974 0.852756
O O1 0.197164 0.946550 0.735653
O O2 0.467797 0.929310 0.797355
O O3 0.226920 0.889671 0.868525
O O4 0.294034 0.016484 0.850428
O O5 0.741792 0.127664 0.622498
O O6 0.741676 0.251027 0.622758
O O7 0.492770 0.189831 0.648064
O O8 0.710609 0.188469 0.756600
O O9 0.821030 0.357100 0.852812
O O10 0.842722 0.234943 0.881281
O O11 0.071215 0.307432 0.895727
O O12 0.849854 0.313459 0.000000
O O13 0.489418 0.574395 0.629185
O O14 0.726250 0.499994 0.603561
O O15 0.764569 0.370948 0.412465
O O16 0.763889 0.421443 0.278915
O O17 0.401765 0.210678 0.500000
#
# Coordination Sequence:
#
# PCOD9426362 Si02
#       8
#     8   8   8   8   8   8   8   8
#     4   8  16  32  54  82 105 135 188 240 276 320
#     4  11  22  40  62  84 111 150 196 238 282 342
#     4  11  22  35  51  80 115 146 180 228 282 334
#     4   9  19  34  59  88 112 142 190 242 280 324
#     4  10  19  36  59  86 115 148 188 234 283 339
#     4  12  25  40  58  86 118 149 184 235 293 345
#     4   9  17  33  57  79 106 143 186 232 278 331
#     4  10  20  36  57  79 105 145 188 227 272 331
#
# _framework density 20.179687000000001
#
# number of rings (size 3 to 8) (size 9 to 14) (size 15 to 20)
#    0.000    2.000    0.000    5.250    0.000    4.500 
#    0.000    9.375    0.000    0.000    0.000    8.750 
#    0.000    0.000    0.000    0.000    0.000    0.000 
#
# Total GULP energy -357078.470797 kJ/mol
# GULP energy per Si atom -5579.351106 kJ/mol
# Density = 2.013376 g / cm^3
# Si number density = 20.179687 Si / 1000 Ang^3
#
#
#
# Elastic Constant Matrix: (Units=GPa)
#
#
# Indices 1 2 3 4 5 6 
#
# 1 34.0511 26.1694 -9.7972 0.0000 0.0000 0.0000
# 2 26.1694 142.6828 9.7553 0.0000 0.0000 0.0000
# 3 -9.7972 9.7553 45.8764 0.0000 0.0000 0.0000
# 4 0.0000 0.0000 0.0000 -19.2939 0.0000 0.0000
# 5 0.0000 0.0000 0.0000 0.0000 6.2218 0.0000
# 6 0.0000 0.0000 0.0000 0.0000 0.0000 43.1355
#
#
#
# Elastic Compliance Matrix: (Units=1/GPa)
#
#
# Indices 1 2 3 4 5 6 
#
# 1 0.038049 -0.007645 0.009751 0.000000 0.000000 0.000000
# 2 -0.007645 0.008648 -0.003472 0.000000 0.000000 0.000000
# 3 0.009751 -0.003472 0.024618 0.000000 0.000000 0.000000
# 4 0.000000 0.000000 0.000000 -0.051830 0.000000 0.000000
# 5 0.000000 0.000000 0.000000 0.000000 0.160725 0.000000
# 6 0.000000 0.000000 0.000000 0.000000 0.000000 0.023183
#
#
# Mechanical properties :
#
#
# Convention : Reuss Voigt Hill
#
# Bulk Modulus (GPa) = 14.58066 30.54061 22.56063
# Shear Modulus (GPa) = 21.83541 19.11153 20.47347
#
# Velocity S-wave (km/s) = 3.29302 3.08079 3.18867
# Velocity P-wave (km/s) = 4.65830 5.27467 4.97604
#
# Compressibility (1/GPa) = 0.06858399
#
# Stress axis : x y z
#
# Youngs Moduli (GPa) = 26.28206 115.63217 40.62014
#
# Poissons Ratio (x) = 0.88403 -0.39610
# Poissons Ratio (y) = 0.20093 0.14102
# Poissons Ratio (z) = -0.25628 0.40143
#
# Static dielectric constant tensor:
#      x y z
#    x 1.694570 0.000000 0.000000 
#    y 0.000000 1.758260 0.000000 
#    z 0.000000 0.000000 1.700750 
# 
# From -- ./inp_files/21091.got.cif
#   From: 2010.05.17/outbox.cif.g08.bks.cpg/sg55_11_cif.got.tgz:21091.got - 2010.06.03 13:27:54.
