data_PCOD9426054
_publ_section_title
;
Structure prediction by ZEFSAII (Michael W. Deem and Ramdas Pophale) SiO2 
 PCOD9426054
Probable space group: P B A M
;
_chemical_formula_sum "Si O2"
_cell_formula_units_Z 64
_cell_length_a 21.435434
_cell_length_b 10.099934
_cell_length_c 15.468661
_cell_angle_alpha 90.000000
_cell_angle_beta 90.000000
_cell_angle_gamma 90.000000
_cell_volume 3348.910481
_symmetry_space_group_name_H-M "P B A M"
_symmetry_group_IT_number 55
_symmetry_cell_setting 'orthorhombic'
loop_
_space_group_symop_operation_xyz
x,y,z
-x,-y,z
1/2+x,1/2-y,-z
1/2-x,1/2+y,-z
-x,-y,-z
x,y,-z
1/2-x,1/2+y,z
1/2+x,1/2-y,z
loop_
_atom_site_type_symbol
_atom_site_label
_atom_site_fract_x
_atom_site_fract_y
_atom_site_fract_z
Si Si1 0.762967 0.995574 0.712296
Si Si2 0.566336 0.731895 0.801158
Si Si3 0.393774 0.867029 0.406143
Si Si4 0.059883 0.299096 0.899828
Si Si5 0.387332 0.554760 0.810772
Si Si6 0.627712 0.000874 0.771494
Si Si7 0.249162 0.262372 0.400356
Si Si8 0.479765 0.638778 0.654143
O O1 0.817741 0.946216 0.773986
O O2 0.701035 0.030135 0.765550
O O3 0.745118 0.879174 0.645257
O O4 0.782263 0.124012 0.656359
O O5 0.509278 0.777964 0.861499
O O6 0.593636 0.593892 0.835109
O O7 0.615572 0.848664 0.792706
O O8 0.537315 0.702284 0.706362
O O9 0.398775 0.933594 0.500000
O O10 0.324368 0.803062 0.400317
O O11 0.443916 0.749120 0.399698
O O12 0.399975 0.960055 0.322736
O O13 0.097302 0.162184 0.883269
O O14 0.093583 0.408885 0.841642
O O15 0.058181 0.333762 0.000000
O O16 0.431644 0.597201 0.730550
O O17 0.269975 0.259568 0.500000
O O18 0.500000 0.500000 0.611410
#
# Coordination Sequence:
#
# PCOD9426054 Si02
#       8
#     8   8   8   8   8   8   8   8
#     4  11  20  36  60  83 118 160 191 237 302 341
#     4  10  21  35  61  85 118 146 193 246 286 335
#     4  10  19  34  56  81 117 164 202 237 289 342
#     4  11  23  41  66  88 113 150 191 240 298 356
#     4  10  19  38  60  89 110 149 194 241 293 346
#     4  11  22  38  56  90 123 156 193 236 288 356
#     4  10  20  33  53  83 116 154 208 249 276 332
#     4   9  17  33  55  79 111 150 197 245 285 329
#
# _framework density 19.110693000000001
#
# number of rings (size 3 to 8) (size 9 to 14) (size 15 to 20)
#    0.000    1.750    3.750    3.375    0.000    2.750 
#    0.000    1.875    0.000    2.250    0.000    0.000 
#    0.000    0.000    0.000    0.000    0.000    0.000 
#
# Total GULP energy -357339.461265 kJ/mol
# GULP energy per Si atom -5583.429082 kJ/mol
# Density = 1.906720 g / cm^3
# Si number density = 19.110693 Si / 1000 Ang^3
#
#
#
# Elastic Constant Matrix: (Units=GPa)
#
#
# Indices 1 2 3 4 5 6 
#
# 1 31.7305 -11.2979 0.6413 0.0000 0.0000 0.0000
# 2 -11.2979 58.1181 -0.9068 0.0000 0.0000 0.0000
# 3 0.6413 -0.9068 65.7116 0.0000 0.0000 0.0000
# 4 0.0000 0.0000 0.0000 0.8989 0.0000 0.0000
# 5 0.0000 0.0000 0.0000 0.0000 12.4319 0.0000
# 6 0.0000 0.0000 0.0000 0.0000 0.0000 22.3860
#
#
#
# Elastic Compliance Matrix: (Units=1/GPa)
#
#
# Indices 1 2 3 4 5 6 
#
# 1 0.033863 0.006579 -0.000240 0.000000 0.000000 0.000000
# 2 0.006579 0.018488 0.000191 0.000000 0.000000 0.000000
# 3 -0.000240 0.000191 0.015223 0.000000 0.000000 0.000000
# 4 0.000000 0.000000 0.000000 1.112449 0.000000 0.000000
# 5 0.000000 0.000000 0.000000 0.000000 0.080438 0.000000
# 6 0.000000 0.000000 0.000000 0.000000 0.000000 0.044671
#
#
# Mechanical properties :
#
#
# Convention : Reuss Voigt Hill
#
# Bulk Modulus (GPa) = 12.40165 14.71483 13.55824
# Shear Modulus (GPa) = 3.79090 18.28493 11.03791
#
# Velocity S-wave (km/s) = 1.40995 3.09656 2.40589
# Velocity P-wave (km/s) = 3.02557 4.52785 3.85068
#
# Compressibility (1/GPa) = 0.08063445
#
# Stress axis : x y z
#
# Youngs Moduli (GPa) = 29.53100 54.08837 65.69009
#
# Poissons Ratio (x) = -0.35585 0.01575
# Poissons Ratio (y) = -0.19428 -0.01254
# Poissons Ratio (z) = 0.00708 -0.01033
#
# Static dielectric constant tensor:
#      x y z
#    x 1.660810 0.000000 0.000000 
#    y 0.000000 1.673520 0.000000 
#    z 0.000000 0.000000 1.657190 
# 
# From -- ./inp_files/19973.got.cif
#   From: 2010.05.17/outbox.cif.g08.bks.cpg/sg55_10_cif.got.tgz:19973.got - 2010.06.03 13:27:54.
