data_PCOD9426024
_publ_section_title
;
Structure prediction by ZEFSAII (Michael W. Deem and Ramdas Pophale) SiO2 
 PCOD9426024
Probable space group: P B A M
;
_chemical_formula_sum "Si O2"
_cell_formula_units_Z 56
_cell_length_a 10.041227
_cell_length_b 20.221914
_cell_length_c 14.309205
_cell_angle_alpha 90.000000
_cell_angle_beta 90.000000
_cell_angle_gamma 90.000000
_cell_volume 2905.524554
_symmetry_space_group_name_H-M "P B A M"
_symmetry_group_IT_number 55
_symmetry_cell_setting 'orthorhombic'
loop_
_space_group_symop_operation_xyz
x,y,z
-x,-y,z
1/2+x,1/2-y,-z
1/2-x,1/2+y,-z
-x,-y,-z
x,y,-z
1/2-x,1/2+y,z
1/2+x,1/2-y,z
loop_
_atom_site_type_symbol
_atom_site_label
_atom_site_fract_x
_atom_site_fract_y
_atom_site_fract_z
Si Si1 0.133349 0.683097 0.803275
Si Si2 0.027871 0.172445 0.605473
Si Si3 0.125033 0.264414 0.110031
Si Si4 0.525308 0.426276 0.773482
Si Si5 0.292808 0.052718 0.111122
Si Si6 0.262660 0.406617 0.891119
Si Si7 0.307194 0.224520 0.605162
O O1 0.270114 0.714468 0.843767
O O2 0.116404 0.609681 0.844384
O O3 0.142475 0.681263 0.691631
O O4 0.015971 0.731342 0.838068
O O5 0.035492 0.144551 0.500000
O O6 0.053396 0.121029 0.687068
O O7 0.884864 0.206763 0.616529
O O8 0.147153 0.226332 0.611570
O O9 0.183784 0.338546 0.118063
O O10 0.107842 0.248779 0.000000
O O11 0.500000 0.500000 0.736838
O O12 0.647148 0.432353 0.845714
O O13 0.393677 0.404021 0.828076
O O14 0.316542 0.974854 0.130865
O O15 0.295148 0.061730 0.000000
O O16 0.303021 0.413121 0.000000
O O17 0.339517 0.200442 0.500000
#
# Coordination Sequence:
#
# PCOD9426024 Si02
#       7
#     8   8   8   8   8   8   8
#     4  12  23  38  59  85 115 151 188 238 290 336
#     4  10  20  36  57  84 111 142 186 235 286 336
#     4  11  24  38  55  85 120 152 186 230 286 342
#     4  10  19  34  55  82 114 147 188 230 283 334
#     4  10  20  35  56  82 112 151 193 230 275 337
#     4   9  20  37  56  79 114 155 193 229 272 336
#     4  10  21  37  57  81 109 143 186 233 281 337
#
# _framework density 19.273627000000001
#
# number of rings (size 3 to 8) (size 9 to 14) (size 15 to 20)
#    0.000    1.714    1.429    3.429    2.000    2.571 
#    0.000    2.143    0.000    0.000    0.000    1.000 
#    0.000    0.571    0.000    0.000    0.000    0.000 
#
# Total GULP energy -312645.684484 kJ/mol
# GULP energy per Si atom -5582.958652 kJ/mol
# Density = 1.922976 g / cm^3
# Si number density = 19.273627 Si / 1000 Ang^3
#
#
#
# Elastic Constant Matrix: (Units=GPa)
#
#
# Indices 1 2 3 4 5 6 
#
# 1 52.6500 5.3951 9.5676 0.0000 0.0000 0.0000
# 2 5.3951 68.4580 36.9054 0.0000 0.0000 0.0000
# 3 9.5676 36.9054 91.9588 0.0000 0.0000 0.0000
# 4 0.0000 0.0000 0.0000 21.5605 0.0000 0.0000
# 5 0.0000 0.0000 0.0000 0.0000 19.3625 0.0000
# 6 0.0000 0.0000 0.0000 0.0000 0.0000 23.5322
#
#
#
# Elastic Compliance Matrix: (Units=1/GPa)
#
#
# Indices 1 2 3 4 5 6 
#
# 1 0.019376 -0.000562 -0.001790 0.000000 0.000000 0.000000
# 2 -0.000562 0.018657 -0.007429 0.000000 0.000000 0.000000
# 3 -0.001790 -0.007429 0.014042 0.000000 0.000000 0.000000
# 4 0.000000 0.000000 0.000000 0.046381 0.000000 0.000000
# 5 0.000000 0.000000 0.000000 0.000000 0.051646 0.000000
# 6 0.000000 0.000000 0.000000 0.000000 0.000000 0.042495
#
#
# Mechanical properties :
#
#
# Convention : Reuss Voigt Hill
#
# Bulk Modulus (GPa) = 30.75722 35.20031 32.97877
# Shear Modulus (GPa) = 22.42179 23.63763 23.02971
#
# Velocity S-wave (km/s) = 3.41448 3.50583 3.46046
# Velocity P-wave (km/s) = 5.61585 5.88990 5.75450
#
# Compressibility (1/GPa) = 0.03251269
#
# Stress axis : x y z
#
# Youngs Moduli (GPa) = 51.60946 53.60009 71.21423
#
# Poissons Ratio (x) = 0.03011 0.12751
# Poissons Ratio (y) = 0.02899 0.52905
# Poissons Ratio (z) = 0.09241 0.39819
#
# Static dielectric constant tensor:
#      x y z
#    x 1.691780 0.000000 0.000000 
#    y 0.000000 1.692430 0.000000 
#    z 0.000000 0.000000 1.660430 
# 
# From -- ./inp_files/17615.got.cif
#   From: 2010.05.17/outbox.cif.g08.bks.cpg/sg55_9_cif.got.tgz:17615.got - 2010.06.03 13:27:54.
