data_PCOD9426373
_publ_section_title
;
Structure prediction by ZEFSAII (Michael W. Deem and Ramdas Pophale) SiO2 
 PCOD9426373
Probable space group: P B A M
;
_chemical_formula_sum "Si O2"
_cell_formula_units_Z 64
_cell_length_a 20.670721
_cell_length_b 19.728064
_cell_length_c 8.820484
_cell_angle_alpha 90.000000
_cell_angle_beta 90.000000
_cell_angle_gamma 90.000000
_cell_volume 3596.934338
_symmetry_space_group_name_H-M "P B A M"
_symmetry_group_IT_number 55
_symmetry_cell_setting 'orthorhombic'
loop_
_space_group_symop_operation_xyz
x,y,z
-x,-y,z
1/2+x,1/2-y,-z
1/2-x,1/2+y,-z
-x,-y,-z
x,y,-z
1/2-x,1/2+y,z
1/2+x,1/2-y,z
loop_
_atom_site_type_symbol
_atom_site_label
_atom_site_fract_x
_atom_site_fract_y
_atom_site_fract_z
Si Si1 0.489052 0.320645 0.818241
Si Si2 0.931438 0.037887 0.179062
Si Si3 0.359933 0.822930 0.317812
Si Si4 0.688099 0.460930 0.320019
Si Si5 0.937589 0.456844 0.182286
Si Si6 0.641108 0.323484 0.818170
Si Si7 0.511531 0.823344 0.319519
Si Si8 0.690777 0.040341 0.182288
O O1 0.445121 0.384533 0.776349
O O2 0.564669 0.334751 0.781242
O O3 0.470053 0.250689 0.740470
O O4 0.486031 0.312957 0.000000
O O5 0.876989 0.001090 0.274950
O O6 0.913424 0.035000 0.000000
O O7 0.000000 0.000000 0.193131
O O8 0.355567 0.821498 0.500000
O O9 0.341333 0.749771 0.250074
O O10 0.435844 0.834238 0.275115
O O11 0.319181 0.884831 0.250518
O O12 0.695264 0.457038 0.500000
O O13 0.680819 0.385655 0.250880
O O14 0.747241 0.501971 0.247136
O O15 0.872681 0.496382 0.224411
O O16 0.000000 0.500000 0.232901
O O17 0.945243 0.382488 0.250371
O O18 0.939637 0.451987 0.000000
O O19 0.647378 0.322742 0.000000
O O20 0.514869 0.825104 0.500000
O O21 0.694243 0.044647 0.000000
#
# Coordination Sequence:
#
# PCOD9426373 Si02
#       8
#     8   8   8   8   8   8   8   8
#     4   9  18  33  57  84 114 149 190 239 282 334
#     4  10  19  37  61  86 113 148 194 239 284 342
#     4  10  20  35  56  87 120 150 187 236 291 346
#     4  12  25  39  57  86 122 156 192 243 296 348
#     4  10  20  36  59  85 111 144 193 240 281 333
#     4  10  19  36  60  85 113 152 197 236 281 345
#     4  10  20  32  53  85 121 152 183 231 292 349
#     4  11  23  40  61  84 114 156 199 241 286 348
#
# _framework density 17.792929000000001
#
# number of rings (size 3 to 8) (size 9 to 14) (size 15 to 20)
#    0.000    1.750    2.500    2.625    0.000    3.500 
#    0.000    1.250    0.000    4.500    0.000    0.000 
#    0.000    0.000    0.000    0.000    0.000    0.000 
#
# Total GULP energy -357462.104670 kJ/mol
# GULP energy per Si atom -5585.345385 kJ/mol
# Density = 1.775243 g / cm^3
# Si number density = 17.792929 Si / 1000 Ang^3
#
#
#
# Elastic Constant Matrix: (Units=GPa)
#
#
# Indices 1 2 3 4 5 6 
#
# 1 66.9270 59.8471 38.5191 0.0000 0.0000 0.0000
# 2 59.8471 168.6906 58.7886 0.0000 0.0000 0.0000
# 3 38.5191 58.7886 59.8515 0.0000 0.0000 0.0000
# 4 0.0000 0.0000 0.0000 10.5955 0.0000 0.0000
# 5 0.0000 0.0000 0.0000 0.0000 18.3283 0.0000
# 6 0.0000 0.0000 0.0000 0.0000 0.0000 29.2850
#
#
#
# Elastic Compliance Matrix: (Units=1/GPa)
#
#
# Indices 1 2 3 4 5 6 
#
# 1 0.026476 -0.005253 -0.011880 0.000000 0.000000 0.000000
# 2 -0.005253 0.010056 -0.006496 0.000000 0.000000 0.000000
# 3 -0.011880 -0.006496 0.030735 0.000000 0.000000 0.000000
# 4 0.000000 0.000000 0.000000 0.094380 0.000000 0.000000
# 5 0.000000 0.000000 0.000000 0.000000 0.054560 0.000000
# 6 0.000000 0.000000 0.000000 0.000000 0.000000 0.034147
#
#
# Mechanical properties :
#
#
# Convention : Reuss Voigt Hill
#
# Bulk Modulus (GPa) = 49.97964 67.75318 58.86641
# Shear Modulus (GPa) = 16.43213 20.86272 18.64742
#
# Velocity S-wave (km/s) = 3.04224 3.42794 3.24083
# Velocity P-wave (km/s) = 6.36325 7.33683 6.86731
#
# Compressibility (1/GPa) = 0.02000815
#
# Stress axis : x y z
#
# Youngs Moduli (GPa) = 37.76963 99.44711 32.53655
#
# Poissons Ratio (x) = 0.52239 0.38653
# Poissons Ratio (y) = 0.19840 0.21137
# Poissons Ratio (z) = 0.44870 0.64604
#
# Static dielectric constant tensor:
#      x y z
#    x 1.591010 0.000000 0.000000 
#    y 0.000000 1.596920 0.000000 
#    z 0.000000 0.000000 1.591490 
# 
# From -- ./inp_files/9050.got.cif
#   From: 2010.05.17/outbox.cif.g08.bks.cpg/sg55_5_cif.got.tgz:9050.got - 2010.06.03 13:27:54.
