data_PCOD9426850
_publ_section_title
;
Structure prediction by ZEFSAII (Michael W. Deem and Ramdas Pophale) SiO2 
 PCOD9426850
Probable space group: P B A M
;
_chemical_formula_sum "Si O2"
_cell_formula_units_Z 64
_cell_length_a 25.891564
_cell_length_b 11.585367
_cell_length_c 11.525608
_cell_angle_alpha 90.000000
_cell_angle_beta 90.000000
_cell_angle_gamma 90.000000
_cell_volume 3457.259078
_symmetry_space_group_name_H-M "P B A M"
_symmetry_group_IT_number 55
_symmetry_cell_setting 'orthorhombic'
loop_
_space_group_symop_operation_xyz
x,y,z
-x,-y,z
1/2+x,1/2-y,-z
1/2-x,1/2+y,-z
-x,-y,-z
x,y,-z
1/2-x,1/2+y,z
1/2+x,1/2-y,z
loop_
_atom_site_type_symbol
_atom_site_label
_atom_site_fract_x
_atom_site_fract_y
_atom_site_fract_z
Si Si1 0.879862 0.683189 0.232844
Si Si2 0.786509 0.554990 0.632326
Si Si3 0.094545 0.683532 0.365923
Si Si4 0.883180 0.452365 0.876828
Si Si5 0.160953 0.081091 0.132976
Si Si6 0.982351 0.626913 0.365592
Si Si7 0.278094 0.134906 0.185159
Si Si8 0.678748 0.641829 0.281878
O O1 0.829011 0.632684 0.300030
O O2 0.891436 0.588128 0.134857
O O3 0.868758 0.809465 0.185006
O O4 0.931339 0.677682 0.309413
O O5 0.802418 0.548415 0.500000
O O6 0.781780 0.427642 0.688849
O O7 0.728701 0.605846 0.643459
O O8 0.102253 0.637741 0.500000
O O9 0.103465 0.604164 0.249747
O O10 0.133500 0.790015 0.348195
O O11 0.033239 0.706362 0.358283
O O12 0.822023 0.431952 0.882842
O O13 0.906076 0.408447 0.000000
O O14 0.221402 0.116728 0.137779
O O15 0.157090 0.968199 0.213403
O O16 0.146244 0.057989 0.000000
O O17 0.970049 0.607505 0.500000
O O18 0.000000 0.500000 0.318875
O O19 0.296147 0.266254 0.192559
#
# Coordination Sequence:
#
# PCOD9426850 Si02
#       8
#     8   8   8   8   8   8   8   8
#     4  11  21  37  56  89 126 157 201 249 308 364
#     4  10  20  34  57  88 123 157 191 249 316 369
#     4  10  21  39  65  90 119 157 203 255 306 363
#     4  10  20  34  58  90 124 157 199 248 305 361
#     4  11  23  39  58  82 121 166 206 249 301 363
#     4  10  20  38  64  92 119 158 205 255 307 369
#     4   9  20  37  55  84 117 159 207 245 297 361
#     4  10  21  39  57  86 120 160 206 247 300 367
#
# _framework density 18.511773999999999
#
# number of rings (size 3 to 8) (size 9 to 14) (size 15 to 20)
#    0.000    1.875    2.500    1.500    0.000    7.500 
#    0.000    4.375    0.000    2.250    0.000    0.000 
#    0.000    0.000    0.000    0.000    0.000    0.000 
#
# Total GULP energy -356335.913261 kJ/mol
# GULP energy per Si atom -5567.748645 kJ/mol
# Density = 1.846964 g / cm^3
# Si number density = 18.511774 Si / 1000 Ang^3
#
#
#
# Elastic Constant Matrix: (Units=GPa)
#
#
# Indices 1 2 3 4 5 6 
#
# 1 106.5929 33.8058 38.3818 0.0000 0.0000 0.0000
# 2 33.8058 91.2753 37.4061 0.0000 0.0000 0.0000
# 3 38.3818 37.4061 126.3276 0.0000 0.0000 0.0000
# 4 0.0000 0.0000 0.0000 24.5773 0.0000 0.0000
# 5 0.0000 0.0000 0.0000 0.0000 131.1700 0.0000
# 6 0.0000 0.0000 0.0000 0.0000 0.0000 24.2233
#
#
#
# Elastic Compliance Matrix: (Units=1/GPa)
#
#
# Indices 1 2 3 4 5 6 
#
# 1 0.011280 -0.003156 -0.002493 0.000000 0.000000 0.000000
# 2 -0.003156 0.013352 -0.002995 0.000000 0.000000 0.000000
# 3 -0.002493 -0.002995 0.009560 0.000000 0.000000 0.000000
# 4 0.000000 0.000000 0.000000 0.040688 0.000000 0.000000
# 5 0.000000 0.000000 0.000000 0.000000 0.007624 0.000000
# 6 0.000000 0.000000 0.000000 0.000000 0.000000 0.041283
#
#
# Mechanical properties :
#
#
# Convention : Reuss Voigt Hill
#
# Bulk Modulus (GPa) = 59.15393 60.37593 59.76493
# Shear Modulus (GPa) = 34.08122 50.30093 42.19108
#
# Velocity S-wave (km/s) = 4.29541 5.21837 4.77922
# Velocity P-wave (km/s) = 7.52495 8.30627 7.92525
#
# Compressibility (1/GPa) = 0.01690505
#
# Stress axis : x y z
#
# Youngs Moduli (GPa) = 88.65221 74.89444 104.60280
#
# Poissons Ratio (x) = 0.23639 0.26073
# Poissons Ratio (y) = 0.27981 0.31325
# Poissons Ratio (z) = 0.22097 0.22428
#
# Static dielectric constant tensor:
#      x y z
#    x 1.650080 0.000000 0.000000 
#    y 0.000000 1.652850 0.000000 
#    z 0.000000 0.000000 1.523800 
# 
# From -- ./inp_files/15759.got.cif
#   From: 2010.05.17/outbox.cif.g08.bks.cpg/sg55_8_cif.got.tgz:15759.got - 2010.06.03 13:27:54.
