data_PCOD9426336
_publ_section_title
;
Structure prediction by ZEFSAII (Michael W. Deem and Ramdas Pophale) SiO2 
 PCOD9426336
Probable space group: P B A M
;
_chemical_formula_sum "Si O2"
_cell_formula_units_Z 64
_cell_length_a 15.966831
_cell_length_b 23.054302
_cell_length_c 9.474299
_cell_angle_alpha 90.000000
_cell_angle_beta 90.000000
_cell_angle_gamma 90.000000
_cell_volume 3487.528722
_symmetry_space_group_name_H-M "P B A M"
_symmetry_group_IT_number 55
_symmetry_cell_setting 'orthorhombic'
loop_
_space_group_symop_operation_xyz
x,y,z
-x,-y,z
1/2+x,1/2-y,-z
1/2-x,1/2+y,-z
-x,-y,-z
x,y,-z
1/2-x,1/2+y,z
1/2+x,1/2-y,z
loop_
_atom_site_type_symbol
_atom_site_label
_atom_site_fract_x
_atom_site_fract_y
_atom_site_fract_z
Si Si1 0.412420 0.027623 0.670129
Si Si2 0.801443 0.253536 0.843470
Si Si3 0.256091 0.942350 0.666449
Si Si4 0.138398 0.652651 0.658269
Si Si5 0.438838 0.446099 0.331883
Si Si6 0.036414 0.825702 0.168999
Si Si7 0.966336 0.723075 0.339831
Si Si8 0.336392 0.840994 0.839639
O O1 0.423460 0.033130 0.500000
O O2 0.391716 0.092068 0.723231
O O3 0.500000 0.000000 0.723479
O O4 0.329963 0.988751 0.692803
O O5 0.797110 0.308857 0.744231
O O6 0.873741 0.206349 0.808864
O O7 0.716681 0.217915 0.844525
O O8 0.823015 0.274799 0.000000
O O9 0.261991 0.925769 0.500000
O O10 0.159812 0.961103 0.691028
O O11 0.278998 0.889397 0.767886
O O12 0.169522 0.641298 0.500000
O O13 0.058058 0.694615 0.650942
O O14 0.500000 0.500000 0.298153
O O15 0.448303 0.433425 0.500000
O O16 0.460481 0.388611 0.242025
O O17 0.972998 0.781546 0.247434
O O18 0.021811 0.829374 0.000000
O O19 0.936764 0.734016 0.500000
O O20 0.912679 0.674118 0.261672
O O21 0.360062 0.856749 0.000000
#
# Coordination Sequence:
#
# PCOD9426336 Si02
#       8
#     8   8   8   8   8   8   8   8
#     4   9  17  32  54  81 112 144 182 231 282 336
#     4   9  19  34  53  75 106 141 175 220 276 332
#     4  10  20  35  58  82 109 149 194 238 287 339
#     4   9  18  33  54  78 106 140 180 222 273 330
#     4  10  21  37  56  80 112 149 194 247 292 342
#     4  10  19  36  58  80 108 145 184 229 289 346
#     4  10  20  34  55  84 111 142 182 229 282 341
#     4  11  21  35  54  80 112 143 183 231 282 341
#
# _framework density 18.351102999999998
#
# number of rings (size 3 to 8) (size 9 to 14) (size 15 to 20)
#    0.000    2.250    1.250    1.875    0.000    4.250 
#    2.250    0.625    0.000    1.500    0.000    0.000 
#    0.000    0.000    0.000    0.000    0.000    0.000 
#
# Total GULP energy -356514.655285 kJ/mol
# GULP energy per Si atom -5570.541489 kJ/mol
# Density = 1.830934 g / cm^3
# Si number density = 18.351103 Si / 1000 Ang^3
#
#
#
# Elastic Constant Matrix: (Units=GPa)
#
#
# Indices 1 2 3 4 5 6 
#
# 1 38.7163 7.8302 23.4576 0.0000 0.0000 0.0000
# 2 7.8302 88.0196 40.4942 0.0000 0.0000 0.0000
# 3 23.4576 40.4942 68.8902 0.0000 0.0000 0.0000
# 4 0.0000 0.0000 0.0000 -3.9464 0.0000 0.0000
# 5 0.0000 0.0000 0.0000 0.0000 10.7154 0.0000
# 6 0.0000 0.0000 0.0000 0.0000 0.0000 23.8293
#
#
#
# Elastic Compliance Matrix: (Units=1/GPa)
#
#
# Indices 1 2 3 4 5 6 
#
# 1 0.033139 0.003075 -0.013091 0.000000 0.000000 0.000000
# 2 0.003075 0.015858 -0.010368 0.000000 0.000000 0.000000
# 3 -0.013091 -0.010368 0.025068 0.000000 0.000000 0.000000
# 4 0.000000 0.000000 0.000000 -0.253397 0.000000 0.000000
# 5 0.000000 0.000000 0.000000 0.000000 0.093324 0.000000
# 6 0.000000 0.000000 0.000000 0.000000 0.000000 0.041965
#
#
# Mechanical properties :
#
#
# Convention : Reuss Voigt Hill
#
# Bulk Modulus (GPa) = 30.03463 37.68779 33.86121
# Shear Modulus (GPa) = 639.02121 14.37594 326.69858
#
# Velocity S-wave (km/s) = 18.68089 2.80193 13.35714
# Velocity P-wave (km/s) = 21.94773 5.57220 16.01175
#
# Compressibility (1/GPa) = 0.03329491
#
# Stress axis : x y z
#
# Youngs Moduli (GPa) = 30.17605 63.06150 39.89150
#
# Poissons Ratio (x) = -0.19390 0.52223
# Poissons Ratio (y) = -0.09278 0.41360
# Poissons Ratio (z) = 0.39505 0.65383
#
# Static dielectric constant tensor:
#      x y z
#    x 1.648220 0.000000 0.000000 
#    y 0.000000 1.622130 0.000000 
#    z 0.000000 0.000000 1.654430 
# 
# From -- ./inp_files/6525.got.cif
#   From: 2010.05.17/outbox.cif.g08.bks.cpg/sg55_4_cif.got.tgz:6525.got - 2010.06.03 13:27:54.
