data_PCOD9426368
_publ_section_title
;
Structure prediction by ZEFSAII (Michael W. Deem and Ramdas Pophale) SiO2 
 PCOD9426368
Probable space group: P B A M
;
_chemical_formula_sum "Si O2"
_cell_formula_units_Z 64
_cell_length_a 20.897266
_cell_length_b 19.660598
_cell_length_c 9.033967
_cell_angle_alpha 90.000000
_cell_angle_beta 90.000000
_cell_angle_gamma 90.000000
_cell_volume 3711.630150
_symmetry_space_group_name_H-M "P B A M"
_symmetry_group_IT_number 55
_symmetry_cell_setting 'orthorhombic'
loop_
_space_group_symop_operation_xyz
x,y,z
-x,-y,z
1/2+x,1/2-y,-z
1/2-x,1/2+y,-z
-x,-y,-z
x,y,-z
1/2-x,1/2+y,z
1/2+x,1/2-y,z
loop_
_atom_site_type_symbol
_atom_site_label
_atom_site_fract_x
_atom_site_fract_y
_atom_site_fract_z
Si Si1 0.492018 0.321960 0.676363
Si Si2 0.939619 0.048455 0.175944
Si Si3 0.360922 0.827810 0.176137
Si Si4 0.691187 0.467286 0.176605
Si Si5 0.938248 0.453481 0.322938
Si Si6 0.631214 0.326408 0.178326
Si Si7 0.512262 0.820763 0.823523
Si Si8 0.688162 0.038736 0.676732
O O1 0.494514 0.318947 0.500000
O O2 0.447431 0.382755 0.732778
O O3 0.563027 0.335513 0.742341
O O4 0.471198 0.249742 0.743921
O O5 0.874359 0.008294 0.206188
O O6 0.942308 0.063751 0.000000
O O7 0.000000 0.000000 0.209690
O O8 0.344219 0.749484 0.213504
O O9 0.436902 0.834956 0.209523
O O10 0.322066 0.885781 0.259274
O O11 0.352804 0.836609 0.000000
O O12 0.677600 0.388600 0.216879
O O13 0.749676 0.501881 0.259531
O O14 0.702724 0.469980 0.000000
O O15 0.937653 0.440983 0.500000
O O16 0.946811 0.383142 0.237307
O O17 0.874563 0.494551 0.282150
O O18 0.000000 0.500000 0.290035
O O19 0.619786 0.328914 0.000000
O O20 0.518096 0.813456 0.000000
O O21 0.691203 0.042078 0.500000
#
# Coordination Sequence:
#
# PCOD9426368 Si02
#       8
#     8   8   8   8   8   8   8   8
#     4  11  21  32  53  85 119 148 180 230 286 338
#     4  10  19  36  60  82 109 145 188 232 275 323
#     4   9  18  33  56  82 108 140 187 233 273 327
#     4  10  21  38  60  82 111 149 188 232 278 328
#     4  10  20  36  56  80 113 148 185 228 282 335
#     4   9  18  36  58  82 109 144 188 232 276 329
#     4  10  20  34  56  84 112 145 190 238 279 329
#     4  11  23  37  55  81 117 152 184 228 280 338
#
# _framework density 17.243096999999999
#
# number of rings (size 3 to 8) (size 9 to 14) (size 15 to 20)
#    0.000    2.000    2.500    2.625    0.000    4.500 
#    0.000    1.250    0.000    4.500    0.000    0.000 
#    0.000    0.000    0.000    0.000    0.000    0.000 
#
# Total GULP energy -357261.755808 kJ/mol
# GULP energy per Si atom -5582.214935 kJ/mol
# Density = 1.720385 g / cm^3
# Si number density = 17.243097 Si / 1000 Ang^3
#
#
#
# Elastic Constant Matrix: (Units=GPa)
#
#
# Indices 1 2 3 4 5 6 
#
# 1 90.2134 65.1332 42.8120 0.0000 0.0000 0.0000
# 2 65.1332 165.2951 68.2800 0.0000 0.0000 0.0000
# 3 42.8120 68.2800 47.9897 0.0000 0.0000 0.0000
# 4 0.0000 0.0000 0.0000 -0.1479 0.0000 0.0000
# 5 0.0000 0.0000 0.0000 0.0000 22.0117 0.0000
# 6 0.0000 0.0000 0.0000 0.0000 0.0000 24.1133
#
#
#
# Elastic Compliance Matrix: (Units=1/GPa)
#
#
# Indices 1 2 3 4 5 6 
#
# 1 0.019320 -0.001196 -0.015533 0.000000 0.000000 0.000000
# 2 -0.001196 0.014748 -0.019917 0.000000 0.000000 0.000000
# 3 -0.015533 -0.019917 0.063033 0.000000 0.000000 0.000000
# 4 0.000000 0.000000 0.000000 -6.763342 0.000000 0.000000
# 5 0.000000 0.000000 0.000000 0.000000 0.045430 0.000000
# 6 0.000000 0.000000 0.000000 0.000000 0.000000 0.041471
#
#
# Mechanical properties :
#
#
# Convention : Reuss Voigt Hill
#
# Bulk Modulus (GPa) = 42.00205 72.88318 57.44262
# Shear Modulus (GPa) = -0.76945 17.68028 8.45542
#
# Velocity S-wave (km/s) = -0.66874 3.20559 2.21682
# Velocity P-wave (km/s) = 4.88010 7.48738 6.31966
#
# Compressibility (1/GPa) = 0.02380836
#
# Stress axis : x y z
#
# Youngs Moduli (GPa) = 51.75918 67.80355 15.86468
#
# Poissons Ratio (x) = 0.08112 0.24643
# Poissons Ratio (y) = 0.06193 0.31597
# Poissons Ratio (z) = 0.80400 1.35043
#
# Static dielectric constant tensor:
#      x y z
#    x 1.558750 0.000000 0.000000 
#    y 0.000000 1.587020 0.000000 
#    z 0.000000 0.000000 1.570120 
# 
# From -- ./inp_files/9023.got.cif
#   From: 2010.05.17/outbox.cif.g08.bks.cpg/sg55_5_cif.got.tgz:9023.got - 2010.06.03 13:27:54.
