data_PCOD9426061
_publ_section_title
;
Structure prediction by ZEFSAII (Michael W. Deem and Ramdas Pophale) SiO2 
 PCOD9426061
Probable space group: P B A M
;
_chemical_formula_sum "Si O2"
_cell_formula_units_Z 64
_cell_length_a 15.621965
_cell_length_b 25.534479
_cell_length_c 7.891022
_cell_angle_alpha 90.000000
_cell_angle_beta 90.000000
_cell_angle_gamma 90.000000
_cell_volume 3147.718711
_symmetry_space_group_name_H-M "P B A M"
_symmetry_group_IT_number 55
_symmetry_cell_setting 'orthorhombic'
loop_
_space_group_symop_operation_xyz
x,y,z
-x,-y,z
1/2+x,1/2-y,-z
1/2-x,1/2+y,-z
-x,-y,-z
x,y,-z
1/2-x,1/2+y,z
1/2+x,1/2-y,z
loop_
_atom_site_type_symbol
_atom_site_label
_atom_site_fract_x
_atom_site_fract_y
_atom_site_fract_z
Si Si1 0.754370 0.755949 0.302799
Si Si2 0.658411 0.553237 0.301048
Si Si3 0.834884 0.358345 0.702767
Si Si4 0.019126 0.339363 0.204006
Si Si5 0.944079 0.776507 0.201677
Si Si6 0.209227 0.360354 0.801582
Si Si7 0.689168 0.436919 0.707639
Si Si8 0.007804 0.111927 0.704698
O O1 0.734337 0.747074 0.500000
O O2 0.692817 0.800912 0.230230
O O3 0.850602 0.779183 0.286990
O O4 0.756429 0.699041 0.218169
O O5 0.641550 0.544219 0.500000
O O6 0.730292 0.597432 0.284200
O O7 0.687504 0.496991 0.232704
O O8 0.570164 0.576753 0.229092
O O9 0.823462 0.355509 0.500000
O O10 0.933970 0.368295 0.738888
O O11 0.769560 0.402469 0.766715
O O12 0.014704 0.278326 0.257923
O O13 0.111355 0.360030 0.264546
O O14 0.021466 0.340352 0.000000
O O15 0.998287 0.827689 0.242095
O O16 0.929730 0.773525 0.000000
O O17 0.207400 0.372931 0.000000
O O18 0.691846 0.436567 0.500000
O O19 0.599917 0.410046 0.759105
O O20 0.006221 0.110721 0.500000
#
# Coordination Sequence:
#
# PCOD9426061 Si02
#       8
#     8   8   8   8   8   8   8   8
#     4  10  19  34  56  83 112 144 184 230 280 335
#     4  10  21  36  60  85 108 148 195 235 282 335
#     4  10  20  34  57  85 111 143 183 233 284 328
#     4   9  21  38  54  76 110 151 188 225 278 337
#     4  10  20  34  52  80 115 152 184 221 277 333
#     4  10  22  40  57  78 114 152 187 234 287 334
#     4   9  18  37  58  83 116 145 184 236 285 334
#     4  10  19  34  56  83 114 150 187 229 277 334
#
# _framework density 20.332184999999999
#
# number of rings (size 3 to 8) (size 9 to 14) (size 15 to 20)
#    0.000    2.250    1.250    2.250    1.750    6.000 
#    0.000    1.875    0.000    5.250    0.000    0.000 
#    0.000    0.000    0.000    0.000    0.000    0.000 
#
# Total GULP energy -357299.837935 kJ/mol
# GULP energy per Si atom -5582.809968 kJ/mol
# Density = 2.028591 g / cm^3
# Si number density = 20.332185 Si / 1000 Ang^3
#
#
#
# Elastic Constant Matrix: (Units=GPa)
#
#
# Indices 1 2 3 4 5 6 
#
# 1 54.8660 36.7428 -6.5536 0.0000 0.0000 0.0000
# 2 36.7428 78.0559 -7.0486 0.0000 0.0000 0.0000
# 3 -6.5536 -7.0486 18.2496 0.0000 0.0000 0.0000
# 4 0.0000 0.0000 0.0000 -244.8717 0.0000 0.0000
# 5 0.0000 0.0000 0.0000 0.0000 43.5164 0.0000
# 6 0.0000 0.0000 0.0000 0.0000 0.0000 21.0598
#
#
#
# Elastic Compliance Matrix: (Units=1/GPa)
#
#
# Indices 1 2 3 4 5 6 
#
# 1 0.027045 -0.012282 0.004968 0.000000 0.000000 0.000000
# 2 -0.012282 0.018852 0.002871 0.000000 0.000000 0.000000
# 3 0.004968 0.002871 0.057689 0.000000 0.000000 0.000000
# 4 0.000000 0.000000 0.000000 -0.004084 0.000000 0.000000
# 5 0.000000 0.000000 0.000000 0.000000 0.022980 0.000000
# 6 0.000000 0.000000 0.000000 0.000000 0.000000 0.047484
#
#
# Mechanical properties :
#
#
# Convention : Reuss Voigt Hill
#
# Bulk Modulus (GPa) = 10.55972 21.93919 16.24946
# Shear Modulus (GPa) = 23.76228 -27.52370 -1.88071
#
# Velocity S-wave (km/s) = 3.42234 -3.68326 -0.96281
# Velocity P-wave (km/s) = 4.56305 2.69717 2.60256
#
# Compressibility (1/GPa) = 0.09469947
#
# Stress axis : x y z
#
# Youngs Moduli (GPa) = 36.97587 53.04486 17.33442
#
# Poissons Ratio (x) = 0.65149 -0.08612
# Poissons Ratio (y) = 0.45414 -0.04976
# Poissons Ratio (z) = -0.18371 -0.15227
#
# Static dielectric constant tensor:
#      x y z
#    x 1.716970 0.000000 0.000000 
#    y 0.000000 1.710100 0.000000 
#    z 0.000000 0.000000 1.742830 
# 
# From -- ./inp_files/6573.got.cif
#   From: 2010.05.17/outbox.cif.g08.bks.cpg/sg55_4_cif.got.tgz:6573.got - 2010.06.03 13:27:54.
