data_PCOD9426758
_publ_section_title
;
Structure prediction by ZEFSAII (Michael W. Deem and Ramdas Pophale) SiO2 
 PCOD9426758
Probable space group: P B A M
;
_chemical_formula_sum "Si O2"
_cell_formula_units_Z 56
_cell_length_a 20.318315
_cell_length_b 16.176370
_cell_length_c 7.604726
_cell_angle_alpha 90.000000
_cell_angle_beta 90.000000
_cell_angle_gamma 90.000000
_cell_volume 2499.495343
_symmetry_space_group_name_H-M "P B A M"
_symmetry_group_IT_number 55
_symmetry_cell_setting 'orthorhombic'
loop_
_space_group_symop_operation_xyz
x,y,z
-x,-y,z
1/2+x,1/2-y,-z
1/2-x,1/2+y,-z
-x,-y,-z
x,y,-z
1/2-x,1/2+y,z
1/2+x,1/2-y,z
loop_
_atom_site_type_symbol
_atom_site_label
_atom_site_fract_x
_atom_site_fract_y
_atom_site_fract_z
Si Si1 0.820933 0.669170 0.212505
Si Si2 0.588716 0.841729 0.796460
Si Si3 0.164305 0.005794 0.292500
Si Si4 0.532490 0.419554 0.799033
Si Si5 0.812871 0.479407 0.787384
Si Si6 0.540082 0.238560 0.216899
Si Si7 0.172038 0.815936 0.294124
O O1 0.826691 0.573387 0.269304
O O2 0.886083 0.716621 0.271613
O O3 0.749956 0.701421 0.272897
O O4 0.819657 0.670820 0.000000
O O5 0.634880 0.912982 0.718673
O O6 0.516111 0.824792 0.723229
O O7 0.628555 0.755366 0.791042
O O8 0.578511 0.864732 0.000000
O O9 0.150571 0.005119 0.500000
O O10 0.161131 0.910099 0.227478
O O11 0.109965 0.061857 0.201870
O O12 0.237896 0.038353 0.265027
O O13 0.500000 0.500000 0.713529
O O14 0.520519 0.330020 0.720749
O O15 0.507543 0.415661 0.000000
O O16 0.814494 0.478015 0.000000
O O17 0.539973 0.239559 0.000000
O O18 0.156234 0.815746 0.500000
#
# Coordination Sequence:
#
# PCOD9426758 Si02
#       7
#     8   8   8   8   8   8   8
#     4   9  18  35  56  79 108 141 179 225 272 319
#     4  10  20  35  56  81 108 140 179 221 271 327
#     4  10  21  36  54  77 107 142 180 225 270 319
#     4  10  20  34  54  79 110 145 181 223 272 326
#     4   9  19  34  55  81 106 138 179 222 270 322
#     4   9  19  34  54  81 109 140 180 224 271 322
#     4  10  21  36  54  78 109 143 181 223 269 321
#
# _framework density 22.404522
#
# number of rings (size 3 to 8) (size 9 to 14) (size 15 to 20)
#    0.000    2.429    0.000    1.714    2.000    4.286 
#    0.000    4.286    0.000    0.000    0.000    5.000 
#    0.000    0.000    0.000    0.000    0.000    0.000 
#
# Total GULP energy -312826.442647 kJ/mol
# GULP energy per Si atom -5586.186476 kJ/mol
# Density = 2.235353 g / cm^3
# Si number density = 22.404522 Si / 1000 Ang^3
#
#
#
# Elastic Constant Matrix: (Units=GPa)
#
#
# Indices 1 2 3 4 5 6 
#
# 1 63.6715 8.8343 -7.5356 0.0000 0.0000 0.0000
# 2 8.8343 26.9035 -3.7580 0.0000 0.0000 0.0000
# 3 -7.5356 -3.7580 53.3578 0.0000 0.0000 0.0000
# 4 0.0000 0.0000 0.0000 3.9613 0.0000 0.0000
# 5 0.0000 0.0000 0.0000 0.0000 86.6619 0.0000
# 6 0.0000 0.0000 0.0000 0.0000 0.0000 36.0449
#
#
#
# Elastic Compliance Matrix: (Units=1/GPa)
#
#
# Indices 1 2 3 4 5 6 
#
# 1 0.016661 -0.005194 0.001987 0.000000 0.000000 0.000000
# 2 -0.005194 0.039158 0.002024 0.000000 0.000000 0.000000
# 3 0.001987 0.002024 0.019165 0.000000 0.000000 0.000000
# 4 0.000000 0.000000 0.000000 0.252444 0.000000 0.000000
# 5 0.000000 0.000000 0.000000 0.000000 0.011539 0.000000
# 6 0.000000 0.000000 0.000000 0.000000 0.000000 0.027743
#
#
# Mechanical properties :
#
#
# Convention : Reuss Voigt Hill
#
# Bulk Modulus (GPa) = 13.77022 15.44602 14.60812
# Shear Modulus (GPa) = 12.71355 35.09308 23.90331
#
# Velocity S-wave (km/s) = 2.38471 3.96199 3.26988
# Velocity P-wave (km/s) = 3.70702 5.27627 4.55966
#
# Compressibility (1/GPa) = 0.07262049
#
# Stress axis : x y z
#
# Youngs Moduli (GPa) = 60.01893 25.53756 52.17939
#
# Poissons Ratio (x) = 0.13263 -0.10369
# Poissons Ratio (y) = 0.31171 -0.10564
# Poissons Ratio (z) = -0.11927 -0.05170
#
# Static dielectric constant tensor:
#      x y z
#    x 1.812870 0.000000 0.000000 
#    y 0.000000 1.822940 0.000000 
#    z 0.000000 0.000000 1.870930 
# 
# From -- ./inp_files/6001.got.cif
#   From: 2010.05.17/outbox.cif.g08.bks.cpg/sg55_4_cif.got.tgz:6001.got - 2010.06.03 13:27:54.
