data_PCOD9426762
_publ_section_title
;
Structure prediction by ZEFSAII (Michael W. Deem and Ramdas Pophale) SiO2 
 PCOD9426762
Probable space group: P B A M
;
_chemical_formula_sum "Si O2"
_cell_formula_units_Z 48
_cell_length_a 9.656591
_cell_length_b 31.428641
_cell_length_c 8.000117
_cell_angle_alpha 90.000000
_cell_angle_beta 90.000000
_cell_angle_gamma 90.000000
_cell_volume 2427.983763
_symmetry_space_group_name_H-M "P B A M"
_symmetry_group_IT_number 55
_symmetry_cell_setting 'orthorhombic'
loop_
_space_group_symop_operation_xyz
x,y,z
-x,-y,z
1/2+x,1/2-y,-z
1/2-x,1/2+y,-z
-x,-y,-z
x,y,-z
1/2-x,1/2+y,z
1/2+x,1/2-y,z
loop_
_atom_site_type_symbol
_atom_site_label
_atom_site_fract_x
_atom_site_fract_y
_atom_site_fract_z
Si Si1 0.104630 0.618730 0.297153
Si Si2 0.087583 0.458622 0.704565
Si Si3 0.078598 0.116249 0.198171
Si Si4 0.098071 0.962857 0.697500
Si Si5 0.091131 0.714912 0.306174
Si Si6 0.896170 0.788493 0.805094
O O1 0.109155 0.619179 0.500000
O O2 0.259626 0.607914 0.237347
O O3 0.068430 0.666733 0.241891
O O4 0.993966 0.583728 0.242238
O O5 0.089526 0.457769 0.500000
O O6 0.245697 0.461159 0.765188
O O7 0.000000 0.500000 0.754227
O O8 0.980621 0.081657 0.281838
O O9 0.051804 0.165048 0.253092
O O10 0.056587 0.113329 0.000000
O O11 0.113343 0.971965 0.500000
O O12 0.000000 0.000000 0.769692
O O13 0.050068 0.716286 0.500000
O O14 0.255134 0.722323 0.290057
O O15 0.007009 0.751505 0.214847
O O16 0.858936 0.793360 0.000000
#
# Coordination Sequence:
#
# PCOD9426762 Si02
#       6
#     8   8   8   8   8   8
#     4   9  18  34  55  78 104 135 174 220 266 312
#     4   9  17  31  53  79 104 132 170 214 259 311
#     4  10  21  36  54  77 106 141 178 217 264 317
#     4  10  20  34  55  81 107 139 177 218 267 319
#     4  10  20  34  54  80 107 138 180 228 273 319
#     4  10  21  37  55  77 108 145 181 220 273 332
#
# _framework density 19.769487999999999
#
# number of rings (size 3 to 8) (size 9 to 14) (size 15 to 20)
#    0.000    2.333    0.000    2.500    0.000    7.000 
#    0.000    2.500    0.000    2.000    0.000    0.000 
#    0.000    0.000    0.000    0.000    0.000    0.000 
#
# Total GULP energy -267947.530314 kJ/mol
# GULP energy per Si atom -5582.240215 kJ/mol
# Density = 1.972449 g / cm^3
# Si number density = 19.769488 Si / 1000 Ang^3
#
#
#
# Elastic Constant Matrix: (Units=GPa)
#
#
# Indices 1 2 3 4 5 6 
#
# 1 128.0073 99.2026 -7.2940 0.0000 0.0000 0.0000
# 2 99.2026 130.1961 -6.6007 0.0000 0.0000 0.0000
# 3 -7.2940 -6.6007 11.7490 0.0000 0.0000 0.0000
# 4 0.0000 0.0000 0.0000 14.1908 0.0000 0.0000
# 5 0.0000 0.0000 0.0000 0.0000 17.9455 0.0000
# 6 0.0000 0.0000 0.0000 0.0000 0.0000 37.6749
#
#
#
# Elastic Compliance Matrix: (Units=1/GPa)
#
#
# Indices 1 2 3 4 5 6 
#
# 1 0.019242 -0.014468 0.003818 0.000000 0.000000 0.000000
# 2 -0.014468 0.018784 0.001571 0.000000 0.000000 0.000000
# 3 0.003818 0.001571 0.088367 0.000000 0.000000 0.000000
# 4 0.000000 0.000000 0.000000 0.070468 0.000000 0.000000
# 5 0.000000 0.000000 0.000000 0.000000 0.055724 0.000000
# 6 0.000000 0.000000 0.000000 0.000000 0.000000 0.026543
#
#
# Mechanical properties :
#
#
# Convention : Reuss Voigt Hill
#
# Bulk Modulus (GPa) = 9.23918 48.95202 29.09560
# Shear Modulus (GPa) = 14.99867 26.27187 20.63527
#
# Velocity S-wave (km/s) = 2.75740 3.64938 3.23428
# Velocity P-wave (km/s) = 3.84984 6.52475 5.35694
#
# Compressibility (1/GPa) = 0.10823466
#
# Stress axis : x y z
#
# Youngs Moduli (GPa) = 51.97083 53.23715 11.31648
#
# Poissons Ratio (x) = 0.77021 -0.04320
# Poissons Ratio (y) = 0.75189 -0.01778
# Poissons Ratio (z) = -0.19840 -0.08365
#
# Static dielectric constant tensor:
#      x y z
#    x 1.652970 0.000000 0.000000 
#    y 0.000000 1.690490 0.000000 
#    z 0.000000 0.000000 1.701950 
# 
# From -- ./inp_files/2767.got.cif
#   From: 2010.05.17/outbox.cif.g08.bks.cpg/sg55_2_cif.got.tgz:2767.got - 2010.06.03 13:27:54.
