data_PCOD9426539
_publ_section_title
;
Structure prediction by ZEFSAII (Michael W. Deem and Ramdas Pophale) SiO2 
 PCOD9426539
Probable space group: P B A M
;
_chemical_formula_sum "Si O2"
_cell_formula_units_Z 48
_cell_length_a 32.257935
_cell_length_b 9.623560
_cell_length_c 8.879011
_cell_angle_alpha 90.000000
_cell_angle_beta 90.000000
_cell_angle_gamma 90.000000
_cell_volume 2756.366194
_symmetry_space_group_name_H-M "P B A M"
_symmetry_group_IT_number 55
_symmetry_cell_setting 'orthorhombic'
loop_
_space_group_symop_operation_xyz
x,y,z
-x,-y,z
1/2+x,1/2-y,-z
1/2-x,1/2+y,-z
-x,-y,-z
x,y,-z
1/2-x,1/2+y,z
1/2+x,1/2-y,z
loop_
_atom_site_type_symbol
_atom_site_label
_atom_site_fract_x
_atom_site_fract_y
_atom_site_fract_z
Si Si1 0.629198 0.913934 0.673876
Si Si2 0.538135 0.902758 0.317902
Si Si3 0.622758 0.576500 0.673022
Si Si4 0.714513 0.588431 0.682099
Si Si5 0.214535 0.603153 0.820477
Si Si6 0.538035 0.596867 0.820351
O O1 0.636483 0.955689 0.500000
O O2 0.583602 0.961884 0.725010
O O3 0.625660 0.745320 0.675147
O O4 0.668762 0.950497 0.773315
O O5 0.538747 0.890925 0.500000
O O6 0.533427 0.749681 0.250158
O O7 0.500000 0.000000 0.273545
O O8 0.616076 0.534109 0.500000
O O9 0.668572 0.530474 0.722576
O O10 0.582670 0.538197 0.768745
O O11 0.716010 0.598591 0.500000
O O12 0.750498 0.491925 0.745466
O O13 0.718375 0.741714 0.752754
O O14 0.218645 0.606065 0.000000
O O15 0.500000 0.500000 0.771447
O O16 0.537496 0.608377 0.000000
#
# Coordination Sequence:
#
# PCOD9426539 Si02
#       6
#     8   8   8   8   8   8
#     4   8  15  30  50  71  97 130 166 202 244 297
#     4   9  18  33  53  75  97 126 167 209 245 288
#     4   8  16  31  52  73  93 127 171 205 238 289
#     4  10  20  36  55  75 101 134 170 207 251 301
#     4  11  21  33  52  79 105 131 167 209 252 298
#     4  10  20  32  48  73 103 133 163 199 246 295
#
# _framework density 17.414232999999999
#
# number of rings (size 3 to 8) (size 9 to 14) (size 15 to 20)
#    0.000    2.667    0.000    4.500    0.000    8.333 
#    0.000    1.667    0.000    6.000    0.000    0.000 
#    0.000    0.000    0.000    0.000    0.000    0.000 
#
# Total GULP energy -267508.407584 kJ/mol
# GULP energy per Si atom -5573.091825 kJ/mol
# Density = 1.737460 g / cm^3
# Si number density = 17.414233 Si / 1000 Ang^3
#
#
#
# Elastic Constant Matrix: (Units=GPa)
#
#
# Indices 1 2 3 4 5 6 
#
# 1 191.5277 61.4080 64.8068 0.0000 0.0000 0.0000
# 2 61.4080 41.8491 28.4808 0.0000 0.0000 0.0000
# 3 64.8068 28.4808 65.8341 0.0000 0.0000 0.0000
# 4 0.0000 0.0000 0.0000 16.6035 0.0000 0.0000
# 5 0.0000 0.0000 0.0000 0.0000 14.8961 0.0000
# 6 0.0000 0.0000 0.0000 0.0000 0.0000 32.0077
#
#
#
# Elastic Compliance Matrix: (Units=1/GPa)
#
#
# Indices 1 2 3 4 5 6 
#
# 1 0.011109 -0.012555 -0.005504 0.000000 0.000000 0.000000
# 2 -0.012555 0.048056 -0.008430 0.000000 0.000000 0.000000
# 3 -0.005504 -0.008430 0.024255 0.000000 0.000000 0.000000
# 4 0.000000 0.000000 0.000000 0.060228 0.000000 0.000000
# 5 0.000000 0.000000 0.000000 0.000000 0.067132 0.000000
# 6 0.000000 0.000000 0.000000 0.000000 0.000000 0.031242
#
#
# Mechanical properties :
#
#
# Convention : Reuss Voigt Hill
#
# Bulk Modulus (GPa) = 32.85095 67.62245 50.23670
# Shear Modulus (GPa) = 16.38546 22.33583 19.36064
#
# Velocity S-wave (km/s) = 3.07078 3.58525 3.33794
# Velocity P-wave (km/s) = 5.61055 7.48697 6.61562
#
# Compressibility (1/GPa) = 0.03044052
#
# Stress axis : x y z
#
# Youngs Moduli (GPa) = 90.01646 20.80911 41.22847
#
# Poissons Ratio (x) = 0.26126 0.22693
# Poissons Ratio (y) = 1.13017 0.34757
# Poissons Ratio (z) = 0.49547 0.17543
#
# Static dielectric constant tensor:
#      x y z
#    x 1.632950 0.000000 0.000000 
#    y 0.000000 1.566920 0.000000 
#    z 0.000000 0.000000 1.578710 
# 
# From -- ./inp_files/10521.got.cif
#   From: 2010.05.17/outbox.cif.g08.bks.cpg/sg55_6_cif.got.tgz:10521.got - 2010.06.03 13:27:54.
