data_PCOD9426606
_publ_section_title
;
Structure prediction by ZEFSAII (Michael W. Deem and Ramdas Pophale) SiO2 
 PCOD9426606
Probable space group: P B A M
;
_chemical_formula_sum "Si O2"
_cell_formula_units_Z 64
_cell_length_a 9.833205
_cell_length_b 21.037099
_cell_length_c 14.940939
_cell_angle_alpha 90.000000
_cell_angle_beta 90.000000
_cell_angle_gamma 90.000000
_cell_volume 3090.714123
_symmetry_space_group_name_H-M "P B A M"
_symmetry_group_IT_number 55
_symmetry_cell_setting 'orthorhombic'
loop_
_space_group_symop_operation_xyz
x,y,z
-x,-y,z
1/2+x,1/2-y,-z
1/2-x,1/2+y,-z
-x,-y,-z
x,y,-z
1/2-x,1/2+y,z
1/2+x,1/2-y,z
loop_
_atom_site_type_symbol
_atom_site_label
_atom_site_fract_x
_atom_site_fract_y
_atom_site_fract_z
Si Si1 0.443898 0.646682 0.662987
Si Si2 0.485861 0.067156 0.402513
Si Si3 0.428832 0.259041 0.786967
Si Si4 0.153689 0.475038 0.897718
Si Si5 0.326937 0.830618 0.827008
Si Si6 0.330202 0.192681 0.395272
Si Si7 0.646563 0.482135 0.249262
Si Si8 0.270010 0.392997 0.354992
O O1 0.481086 0.680580 0.756859
O O2 0.332790 0.687277 0.610656
O O3 0.376771 0.580304 0.692116
O O4 0.587195 0.635559 0.612466
O O5 0.424862 0.051508 0.500000
O O6 0.394005 0.124094 0.369448
O O7 0.636834 0.094677 0.411429
O O8 0.500000 0.000000 0.351611
O O9 0.530614 0.207129 0.829193
O O10 0.301291 0.283443 0.846132
O O11 0.378651 0.234532 0.688728
O O12 0.165879 0.399141 0.875751
O O13 0.243618 0.515637 0.828760
O O14 0.000000 0.500000 0.889028
O O15 0.197495 0.484529 0.000000
O O16 0.289353 0.850292 0.725317
O O17 0.368323 0.206841 0.500000
O O18 0.500000 0.500000 0.208856
O O19 0.687076 0.539249 0.314931
#
# Coordination Sequence:
#
# PCOD9426606 Si02
#       8
#     8   8   8   8   8   8   8   8
#     4  10  21  35  56  81 112 150 203 248 295 355
#     4  10  20  33  51  77 112 154 202 256 313 358
#     4  11  21  39  57  84 117 162 212 243 286 359
#     4  10  23  41  65  99 127 148 187 246 309 364
#     4  10  21  38  62  86 118 160 200 243 288 356
#     4  11  23  36  52  81 119 160 210 264 311 349
#     4   9  19  36  60  90 116 151 193 240 296 363
#     4   9  18  34  55  81 110 148 200 246 295 353
#
# _framework density 20.707187999999999
#
# number of rings (size 3 to 8) (size 9 to 14) (size 15 to 20)
#    0.000    2.000    2.500    1.500    1.750    3.250 
#    0.000    2.500    0.000    5.250    0.000    0.000 
#    0.000    0.000    0.000    0.000    0.000    0.000 
#
# Total GULP energy -356486.749850 kJ/mol
# GULP energy per Si atom -5570.105466 kJ/mol
# Density = 2.066006 g / cm^3
# Si number density = 20.707188 Si / 1000 Ang^3
#
#
#
# Elastic Constant Matrix: (Units=GPa)
#
#
# Indices 1 2 3 4 5 6 
#
# 1 106.5626 8.3256 9.6722 0.0000 0.0000 0.0000
# 2 8.3256 59.5341 -10.9669 0.0000 0.0000 0.0000
# 3 9.6722 -10.9669 22.5855 0.0000 0.0000 0.0000
# 4 0.0000 0.0000 0.0000 10.7050 0.0000 0.0000
# 5 0.0000 0.0000 0.0000 0.0000 37.1185 0.0000
# 6 0.0000 0.0000 0.0000 0.0000 0.0000 40.5012
#
#
#
# Elastic Compliance Matrix: (Units=1/GPa)
#
#
# Indices 1 2 3 4 5 6 
#
# 1 0.010071 -0.002419 -0.005488 0.000000 0.000000 0.000000
# 2 -0.002419 0.019028 0.010276 0.000000 0.000000 0.000000
# 3 -0.005488 0.010276 0.051616 0.000000 0.000000 0.000000
# 4 0.000000 0.000000 0.000000 0.093414 0.000000 0.000000
# 5 0.000000 0.000000 0.000000 0.000000 0.026941 0.000000
# 6 0.000000 0.000000 0.000000 0.000000 0.000000 0.024691
#
#
# Mechanical properties :
#
#
# Convention : Reuss Voigt Hill
#
# Bulk Modulus (GPa) = 11.70237 22.52711 17.11474
# Shear Modulus (GPa) = 20.03945 29.77504 24.90725
#
# Velocity S-wave (km/s) = 3.11425 3.79609 3.47195
# Velocity P-wave (km/s) = 4.31219 5.48783 4.93514
#
# Compressibility (1/GPa) = 0.08545276
#
# Stress axis : x y z
#
# Youngs Moduli (GPa) = 99.29237 52.55324 19.37385
#
# Poissons Ratio (x) = 0.12714 0.10632
# Poissons Ratio (y) = 0.24022 -0.19908
# Poissons Ratio (z) = 0.54489 -0.54002
#
# Static dielectric constant tensor:
#      x y z
#    x 1.800700 0.000000 0.000000 
#    y 0.000000 1.843140 0.000000 
#    z 0.000000 0.000000 1.715470 
# 
# From -- ./inp_files/21078.got.cif
#   From: 2010.05.17/outbox.cif.g08.bks.cpg/sg55_11_cif.got.tgz:21078.got - 2010.06.03 13:27:54.
