data_PCOD9426330
_publ_section_title
;
Structure prediction by ZEFSAII (Michael W. Deem and Ramdas Pophale) SiO2 
 PCOD9426330
Probable space group: P B A M
;
_chemical_formula_sum "Si O2"
_cell_formula_units_Z 58
_cell_length_a 19.741081
_cell_length_b 18.766560
_cell_length_c 8.031477
_cell_angle_alpha 90.000000
_cell_angle_beta 90.000000
_cell_angle_gamma 90.000000
_cell_volume 2975.438801
_symmetry_space_group_name_H-M "P B A M"
_symmetry_group_IT_number 55
_symmetry_cell_setting 'orthorhombic'
loop_
_space_group_symop_operation_xyz
x,y,z
-x,-y,z
1/2+x,1/2-y,-z
1/2-x,1/2+y,-z
-x,-y,-z
x,y,-z
1/2-x,1/2+y,z
1/2+x,1/2-y,z
loop_
_atom_site_type_symbol
_atom_site_label
_atom_site_fract_x
_atom_site_fract_y
_atom_site_fract_z
Si Si1 0.327332 0.511020 0.192712
Si Si2 0.963481 0.747477 0.696389
Si Si3 0.319991 0.779529 0.195856
Si Si4 0.689768 0.645632 0.304959
Si Si5 0.109844 0.715763 0.700446
Si Si6 0.741411 0.861006 0.800239
Si Si7 0.000000 0.000000 0.500000
Si Si8 0.529384 0.407188 0.187843
O O1 0.332536 0.435009 0.278249
O O2 0.270420 0.564351 0.264379
O O3 0.397028 0.555153 0.198048
O O4 0.311805 0.495905 0.000000
O O5 0.970116 0.762332 0.500000
O O6 0.892840 0.707769 0.724943
O O7 0.960820 0.823197 0.788981
O O8 0.031995 0.707944 0.752171
O O9 0.262544 0.838437 0.224001
O O10 0.286847 0.705543 0.262650
O O11 0.330777 0.770740 0.000000
O O12 0.697971 0.658383 0.500000
O O13 0.637318 0.706124 0.242777
O O14 0.112060 0.713741 0.500000
O O15 0.164176 0.658572 0.762698
O O16 0.750000 0.862673 0.000000
O O17 0.992018 0.060781 0.650690
O O18 0.501066 0.420329 0.000000
#
# Coordination Sequence:
#
# PCOD9426330 Si02
#       8
#     8   8   8   8   8   8   2   8
#     4  10  21  37  56  82 113 148 192 236 286 348
#     4  11  21  36  57  83 116 151 193 241 288 345
#     4  10  19  36  57  79 110 148 193 240 286 343
#     4  10  21  35  55  83 113 148 189 235 289 345
#     4   9  21  36  53  80 113 145 185 235 285 340
#     4   9  18  35  56  78 107 142 188 236 281 340
#     4  12  26  40  52  78 120 160 198 240 280 344
#     4  11  24  39  57  82 117 163 200 236 289 350
#
# _framework density 19.492923999999999
#
# number of rings (size 3 to 8) (size 9 to 14) (size 15 to 20)
#    0.000    1.931    2.069    1.448    2.897    2.759 
#    0.000    0.000    0.000    0.828    0.000    5.793 
#    0.000    0.000    0.000    0.000    0.000    0.000 
#
# Total GULP energy -323243.885531 kJ/mol
# GULP energy per Si atom -5573.170440 kJ/mol
# Density = 1.944856 g / cm^3
# Si number density = 19.492924 Si / 1000 Ang^3
#
#
#
# Elastic Constant Matrix: (Units=GPa)
#
#
# Indices 1 2 3 4 5 6 
#
# 1 111.3655 6.5761 16.2678 0.0000 0.0000 0.0000
# 2 6.5761 28.0060 5.1506 0.0000 0.0000 0.0000
# 3 16.2678 5.1506 71.3771 0.0000 0.0000 0.0000
# 4 0.0000 0.0000 0.0000 24.6369 0.0000 0.0000
# 5 0.0000 0.0000 0.0000 0.0000 11.8226 0.0000
# 6 0.0000 0.0000 0.0000 0.0000 0.0000 22.1656
#
#
#
# Elastic Compliance Matrix: (Units=1/GPa)
#
#
# Indices 1 2 3 4 5 6 
#
# 1 0.009381 -0.001834 -0.002006 0.000000 0.000000 0.000000
# 2 -0.001834 0.036545 -0.002219 0.000000 0.000000 0.000000
# 3 -0.002006 -0.002219 0.014627 0.000000 0.000000 0.000000
# 4 0.000000 0.000000 0.000000 0.040590 0.000000 0.000000
# 5 0.000000 0.000000 0.000000 0.000000 0.084584 0.000000
# 6 0.000000 0.000000 0.000000 0.000000 0.000000 0.045115
#
#
# Mechanical properties :
#
#
# Convention : Reuss Voigt Hill
#
# Bulk Modulus (GPa) = 20.64575 29.63752 25.14163
# Shear Modulus (GPa) = 19.29726 23.90863 21.60294
#
# Velocity S-wave (km/s) = 3.14978 3.50598 3.33264
# Velocity P-wave (km/s) = 4.88288 5.62374 5.26636
#
# Compressibility (1/GPa) = 0.04843612
#
# Stress axis : x y z
#
# Youngs Moduli (GPa) = 106.60180 27.36324 68.36512
#
# Poissons Ratio (x) = 0.05018 0.13712
# Poissons Ratio (y) = 0.19549 0.15171
# Poissons Ratio (z) = 0.21381 0.06072
#
# Static dielectric constant tensor:
#      x y z
#    x 1.718050 0.000000 0.000000 
#    y 0.000000 1.682930 0.000000 
#    z 0.000000 0.000000 1.727350 
# 
# From -- ./inp_files/7740.got.cif
#   From: 2010.05.17/outbox.cif.g08.bks.cpg/sg55_4_cif.got.tgz:7740.got - 2010.06.03 13:27:54.
