data_PCOD9426952
_publ_section_title
;
Structure prediction by ZEFSAII (Michael W. Deem and Ramdas Pophale) SiO2 
 PCOD9426952
Probable space group: P B A M
;
_chemical_formula_sum "Si O2"
_cell_formula_units_Z 64
_cell_length_a 19.076403
_cell_length_b 21.028534
_cell_length_c 8.201980
_cell_angle_alpha 90.000000
_cell_angle_beta 90.000000
_cell_angle_gamma 90.000000
_cell_volume 3290.214345
_symmetry_space_group_name_H-M "P B A M"
_symmetry_group_IT_number 55
_symmetry_cell_setting 'orthorhombic'
loop_
_space_group_symop_operation_xyz
x,y,z
-x,-y,z
1/2+x,1/2-y,-z
1/2-x,1/2+y,-z
-x,-y,-z
x,y,-z
1/2-x,1/2+y,z
1/2+x,1/2-y,z
loop_
_atom_site_type_symbol
_atom_site_label
_atom_site_fract_x
_atom_site_fract_y
_atom_site_fract_z
Si Si1 0.950923 0.943552 0.305569
Si Si2 0.960235 0.173396 0.808327
Si Si3 0.798353 0.557326 0.302486
Si Si4 0.295749 0.184607 0.301456
Si Si5 0.800462 0.172147 0.302763
Si Si6 0.043849 0.684782 0.305601
Si Si7 0.792065 0.935304 0.300211
Si Si8 0.458727 0.937381 0.805413
O O1 0.945562 0.953594 0.500000
O O2 0.871529 0.944194 0.241981
O O3 0.988089 0.876344 0.275887
O O4 0.000000 0.000000 0.238607
O O5 0.880229 0.160815 0.752306
O O6 0.976571 0.246826 0.766850
O O7 0.965010 0.163894 0.000000
O O8 0.800155 0.558194 0.500000
O O9 0.753131 0.618196 0.247219
O O10 0.757333 0.493775 0.251683
O O11 0.877487 0.558629 0.241381
O O12 0.294412 0.183947 0.500000
O O13 0.279619 0.256666 0.249313
O O14 0.376016 0.170356 0.251924
O O15 0.242463 0.130788 0.245049
O O16 0.801116 0.171416 0.500000
O O17 0.045112 0.692567 0.500000
O O18 0.993877 0.626787 0.261095
O O19 0.793166 0.934504 0.500000
O O20 0.500000 0.000000 0.743777
O O21 0.465121 0.935981 0.000000
#
# Coordination Sequence:
#
# PCOD9426952 Si02
#       8
#     8   8   8   8   8   8   8   8
#     4  10  20  35  56  81 111 148 190 234 277 327
#     4  11  22  36  56  83 116 150 184 227 284 346
#     4  10  20  35  57  82 107 141 188 235 275 323
#     4   8  15  29  51  78 103 129 170 225 277 321
#     4   9  18  34  55  79 106 139 184 232 276 328
#     4  10  20  37  61  83 107 144 191 239 281 329
#     4   9  17  30  51  78 105 135 178 232 279 318
#     4  11  24  39  55  81 119 155 185 226 283 342
#
# _framework density 19.451619000000001
#
# number of rings (size 3 to 8) (size 9 to 14) (size 15 to 20)
#    0.000    2.250    0.000    4.125    0.000    5.750 
#    0.000    3.125    0.000    3.750    0.000    0.000 
#    0.000    0.000    0.000    0.000    0.000    0.000 
#
# Total GULP energy -357372.156539 kJ/mol
# GULP energy per Si atom -5583.939946 kJ/mol
# Density = 1.940735 g / cm^3
# Si number density = 19.451619 Si / 1000 Ang^3
#
#
#
# Elastic Constant Matrix: (Units=GPa)
#
#
# Indices 1 2 3 4 5 6 
#
# 1 41.6697 -1.0764 -29.5407 0.0000 0.0000 0.0000
# 2 -1.0764 25.7151 -34.5283 0.0000 0.0000 0.0000
# 3 -29.5407 -34.5283 -4.1395 0.0000 0.0000 0.0000
# 4 0.0000 0.0000 0.0000 11.1327 0.0000 0.0000
# 5 0.0000 0.0000 0.0000 0.0000 -83.2110 0.0000
# 6 0.0000 0.0000 0.0000 0.0000 0.0000 40.2975
#
#
#
# Elastic Compliance Matrix: (Units=1/GPa)
#
#
# Indices 1 2 3 4 5 6 
#
# 1 0.016492 -0.012896 -0.010119 0.000000 0.000000 0.000000
# 2 -0.012896 0.013272 -0.018675 0.000000 0.000000 0.000000
# 3 -0.010119 -0.018675 -0.013593 0.000000 0.000000 0.000000
# 4 0.000000 0.000000 0.000000 0.089825 0.000000 0.000000
# 5 0.000000 0.000000 0.000000 0.000000 -0.012018 0.000000
# 6 0.000000 0.000000 0.000000 0.000000 0.000000 0.024815
#
#
# Mechanical properties :
#
#
# Convention : Reuss Voigt Hill
#
# Bulk Modulus (GPa) = -14.87895 -7.44951 -11.16423
# Shear Modulus (GPa) = 27.81309 2.20321 15.00815
#
# Velocity S-wave (km/s) = 3.78545 1.06542 2.78072
# Velocity P-wave (km/s) = 3.38236 1.52466 2.13492
#
# Compressibility (1/GPa) = -0.06720906
#
# Stress axis : x y z
#
# Youngs Moduli (GPa) = 60.63653 75.34451 -73.56811
#
# Poissons Ratio (x) = 0.97167 -0.74441
# Poissons Ratio (y) = 0.78199 -1.37389
# Poissons Ratio (z) = 0.61356 1.40706
#
# Static dielectric constant tensor:
#      x y z
#    x 1.650100 0.000000 0.000000 
#    y 0.000000 1.668980 0.000000 
#    z 0.000000 0.000000 1.670400 
# 
# From -- ./inp_files/8037.got.cif
#   From: 2010.05.17/outbox.cif.g08.bks.cpg/sg55_5_cif.got.tgz:8037.got - 2010.06.03 13:27:54.
