data_PCOD9426301
_publ_section_title
;
Structure prediction by ZEFSAII (Michael W. Deem and Ramdas Pophale) SiO2 
 PCOD9426301
Probable space group: P B A M
;
_chemical_formula_sum "Si O2"
_cell_formula_units_Z 56
_cell_length_a 14.708519
_cell_length_b 19.075325
_cell_length_c 7.682361
_cell_angle_alpha 90.000000
_cell_angle_beta 90.000000
_cell_angle_gamma 90.000000
_cell_volume 2155.438337
_symmetry_space_group_name_H-M "P B A M"
_symmetry_group_IT_number 55
_symmetry_cell_setting 'orthorhombic'
loop_
_space_group_symop_operation_xyz
x,y,z
-x,-y,z
1/2+x,1/2-y,-z
1/2-x,1/2+y,-z
-x,-y,-z
x,y,-z
1/2-x,1/2+y,z
1/2+x,1/2-y,z
loop_
_atom_site_type_symbol
_atom_site_label
_atom_site_fract_x
_atom_site_fract_y
_atom_site_fract_z
Si Si1 0.898131 0.632359 0.788322
Si Si2 0.286923 0.567163 0.205654
Si Si3 0.451689 0.650888 0.792640
Si Si4 0.370335 0.417313 0.702321
Si Si5 0.935681 0.286379 0.213276
Si Si6 0.237600 0.781381 0.198412
Si Si7 0.097293 0.518452 0.300628
O O1 0.834207 0.696105 0.727603
O O2 0.862322 0.560681 0.709995
O O3 0.002795 0.647338 0.739453
O O4 0.892049 0.629193 0.000000
O O5 0.352401 0.628969 0.275026
O O6 0.329066 0.493870 0.270427
O O7 0.178463 0.566996 0.233695
O O8 0.299028 0.567171 0.000000
O O9 0.524212 0.589040 0.756937
O O10 0.503587 0.720011 0.727864
O O11 0.444845 0.661587 0.000000
O O12 0.363022 0.398957 0.500000
O O13 0.317032 0.355708 0.804101
O O14 0.834086 0.272656 0.278379
O O15 0.931066 0.285776 0.000000
O O16 0.254800 0.757722 0.000000
O O17 0.081186 0.536707 0.500000
O O18 0.000000 0.500000 0.210669
#
# Coordination Sequence:
#
# PCOD9426301 Si02
#       7
#     8   8   8   8   8   8   8
#     4  10  19  35  62  86 108 146 191 234 281 338
#     4  11  21  35  57  84 111 146 187 232 282 334
#     4   9  19  35  54  81 119 150 180 229 282 335
#     4  11  20  30  51  82 114 150 187 223 274 338
#     4   8  16  33  54  83 115 144 183 231 282 334
#     4   9  17  32  54  79 110 147 188 234 282 334
#     4  11  25  43  60  80 112 151 192 241 291 340
#
# _framework density 25.980795000000001
#
# number of rings (size 3 to 8) (size 9 to 14) (size 15 to 20)
#    0.000    2.143    1.429    3.429    0.000    4.000 
#    2.571    2.857    0.000    0.000    0.000    0.000 
#    0.000    0.000    0.000    0.000    0.000    0.000 
#
# Total GULP energy -312979.969689 kJ/mol
# GULP energy per Si atom -5588.928030 kJ/mol
# Density = 2.592166 g / cm^3
# Si number density = 25.980795 Si / 1000 Ang^3
#
#
#
# Elastic Constant Matrix: (Units=GPa)
#
#
# Indices 1 2 3 4 5 6 
#
# 1 160.8940 8.8312 3.8346 0.0000 0.0000 0.0000
# 2 8.8312 71.8828 4.2028 0.0000 0.0000 0.0000
# 3 3.8346 4.2028 71.9751 0.0000 0.0000 0.0000
# 4 0.0000 0.0000 0.0000 7.8763 0.0000 0.0000
# 5 0.0000 0.0000 0.0000 0.0000 -130.3233 0.0000
# 6 0.0000 0.0000 0.0000 0.0000 0.0000 50.9016
#
#
#
# Elastic Compliance Matrix: (Units=1/GPa)
#
#
# Indices 1 2 3 4 5 6 
#
# 1 0.006263 -0.000753 -0.000290 0.000000 0.000000 0.000000
# 2 -0.000753 0.014050 -0.000780 0.000000 0.000000 0.000000
# 3 -0.000290 -0.000780 0.013955 0.000000 0.000000 0.000000
# 4 0.000000 0.000000 0.000000 0.126963 0.000000 0.000000
# 5 0.000000 0.000000 0.000000 0.000000 -0.007673 0.000000
# 6 0.000000 0.000000 0.000000 0.000000 0.000000 0.019646
#
#
# Mechanical properties :
#
#
# Convention : Reuss Voigt Hill
#
# Bulk Modulus (GPa) = 32.65566 37.60990 35.13278
# Shear Modulus (GPa) = 26.72995 4.88313 15.80654
#
# Velocity S-wave (km/s) = 3.21103 1.37244 2.46924
# Velocity P-wave (km/s) = 5.13264 4.12540 4.65634
#
# Compressibility (1/GPa) = 0.03062256
#
# Stress axis : x y z
#
# Youngs Moduli (GPa) = 159.65549 71.17635 71.66044
#
# Poissons Ratio (x) = 0.05356 0.02076
# Poissons Ratio (y) = 0.12015 0.05592
# Poissons Ratio (z) = 0.04626 0.05554
#
# Static dielectric constant tensor:
#      x y z
#    x 2.134810 0.000000 0.000000 
#    y 0.000000 2.073730 0.000000 
#    z 0.000000 0.000000 1.942230 
# 
# From -- ./inp_files/6200.got.cif
#   From: 2010.05.17/outbox.cif.g08.bks.cpg/sg55_4_cif.got.tgz:6200.got - 2010.06.03 13:27:54.
