data_PCOD9426898
_publ_section_title
;
Structure prediction by ZEFSAII (Michael W. Deem and Ramdas Pophale) SiO2 
 PCOD9426898
Probable space group: P B A M
;
_chemical_formula_sum "Si O2"
_cell_formula_units_Z 56
_cell_length_a 7.508611
_cell_length_b 14.133459
_cell_length_c 23.255321
_cell_angle_alpha 90.000000
_cell_angle_beta 90.000000
_cell_angle_gamma 90.000000
_cell_volume 2467.916191
_symmetry_space_group_name_H-M "P B A M"
_symmetry_group_IT_number 55
_symmetry_cell_setting 'orthorhombic'
loop_
_space_group_symop_operation_xyz
x,y,z
-x,-y,z
1/2+x,1/2-y,-z
1/2-x,1/2+y,-z
-x,-y,-z
x,y,-z
1/2-x,1/2+y,z
1/2+x,1/2-y,z
loop_
_atom_site_type_symbol
_atom_site_label
_atom_site_fract_x
_atom_site_fract_y
_atom_site_fract_z
Si Si1 0.826240 0.605241 0.314445
Si Si2 0.292911 0.536551 0.092673
Si Si3 0.673159 0.107996 0.438758
Si Si4 0.803321 0.958988 0.777743
Si Si5 0.225622 0.685002 0.686873
Si Si6 0.707691 0.108452 0.000000
Si Si7 0.762910 0.324000 0.438120
Si Si8 0.113201 0.180621 0.000000
O O1 0.787598 0.560920 0.377579
O O2 0.796878 0.532936 0.263417
O O3 0.716601 0.702105 0.308040
O O4 0.027657 0.642776 0.315239
O O5 0.500000 0.500000 0.093863
O O6 0.229945 0.549546 0.157847
O O7 0.188450 0.457592 0.055923
O O8 0.294736 0.633200 0.055789
O O9 0.712556 0.059963 0.500000
O O10 0.771364 0.209403 0.438477
O O11 0.462234 0.133539 0.438903
O O12 0.812019 0.861603 0.742547
O O13 0.000000 0.000000 0.782788
O O14 0.316002 0.658165 0.625373
O O15 0.913233 0.141539 0.000000
O O16 0.605259 0.206753 0.000000
O O17 0.676070 0.348805 0.500000
#
# Coordination Sequence:
#
# PCOD9426898 Si02
#       8
#     8   8   8   8   8   4   8   4
#     4  10  20  35  54  77 105 139 179 223 271 322
#     4   8  18  36  56  77 107 143 173 206 253 306
#     4   8  14  26  46  70  95 126 167 216 269 320
#     4  11  22  37  55  77 108 146 183 218 258 306
#     4  10  20  35  54  77 105 139 179 223 271 322
#     4   9  17  35  60  84 108 135 169 209 254 302
#     4   8  14  26  46  70  95 126 167 216 269 320
#     4   9  17  35  60  84 108 135 169 209 254 302
#
# _framework density 22.691210000000002
#
# number of rings (size 3 to 8) (size 9 to 14) (size 15 to 20)
#    0.000    2.857    0.000    2.143    0.000    2.286 
#    0.000    7.857    0.000    4.286    0.000    0.000 
#    0.000    0.000    0.000    0.000    0.000    0.000 
#
# Total GULP energy -312610.225856 kJ/mol
# GULP energy per Si atom -5582.325462 kJ/mol
# Density = 2.263956 g / cm^3
# Si number density = 22.691210 Si / 1000 Ang^3
#
#
#
# Elastic Constant Matrix: (Units=GPa)
#
#
# Indices 1 2 3 4 5 6 
#
# 1 35.8008 23.0348 29.8988 0.0000 0.0000 0.0000
# 2 23.0348 87.9477 51.8300 0.0000 0.0000 0.0000
# 3 29.8988 51.8300 236.3583 0.0000 0.0000 0.0000
# 4 0.0000 0.0000 0.0000 15.9768 0.0000 0.0000
# 5 0.0000 0.0000 0.0000 0.0000 18.9093 0.0000
# 6 0.0000 0.0000 0.0000 0.0000 0.0000 25.9318
#
#
#
# Elastic Compliance Matrix: (Units=1/GPa)
#
#
# Indices 1 2 3 4 5 6 
#
# 1 0.035121 -0.007557 -0.002786 0.000000 0.000000 0.000000
# 2 -0.007557 0.014684 -0.002264 0.000000 0.000000 0.000000
# 3 -0.002786 -0.002264 0.005080 0.000000 0.000000 0.000000
# 4 0.000000 0.000000 0.000000 0.062591 0.000000 0.000000
# 5 0.000000 0.000000 0.000000 0.000000 0.052884 0.000000
# 6 0.000000 0.000000 0.000000 0.000000 0.000000 0.038563
#
#
# Mechanical properties :
#
#
# Convention : Reuss Voigt Hill
#
# Bulk Modulus (GPa) = 33.70261 63.29265 48.49763
# Shear Modulus (GPa) = 20.48963 29.18647 24.83805
#
# Velocity S-wave (km/s) = 3.00822 3.59032 3.31208
# Velocity P-wave (km/s) = 5.19141 6.71869 6.00381
#
# Compressibility (1/GPa) = 0.02967129
#
# Stress axis : x y z
#
# Youngs Moduli (GPa) = 28.47300 68.10152 196.86201
#
# Poissons Ratio (x) = 0.51465 0.54837
# Poissons Ratio (y) = 0.21517 0.44570
# Poissons Ratio (z) = 0.07931 0.15418
#
# Static dielectric constant tensor:
#      x y z
#    x 1.902860 0.000000 0.000000 
#    y 0.000000 1.874600 0.000000 
#    z 0.000000 0.000000 1.867970 
# 
# From -- ./inp_files/22649.got.cif
#   From: 2010.05.17/outbox.cif.g08.bks.cpg/sg55_12_cif.got.tgz:22649.got - 2010.06.03 13:27:54.
