data_PCOD9426508
_publ_section_title
;
Structure prediction by ZEFSAII (Michael W. Deem and Ramdas Pophale) SiO2 
 PCOD9426508
Probable space group: P B A M
;
_chemical_formula_sum "Si O2"
_cell_formula_units_Z 48
_cell_length_a 9.984966
_cell_length_b 15.240676
_cell_length_c 13.797049
_cell_angle_alpha 90.000000
_cell_angle_beta 90.000000
_cell_angle_gamma 90.000000
_cell_volume 2099.602241
_symmetry_space_group_name_H-M "P B A M"
_symmetry_group_IT_number 55
_symmetry_cell_setting 'orthorhombic'
loop_
_space_group_symop_operation_xyz
x,y,z
-x,-y,z
1/2+x,1/2-y,-z
1/2-x,1/2+y,-z
-x,-y,-z
x,y,-z
1/2-x,1/2+y,z
1/2+x,1/2-y,z
loop_
_atom_site_type_symbol
_atom_site_label
_atom_site_fract_x
_atom_site_fract_y
_atom_site_fract_z
Si Si1 0.896396 0.422432 0.116364
Si Si2 0.111853 0.105723 0.191075
Si Si3 0.740026 0.188326 0.607197
Si Si4 0.451932 0.643803 0.393599
Si Si5 0.271534 0.797031 0.000000
Si Si6 0.989123 0.852385 0.000000
Si Si7 0.886243 0.682613 0.196992
O O1 0.749479 0.436936 0.157267
O O2 0.000000 0.500000 0.137557
O O3 0.960259 0.341188 0.175583
O O4 0.893250 0.411035 0.000000
O O5 0.070986 0.083905 0.300004
O O6 0.128487 0.212183 0.198494
O O7 0.011044 0.095987 0.100776
O O8 0.713551 0.148001 0.500000
O O9 0.665630 0.282707 0.603831
O O10 0.675144 0.146020 0.703677
O O11 0.901314 0.189681 0.618411
O O12 0.451317 0.601290 0.500000
O O13 0.354492 0.706687 0.000000
O O14 0.312859 0.846510 0.097904
O O15 0.114017 0.787593 0.000000
#
# Coordination Sequence:
#
# PCOD9426508 Si02
#       7
#     8   8   8   8   4   4   8
#     4  11  24  42  59  87 126 166 195 241 309 373
#     4  10  21  31  58  85 116 149 203 243 290 341
#     4   9  18  31  50  82 122 156 192 245 304 348
#     4   9  18  31  50  82 122 156 192 245 304 348
#     4  10  20  28  48  81 117 141 187 245 293 337
#     4  10  20  28  48  81 117 141 187 245 293 337
#     4  10  21  31  58  85 116 149 203 243 290 341
#
# _framework density 22.861473
#
# number of rings (size 3 to 8) (size 9 to 14) (size 15 to 20)
#    0.000    2.167    1.667    1.000   18.667    0.000 
#    0.000    0.000    0.000    7.000    0.000    2.333 
#    0.000    0.000    0.000    0.000    0.000    0.000 
#
# Total GULP energy -267724.000511 kJ/mol
# GULP energy per Si atom -5577.583344 kJ/mol
# Density = 2.280944 g / cm^3
# Si number density = 22.861473 Si / 1000 Ang^3
#
#
#
# Elastic Constant Matrix: (Units=GPa)
#
#
# Indices 1 2 3 4 5 6 
#
# 1 58.9372 40.7492 -8.3079 0.0000 0.0000 0.0000
# 2 40.7492 42.7294 20.8163 0.0000 0.0000 0.0000
# 3 -8.3079 20.8163 203.0671 0.0000 0.0000 0.0000
# 4 0.0000 0.0000 0.0000 -62.1234 0.0000 0.0000
# 5 0.0000 0.0000 0.0000 0.0000 44.0110 0.0000
# 6 0.0000 0.0000 0.0000 0.0000 0.0000 22.0996
#
#
#
# Elastic Compliance Matrix: (Units=1/GPa)
#
#
# Indices 1 2 3 4 5 6 
#
# 1 0.062632 -0.064183 0.009142 0.000000 0.000000 0.000000
# 2 -0.064183 0.090405 -0.011893 0.000000 0.000000 0.000000
# 3 0.009142 -0.011893 0.006518 0.000000 0.000000 0.000000
# 4 0.000000 0.000000 0.000000 -0.016097 0.000000 0.000000
# 5 0.000000 0.000000 0.000000 0.000000 0.022722 0.000000
# 6 0.000000 0.000000 0.000000 0.000000 0.000000 0.045250
#
#
# Mechanical properties :
#
#
# Convention : Reuss Voigt Hill
#
# Bulk Modulus (GPa) = 38.93130 45.69432 42.31281
# Shear Modulus (GPa) = 14.12989 17.56251 15.84620
#
# Velocity S-wave (km/s) = 2.48879 2.77468 2.63561
# Velocity P-wave (km/s) = 5.03239 5.50418 5.27356
#
# Compressibility (1/GPa) = 0.02568627
#
# Stress axis : x y z
#
# Youngs Moduli (GPa) = 15.96632 11.06130 153.42948
#
# Poissons Ratio (x) = 0.70994 -1.40261
# Poissons Ratio (y) = 1.02476 1.82477
# Poissons Ratio (z) = -0.14596 0.13155
#
# Static dielectric constant tensor:
#      x y z
#    x 1.851230 0.000000 0.000000 
#    y 0.000000 1.909980 0.000000 
#    z 0.000000 0.000000 1.960000 
# 
# From -- ./inp_files/17389.got.cif
#   From: 2010.05.17/outbox.cif.g08.bks.cpg/sg55_9_cif.got.tgz:17389.got - 2010.06.03 13:27:54.
