data_PCOD9426776
_publ_section_title
;
Structure prediction by ZEFSAII (Michael W. Deem and Ramdas Pophale) SiO2 
 PCOD9426776
Probable space group: P B A M
;
_chemical_formula_sum "Si O2"
_cell_formula_units_Z 64
_cell_length_a 12.710844
_cell_length_b 21.183930
_cell_length_c 12.296716
_cell_angle_alpha 90.000000
_cell_angle_beta 90.000000
_cell_angle_gamma 90.000000
_cell_volume 3311.082975
_symmetry_space_group_name_H-M "P B A M"
_symmetry_group_IT_number 55
_symmetry_cell_setting 'orthorhombic'
loop_
_space_group_symop_operation_xyz
x,y,z
-x,-y,z
1/2+x,1/2-y,-z
1/2-x,1/2+y,-z
-x,-y,-z
x,y,-z
1/2-x,1/2+y,z
1/2+x,1/2-y,z
loop_
_atom_site_type_symbol
_atom_site_label
_atom_site_fract_x
_atom_site_fract_y
_atom_site_fract_z
Si Si1 0.916574 0.278356 0.800149
Si Si2 0.520393 0.909560 0.875955
Si Si3 0.916354 0.943068 0.126256
Si Si4 0.807167 0.599844 0.263104
Si Si5 0.099139 0.278341 0.376754
Si Si6 0.264886 0.171433 0.619564
Si Si7 0.395129 0.360345 0.874032
Si Si8 0.289509 0.040311 0.727063
O O1 0.942221 0.337036 0.875968
O O2 0.822209 0.298273 0.722147
O O3 0.893420 0.214601 0.862517
O O4 0.011212 0.271914 0.714545
O O5 0.405499 0.908016 0.820226
O O6 0.605182 0.944607 0.798108
O O7 0.518900 0.932406 0.000000
O O8 0.812378 0.955235 0.194764
O O9 0.988896 0.884052 0.160825
O O10 0.886133 0.935414 0.000000
O O11 0.000000 0.000000 0.134502
O O12 0.831207 0.660843 0.338365
O O13 0.699388 0.612208 0.197654
O O14 0.798073 0.530817 0.318277
O O15 0.062513 0.291702 0.500000
O O16 0.157492 0.210947 0.380969
O O17 0.312620 0.183602 0.500000
O O18 0.270348 0.096623 0.641379
O O19 0.381501 0.380027 0.000000
#
# Coordination Sequence:
#
# PCOD9426776 Si02
#       8
#     8   8   8   8   8   8   8   8
#     4  10  20  37  58  84 113 147 194 245 291 346
#     4  10  22  37  56  84 119 157 196 235 287 350
#     4  10  20  34  54  81 114 155 195 232 283 349
#     4  11  22  37  58  88 120 153 193 245 292 346
#     4  10  21  39  62  84 111 149 196 244 298 350
#     4  10  21  38  59  82 110 149 191 238 295 348
#     4  11  21  35  58  86 119 157 195 240 294 349
#     4  11  22  37  59  84 119 156 195 242 290 349
#
# _framework density 19.329022999999999
#
# number of rings (size 3 to 8) (size 9 to 14) (size 15 to 20)
#    0.000    1.625    2.500    2.625    0.000    2.500 
#    0.000    0.000    0.000    4.875    0.000    0.000 
#    0.000    0.000    0.000    0.000    0.000    0.000 
#
# Total GULP energy -356824.649707 kJ/mol
# GULP energy per Si atom -5575.385152 kJ/mol
# Density = 1.928503 g / cm^3
# Si number density = 19.329023 Si / 1000 Ang^3
#
#
#
# Elastic Constant Matrix: (Units=GPa)
#
#
# Indices 1 2 3 4 5 6 
#
# 1 50.7068 -15.2949 4.6235 0.0000 0.0000 0.0000
# 2 -15.2949 96.7743 -5.4308 0.0000 0.0000 0.0000
# 3 4.6235 -5.4308 64.1633 0.0000 0.0000 0.0000
# 4 0.0000 0.0000 0.0000 9.9086 0.0000 0.0000
# 5 0.0000 0.0000 0.0000 0.0000 29.7279 0.0000
# 6 0.0000 0.0000 0.0000 0.0000 0.0000 22.7939
#
#
#
# Elastic Compliance Matrix: (Units=1/GPa)
#
#
# Indices 1 2 3 4 5 6 
#
# 1 0.020804 0.003219 -0.001227 0.000000 0.000000 0.000000
# 2 0.003219 0.010881 0.000689 0.000000 0.000000 0.000000
# 3 -0.001227 0.000689 0.015732 0.000000 0.000000 0.000000
# 4 0.000000 0.000000 0.000000 0.100922 0.000000 0.000000
# 5 0.000000 0.000000 0.000000 0.000000 0.033638 0.000000
# 6 0.000000 0.000000 0.000000 0.000000 0.000000 0.043871
#
#
# Mechanical properties :
#
#
# Convention : Reuss Voigt Hill
#
# Bulk Modulus (GPa) = 18.94663 19.93779 19.44221
# Shear Modulus (GPa) = 21.00143 27.66918 24.33530
#
# Velocity S-wave (km/s) = 3.29982 3.78760 3.55209
# Velocity P-wave (km/s) = 4.93375 5.42819 5.18686
#
# Compressibility (1/GPa) = 0.05277984
#
# Stress axis : x y z
#
# Youngs Moduli (GPa) = 48.06753 91.90525 63.56500
#
# Poissons Ratio (x) = -0.29586 0.07797
# Poissons Ratio (y) = -0.15474 -0.04379
# Poissons Ratio (z) = 0.05896 -0.06332
#
# Static dielectric constant tensor:
#      x y z
#    x 1.684180 0.000000 0.000000 
#    y 0.000000 1.719880 0.000000 
#    z 0.000000 0.000000 1.626430 
# 
# From -- ./inp_files/13605.got.cif
#   From: 2010.05.17/outbox.cif.g08.bks.cpg/sg55_7_cif.got.tgz:13605.got - 2010.06.03 13:27:54.
