data_PCOD9426948
_publ_section_title
;
Structure prediction by ZEFSAII (Michael W. Deem and Ramdas Pophale) SiO2 
 PCOD9426948
Probable space group: P B A M
;
_chemical_formula_sum "Si O2"
_cell_formula_units_Z 64
_cell_length_a 20.307707
_cell_length_b 19.269227
_cell_length_c 7.874909
_cell_angle_alpha 90.000000
_cell_angle_beta 90.000000
_cell_angle_gamma 90.000000
_cell_volume 3081.560692
_symmetry_space_group_name_H-M "P B A M"
_symmetry_group_IT_number 55
_symmetry_cell_setting 'orthorhombic'
loop_
_space_group_symop_operation_xyz
x,y,z
-x,-y,z
1/2+x,1/2-y,-z
1/2-x,1/2+y,-z
-x,-y,-z
x,y,-z
1/2-x,1/2+y,z
1/2+x,1/2-y,z
loop_
_atom_site_type_symbol
_atom_site_label
_atom_site_fract_x
_atom_site_fract_y
_atom_site_fract_z
Si Si1 0.321969 0.442544 0.699942
Si Si2 0.900083 0.803185 0.199217
Si Si3 0.946094 0.443362 0.792040
Si Si4 0.564573 0.455610 0.294256
Si Si5 0.799424 0.474418 0.803414
Si Si6 0.747351 0.327732 0.301108
Si Si7 0.651568 0.711116 0.704564
Si Si8 0.518716 0.788139 0.205108
O O1 0.337219 0.438559 0.500000
O O2 0.372065 0.500848 0.767558
O O3 0.247873 0.469187 0.719671
O O4 0.334816 0.366108 0.771705
O O5 0.933839 0.878375 0.222081
O O6 0.828630 0.807130 0.283254
O O7 0.950304 0.745062 0.266574
O O8 0.889210 0.790726 0.000000
O O9 0.873000 0.464328 0.733542
O O10 0.965597 0.366025 0.734992
O O11 0.000000 0.500000 0.741805
O O12 0.944223 0.441617 0.000000
O O13 0.500000 0.500000 0.251914
O O14 0.567189 0.448568 0.500000
O O15 0.763646 0.400005 0.788724
O O16 0.805216 0.493916 0.000000
O O17 0.761607 0.339319 0.500000
O O18 0.795142 0.267380 0.234133
O O19 0.658244 0.708948 0.500000
O O20 0.579250 0.738647 0.746633
O O21 0.515459 0.790096 0.000000
#
# Coordination Sequence:
#
# PCOD9426948 Si02
#       8
#     8   8   8   8   8   8   8   8
#     4  10  21  37  57  84 118 152 192 242 293 353
#     4  11  23  36  56  86 119 154 197 244 292 348
#     4   9  19  37  61  87 117 154 196 240 297 357
#     4  10  20  35  56  80 112 156 195 233 290 351
#     4  11  21  36  62  89 115 153 198 245 295 354
#     4  11  22  38  60  84 116 158 199 242 294 351
#     4  10  22  39  61  87 115 156 200 241 296 358
#     4  10  21  38  59  86 120 157 195 247 298 348
#
# _framework density 20.768698000000001
#
# number of rings (size 3 to 8) (size 9 to 14) (size 15 to 20)
#    0.000    1.750    2.500    1.875    0.000    4.250 
#    0.000    1.250    0.000    3.375    0.000    0.000 
#    0.000    0.000    0.000    0.000    0.000    0.000 
#
# Total GULP energy -357612.812892 kJ/mol
# GULP energy per Si atom -5587.700201 kJ/mol
# Density = 2.072143 g / cm^3
# Si number density = 20.768698 Si / 1000 Ang^3
#
#
#
# Elastic Constant Matrix: (Units=GPa)
#
#
# Indices 1 2 3 4 5 6 
#
# 1 129.6136 45.3948 -15.1221 0.0000 0.0000 0.0000
# 2 45.3948 107.8619 -6.4015 0.0000 0.0000 0.0000
# 3 -15.1221 -6.4015 17.3602 0.0000 0.0000 0.0000
# 4 0.0000 0.0000 0.0000 6.2357 0.0000 0.0000
# 5 0.0000 0.0000 0.0000 0.0000 -10.9043 0.0000
# 6 0.0000 0.0000 0.0000 0.0000 0.0000 38.9459
#
#
#
# Elastic Compliance Matrix: (Units=1/GPa)
#
#
# Indices 1 2 3 4 5 6 
#
# 1 0.009861 -0.003722 0.007217 0.000000 0.000000 0.000000
# 2 -0.003722 0.010883 0.000771 0.000000 0.000000 0.000000
# 3 0.007217 0.000771 0.064174 0.000000 0.000000 0.000000
# 4 0.000000 0.000000 0.000000 0.160368 0.000000 0.000000
# 5 0.000000 0.000000 0.000000 0.000000 -0.091707 0.000000
# 6 0.000000 0.000000 0.000000 0.000000 0.000000 0.025677
#
#
# Mechanical properties :
#
#
# Convention : Reuss Voigt Hill
#
# Bulk Modulus (GPa) = 10.70072 33.61979 22.16026
# Shear Modulus (GPa) = 24.76811 22.25309 23.51060
#
# Velocity S-wave (km/s) = 3.45711 3.27689 3.36820
# Velocity P-wave (km/s) = 4.59336 5.52632 5.08130
#
# Compressibility (1/GPa) = 0.09345165
#
# Stress axis : x y z
#
# Youngs Moduli (GPa) = 101.41255 91.88491 15.58257
#
# Poissons Ratio (x) = 0.34196 -0.11246
# Poissons Ratio (y) = 0.37742 -0.01202
# Poissons Ratio (z) = -0.73191 -0.07087
#
# Static dielectric constant tensor:
#      x y z
#    x 1.722300 0.000000 0.000000 
#    y 0.000000 1.724440 0.000000 
#    z 0.000000 0.000000 1.756490 
# 
# From -- ./inp_files/8990.got.cif
#   From: 2010.05.17/outbox.cif.g08.bks.cpg/sg55_5_cif.got.tgz:8990.got - 2010.06.03 13:27:54.
