data_PCOD9426733
_publ_section_title
;
Structure prediction by ZEFSAII (Michael W. Deem and Ramdas Pophale) SiO2 
 PCOD9426733
Probable space group: P B A M
;
_chemical_formula_sum "Si O2"
_cell_formula_units_Z 32
_cell_length_a 13.926433
_cell_length_b 9.328721
_cell_length_c 9.124602
_cell_angle_alpha 90.000000
_cell_angle_beta 90.000000
_cell_angle_gamma 90.000000
_cell_volume 1185.430041
_symmetry_space_group_name_H-M "P B A M"
_symmetry_group_IT_number 55
_symmetry_cell_setting 'orthorhombic'
loop_
_space_group_symop_operation_xyz
x,y,z
-x,-y,z
1/2+x,1/2-y,-z
1/2-x,1/2+y,-z
-x,-y,-z
x,y,-z
1/2-x,1/2+y,z
1/2+x,1/2-y,z
loop_
_atom_site_type_symbol
_atom_site_label
_atom_site_fract_x
_atom_site_fract_y
_atom_site_fract_z
Si Si1 0.686733 0.824335 0.842000
Si Si2 0.880183 0.650728 0.166076
Si Si3 0.920794 0.098012 0.662575
Si Si4 0.384956 0.861695 0.500000
Si Si5 0.227970 0.078719 0.500000
O O1 0.795541 0.768046 0.831210
O O2 0.621107 0.738501 0.731273
O O3 0.667346 0.992734 0.836669
O O4 0.653810 0.771428 0.000000
O O5 0.926886 0.656359 0.332232
O O6 0.927237 0.663913 0.000000
O O7 0.962075 0.131961 0.500000
O O8 0.830036 0.995534 0.631988
O O9 0.000000 0.000000 0.741760
O O10 0.296590 0.745563 0.500000
O O11 0.334895 0.018802 0.500000
#
# Coordination Sequence:
#
# PCOD9426733 Si02
#       5
#     8   8   8   4   4
#     4  10  20  34  53  80 108 138 174 215 272 316
#     4  10  21  33  51  84 114 135 169 220 272 318
#     4   9  19  35  54  73 107 138 180 223 247 305
#     4  12  20  32  57  82 110 140 167 215 273 325
#     4  10  21  32  53  86 102 135 180 208 273 321
#
# _framework density 26.994423999999999
#
# number of rings (size 3 to 8) (size 9 to 14) (size 15 to 20)
#    0.750    1.250    2.500    1.500    1.750    0.500 
#    0.000    0.000    0.000    3.000    0.000    3.500 
#    0.000    0.000    0.000    0.000    0.000    0.000 
#
# Total GULP energy -178544.937383 kJ/mol
# GULP energy per Si atom -5579.529293 kJ/mol
# Density = 2.693298 g / cm^3
# Si number density = 26.994424 Si / 1000 Ang^3
#
#
#
# Elastic Constant Matrix: (Units=GPa)
#
#
# Indices 1 2 3 4 5 6 
#
# 1 36.9468 1.9419 36.4741 0.0000 0.0000 0.0000
# 2 1.9419 136.1469 44.3494 0.0000 0.0000 0.0000
# 3 36.4741 44.3494 214.2589 0.0000 0.0000 0.0000
# 4 0.0000 0.0000 0.0000 69.5612 0.0000 0.0000
# 5 0.0000 0.0000 0.0000 0.0000 -2.1667 0.0000
# 6 0.0000 0.0000 0.0000 0.0000 0.0000 28.6018
#
#
#
# Elastic Compliance Matrix: (Units=1/GPa)
#
#
# Indices 1 2 3 4 5 6 
#
# 1 0.032798 0.001449 -0.005883 0.000000 0.000000 0.000000
# 2 0.001449 0.007940 -0.001890 0.000000 0.000000 0.000000
# 3 -0.005883 -0.001890 0.006060 0.000000 0.000000 0.000000
# 4 0.000000 0.000000 0.000000 0.014376 0.000000 0.000000
# 5 0.000000 0.000000 0.000000 0.000000 -0.461528 0.000000
# 6 0.000000 0.000000 0.000000 0.000000 0.000000 0.034963
#
#
# Mechanical properties :
#
#
# Convention : Reuss Voigt Hill
#
# Bulk Modulus (GPa) = 29.28391 61.43152 45.35771
# Shear Modulus (GPa) = -14.64731 39.50506 12.42888
#
# Velocity S-wave (km/s) = -2.33192 3.82966 2.14808
# Velocity P-wave (km/s) = 1.90296 6.50858 4.79494
#
# Compressibility (1/GPa) = 0.03414845
#
# Stress axis : x y z
#
# Youngs Moduli (GPa) = 30.48996 125.94392 165.01674
#
# Poissons Ratio (x) = -0.18244 0.97081
# Poissons Ratio (y) = -0.04417 0.31190
# Poissons Ratio (z) = 0.17938 0.23805
#
# Static dielectric constant tensor:
#      x y z
#    x 2.055670 0.000000 0.000000 
#    y 0.000000 2.022810 0.000000 
#    z 0.000000 0.000000 2.285750 
# 
# From -- ./inp_files/8316.got.cif
#   From: 2010.05.17/outbox.cif.g08.bks.cpg/sg55_5_cif.got.tgz:8316.got - 2010.06.03 13:27:54.
