data_PCOD9426502
_publ_section_title
;
Structure prediction by ZEFSAII (Michael W. Deem and Ramdas Pophale) SiO2 
 PCOD9426502
Probable space group: P B A M
;
_chemical_formula_sum "Si O2"
_cell_formula_units_Z 56
_cell_length_a 8.476396
_cell_length_b 19.932978
_cell_length_c 15.082735
_cell_angle_alpha 90.000000
_cell_angle_beta 90.000000
_cell_angle_gamma 90.000000
_cell_volume 2548.376115
_symmetry_space_group_name_H-M "P B A M"
_symmetry_group_IT_number 55
_symmetry_cell_setting 'orthorhombic'
loop_
_space_group_symop_operation_xyz
x,y,z
-x,-y,z
1/2+x,1/2-y,-z
1/2-x,1/2+y,-z
-x,-y,-z
x,y,-z
1/2-x,1/2+y,z
1/2+x,1/2-y,z
loop_
_atom_site_type_symbol
_atom_site_label
_atom_site_fract_x
_atom_site_fract_y
_atom_site_fract_z
Si Si1 0.712096 0.185307 0.369871
Si Si2 0.181698 0.334770 0.841425
Si Si3 0.398945 0.437110 0.649467
Si Si4 0.845882 0.333542 0.403446
Si Si5 0.324031 0.613319 0.768729
Si Si6 0.818053 0.517933 0.799325
Si Si7 0.669863 0.791928 0.100727
O O1 0.703084 0.179923 0.263095
O O2 0.830494 0.126641 0.401981
O O3 0.773211 0.258853 0.394602
O O4 0.534289 0.173093 0.401051
O O5 0.204660 0.414113 0.853811
O O6 0.304162 0.287590 0.891734
O O7 0.003615 0.315073 0.869023
O O8 0.500000 0.500000 0.611600
O O9 0.509060 0.403733 0.725644
O O10 0.249604 0.468050 0.700815
O O11 0.796980 0.361629 0.500000
O O12 0.786677 0.374439 0.317910
O O13 0.272799 0.549036 0.825969
O O14 0.296911 0.676396 0.831577
O O15 0.000000 0.500000 0.796495
O O16 0.696367 0.813206 0.000000
#
# Coordination Sequence:
#
# PCOD9426502 Si02
#       7
#     8   8   8   8   8   8   8
#     4  11  20  39  63  96 133 173 230 275 339 397
#     4  11  22  41  66  95 132 181 216 277 331 398
#     4   9  21  36  67  94 124 175 223 270 337 403
#     4  12  24  39  67 100 137 176 224 282 337 402
#     4  11  21  42  67 100 133 176 220 274 337 400
#     4  10  19  39  68  98 125 179 227 267 332 402
#     4  12  25  41  65 100 135 173 220 274 331 397
#
# _framework density 21.974777
#
# number of rings (size 3 to 8) (size 9 to 14) (size 15 to 20)
#    0.000    1.143    4.286    2.571    4.000    0.000 
#    0.000    2.857    0.000   38.143    0.000    0.000 
#    0.000    0.000    0.000    0.000    0.000    0.000 
#
# Total GULP energy -312793.029781 kJ/mol
# GULP energy per Si atom -5585.589818 kJ/mol
# Density = 2.192476 g / cm^3
# Si number density = 21.974777 Si / 1000 Ang^3
#
#
#
# Elastic Constant Matrix: (Units=GPa)
#
#
# Indices 1 2 3 4 5 6 
#
# 1 92.2090 38.2098 19.6487 0.0000 0.0000 0.0000
# 2 38.2098 144.6530 19.7270 0.0000 0.0000 0.0000
# 3 19.6487 19.7270 107.5332 0.0000 0.0000 0.0000
# 4 0.0000 0.0000 0.0000 4.3379 0.0000 0.0000
# 5 0.0000 0.0000 0.0000 0.0000 -22.0596 0.0000
# 6 0.0000 0.0000 0.0000 0.0000 0.0000 45.9126
#
#
#
# Elastic Compliance Matrix: (Units=1/GPa)
#
#
# Indices 1 2 3 4 5 6 
#
# 1 0.012480 -0.003062 -0.001719 0.000000 0.000000 0.000000
# 2 -0.003062 0.007842 -0.000879 0.000000 0.000000 0.000000
# 3 -0.001719 -0.000879 0.009775 0.000000 0.000000 0.000000
# 4 0.000000 0.000000 0.000000 0.230528 0.000000 0.000000
# 5 0.000000 0.000000 0.000000 0.000000 -0.045332 0.000000
# 6 0.000000 0.000000 0.000000 0.000000 0.000000 0.021781
#
#
# Mechanical properties :
#
#
# Convention : Reuss Voigt Hill
#
# Bulk Modulus (GPa) = 53.25696 55.50737 54.38217
# Shear Modulus (GPa) = 19.63459 23.42550 21.53004
#
# Velocity S-wave (km/s) = 2.99240 3.26853 3.13351
# Velocity P-wave (km/s) = 6.01892 6.28958 6.15574
#
# Compressibility (1/GPa) = 0.01877689
#
# Stress axis : x y z
#
# Youngs Moduli (GPa) = 80.12777 127.52087 102.30447
#
# Poissons Ratio (x) = 0.39050 0.17582
# Poissons Ratio (y) = 0.24537 0.08993
# Poissons Ratio (z) = 0.13771 0.11210
#
# Static dielectric constant tensor:
#      x y z
#    x 1.806180 0.000000 0.000000 
#    y 0.000000 1.868330 0.000000 
#    z 0.000000 0.000000 1.798800 
# 
# From -- ./inp_files/17626.got.cif
#   From: 2010.05.17/outbox.cif.g08.bks.cpg/sg55_9_cif.got.tgz:17626.got - 2010.06.03 13:27:54.
