data_PCOD9426513
_publ_section_title
;
Structure prediction by ZEFSAII (Michael W. Deem and Ramdas Pophale) SiO2 
 PCOD9426513
Probable space group: P B A M
;
_chemical_formula_sum "Si O2"
_cell_formula_units_Z 56
_cell_length_a 21.749716
_cell_length_b 19.181929
_cell_length_c 7.590985
_cell_angle_alpha 90.000000
_cell_angle_beta 90.000000
_cell_angle_gamma 90.000000
_cell_volume 3166.970390
_symmetry_space_group_name_H-M "P B A M"
_symmetry_group_IT_number 55
_symmetry_cell_setting 'orthorhombic'
loop_
_space_group_symop_operation_xyz
x,y,z
-x,-y,z
1/2+x,1/2-y,-z
1/2-x,1/2+y,-z
-x,-y,-z
x,y,-z
1/2-x,1/2+y,z
1/2+x,1/2-y,z
loop_
_atom_site_type_symbol
_atom_site_label
_atom_site_fract_x
_atom_site_fract_y
_atom_site_fract_z
Si Si1 0.375649 0.658298 0.209388
Si Si2 0.699706 0.216614 0.209761
Si Si3 0.675477 0.792179 0.299190
Si Si4 0.251728 0.080154 0.713658
Si Si5 0.878627 0.154777 0.286757
Si Si6 0.505569 0.421400 0.789752
Si Si7 0.245161 0.922735 0.288388
O O1 0.357229 0.736056 0.271734
O O2 0.315116 0.611197 0.239529
O O3 0.435971 0.620982 0.283400
O O4 0.384957 0.664351 0.000000
O O5 0.759997 0.249604 0.299837
O O6 0.703235 0.134547 0.243781
O O7 0.706884 0.227314 0.000000
O O8 0.655438 0.805450 0.500000
O O9 0.695961 0.866117 0.219612
O O10 0.629838 0.734394 0.220226
O O11 0.255341 0.081008 0.500000
O O12 0.256792 0.000838 0.776282
O O13 0.874742 0.157640 0.500000
O O14 0.820438 0.108322 0.224741
O O15 0.942468 0.119703 0.238667
O O16 0.500000 0.500000 0.718269
O O17 0.515197 0.427955 0.000000
O O18 0.241275 0.926508 0.500000
#
# Coordination Sequence:
#
# PCOD9426513 Si02
#       7
#     8   8   8   8   8   8   8
#     4   9  18  30  41  58  85 112 140 173 203 237
#     4   9  16  26  41  59  80 108 138 168 204 243
#     4   8  15  28  43  60  83 107 133 168 207 245
#     4   9  16  27  45  65  84 109 136 165 207 252
#     4   9  17  28  41  59  84 110 136 167 198 235
#     4  10  20  31  42  58  82 112 142 170 200 234
#     4   9  17  28  42  63  88 109 133 168 208 247
#
# _framework density 17.682516
#
# number of rings (size 3 to 8) (size 9 to 14) (size 15 to 20)
#    0.000    3.000    0.000    2.143    0.000    4.286 
#    0.000    0.000    0.000    0.000    0.000    1.000 
#    0.000    8.000    0.000    0.000    0.000    0.000 
#
# Total GULP energy -311799.239213 kJ/mol
# GULP energy per Si atom -5567.843557 kJ/mol
# Density = 1.764227 g / cm^3
# Si number density = 17.682516 Si / 1000 Ang^3
#
#
#
# Elastic Constant Matrix: (Units=GPa)
#
#
# Indices 1 2 3 4 5 6 
#
# 1 88.2581 79.7103 -3.1619 0.0000 0.0000 0.0000
# 2 79.7103 178.1162 -10.2955 0.0000 0.0000 0.0000
# 3 -3.1619 -10.2955 32.1638 0.0000 0.0000 0.0000
# 4 0.0000 0.0000 0.0000 15.7456 0.0000 0.0000
# 5 0.0000 0.0000 0.0000 0.0000 11.3693 0.0000
# 6 0.0000 0.0000 0.0000 0.0000 0.0000 24.6860
#
#
#
# Elastic Compliance Matrix: (Units=1/GPa)
#
#
# Indices 1 2 3 4 5 6 
#
# 1 0.019040 -0.008571 -0.000872 0.000000 0.000000 0.000000
# 2 -0.008571 0.009579 0.002223 0.000000 0.000000 0.000000
# 3 -0.000872 0.002223 0.031717 0.000000 0.000000 0.000000
# 4 0.000000 0.000000 0.000000 0.063510 0.000000 0.000000
# 5 0.000000 0.000000 0.000000 0.000000 0.087956 0.000000
# 6 0.000000 0.000000 0.000000 0.000000 0.000000 0.040509
#
#
# Mechanical properties :
#
#
# Convention : Reuss Voigt Hill
#
# Bulk Modulus (GPa) = 21.78814 47.89377 34.84096
# Shear Modulus (GPa) = 17.72741 25.84585 21.78663
#
# Velocity S-wave (km/s) = 3.16972 3.82732 3.51394
# Velocity P-wave (km/s) = 5.07393 6.83193 6.01748
#
# Compressibility (1/GPa) = 0.04589654
#
# Stress axis : x y z
#
# Youngs Moduli (GPa) = 52.52008 104.39886 31.52892
#
# Poissons Ratio (x) = 0.89483 0.02749
# Poissons Ratio (y) = 0.45017 -0.07010
# Poissons Ratio (z) = 0.04579 -0.23213
#
# Static dielectric constant tensor:
#      x y z
#    x 1.576330 0.000000 0.000000 
#    y 0.000000 1.663990 0.000000 
#    z 0.000000 0.000000 1.410720 
# 
# From -- ./inp_files/7880.got.cif
#   From: 2010.05.17/outbox.cif.g08.bks.cpg/sg55_4_cif.got.tgz:7880.got - 2010.06.03 13:27:54.
