data_PCOD9426173
_publ_section_title
;
Structure prediction by ZEFSAII (Michael W. Deem and Ramdas Pophale) SiO2 
 PCOD9426173
Probable space group: P B A M
;
_chemical_formula_sum "Si O2"
_cell_formula_units_Z 64
_cell_length_a 25.350282
_cell_length_b 5.676256
_cell_length_c 22.630190
_cell_angle_alpha 90.000000
_cell_angle_beta 90.000000
_cell_angle_gamma 90.000000
_cell_volume 3256.364182
_symmetry_space_group_name_H-M "P B A M"
_symmetry_group_IT_number 55
_symmetry_cell_setting 'orthorhombic'
loop_
_space_group_symop_operation_xyz
x,y,z
-x,-y,z
1/2+x,1/2-y,-z
1/2-x,1/2+y,-z
-x,-y,-z
x,y,-z
1/2-x,1/2+y,z
1/2+x,1/2-y,z
loop_
_atom_site_type_symbol
_atom_site_label
_atom_site_fract_x
_atom_site_fract_y
_atom_site_fract_z
Si Si1 0.780532 0.272730 0.137960
Si Si2 0.449655 0.102820 0.763020
Si Si3 0.546368 0.654476 0.118709
Si Si4 0.158258 0.846232 0.747311
Si Si5 0.365824 0.040297 0.066271
Si Si6 0.311348 0.800873 0.429324
Si Si7 0.876577 0.777503 0.175501
Si Si8 0.309663 0.300818 0.383865
O O1 0.745851 0.512501 0.137275
O O2 0.815183 0.293159 0.198411
O O3 0.819590 0.276533 0.081455
O O4 0.474537 0.229387 0.820836
O O5 0.403354 0.270472 0.737176
O O6 0.500000 0.000000 0.727909
O O7 0.415466 0.891838 0.789587
O O8 0.500000 0.500000 0.090480
O O9 0.576809 0.843590 0.078815
O O10 0.591501 0.488480 0.145078
O O11 0.159687 0.109852 0.773977
O O12 0.188626 0.812021 0.686797
O O13 0.355531 0.852957 0.117858
O O14 0.363141 0.950886 0.000000
O O15 0.312776 0.806181 0.500000
O O16 0.333750 0.049596 0.404705
O O17 0.250208 0.798377 0.408147
O O18 0.333913 0.549058 0.406966
#
# Coordination Sequence:
#
# PCOD9426173 Si02
#       8
#     8   8   8   8   8   8   8   8
#     4  12  27  42  64  85 116 160 205 261 308 364
#     4  10  19  34  63  85 115 158 194 242 324 393
#     4  10  19  35  62  90 108 143 188 246 326 400
#     4  11  24  37  59  92 128 152 209 253 315 372
#     4  11  25  43  60  82 111 154 204 261 320 385
#     4  10  20  38  58  87 130 173 215 249 295 350
#     4  10  19  39  59  82 118 151 185 253 315 383
#     4  10  21  32  57  88 121 172 203 249 292 352
#
# _framework density 19.653822999999999
#
# number of rings (size 3 to 8) (size 9 to 14) (size 15 to 20)
#    0.000    1.500    5.000    2.625    5.250    1.250 
#    0.000    0.625    0.000    0.000    0.000    0.000 
#    0.000    5.500    0.000    0.000    0.000    0.000 
#
# Total GULP energy -356410.302994 kJ/mol
# GULP energy per Si atom -5568.910984 kJ/mol
# Density = 1.960909 g / cm^3
# Si number density = 19.653823 Si / 1000 Ang^3
#
#
#
# Elastic Constant Matrix: (Units=GPa)
#
#
# Indices 1 2 3 4 5 6 
#
# 1 33.2952 0.3388 -17.4528 0.0000 0.0000 0.0000
# 2 0.3388 107.3369 7.0024 0.0000 0.0000 0.0000
# 3 -17.4528 7.0024 70.7874 0.0000 0.0000 0.0000
# 4 0.0000 0.0000 0.0000 21.6474 0.0000 0.0000
# 5 0.0000 0.0000 0.0000 0.0000 13.5721 0.0000
# 6 0.0000 0.0000 0.0000 0.0000 0.0000 33.9064
#
#
#
# Elastic Compliance Matrix: (Units=1/GPa)
#
#
# Indices 1 2 3 4 5 6 
#
# 1 0.034540 -0.000669 0.008582 0.000000 0.000000 0.000000
# 2 -0.000669 0.009390 -0.001094 0.000000 0.000000 0.000000
# 3 0.008582 -0.001094 0.016351 0.000000 0.000000 0.000000
# 4 0.000000 0.000000 0.000000 0.046195 0.000000 0.000000
# 5 0.000000 0.000000 0.000000 0.000000 0.073681 0.000000
# 6 0.000000 0.000000 0.000000 0.000000 0.000000 0.029493
#
#
# Mechanical properties :
#
#
# Convention : Reuss Voigt Hill
#
# Bulk Modulus (GPa) = 13.52828 21.24405 17.38616
# Shear Modulus (GPa) = 22.66028 28.59391 25.62709
#
# Velocity S-wave (km/s) = 3.39923 3.81842 3.61491
# Velocity P-wave (km/s) = 4.72277 5.50210 5.12726
#
# Compressibility (1/GPa) = 0.07391924
#
# Stress axis : x y z
#
# Youngs Moduli (GPa) = 28.95215 106.49710 61.15868
#
# Poissons Ratio (x) = 0.07124 -0.52486
# Poissons Ratio (y) = 0.01937 0.06689
# Poissons Ratio (z) = -0.24847 0.11649
#
# Static dielectric constant tensor:
#      x y z
#    x 1.751740 0.000000 0.000000 
#    y 0.000000 1.851960 0.000000 
#    z 0.000000 0.000000 1.643620 
# 
# From -- ./inp_files/23193.got.cif
#   From: 2010.05.17/outbox.cif.g08.bks.cpg/sg55_12_cif.got.tgz:23193.got - 2010.06.03 13:27:54.
