data_PCOD9426171
_publ_section_title
;
Structure prediction by ZEFSAII (Michael W. Deem and Ramdas Pophale) SiO2 
 PCOD9426171
Probable space group: P B A M
;
_chemical_formula_sum "Si O2"
_cell_formula_units_Z 52
_cell_length_a 18.544571
_cell_length_b 8.564210
_cell_length_c 15.893394
_cell_angle_alpha 90.000000
_cell_angle_beta 90.000000
_cell_angle_gamma 90.000000
_cell_volume 2524.182484
_symmetry_space_group_name_H-M "P B A M"
_symmetry_group_IT_number 55
_symmetry_cell_setting 'orthorhombic'
loop_
_space_group_symop_operation_xyz
x,y,z
-x,-y,z
1/2+x,1/2-y,-z
1/2-x,1/2+y,-z
-x,-y,-z
x,y,-z
1/2-x,1/2+y,z
1/2+x,1/2-y,z
loop_
_atom_site_type_symbol
_atom_site_label
_atom_site_fract_x
_atom_site_fract_y
_atom_site_fract_z
Si Si1 0.292359 0.072938 0.331793
Si Si2 0.297950 0.562136 0.500000
Si Si3 0.429825 0.577926 0.365953
Si Si4 0.431664 0.888033 0.733832
Si Si5 0.645272 0.151634 0.094999
Si Si6 0.832467 0.107004 0.744435
Si Si7 0.299294 0.205431 0.094411
O O1 0.263409 0.043100 0.425157
O O2 0.308697 0.255136 0.319477
O O3 0.363457 0.978927 0.306091
O O4 0.230252 0.021161 0.266186
O O5 0.361103 0.582671 0.427036
O O6 0.500000 0.500000 0.405105
O O7 0.447004 0.746309 0.328733
O O8 0.405201 0.469346 0.287911
O O9 0.407874 0.830000 0.826532
O O10 0.500000 0.000000 0.741093
O O11 0.713501 0.267045 0.103524
O O12 0.676654 0.974346 0.100972
O O13 0.615243 0.169588 0.000000
O O14 0.835463 0.189093 0.834220
O O15 0.317691 0.259515 0.000000
#
# Coordination Sequence:
#
# PCOD9426171 Si02
#       7
#     8   4   8   8   8   8   8
#     4  11  22  39  65  95 124 161 213 256 317 381
#     4  10  25  44  70  96 125 160 204 268 329 382
#     4  11  26  44  66  92 126 168 211 263 323 388
#     4  12  25  43  65  91 129 174 218 260 318 381
#     4  10  22  38  63  96 131 168 212 262 316 372
#     4  11  20  37  64  93 128 165 205 261 313 373
#     4  10  19  34  61  96 129 162 208 261 307 361
#
# _framework density 20.600728
#
# number of rings (size 3 to 8) (size 9 to 14) (size 15 to 20)
#    0.000    1.231    3.077    3.000    2.154    5.846 
#    0.000    3.077    0.000    0.923    0.000    0.000 
#    0.000    0.000    0.000    0.000    0.000    0.000 
#
# Total GULP energy -289645.271527 kJ/mol
# GULP energy per Si atom -5570.101376 kJ/mol
# Density = 2.055384 g / cm^3
# Si number density = 20.600728 Si / 1000 Ang^3
#
#
#
# Elastic Constant Matrix: (Units=GPa)
#
#
# Indices 1 2 3 4 5 6 
#
# 1 61.4207 -3.3601 27.3551 0.0000 0.0000 0.0000
# 2 -3.3601 50.7017 5.6575 0.0000 0.0000 0.0000
# 3 27.3551 5.6575 156.8877 0.0000 0.0000 0.0000
# 4 0.0000 0.0000 0.0000 -41.4825 0.0000 0.0000
# 5 0.0000 0.0000 0.0000 0.0000 17.2208 0.0000
# 6 0.0000 0.0000 0.0000 0.0000 0.0000 23.1825
#
#
#
# Elastic Compliance Matrix: (Units=1/GPa)
#
#
# Indices 1 2 3 4 5 6 
#
# 1 0.017769 0.001529 -0.003153 0.000000 0.000000 0.000000
# 2 0.001529 0.019935 -0.000986 0.000000 0.000000 0.000000
# 3 -0.003153 -0.000986 0.006959 0.000000 0.000000 0.000000
# 4 0.000000 0.000000 0.000000 -0.024107 0.000000 0.000000
# 5 0.000000 0.000000 0.000000 0.000000 0.058069 0.000000
# 6 0.000000 0.000000 0.000000 0.000000 0.000000 0.043136
#
#
# Mechanical properties :
#
#
# Convention : Reuss Voigt Hill
#
# Bulk Modulus (GPa) = 25.35226 36.47944 30.91585
# Shear Modulus (GPa) = 35.68143 15.74134 25.71138
#
# Velocity S-wave (km/s) = 4.16630 2.76726 3.53665
# Velocity P-wave (km/s) = 5.95628 5.28740 5.63178
#
# Compressibility (1/GPa) = 0.03944422
#
# Stress axis : x y z
#
# Youngs Moduli (GPa) = 56.27692 50.16419 143.69140
#
# Poissons Ratio (x) = -0.07673 0.45312
# Poissons Ratio (y) = -0.08607 0.14161
# Poissons Ratio (z) = 0.17746 0.04944
#
# Static dielectric constant tensor:
#      x y z
#    x 1.712570 0.000000 0.000000 
#    y 0.000000 1.837400 0.000000 
#    z 0.000000 0.000000 1.751820 
# 
# From -- ./inp_files/19687.got.cif
#   From: 2010.05.17/outbox.cif.g08.bks.cpg/sg55_10_cif.got.tgz:19687.got - 2010.06.03 13:27:54.
