data_PCOD9426358
_publ_section_title
;
Structure prediction by ZEFSAII (Michael W. Deem and Ramdas Pophale) SiO2 
 PCOD9426358
Probable space group: P B A M
;
_chemical_formula_sum "Si O2"
_cell_formula_units_Z 64
_cell_length_a 24.749926
_cell_length_b 14.245121
_cell_length_c 9.131692
_cell_angle_alpha 90.000000
_cell_angle_beta 90.000000
_cell_angle_gamma 90.000000
_cell_volume 3219.521296
_symmetry_space_group_name_H-M "P B A M"
_symmetry_group_IT_number 55
_symmetry_cell_setting 'orthorhombic'
loop_
_space_group_symop_operation_xyz
x,y,z
-x,-y,z
1/2+x,1/2-y,-z
1/2-x,1/2+y,-z
-x,-y,-z
x,y,-z
1/2-x,1/2+y,z
1/2+x,1/2-y,z
loop_
_atom_site_type_symbol
_atom_site_label
_atom_site_fract_x
_atom_site_fract_y
_atom_site_fract_z
Si Si1 0.933599 0.366677 0.827442
Si Si2 0.334023 0.227992 0.669225
Si Si3 0.103681 0.455931 0.325861
Si Si4 0.549965 0.219211 0.826152
Si Si5 0.225874 0.219456 0.832168
Si Si6 0.674576 0.546934 0.330345
Si Si7 0.384146 0.605284 0.826915
Si Si8 0.785282 0.554938 0.169816
O O1 0.881455 0.312241 0.768593
O O2 0.935004 0.464115 0.739782
O O3 0.987528 0.306055 0.803810
O O4 0.929049 0.386773 0.000000
O O5 0.342119 0.200736 0.500000
O O6 0.275409 0.196126 0.726492
O O7 0.334357 0.341378 0.679394
O O8 0.103786 0.456438 0.500000
O O9 0.084642 0.355938 0.263677
O O10 0.163370 0.477083 0.262801
O O11 0.566948 0.325162 0.787957
O O12 0.562665 0.207155 0.000000
O O13 0.170168 0.166727 0.801497
O O14 0.215564 0.331254 0.823170
O O15 0.241845 0.198696 0.000000
O O16 0.683602 0.523105 0.500000
O O17 0.624944 0.488263 0.265176
O O18 0.728152 0.523869 0.236436
O O19 0.387113 0.583319 0.000000
O O20 0.790454 0.527245 0.000000
#
# Coordination Sequence:
#
# PCOD9426358 Si02
#       8
#     8   8   8   8   8   8   8   8
#     4  11  24  41  64  86 113 156 204 250 295 347
#     4  10  22  40  59  83 121 157 195 247 297 349
#     4  12  24  37  58  89 124 158 193 238 294 359
#     4  10  22  43  64  87 118 154 201 250 292 345
#     4   9  18  34  58  84 114 152 193 238 290 347
#     4  10  22  38  57  87 124 158 194 242 300 356
#     4  10  20  37  61  88 117 154 199 245 293 348
#     4  10  19  36  59  84 118 157 196 239 287 345
#
# _framework density 19.878731999999999
#
# number of rings (size 3 to 8) (size 9 to 14) (size 15 to 20)
#    0.000    1.750    1.250    3.000    1.750    5.500 
#    0.000    0.625    0.000    3.750    0.000    0.000 
#    0.000    0.000    0.000    0.000    0.000    0.000 
#
# Total GULP energy -357851.018448 kJ/mol
# GULP energy per Si atom -5591.422163 kJ/mol
# Density = 1.983349 g / cm^3
# Si number density = 19.878732 Si / 1000 Ang^3
#
#
#
# Elastic Constant Matrix: (Units=GPa)
#
#
# Indices 1 2 3 4 5 6 
#
# 1 52.2952 -4.1315 29.6941 0.0000 0.0000 0.0000
# 2 -4.1315 24.4039 6.7103 0.0000 0.0000 0.0000
# 3 29.6941 6.7103 81.9559 0.0000 0.0000 0.0000
# 4 0.0000 0.0000 0.0000 27.6554 0.0000 0.0000
# 5 0.0000 0.0000 0.0000 0.0000 4.1206 0.0000
# 6 0.0000 0.0000 0.0000 0.0000 0.0000 30.7945
#
#
#
# Elastic Compliance Matrix: (Units=1/GPa)
#
#
# Indices 1 2 3 4 5 6 
#
# 1 0.025169 0.006924 -0.009686 0.000000 0.000000 0.000000
# 2 0.006924 0.043826 -0.006097 0.000000 0.000000 0.000000
# 3 -0.009686 -0.006097 0.016210 0.000000 0.000000 0.000000
# 4 0.000000 0.000000 0.000000 0.036159 0.000000 0.000000
# 5 0.000000 0.000000 0.000000 0.000000 0.242683 0.000000
# 6 0.000000 0.000000 0.000000 0.000000 0.000000 0.032473
#
#
# Mechanical properties :
#
#
# Convention : Reuss Voigt Hill
#
# Bulk Modulus (GPa) = 14.81752 24.80007 19.80879
# Shear Modulus (GPa) = 11.44861 20.93959 16.19410
#
# Velocity S-wave (km/s) = 2.40244 3.24908 2.85729
# Velocity P-wave (km/s) = 3.89433 5.15540 4.56858
#
# Compressibility (1/GPa) = 0.06748769
#
# Stress axis : x y z
#
# Youngs Moduli (GPa) = 39.73096 22.81758 61.68886
#
# Poissons Ratio (x) = -0.15800 0.59753
# Poissons Ratio (y) = -0.27512 0.37613
# Poissons Ratio (z) = 0.38484 0.13912
#
# Static dielectric constant tensor:
#      x y z
#    x 1.684890 0.000000 0.000000 
#    y 0.000000 1.734300 0.000000 
#    z 0.000000 0.000000 1.668530 
# 
# From -- ./inp_files/9700.got.cif
#   From: 2010.05.17/outbox.cif.g08.bks.cpg/sg55_5_cif.got.tgz:9700.got - 2010.06.03 13:27:54.
