data_PCOD9426245
_publ_section_title
;
Structure prediction by ZEFSAII (Michael W. Deem and Ramdas Pophale) SiO2 
 PCOD9426245
Probable space group: P B A M
;
_chemical_formula_sum "Si O2"
_cell_formula_units_Z 64
_cell_length_a 20.467352
_cell_length_b 18.844268
_cell_length_c 7.531950
_cell_angle_alpha 90.000000
_cell_angle_beta 90.000000
_cell_angle_gamma 90.000000
_cell_volume 2905.014865
_symmetry_space_group_name_H-M "P B A M"
_symmetry_group_IT_number 55
_symmetry_cell_setting 'orthorhombic'
loop_
_space_group_symop_operation_xyz
x,y,z
-x,-y,z
1/2+x,1/2-y,-z
1/2-x,1/2+y,-z
-x,-y,-z
x,y,-z
1/2-x,1/2+y,z
1/2+x,1/2-y,z
loop_
_atom_site_type_symbol
_atom_site_label
_atom_site_fract_x
_atom_site_fract_y
_atom_site_fract_z
Si Si1 0.242857 0.191018 0.212980
Si Si2 0.207247 0.536861 0.782630
Si Si3 0.140769 0.793649 0.215564
Si Si4 0.520187 0.805291 0.706487
Si Si5 0.938424 0.459758 0.203827
Si Si6 0.329609 0.452349 0.214996
Si Si7 0.553207 0.446307 0.293182
Si Si8 0.408878 0.707128 0.287214
O O1 0.262816 0.112403 0.276306
O O2 0.296612 0.247659 0.274874
O O3 0.168284 0.210005 0.254905
O O4 0.247554 0.189323 0.000000
O O5 0.133340 0.528837 0.717581
O O6 0.256602 0.474436 0.731896
O O7 0.205496 0.539190 0.000000
O O8 0.075139 0.755436 0.278110
O O9 0.148025 0.874796 0.274778
O O10 0.139581 0.793286 0.000000
O O11 0.511668 0.823831 0.500000
O O12 0.546258 0.876180 0.796990
O O13 0.452783 0.772363 0.778582
O O14 0.000000 0.500000 0.286819
O O15 0.933808 0.485518 0.000000
O O16 0.378483 0.512721 0.281290
O O17 0.332308 0.453361 0.000000
O O18 0.500000 0.500000 0.212465
O O19 0.534998 0.436538 0.500000
O O20 0.562777 0.367809 0.216315
O O21 0.417539 0.706100 0.500000
#
# Coordination Sequence:
#
# PCOD9426245 Si02
#       8
#     8   8   8   8   8   8   8   8
#     4  10  19  35  59  81 109 148 188 236 289 343
#     4   9  17  34  57  83 114 144 183 236 291 343
#     4  10  21  37  58  85 114 148 193 241 288 348
#     4  11  23  39  59  83 119 160 195 239 288 341
#     4  10  21  39  65  91 117 153 196 242 292 348
#     4  10  20  34  55  82 111 142 184 238 286 335
#     4  10  20  35  53  74 108 148 184 224 275 336
#     4  10  22  37  54  81 115 150 192 235 278 340
#
# _framework density 22.030867000000001
#
# number of rings (size 3 to 8) (size 9 to 14) (size 15 to 20)
#    0.000    2.000    2.500    1.125    0.000    4.500 
#    0.000    3.125    0.000    0.000    0.000    0.000 
#    0.000    0.000    0.000    0.000    0.000    0.000 
#
# Total GULP energy -357603.065819 kJ/mol
# GULP energy per Si atom -5587.547903 kJ/mol
# Density = 2.198072 g / cm^3
# Si number density = 22.030867 Si / 1000 Ang^3
#
#
#
# Elastic Constant Matrix: (Units=GPa)
#
#
# Indices 1 2 3 4 5 6 
#
# 1 139.9733 7.3838 -12.1771 0.0000 0.0000 0.0000
# 2 7.3838 46.2373 -10.1203 0.0000 0.0000 0.0000
# 3 -12.1771 -10.1203 56.5203 0.0000 0.0000 0.0000
# 4 0.0000 0.0000 0.0000 -37.0355 0.0000 0.0000
# 5 0.0000 0.0000 0.0000 0.0000 20.5072 0.0000
# 6 0.0000 0.0000 0.0000 0.0000 0.0000 45.2662
#
#
#
# Elastic Compliance Matrix: (Units=1/GPa)
#
#
# Indices 1 2 3 4 5 6 
#
# 1 0.007313 -0.000857 0.001422 0.000000 0.000000 0.000000
# 2 -0.000857 0.022610 0.003864 0.000000 0.000000 0.000000
# 3 0.001422 0.003864 0.018691 0.000000 0.000000 0.000000
# 4 0.000000 0.000000 0.000000 -0.027001 0.000000 0.000000
# 5 0.000000 0.000000 0.000000 0.000000 0.048763 0.000000
# 6 0.000000 0.000000 0.000000 0.000000 0.000000 0.022092
#
#
# Mechanical properties :
#
#
# Convention : Reuss Voigt Hill
#
# Bulk Modulus (GPa) = 17.39935 23.65597 20.52766
# Shear Modulus (GPa) = 48.65387 22.92387 35.78887
#
# Velocity S-wave (km/s) = 4.70450 3.22923 4.03487
# Velocity P-wave (km/s) = 6.11757 4.96637 5.57178
#
# Compressibility (1/GPa) = 0.05747340
#
# Stress axis : x y z
#
# Youngs Moduli (GPa) = 136.74036 44.22802 53.50163
#
# Poissons Ratio (x) = 0.03788 -0.07609
# Poissons Ratio (y) = 0.11713 -0.20673
# Poissons Ratio (z) = -0.19447 -0.17089
#
# Static dielectric constant tensor:
#      x y z
#    x 1.794950 0.000000 0.000000 
#    y 0.000000 1.776540 0.000000 
#    z 0.000000 0.000000 1.871270 
# 
# From -- ./inp_files/9030.got.cif
#   From: 2010.05.17/outbox.cif.g08.bks.cpg/sg55_5_cif.got.tgz:9030.got - 2010.06.03 13:27:54.
