data_PCOD9426533
_publ_section_title
;
Structure prediction by ZEFSAII (Michael W. Deem and Ramdas Pophale) SiO2 
 PCOD9426533
Probable space group: P B A M
;
_chemical_formula_sum "Si O2"
_cell_formula_units_Z 64
_cell_length_a 15.206122
_cell_length_b 25.226189
_cell_length_c 9.178252
_cell_angle_alpha 90.000000
_cell_angle_beta 90.000000
_cell_angle_gamma 90.000000
_cell_volume 3520.708699
_symmetry_space_group_name_H-M "P B A M"
_symmetry_group_IT_number 55
_symmetry_cell_setting 'orthorhombic'
loop_
_space_group_symop_operation_xyz
x,y,z
-x,-y,z
1/2+x,1/2-y,-z
1/2-x,1/2+y,-z
-x,-y,-z
x,y,-z
1/2-x,1/2+y,z
1/2+x,1/2-y,z
loop_
_atom_site_type_symbol
_atom_site_label
_atom_site_fract_x
_atom_site_fract_y
_atom_site_fract_z
Si Si1 0.943370 0.305804 0.178833
Si Si2 0.775221 0.991736 0.669814
Si Si3 0.868408 0.080794 0.172860
Si Si4 0.374348 0.658430 0.161596
Si Si5 0.135531 0.284508 0.169361
Si Si6 0.167216 0.798280 0.177484
Si Si7 0.958650 0.927853 0.666209
Si Si8 0.685597 0.898267 0.830916
O O1 0.892203 0.251838 0.224793
O O2 0.890006 0.358370 0.221932
O O3 0.044259 0.306756 0.230915
O O4 0.944037 0.304535 0.000000
O O5 0.756873 0.999919 0.500000
O O6 0.869610 0.961513 0.682061
O O7 0.705748 0.951354 0.741383
O O8 0.791174 0.046813 0.752645
O O9 0.866655 0.143037 0.213145
O O10 0.961237 0.058427 0.229238
O O11 0.861154 0.075946 0.000000
O O12 0.375648 0.721135 0.168992
O O13 0.429067 0.630926 0.287553
O O14 0.275002 0.636916 0.170916
O O15 0.409022 0.642452 0.000000
O O16 0.232025 0.295161 0.232412
O O17 0.139547 0.302326 0.000000
O O18 0.169325 0.794479 0.000000
O O19 0.989045 0.931942 0.500000
O O20 0.669031 0.912109 0.000000
#
# Coordination Sequence:
#
# PCOD9426533 Si02
#       8
#     8   8   8   8   8   8   8   8
#     4   9  15  25  45  73 103 132 160 196 245 295
#     4  10  21  35  50  68  95 132 168 205 252 299
#     4  11  21  32  49  72  99 130 168 208 247 298
#     4   9  15  26  46  71  98 129 161 197 237 284
#     4   9  15  25  45  73 105 134 159 197 251 297
#     4   9  17  29  45  74 109 133 159 199 247 298
#     4  10  20  32  47  69  99 132 165 202 246 298
#     4   9  16  28  48  73  98 123 162 205 237 281
#
# _framework density 18.178159000000001
#
# number of rings (size 3 to 8) (size 9 to 14) (size 15 to 20)
#    0.000    2.500    1.250    2.250    0.000    5.000 
#    0.000    0.000    0.000    6.000    0.000    5.250 
#    0.000    0.000    0.000    0.000    0.000    0.000 
#
# Total GULP energy -356622.961486 kJ/mol
# GULP energy per Si atom -5572.233773 kJ/mol
# Density = 1.813678 g / cm^3
# Si number density = 18.178159 Si / 1000 Ang^3
#
#
#
# Elastic Constant Matrix: (Units=GPa)
#
#
# Indices 1 2 3 4 5 6 
#
# 1 64.6872 5.5434 7.0925 0.0000 0.0000 0.0000
# 2 5.5434 26.6256 10.9607 0.0000 0.0000 0.0000
# 3 7.0925 10.9607 30.5744 0.0000 0.0000 0.0000
# 4 0.0000 0.0000 0.0000 0.9670 0.0000 0.0000
# 5 0.0000 0.0000 0.0000 0.0000 6.0987 0.0000
# 6 0.0000 0.0000 0.0000 0.0000 0.0000 19.8084
#
#
#
# Elastic Compliance Matrix: (Units=1/GPa)
#
#
# Indices 1 2 3 4 5 6 
#
# 1 0.015963 -0.002111 -0.002946 0.000000 0.000000 0.000000
# 2 -0.002111 0.044339 -0.015406 0.000000 0.000000 0.000000
# 3 -0.002946 -0.015406 0.038913 0.000000 0.000000 0.000000
# 4 0.000000 0.000000 0.000000 1.034078 0.000000 0.000000
# 5 0.000000 0.000000 0.000000 0.000000 0.163968 0.000000
# 6 0.000000 0.000000 0.000000 0.000000 0.000000 0.050484
#
#
# Mechanical properties :
#
#
# Convention : Reuss Voigt Hill
#
# Bulk Modulus (GPa) = 17.15552 18.78672 17.97112
# Shear Modulus (GPa) = 3.55088 11.92755 7.73922
#
# Velocity S-wave (km/s) = 1.39915 2.56432 2.06559
# Velocity P-wave (km/s) = 3.47391 4.37320 3.94924
#
# Compressibility (1/GPa) = 0.05829027
#
# Stress axis : x y z
#
# Youngs Moduli (GPa) = 62.64519 22.55344 25.69811
#
# Poissons Ratio (x) = 0.04760 0.07572
# Poissons Ratio (y) = 0.13222 0.39590
# Poissons Ratio (z) = 0.18458 0.34745
#
# Static dielectric constant tensor:
#      x y z
#    x 1.653900 0.000000 0.000000 
#    y 0.000000 1.631740 0.000000 
#    z 0.000000 0.000000 1.606300 
# 
# From -- ./inp_files/6600.got.cif
#   From: 2010.05.17/outbox.cif.g08.bks.cpg/sg55_4_cif.got.tgz:6600.got - 2010.06.03 13:27:54.
