data_PCOD9426700
_publ_section_title
;
Structure prediction by ZEFSAII (Michael W. Deem and Ramdas Pophale) SiO2 
 PCOD9426700
Probable space group: P B A M
;
_chemical_formula_sum "Si O2"
_cell_formula_units_Z 48
_cell_length_a 30.053749
_cell_length_b 10.559258
_cell_length_c 8.381701
_cell_angle_alpha 90.000000
_cell_angle_beta 90.000000
_cell_angle_gamma 90.000000
_cell_volume 2659.893331
_symmetry_space_group_name_H-M "P B A M"
_symmetry_group_IT_number 55
_symmetry_cell_setting 'orthorhombic'
loop_
_space_group_symop_operation_xyz
x,y,z
-x,-y,z
1/2+x,1/2-y,-z
1/2-x,1/2+y,-z
-x,-y,-z
x,y,-z
1/2-x,1/2+y,z
1/2+x,1/2-y,z
loop_
_atom_site_type_symbol
_atom_site_label
_atom_site_fract_x
_atom_site_fract_y
_atom_site_fract_z
Si Si1 0.525201 0.873568 0.806977
Si Si2 0.472562 0.624568 0.194784
Si Si3 0.215806 0.718767 0.690950
Si Si4 0.614144 0.767308 0.690796
Si Si5 0.718256 0.498229 0.808720
Si Si6 0.882342 0.985285 0.191751
O O1 0.497365 0.750874 0.751817
O O2 0.575478 0.860493 0.746583
O O3 0.500000 0.000000 0.755475
O O4 0.526397 0.872014 0.000000
O O5 0.500000 0.500000 0.243244
O O6 0.421544 0.607023 0.248428
O O7 0.472509 0.626562 0.000000
O O8 0.217241 0.717272 0.500000
O O9 0.164337 0.697682 0.742026
O O10 0.247480 0.608733 0.754756
O O11 0.228777 0.860019 0.748146
O O12 0.613753 0.757612 0.500000
O O13 0.604655 0.628590 0.762985
O O14 0.668049 0.465280 0.749823
O O15 0.717508 0.502437 0.000000
O O16 0.881258 0.976987 0.000000
#
# Coordination Sequence:
#
# PCOD9426700 Si02
#       6
#     8   8   8   8   8   8
#     4  10  20  34  52  76 105 140 178 215 264 321
#     4   9  15  28  53  77 101 132 168 210 257 308
#     4  10  21  38  58  79 110 149 182 220 280 343
#     4  10  20  34  54  77 105 141 179 215 263 320
#     4  10  20  35  57  84 110 138 183 236 275 317
#     4   9  17  32  55  79 104 134 175 222 266 310
#
# _framework density 18.045836999999999
#
# number of rings (size 3 to 8) (size 9 to 14) (size 15 to 20)
#    0.000    2.333    1.667    1.500    0.000    3.000 
#    3.000    1.667    0.000    0.000    0.000    0.000 
#    0.000    0.000    0.000    0.000    0.000    0.000 
#
# Total GULP energy -267727.847740 kJ/mol
# GULP energy per Si atom -5577.663495 kJ/mol
# Density = 1.800476 g / cm^3
# Si number density = 18.045837 Si / 1000 Ang^3
#
#
#
# Elastic Constant Matrix: (Units=GPa)
#
#
# Indices 1 2 3 4 5 6 
#
# 1 127.2381 82.8329 8.2172 0.0000 0.0000 0.0000
# 2 82.8329 119.5404 6.4147 0.0000 0.0000 0.0000
# 3 8.2172 6.4147 2.5033 0.0000 0.0000 0.0000
# 4 0.0000 0.0000 0.0000 3.7559 0.0000 0.0000
# 5 0.0000 0.0000 0.0000 0.0000 20.2001 0.0000
# 6 0.0000 0.0000 0.0000 0.0000 0.0000 36.8464
#
#
#
# Elastic Compliance Matrix: (Units=1/GPa)
#
#
# Indices 1 2 3 4 5 6 
#
# 1 0.015810 -0.009473 -0.027622 0.000000 0.000000 0.000000
# 2 -0.009473 0.015375 -0.008303 0.000000 0.000000 0.000000
# 3 -0.027622 -0.008303 0.511417 0.000000 0.000000 0.000000
# 4 0.000000 0.000000 0.000000 0.266251 0.000000 0.000000
# 5 0.000000 0.000000 0.000000 0.000000 0.049505 0.000000
# 6 0.000000 0.000000 0.000000 0.000000 0.000000 0.027140
#
#
# Mechanical properties :
#
#
# Convention : Reuss Voigt Hill
#
# Bulk Modulus (GPa) = 2.21335 49.35683 25.78509
# Shear Modulus (GPa) = 4.43696 22.28160 13.35928
#
# Velocity S-wave (km/s) = 1.56973 3.51767 2.72379
# Velocity P-wave (km/s) = 2.12476 6.62638 4.92054
#
# Compressibility (1/GPa) = 0.45180483
#
# Stress axis : x y z
#
# Youngs Moduli (GPa) = 63.25036 65.04039 1.95535
#
# Poissons Ratio (x) = 0.61613 0.05401
# Poissons Ratio (y) = 0.59917 0.01624
# Poissons Ratio (z) = 1.74713 0.54003
#
# Static dielectric constant tensor:
#      x y z
#    x 1.646240 0.000000 0.000000 
#    y 0.000000 1.587810 0.000000 
#    z 0.000000 0.000000 1.619570 
# 
# From -- ./inp_files/2795.got.cif
#   From: 2010.05.17/outbox.cif.g08.bks.cpg/sg55_2_cif.got.tgz:2795.got - 2010.06.03 13:27:54.
