data_PCOD9426427
_publ_section_title
;
Structure prediction by ZEFSAII (Michael W. Deem and Ramdas Pophale) SiO2 
 PCOD9426427
Probable space group: P B A M
;
_chemical_formula_sum "Si O2"
_cell_formula_units_Z 48
_cell_length_a 18.355287
_cell_length_b 16.998121
_cell_length_c 8.429947
_cell_angle_alpha 90.000000
_cell_angle_beta 90.000000
_cell_angle_gamma 90.000000
_cell_volume 2630.188896
_symmetry_space_group_name_H-M "P B A M"
_symmetry_group_IT_number 55
_symmetry_cell_setting 'orthorhombic'
loop_
_space_group_symop_operation_xyz
x,y,z
-x,-y,z
1/2+x,1/2-y,-z
1/2-x,1/2+y,-z
-x,-y,-z
x,y,-z
1/2-x,1/2+y,z
1/2+x,1/2-y,z
loop_
_atom_site_type_symbol
_atom_site_label
_atom_site_fract_x
_atom_site_fract_y
_atom_site_fract_z
Si Si1 0.022256 0.913181 0.692219
Si Si2 0.322371 0.857676 0.688826
Si Si3 0.084768 0.502302 0.811790
Si Si4 0.164335 0.827300 0.187176
Si Si5 0.403521 0.171442 0.310926
Si Si6 0.553017 0.255935 0.307311
O O1 0.023612 0.913114 0.500000
O O2 0.965792 0.844621 0.743241
O O3 0.101287 0.885367 0.750351
O O4 0.000000 0.000000 0.746234
O O5 0.311890 0.850943 0.500000
O O6 0.244255 0.857556 0.770488
O O7 0.372589 0.784564 0.745652
O O8 0.368354 0.935818 0.726052
O O9 0.113066 0.589448 0.772494
O O10 0.000000 0.500000 0.759524
O O11 0.087009 0.487846 0.000000
O O12 0.149992 0.742764 0.268360
O O13 0.155912 0.818127 0.000000
O O14 0.404439 0.159806 0.500000
O O15 0.483899 0.202176 0.259954
O O16 0.553919 0.255639 0.500000
#
# Coordination Sequence:
#
# PCOD9426427 Si02
#       6
#     8   8   8   8   8   8
#     4   9  18  37  63  87 111 145 194 243 285 343
#     4  11  21  37  58  82 115 155 199 240 285 342
#     4  11  22  35  56  89 124 152 186 234 293 349
#     4  11  23  39  57  82 119 155 189 239 301 345
#     4  10  19  37  61  84 109 149 198 232 274 341
#     4   8  16  31  56  84 107 139 188 238 277 326
#
# _framework density 18.249639999999999
#
# number of rings (size 3 to 8) (size 9 to 14) (size 15 to 20)
#    0.000    2.000    1.667    4.000    0.000    1.000 
#    3.000    0.833    0.000    0.000    0.000    0.000 
#    0.000    0.000    0.000    0.000    0.000    0.000 
#
# Total GULP energy -267946.990657 kJ/mol
# GULP energy per Si atom -5582.228972 kJ/mol
# Density = 1.820810 g / cm^3
# Si number density = 18.249640 Si / 1000 Ang^3
#
#
#
# Elastic Constant Matrix: (Units=GPa)
#
#
# Indices 1 2 3 4 5 6 
#
# 1 89.1330 51.4284 1.8629 0.0000 0.0000 0.0000
# 2 51.4284 118.4559 -2.2747 0.0000 0.0000 0.0000
# 3 1.8629 -2.2747 23.6061 0.0000 0.0000 0.0000
# 4 0.0000 0.0000 0.0000 18.6607 0.0000 0.0000
# 5 0.0000 0.0000 0.0000 0.0000 12.7929 0.0000
# 6 0.0000 0.0000 0.0000 0.0000 0.0000 19.6878
#
#
#
# Elastic Compliance Matrix: (Units=1/GPa)
#
#
# Indices 1 2 3 4 5 6 
#
# 1 0.015047 -0.006568 -0.001820 0.000000 0.000000 0.000000
# 2 -0.006568 0.011324 0.001609 0.000000 0.000000 0.000000
# 3 -0.001820 0.001609 0.042661 0.000000 0.000000 0.000000
# 4 0.000000 0.000000 0.000000 0.053589 0.000000 0.000000
# 5 0.000000 0.000000 0.000000 0.000000 0.078168 0.000000
# 6 0.000000 0.000000 0.000000 0.000000 0.000000 0.050793
#
#
# Mechanical properties :
#
#
# Convention : Reuss Voigt Hill
#
# Bulk Modulus (GPa) = 18.02618 37.02535 27.52576
# Shear Modulus (GPa) = 17.62864 22.24018 19.93441
#
# Velocity S-wave (km/s) = 3.11138 3.49472 3.30861
# Velocity P-wave (km/s) = 4.77562 6.05115 5.45083
#
# Compressibility (1/GPa) = 0.05547487
#
# Stress axis : x y z
#
# Youngs Moduli (GPa) = 66.46015 88.30642 23.44081
#
# Poissons Ratio (x) = 0.57996 0.04267
# Poissons Ratio (y) = 0.43648 -0.03773
# Poissons Ratio (z) = 0.12097 -0.14213
#
# Static dielectric constant tensor:
#      x y z
#    x 1.608460 0.000000 0.000000 
#    y 0.000000 1.625730 0.000000 
#    z 0.000000 0.000000 1.610060 
# 
# From -- ./inp_files/7427.got.cif
#   From: 2010.05.17/outbox.cif.g08.bks.cpg/sg55_4_cif.got.tgz:7427.got - 2010.06.03 13:27:54.
