data_PCOD9426664
_publ_section_title
;
Structure prediction by ZEFSAII (Michael W. Deem and Ramdas Pophale) SiO2 
 PCOD9426664
Probable space group: P B A M
;
_chemical_formula_sum "Si O2"
_cell_formula_units_Z 32
_cell_length_a 13.217097
_cell_length_b 8.406761
_cell_length_c 11.267385
_cell_angle_alpha 90.000000
_cell_angle_beta 90.000000
_cell_angle_gamma 90.000000
_cell_volume 1251.952674
_symmetry_space_group_name_H-M "P B A M"
_symmetry_group_IT_number 55
_symmetry_cell_setting 'orthorhombic'
loop_
_space_group_symop_operation_xyz
x,y,z
-x,-y,z
1/2+x,1/2-y,-z
1/2-x,1/2+y,-z
-x,-y,-z
x,y,-z
1/2-x,1/2+y,z
1/2+x,1/2-y,z
loop_
_atom_site_type_symbol
_atom_site_label
_atom_site_fract_x
_atom_site_fract_y
_atom_site_fract_z
Si Si1 0.780072 0.456719 0.000000
Si Si2 0.900700 0.142126 0.000000
Si Si3 0.376860 0.989700 0.753930
Si Si4 0.907680 0.165375 0.732437
Si Si5 0.626576 0.340018 0.365406
O O1 0.660072 0.477745 0.000000
O O2 0.831383 0.530098 0.115809
O O3 0.812249 0.273652 0.000000
O O4 0.948238 0.164978 0.870075
O O5 0.349116 0.169218 0.712638
O O6 0.500000 0.000000 0.760046
O O7 0.346987 0.836331 0.678820
O O8 0.003599 0.166489 0.646213
O O9 0.850178 0.999256 0.710656
O O10 0.658777 0.365201 0.500000
#
# Coordination Sequence:
#
# PCOD9426664 Si02
#       5
#     4   4   8   8   8
#     4  10  21  36  54  83 111 143 180 220 279 337
#     4  10  22  35  54  82 109 149 177 219 279 337
#     4   9  19  34  55  82 111 139 177 230 278 320
#     4   9  19  34  51  82 113 137 177 224 273 323
#     4  10  20  33  57  84 107 143 184 222 269 317
#
# _framework density 25.56007
#
# number of rings (size 3 to 8) (size 9 to 14) (size 15 to 20)
#    0.000    2.500    0.000    1.875    3.500   10.500 
#    0.000    0.000    0.000    3.000    0.000    0.000 
#    0.000    0.000    0.000    0.000    0.000    0.000 
#
# Total GULP energy -178862.222477 kJ/mol
# GULP energy per Si atom -5589.444452 kJ/mol
# Density = 2.550189 g / cm^3
# Si number density = 25.560070 Si / 1000 Ang^3
#
#
#
# Elastic Constant Matrix: (Units=GPa)
#
#
# Indices 1 2 3 4 5 6 
#
# 1 50.9793 19.3386 -2.2520 0.0000 0.0000 0.0000
# 2 19.3386 210.5458 76.6658 0.0000 0.0000 0.0000
# 3 -2.2520 76.6658 141.9249 0.0000 0.0000 0.0000
# 4 0.0000 0.0000 0.0000 34.6270 0.0000 0.0000
# 5 0.0000 0.0000 0.0000 0.0000 81.3369 0.0000
# 6 0.0000 0.0000 0.0000 0.0000 0.0000 52.0332
#
#
#
# Elastic Compliance Matrix: (Units=1/GPa)
#
#
# Indices 1 2 3 4 5 6 
#
# 1 0.020642 -0.002509 0.001683 0.000000 0.000000 0.000000
# 2 -0.002509 0.006217 -0.003398 0.000000 0.000000 0.000000
# 3 0.001683 -0.003398 0.008908 0.000000 0.000000 0.000000
# 4 0.000000 0.000000 0.000000 0.028879 0.000000 0.000000
# 5 0.000000 0.000000 0.000000 0.000000 0.012295 0.000000
# 6 0.000000 0.000000 0.000000 0.000000 0.000000 0.019218
#
#
# Mechanical properties :
#
#
# Convention : Reuss Voigt Hill
#
# Bulk Modulus (GPa) = 36.60465 65.66165 51.13315
# Shear Modulus (GPa) = 43.96962 54.24594 49.10778
#
# Velocity S-wave (km/s) = 4.15208 4.61183 4.38798
# Velocity P-wave (km/s) = 6.11053 7.35551 6.76173
#
# Compressibility (1/GPa) = 0.02731894
#
# Stress axis : x y z
#
# Youngs Moduli (GPa) = 48.44542 160.83828 112.25324
#
# Poissons Ratio (x) = 0.40349 -0.18889
# Poissons Ratio (y) = 0.12153 0.38148
# Poissons Ratio (z) = -0.08152 0.54659
#
# Static dielectric constant tensor:
#      x y z
#    x 2.072620 0.000000 0.000000 
#    y 0.000000 2.100800 0.000000 
#    z 0.000000 0.000000 1.909270 
# 
# From -- ./inp_files/2056.got.cif
#   From: 2010.05.17/outbox.cif.g08.bks.cpg/sg55_2_cif.got.tgz:2056.got - 2010.06.03 13:27:54.
