data_PCOD9426415
_publ_section_title
;
Structure prediction by ZEFSAII (Michael W. Deem and Ramdas Pophale) SiO2 
 PCOD9426415
Probable space group: P B A M
;
_chemical_formula_sum "Si O2"
_cell_formula_units_Z 56
_cell_length_a 15.820718
_cell_length_b 8.997050
_cell_length_c 20.192070
_cell_angle_alpha 90.000000
_cell_angle_beta 90.000000
_cell_angle_gamma 90.000000
_cell_volume 2874.135021
_symmetry_space_group_name_H-M "P B A M"
_symmetry_group_IT_number 55
_symmetry_cell_setting 'orthorhombic'
loop_
_space_group_symop_operation_xyz
x,y,z
-x,-y,z
1/2+x,1/2-y,-z
1/2-x,1/2+y,-z
-x,-y,-z
x,y,-z
1/2-x,1/2+y,z
1/2+x,1/2-y,z
loop_
_atom_site_type_symbol
_atom_site_label
_atom_site_fract_x
_atom_site_fract_y
_atom_site_fract_z
Si Si1 0.253138 0.537902 0.876976
Si Si2 0.366515 0.788498 0.928320
Si Si3 0.658692 0.711836 0.792915
Si Si4 0.194500 0.428767 0.421670
Si Si5 0.024346 0.325464 0.797757
Si Si6 0.845600 0.248801 0.637663
Si Si7 0.534058 0.170866 0.648735
O O1 0.312246 0.638961 0.922181
O O2 0.195137 0.429346 0.919974
O O3 0.305098 0.434904 0.826462
O O4 0.198551 0.649878 0.832335
O O5 0.421406 0.792909 0.861985
O O6 0.410181 0.795381 0.000000
O O7 0.558888 0.726337 0.801065
O O8 0.675717 0.725325 0.714974
O O9 0.187852 0.450787 0.500000
O O10 0.285470 0.361309 0.403040
O O11 0.180009 0.585371 0.384897
O O12 0.116526 0.323951 0.397244
O O13 0.062325 0.298283 0.724620
O O14 0.000000 0.500000 0.799348
O O15 0.948430 0.237660 0.631075
O O16 0.500000 0.000000 0.647210
#
# Coordination Sequence:
#
# PCOD9426415 Si02
#       7
#     8   8   8   8   8   8   8
#     4  10  22  37  60  86 115 153 193 248 296 354
#     4  11  23  39  59  86 122 158 194 243 306 362
#     4  10  20  38  61  87 111 149 201 251 292 350
#     4  11  22  36  59  89 119 158 199 240 300 364
#     4  10  19  37  58  87 116 152 201 247 295 349
#     4  10  21  37  60  85 119 153 197 248 298 347
#     4   8  19  36  58  84 116 155 199 247 290 351
#
# _framework density 19.484123
#
# number of rings (size 3 to 8) (size 9 to 14) (size 15 to 20)
#    0.000    2.000    1.429    2.571    4.000    4.000 
#    0.000    2.857    0.000    1.714    0.000    0.000 
#    0.000    0.000    0.000    0.000    0.000    0.000 
#
# Total GULP energy -312482.507567 kJ/mol
# GULP energy per Si atom -5580.044778 kJ/mol
# Density = 1.943978 g / cm^3
# Si number density = 19.484123 Si / 1000 Ang^3
#
#
#
# Elastic Constant Matrix: (Units=GPa)
#
#
# Indices 1 2 3 4 5 6 
#
# 1 31.3312 0.0814 20.5684 0.0000 0.0000 0.0000
# 2 0.0814 47.5061 5.4628 0.0000 0.0000 0.0000
# 3 20.5684 5.4628 71.7768 0.0000 0.0000 0.0000
# 4 0.0000 0.0000 0.0000 -2.9014 0.0000 0.0000
# 5 0.0000 0.0000 0.0000 0.0000 -8.4190 0.0000
# 6 0.0000 0.0000 0.0000 0.0000 0.0000 7.9252
#
#
#
# Elastic Compliance Matrix: (Units=1/GPa)
#
#
# Indices 1 2 3 4 5 6 
#
# 1 0.039385 0.001241 -0.011381 0.000000 0.000000 0.000000
# 2 0.001241 0.021275 -0.001975 0.000000 0.000000 0.000000
# 3 -0.011381 -0.001975 0.017344 0.000000 0.000000 0.000000
# 4 0.000000 0.000000 0.000000 -0.344660 0.000000 0.000000
# 5 0.000000 0.000000 0.000000 0.000000 -0.118779 0.000000
# 6 0.000000 0.000000 0.000000 0.000000 0.000000 0.126180
#
#
# Mechanical properties :
#
#
# Convention : Reuss Voigt Hill
#
# Bulk Modulus (GPa) = 18.59603 22.53770 20.56687
# Shear Modulus (GPa) = -23.03067 7.62105 -7.70481
#
# Velocity S-wave (km/s) = -3.44179 1.97988 -1.99073
# Velocity P-wave (km/s) = 2.49592 4.10108 2.30101
#
# Compressibility (1/GPa) = 0.05377491
#
# Stress axis : x y z
#
# Youngs Moduli (GPa) = 25.39037 47.00371 57.65801
#
# Poissons Ratio (x) = -0.05834 0.65619
# Poissons Ratio (y) = -0.03152 0.11387
# Poissons Ratio (z) = 0.28896 0.09283
#
# Static dielectric constant tensor:
#      x y z
#    x 1.685460 0.000000 0.000000 
#    y 0.000000 1.678560 0.000000 
#    z 0.000000 0.000000 1.677140 
# 
# From -- ./inp_files/22958.got.cif
#   From: 2010.05.17/outbox.cif.g08.bks.cpg/sg55_12_cif.got.tgz:22958.got - 2010.06.03 13:27:54.
