data_PCOD9426160
_publ_section_title
;
Structure prediction by ZEFSAII (Michael W. Deem and Ramdas Pophale) SiO2 
 PCOD9426160
Probable space group: P B A M
;
_chemical_formula_sum "Si O2"
_cell_formula_units_Z 56
_cell_length_a 21.987937
_cell_length_b 14.745299
_cell_length_c 9.047473
_cell_angle_alpha 90.000000
_cell_angle_beta 90.000000
_cell_angle_gamma 90.000000
_cell_volume 2933.359984
_symmetry_space_group_name_H-M "P B A M"
_symmetry_group_IT_number 55
_symmetry_cell_setting 'orthorhombic'
loop_
_space_group_symop_operation_xyz
x,y,z
-x,-y,z
1/2+x,1/2-y,-z
1/2-x,1/2+y,-z
-x,-y,-z
x,y,-z
1/2-x,1/2+y,z
1/2+x,1/2-y,z
loop_
_atom_site_type_symbol
_atom_site_label
_atom_site_fract_x
_atom_site_fract_y
_atom_site_fract_z
Si Si1 0.380085 0.298484 0.822699
Si Si2 0.039116 0.650977 0.329202
Si Si3 0.644840 0.328444 0.826477
Si Si4 0.726667 0.814725 0.677079
Si Si5 0.070276 0.994799 0.820074
Si Si6 0.849258 0.487862 0.670478
Si Si7 0.584538 0.135676 0.170205
O O1 0.434230 0.232694 0.768394
O O2 0.318959 0.257970 0.750214
O O3 0.397271 0.400775 0.777683
O O4 0.375025 0.294559 0.000000
O O5 0.034425 0.679338 0.500000
O O6 0.088842 0.571293 0.322212
O O7 0.974676 0.619469 0.268557
O O8 0.705310 0.308203 0.735081
O O9 0.609078 0.417689 0.773885
O O10 0.601738 0.240988 0.818125
O O11 0.661109 0.340959 0.000000
O O12 0.722423 0.806069 0.500000
O O13 0.701938 0.915712 0.715928
O O14 0.068572 0.996369 0.000000
O O15 0.000000 0.000000 0.769805
O O16 0.839284 0.514930 0.500000
O O17 0.860098 0.574335 0.771714
O O18 0.571650 0.113432 0.000000
#
# Coordination Sequence:
#
# PCOD9426160 Si02
#       7
#     8   8   8   8   8   8   8
#     4  10  19  34  60  87 110 143 186 229 274 327
#     4  10  20  35  55  81 115 149 178 216 270 328
#     4  10  22  39  57  80 111 145 186 233 277 328
#     4  10  22  40  58  79 110 147 185 226 279 335
#     4   9  18  35  59  85 114 147 183 230 286 335
#     4   9  20  37  55  77 108 145 180 218 270 330
#     4  11  22  34  54  83 110 141 182 226 272 321
#
# _framework density 19.090734999999999
#
# number of rings (size 3 to 8) (size 9 to 14) (size 15 to 20)
#    0.000    2.143    0.000    3.857    0.000    9.714 
#    0.000    5.714    0.000    3.000    0.000    0.000 
#    0.000    0.000    0.000    0.000    0.000    0.000 
#
# Total GULP energy -312676.179713 kJ/mol
# GULP energy per Si atom -5583.503209 kJ/mol
# Density = 1.904728 g / cm^3
# Si number density = 19.090735 Si / 1000 Ang^3
#
#
#
# Elastic Constant Matrix: (Units=GPa)
#
#
# Indices 1 2 3 4 5 6 
#
# 1 57.9329 -5.5436 11.7004 0.0000 0.0000 0.0000
# 2 -5.5436 74.7465 22.3875 0.0000 0.0000 0.0000
# 3 11.7004 22.3875 47.9660 0.0000 0.0000 0.0000
# 4 0.0000 0.0000 0.0000 -39.3407 0.0000 0.0000
# 5 0.0000 0.0000 0.0000 0.0000 -1.3807 0.0000
# 6 0.0000 0.0000 0.0000 0.0000 0.0000 11.5506
#
#
#
# Elastic Compliance Matrix: (Units=1/GPa)
#
#
# Indices 1 2 3 4 5 6 
#
# 1 0.018799 0.003217 -0.006087 0.000000 0.000000 0.000000
# 2 0.003217 0.016103 -0.008301 0.000000 0.000000 0.000000
# 3 -0.006087 -0.008301 0.026207 0.000000 0.000000 0.000000
# 4 0.000000 0.000000 0.000000 -0.025419 0.000000 0.000000
# 5 0.000000 0.000000 0.000000 0.000000 -0.724262 0.000000
# 6 0.000000 0.000000 0.000000 0.000000 0.000000 0.086575
#
#
# Mechanical properties :
#
#
# Convention : Reuss Voigt Hill
#
# Bulk Modulus (GPa) = 25.79455 26.41490 26.10472
# Shear Modulus (GPa) = -8.82250 4.30592 -2.25829
#
# Velocity S-wave (km/s) = -2.15207 1.50346 -1.08880
# Velocity P-wave (km/s) = 2.71398 4.10858 3.48182
#
# Compressibility (1/GPa) = 0.03876788
#
# Stress axis : x y z
#
# Youngs Moduli (GPa) = 53.19537 62.09865 38.15724
#
# Poissons Ratio (x) = -0.19980 0.23227
# Poissons Ratio (y) = -0.17115 0.31674
# Poissons Ratio (z) = 0.32381 0.51548
#
# Static dielectric constant tensor:
#      x y z
#    x 1.648950 0.000000 0.000000 
#    y 0.000000 1.666920 0.000000 
#    z 0.000000 0.000000 1.646720 
# 
# From -- ./inp_files/8712.got.cif
#   From: 2010.05.17/outbox.cif.g08.bks.cpg/sg55_5_cif.got.tgz:8712.got - 2010.06.03 13:27:54.
