data_PCOD9426455
_publ_section_title
;
Structure prediction by ZEFSAII (Michael W. Deem and Ramdas Pophale) SiO2 
 PCOD9426455
Probable space group: P B A M
;
_chemical_formula_sum "Si O2"
_cell_formula_units_Z 48
_cell_length_a 16.812054
_cell_length_b 9.751923
_cell_length_c 13.886965
_cell_angle_alpha 90.000000
_cell_angle_beta 90.000000
_cell_angle_gamma 90.000000
_cell_volume 2276.765913
_symmetry_space_group_name_H-M "P B A M"
_symmetry_group_IT_number 55
_symmetry_cell_setting 'orthorhombic'
loop_
_space_group_symop_operation_xyz
x,y,z
-x,-y,z
1/2+x,1/2-y,-z
1/2-x,1/2+y,-z
-x,-y,-z
x,y,-z
1/2-x,1/2+y,z
1/2+x,1/2-y,z
loop_
_atom_site_type_symbol
_atom_site_label
_atom_site_fract_x
_atom_site_fract_y
_atom_site_fract_z
Si Si1 0.736206 0.933103 0.614134
Si Si2 0.492304 0.653341 0.611853
Si Si3 0.688150 0.738265 0.107707
Si Si4 0.340998 0.329639 0.687117
Si Si5 0.920320 0.583588 0.690818
Si Si6 0.654879 0.056637 0.107215
O O1 0.746973 0.920602 0.500000
O O2 0.806859 0.023022 0.658934
O O3 0.655402 0.016496 0.638658
O O4 0.724984 0.784720 0.661838
O O5 0.500000 0.500000 0.652836
O O6 0.470092 0.643738 0.500000
O O7 0.582273 0.706917 0.624366
O O8 0.434251 0.759554 0.661926
O O9 0.639862 0.684844 0.199929
O O10 0.773981 0.666147 0.116477
O O11 0.691185 0.903074 0.114609
O O12 0.657549 0.704915 0.000000
O O13 0.904523 0.573222 0.804698
O O14 0.000000 0.500000 0.665385
O O15 0.619741 0.070145 0.000000
#
# Coordination Sequence:
#
# PCOD9426455 Si02
#       6
#     8   8   8   8   8   8
#     4  12  25  39  63  93 127 166 212 263 313 375
#     4  11  26  44  63  88 127 172 213 261 320 379
#     4  10  19  37  63  93 125 161 206 263 319 372
#     4  12  23  43  63  94 126 161 215 264 314 376
#     4  12  23  41  64  91 128 170 209 259 318 382
#     4  10  21  38  63  95 127 164 210 261 319 379
#
# _framework density 21.082536999999999
#
# number of rings (size 3 to 8) (size 9 to 14) (size 15 to 20)
#    0.000    0.833    5.000    2.000    2.333    2.333 
#    0.000    0.833    0.000    1.000    0.000    0.000 
#    0.000    0.000    0.000    0.000    0.000    0.000 
#
# Total GULP energy -268394.579144 kJ/mol
# GULP energy per Si atom -5591.553732 kJ/mol
# Density = 2.103455 g / cm^3
# Si number density = 21.082537 Si / 1000 Ang^3
#
#
#
# Elastic Constant Matrix: (Units=GPa)
#
#
# Indices 1 2 3 4 5 6 
#
# 1 26.7644 -4.4185 -8.8863 0.0000 0.0000 0.0000
# 2 -4.4185 84.1622 26.5382 0.0000 0.0000 0.0000
# 3 -8.8863 26.5382 114.6813 0.0000 0.0000 0.0000
# 4 0.0000 0.0000 0.0000 29.2630 0.0000 0.0000
# 5 0.0000 0.0000 0.0000 0.0000 28.4296 0.0000
# 6 0.0000 0.0000 0.0000 0.0000 0.0000 33.0443
#
#
#
# Elastic Compliance Matrix: (Units=1/GPa)
#
#
# Indices 1 2 3 4 5 6 
#
# 1 0.038455 0.001164 0.002710 0.000000 0.000000 0.000000
# 2 0.001164 0.012852 -0.002884 0.000000 0.000000 0.000000
# 3 0.002710 -0.002884 0.009597 0.000000 0.000000 0.000000
# 4 0.000000 0.000000 0.000000 0.034173 0.000000 0.000000
# 5 0.000000 0.000000 0.000000 0.000000 0.035175 0.000000
# 6 0.000000 0.000000 0.000000 0.000000 0.000000 0.030262
#
#
# Mechanical properties :
#
#
# Convention : Reuss Voigt Hill
#
# Bulk Modulus (GPa) = 15.90176 28.00829 21.95502
# Shear Modulus (GPa) = 27.85589 32.30568 30.08078
#
# Velocity S-wave (km/s) = 3.63888 3.91876 3.78141
# Velocity P-wave (km/s) = 5.02138 5.81287 5.43156
#
# Compressibility (1/GPa) = 0.06288614
#
# Stress axis : x y z
#
# Youngs Moduli (GPa) = 26.00427 77.80707 104.19718
#
# Poissons Ratio (x) = -0.09059 -0.28241
# Poissons Ratio (y) = -0.03028 0.30050
# Poissons Ratio (z) = -0.07048 0.22439
#
# Static dielectric constant tensor:
#      x y z
#    x 1.758290 0.000000 0.000000 
#    y 0.000000 1.773370 0.000000 
#    z 0.000000 0.000000 1.761520 
# 
# From -- ./inp_files/17352.got.cif
#   From: 2010.05.17/outbox.cif.g08.bks.cpg/sg55_9_cif.got.tgz:17352.got - 2010.06.03 13:27:54.
