data_PCOD9426727
_publ_section_title
;
Structure prediction by ZEFSAII (Michael W. Deem and Ramdas Pophale) SiO2 
 PCOD9426727
Probable space group: P B A M
;
_chemical_formula_sum "Si O2"
_cell_formula_units_Z 40
_cell_length_a 8.807846
_cell_length_b 11.097158
_cell_length_c 20.729226
_cell_angle_alpha 90.000000
_cell_angle_beta 90.000000
_cell_angle_gamma 90.000000
_cell_volume 2026.117225
_symmetry_space_group_name_H-M "P B A M"
_symmetry_group_IT_number 55
_symmetry_cell_setting 'orthorhombic'
loop_
_space_group_symop_operation_xyz
x,y,z
-x,-y,z
1/2+x,1/2-y,-z
1/2-x,1/2+y,-z
-x,-y,-z
x,y,-z
1/2-x,1/2+y,z
1/2+x,1/2-y,z
loop_
_atom_site_type_symbol
_atom_site_label
_atom_site_fract_x
_atom_site_fract_y
_atom_site_fract_z
Si Si1 0.432091 0.870437 0.923658
Si Si2 0.420380 0.376091 0.723988
Si Si3 0.091065 0.875065 0.124358
Si Si4 0.332798 0.747098 0.349241
Si Si5 0.418744 0.127856 0.426377
O O1 0.501328 0.748437 0.892506
O O2 0.252007 0.873646 0.911471
O O3 0.500000 0.000000 0.900411
O O4 0.464054 0.862657 0.000000
O O5 0.500000 0.500000 0.706728
O O6 0.377983 0.375725 0.798792
O O7 0.280383 0.348356 0.677498
O O8 0.555762 0.282785 0.709699
O O9 0.000000 0.000000 0.109500
O O10 0.447388 0.781369 0.406133
O O11 0.219672 0.646033 0.377064
O O12 0.368982 0.147158 0.500000
O O13 0.500000 0.000000 0.420918
#
# Coordination Sequence:
#
# PCOD9426727 Si02
#       5
#     8   8   8   8   8
#     4  11  24  41  62  89 120 155 195 240 292 348
#     4  10  21  37  56  81 110 143 184 228 277 331
#     4  11  23  40  62  88 119 155 197 243 292 348
#     4  10  20  35  55  78 108 143 180 225 275 328
#     4  10  20  34  53  78 107 141 181 224 272 326
#
# _framework density 19.742193
#
# number of rings (size 3 to 8) (size 9 to 14) (size 15 to 20)
#    0.000    1.600    0.000    4.800    0.000    4.800 
#    0.000    5.000    0.000    9.600    0.000    0.000 
#    0.000    0.000    0.000    0.000    0.000    0.000 
#
# Total GULP energy -223065.358539 kJ/mol
# GULP energy per Si atom -5576.633963 kJ/mol
# Density = 1.969726 g / cm^3
# Si number density = 19.742193 Si / 1000 Ang^3
#
#
#
# Elastic Constant Matrix: (Units=GPa)
#
#
# Indices 1 2 3 4 5 6 
#
# 1 72.8459 21.9371 -5.3077 0.0000 0.0000 0.0000
# 2 21.9371 90.3124 0.8317 0.0000 0.0000 0.0000
# 3 -5.3077 0.8317 20.3863 0.0000 0.0000 0.0000
# 4 0.0000 0.0000 0.0000 26.3322 0.0000 0.0000
# 5 0.0000 0.0000 0.0000 0.0000 32.5245 0.0000
# 6 0.0000 0.0000 0.0000 0.0000 0.0000 29.7200
#
#
#
# Elastic Compliance Matrix: (Units=1/GPa)
#
#
# Indices 1 2 3 4 5 6 
#
# 1 0.015145 -0.003717 0.004095 0.000000 0.000000 0.000000
# 2 -0.003717 0.011989 -0.001457 0.000000 0.000000 0.000000
# 3 0.004095 -0.001457 0.050178 0.000000 0.000000 0.000000
# 4 0.000000 0.000000 0.000000 0.037976 0.000000 0.000000
# 5 0.000000 0.000000 0.000000 0.000000 0.030746 0.000000
# 6 0.000000 0.000000 0.000000 0.000000 0.000000 0.033647
#
#
# Mechanical properties :
#
#
# Convention : Reuss Voigt Hill
#
# Bulk Modulus (GPa) = 13.30581 24.27408 18.78995
# Shear Modulus (GPa) = 24.16739 28.78759 26.47749
#
# Velocity S-wave (km/s) = 3.50258 3.82275 3.66616
# Velocity P-wave (km/s) = 4.80748 5.63975 5.24016
#
# Compressibility (1/GPa) = 0.07515513
#
# Stress axis : x y z
#
# Youngs Moduli (GPa) = 66.02767 83.41089 19.92905
#
# Poissons Ratio (x) = 0.31000 -0.08161
# Poissons Ratio (y) = 0.24539 0.02903
# Poissons Ratio (z) = -0.27037 0.12151
#
# Static dielectric constant tensor:
#      x y z
#    x 1.658570 0.000000 0.000000 
#    y 0.000000 1.737660 0.000000 
#    z 0.000000 0.000000 1.666500 
# 
# From -- ./inp_files/20603.got.cif
#   From: 2010.05.17/outbox.cif.g08.bks.cpg/sg55_11_cif.got.tgz:20603.got - 2010.06.03 13:27:54.
