data_PCOD9426928
_publ_section_title
;
Structure prediction by ZEFSAII (Michael W. Deem and Ramdas Pophale) SiO2 
 PCOD9426928
Probable space group: P B A M
;
_chemical_formula_sum "Si O2"
_cell_formula_units_Z 56
_cell_length_a 14.742070
_cell_length_b 22.249560
_cell_length_c 8.329277
_cell_angle_alpha 90.000000
_cell_angle_beta 90.000000
_cell_angle_gamma 90.000000
_cell_volume 2732.040929
_symmetry_space_group_name_H-M "P B A M"
_symmetry_group_IT_number 55
_symmetry_cell_setting 'orthorhombic'
loop_
_space_group_symop_operation_xyz
x,y,z
-x,-y,z
1/2+x,1/2-y,-z
1/2-x,1/2+y,-z
-x,-y,-z
x,y,-z
1/2-x,1/2+y,z
1/2+x,1/2-y,z
loop_
_atom_site_type_symbol
_atom_site_label
_atom_site_fract_x
_atom_site_fract_y
_atom_site_fract_z
Si Si1 0.824540 0.273041 0.304697
Si Si2 0.483566 0.568594 0.189967
Si Si3 0.506854 0.849911 0.313559
Si Si4 0.874797 0.455073 0.812218
Si Si5 0.207269 0.113943 0.691527
Si Si6 0.657600 0.637362 0.688281
Si Si7 0.161142 0.410270 0.812611
O O1 0.824041 0.273043 0.500000
O O2 0.745773 0.320210 0.257825
O O3 0.818697 0.204495 0.251176
O O4 0.921865 0.300229 0.253636
O O5 0.500000 0.500000 0.248461
O O6 0.396437 0.599745 0.269866
O O7 0.573429 0.607029 0.223663
O O8 0.466123 0.565555 0.000000
O O9 0.486917 0.838654 0.500000
O O10 0.563649 0.911437 0.293064
O O11 0.413206 0.859415 0.222312
O O12 0.771899 0.433705 0.781032
O O13 0.882017 0.525014 0.773681
O O14 0.898747 0.446219 0.000000
O O15 0.221898 0.108492 0.500000
O O16 0.634646 0.641020 0.500000
O O17 0.748381 0.599260 0.712548
O O18 0.185142 0.411213 0.000000
#
# Coordination Sequence:
#
# PCOD9426928 Si02
#       7
#     8   8   8   8   8   8   8
#     4   8  19  39  59  83 113 144 182 235 289 329
#     4  11  24  41  59  84 120 155 189 238 297 343
#     4  10  20  36  59  84 111 146 188 227 268 328
#     4  10  20  35  55  82 118 151 178 221 280 331
#     4  10  20  37  62  87 112 147 192 234 277 338
#     4  11  23  40  61  82 109 147 192 237 280 335
#     4  11  23  37  53  80 117 149 179 223 281 332
#
# _framework density 20.497498
#
# number of rings (size 3 to 8) (size 9 to 14) (size 15 to 20)
#    0.000    1.857    0.000    4.714    0.000    9.714 
#    0.000   14.286    0.000    0.000    0.000    0.000 
#    0.000    0.000    0.000    0.000    0.000    0.000 
#
# Total GULP energy -312822.224106 kJ/mol
# GULP energy per Si atom -5586.111145 kJ/mol
# Density = 2.045084 g / cm^3
# Si number density = 20.497498 Si / 1000 Ang^3
#
#
#
# Elastic Constant Matrix: (Units=GPa)
#
#
# Indices 1 2 3 4 5 6 
#
# 1 71.7831 -4.7794 -8.9491 0.0000 0.0000 0.0000
# 2 -4.7794 63.7952 8.9530 0.0000 0.0000 0.0000
# 3 -8.9491 8.9530 18.0574 0.0000 0.0000 0.0000
# 4 0.0000 0.0000 0.0000 29.7230 0.0000 0.0000
# 5 0.0000 0.0000 0.0000 0.0000 29.9698 0.0000
# 6 0.0000 0.0000 0.0000 0.0000 0.0000 10.6358
#
#
#
# Elastic Compliance Matrix: (Units=1/GPa)
#
#
# Indices 1 2 3 4 5 6 
#
# 1 0.014849 0.000086 0.007316 0.000000 0.000000 0.000000
# 2 0.000086 0.016848 -0.008311 0.000000 0.000000 0.000000
# 3 0.007316 -0.008311 0.063126 0.000000 0.000000 0.000000
# 4 0.000000 0.000000 0.000000 0.033644 0.000000 0.000000
# 5 0.000000 0.000000 0.000000 0.000000 0.033367 0.000000
# 6 0.000000 0.000000 0.000000 0.000000 0.000000 0.094022
#
#
# Mechanical properties :
#
#
# Convention : Reuss Voigt Hill
#
# Bulk Modulus (GPa) = 10.75216 16.00942 13.38079
# Shear Modulus (GPa) = 17.32058 24.62648 20.97353
#
# Velocity S-wave (km/s) = 2.91006 3.46994 3.20226
# Velocity P-wave (km/s) = 4.06795 4.88685 4.49609
#
# Compressibility (1/GPa) = 0.09300456
#
# Stress axis : x y z
#
# Youngs Moduli (GPa) = 67.34602 59.35449 15.84144
#
# Poissons Ratio (x) = -0.00508 -0.11590
# Poissons Ratio (y) = -0.00577 0.13166
# Poissons Ratio (z) = -0.49274 0.49329
#
# Static dielectric constant tensor:
#      x y z
#    x 1.719470 0.000000 0.000000 
#    y 0.000000 1.746830 0.000000 
#    z 0.000000 0.000000 1.696920 
# 
# From -- ./inp_files/6126.got.cif
#   From: 2010.05.17/outbox.cif.g08.bks.cpg/sg55_4_cif.got.tgz:6126.got - 2010.06.03 13:27:54.
