data_PCOD9426265
_publ_section_title
;
Structure prediction by ZEFSAII (Michael W. Deem and Ramdas Pophale) SiO2 
 PCOD9426265
Probable space group: P B A M
;
_chemical_formula_sum "Si O2"
_cell_formula_units_Z 48
_cell_length_a 9.502151
_cell_length_b 13.893518
_cell_length_c 16.820313
_cell_angle_alpha 90.000000
_cell_angle_beta 90.000000
_cell_angle_gamma 90.000000
_cell_volume 2220.589228
_symmetry_space_group_name_H-M "P B A M"
_symmetry_group_IT_number 55
_symmetry_cell_setting 'orthorhombic'
loop_
_space_group_symop_operation_xyz
x,y,z
-x,-y,z
1/2+x,1/2-y,-z
1/2-x,1/2+y,-z
-x,-y,-z
x,y,-z
1/2-x,1/2+y,z
1/2+x,1/2-y,z
loop_
_atom_site_type_symbol
_atom_site_label
_atom_site_fract_x
_atom_site_fract_y
_atom_site_fract_z
Si Si1 0.946615 0.890547 0.588055
Si Si2 0.277165 0.628740 0.090195
Si Si3 0.237393 0.573138 0.731820
Si Si4 0.787916 0.636258 0.763930
Si Si5 0.960065 0.247345 0.706714
Si Si6 0.052872 0.325948 0.086232
O O1 0.893337 0.864121 0.500000
O O2 0.845071 0.900210 0.662990
O O3 0.048384 0.805427 0.621153
O O4 0.000000 0.000000 0.581495
O O5 0.293299 0.577094 0.176270
O O6 0.386099 0.717883 0.090698
O O7 0.115210 0.667374 0.094617
O O8 0.291268 0.584429 0.000000
O O9 0.198301 0.462336 0.716907
O O10 0.113906 0.649737 0.719294
O O11 0.627721 0.674054 0.762994
O O12 0.860158 0.617291 0.848295
O O13 0.880995 0.723452 0.728893
O O14 0.087789 0.366083 0.000000
#
# Coordination Sequence:
#
# PCOD9426265 Si02
#       6
#     8   8   8   8   8   8
#     4  11  25  47  74 104 135 177 227 282 352 422
#     4  10  21  37  62  95 138 183 231 280 335 402
#     4  12  24  41  70 101 138 178 235 278 347 408
#     4  12  23  40  67  99 131 183 228 280 338 415
#     4  12  23  43  67  97 135 176 223 278 345 399
#     4  10  19  35  59  92 132 180 231 283 334 396
#
# _framework density 21.615883
#
# number of rings (size 3 to 8) (size 9 to 14) (size 15 to 20)
#    0.000    0.833    6.667    0.500    0.000    1.333 
#    0.000    2.500    0.000    2.500    0.000    0.000 
#    0.000    0.000    0.000    0.000    0.000    0.000 
#
# Total GULP energy -267361.887640 kJ/mol
# GULP energy per Si atom -5570.039326 kJ/mol
# Density = 2.156668 g / cm^3
# Si number density = 21.615883 Si / 1000 Ang^3
#
#
#
# Elastic Constant Matrix: (Units=GPa)
#
#
# Indices 1 2 3 4 5 6 
#
# 1 54.3997 14.5248 32.1637 0.0000 0.0000 0.0000
# 2 14.5248 84.2055 39.3699 0.0000 0.0000 0.0000
# 3 32.1637 39.3699 162.8248 0.0000 0.0000 0.0000
# 4 0.0000 0.0000 0.0000 3.0873 0.0000 0.0000
# 5 0.0000 0.0000 0.0000 0.0000 -91.7083 0.0000
# 6 0.0000 0.0000 0.0000 0.0000 0.0000 17.2088
#
#
#
# Elastic Compliance Matrix: (Units=1/GPa)
#
#
# Indices 1 2 3 4 5 6 
#
# 1 0.021081 -0.001905 -0.003704 0.000000 0.000000 0.000000
# 2 -0.001905 0.013561 -0.002903 0.000000 0.000000 0.000000
# 3 -0.003704 -0.002903 0.007575 0.000000 0.000000 0.000000
# 4 0.000000 0.000000 0.000000 0.323904 0.000000 0.000000
# 5 0.000000 0.000000 0.000000 0.000000 -0.010904 0.000000
# 6 0.000000 0.000000 0.000000 0.000000 0.000000 0.058110
#
#
# Mechanical properties :
#
#
# Convention : Reuss Voigt Hill
#
# Bulk Modulus (GPa) = 39.69039 52.61632 46.15336
# Shear Modulus (GPa) = 11.39607 0.07568 5.73588
#
# Velocity S-wave (km/s) = 2.29859 0.18732 1.63074
# Velocity P-wave (km/s) = 5.04443 4.94380 4.99437
#
# Compressibility (1/GPa) = 0.02519501
#
# Stress axis : x y z
#
# Youngs Moduli (GPa) = 47.43654 73.73843 132.01213
#
# Poissons Ratio (x) = 0.14045 0.48893
# Poissons Ratio (y) = 0.09035 0.38321
# Poissons Ratio (z) = 0.17569 0.21405
#
# Static dielectric constant tensor:
#      x y z
#    x 1.867300 0.000000 0.000000 
#    y 0.000000 1.812330 0.000000 
#    z 0.000000 0.000000 1.884550 
# 
# From -- ./inp_files/20784.got.cif
#   From: 2010.05.17/outbox.cif.g08.bks.cpg/sg55_11_cif.got.tgz:20784.got - 2010.06.03 13:27:54.
