data_PCOD9426800
_publ_section_title
;
Structure prediction by ZEFSAII (Michael W. Deem and Ramdas Pophale) SiO2 
 PCOD9426800
Probable space group: P B A M
;
_chemical_formula_sum "Si O2"
_cell_formula_units_Z 56
_cell_length_a 16.795895
_cell_length_b 20.496938
_cell_length_c 7.538109
_cell_angle_alpha 90.000000
_cell_angle_beta 90.000000
_cell_angle_gamma 90.000000
_cell_volume 2595.102711
_symmetry_space_group_name_H-M "P B A M"
_symmetry_group_IT_number 55
_symmetry_cell_setting 'orthorhombic'
loop_
_space_group_symop_operation_xyz
x,y,z
-x,-y,z
1/2+x,1/2-y,-z
1/2-x,1/2+y,-z
-x,-y,-z
x,y,-z
1/2-x,1/2+y,z
1/2+x,1/2-y,z
loop_
_atom_site_type_symbol
_atom_site_label
_atom_site_fract_x
_atom_site_fract_y
_atom_site_fract_z
Si Si1 0.330872 0.397518 0.282231
Si Si2 0.826557 0.841353 0.794826
Si Si3 0.990241 0.170340 0.714861
Si Si4 0.069527 0.549352 0.282675
Si Si5 0.187103 0.307404 0.706398
Si Si6 0.244780 0.525052 0.706098
Si Si7 0.007771 0.317380 0.716842
O O1 0.334744 0.396058 0.500000
O O2 0.417818 0.374374 0.222954
O O3 0.262429 0.346762 0.222682
O O4 0.302728 0.468998 0.222255
O O5 0.804219 0.770708 0.717067
O O6 0.782711 0.903502 0.715137
O O7 0.921635 0.849348 0.774616
O O8 0.805664 0.839008 0.000000
O O9 0.992173 0.169253 0.500000
O O10 0.977892 0.245790 0.769597
O O11 0.071454 0.549761 0.500000
O O12 0.155987 0.527516 0.217340
O O13 0.045850 0.622261 0.226476
O O14 0.000000 0.500000 0.230060
O O15 0.183063 0.325898 0.500000
O O16 0.099442 0.324073 0.780025
O O17 0.234265 0.507504 0.500000
O O18 0.009466 0.317776 0.500000
#
# Coordination Sequence:
#
# PCOD9426800 Si02
#       7
#     8   8   8   8   8   8   8
#     4   9  18  32  56  86 108 133 178 232 279 327
#     4  11  23  38  53  75 109 147 189 226 267 323
#     4   9  18  34  55  77 102 134 180 231 278 321
#     4   9  16  26  47  80 114 139 166 210 266 327
#     4   9  17  33  58  82 108 138 176 226 277 323
#     4  10  20  34  55  83 112 143 179 223 277 327
#     4   8  14  25  45  74 103 133 167 207 258 318
#
# _framework density 21.579105999999999
#
# number of rings (size 3 to 8) (size 9 to 14) (size 15 to 20)
#    0.000    2.714    0.000    3.000    2.000    4.000 
#    0.000    5.000    0.000    0.429    0.000    0.000 
#    0.000    0.000    0.000    0.000    0.000    0.000 
#
# Total GULP energy -312633.313570 kJ/mol
# GULP energy per Si atom -5582.737742 kJ/mol
# Density = 2.152999 g / cm^3
# Si number density = 21.579106 Si / 1000 Ang^3
#
#
#
# Elastic Constant Matrix: (Units=GPa)
#
#
# Indices 1 2 3 4 5 6 
#
# 1 27.9673 9.1588 -4.7196 0.0000 0.0000 0.0000
# 2 9.1588 46.8100 -10.0951 0.0000 0.0000 0.0000
# 3 -4.7196 -10.0951 49.3653 0.0000 0.0000 0.0000
# 4 0.0000 0.0000 0.0000 -116.3398 0.0000 0.0000
# 5 0.0000 0.0000 0.0000 0.0000 -46.7259 0.0000
# 6 0.0000 0.0000 0.0000 0.0000 0.0000 30.0479
#
#
#
# Elastic Compliance Matrix: (Units=1/GPa)
#
#
# Indices 1 2 3 4 5 6 
#
# 1 0.038438 -0.007039 0.002236 0.000000 0.000000 0.000000
# 2 -0.007039 0.023637 0.004161 0.000000 0.000000 0.000000
# 3 0.002236 0.004161 0.021322 0.000000 0.000000 0.000000
# 4 0.000000 0.000000 0.000000 -0.008596 0.000000 0.000000
# 5 0.000000 0.000000 0.000000 0.000000 -0.021401 0.000000
# 6 0.000000 0.000000 0.000000 0.000000 0.000000 0.033280
#
#
# Mechanical properties :
#
#
# Convention : Reuss Voigt Hill
#
# Bulk Modulus (GPa) = 12.17832 12.53673 12.35753
# Shear Modulus (GPa) = 43.35140 -17.95034 12.70053
#
# Velocity S-wave (km/s) = 4.48700 -2.88729 2.42865
# Velocity P-wave (km/s) = 5.70088 2.30065 3.68829
#
# Compressibility (1/GPa) = 0.08211316
#
# Stress axis : x y z
#
# Youngs Moduli (GPa) = 26.01565 42.30569 46.90040
#
# Poissons Ratio (x) = 0.29778 -0.10485
# Poissons Ratio (y) = 0.18312 -0.19515
# Poissons Ratio (z) = -0.05816 -0.17603
#
# Static dielectric constant tensor:
#      x y z
#    x 1.757930 0.000000 0.000000 
#    y 0.000000 1.766670 0.000000 
#    z 0.000000 0.000000 1.861430 
# 
# From -- ./inp_files/6131.got.cif
#   From: 2010.05.17/outbox.cif.g08.bks.cpg/sg55_4_cif.got.tgz:6131.got - 2010.06.03 13:27:54.
