data_PCOD9426189
_publ_section_title
;
Structure prediction by ZEFSAII (Michael W. Deem and Ramdas Pophale) SiO2 
 PCOD9426189
Probable space group: P B A M
;
_chemical_formula_sum "Si O2"
_cell_formula_units_Z 44
_cell_length_a 5.088536
_cell_length_b 27.551017
_cell_length_c 15.978195
_cell_angle_alpha 90.000000
_cell_angle_beta 90.000000
_cell_angle_gamma 90.000000
_cell_volume 2240.052532
_symmetry_space_group_name_H-M "P B A M"
_symmetry_group_IT_number 55
_symmetry_cell_setting 'orthorhombic'
loop_
_space_group_symop_operation_xyz
x,y,z
-x,-y,z
1/2+x,1/2-y,-z
1/2-x,1/2+y,-z
-x,-y,-z
x,y,-z
1/2-x,1/2+y,z
1/2+x,1/2-y,z
loop_
_atom_site_type_symbol
_atom_site_label
_atom_site_fract_x
_atom_site_fract_y
_atom_site_fract_z
Si Si1 0.363899 0.053374 0.402675
Si Si2 0.000000 0.000000 0.296119
Si Si3 0.366577 0.422713 0.177497
Si Si4 0.609900 0.879191 0.252236
Si Si5 0.654114 0.282506 0.000000
Si Si6 0.203995 0.216099 0.815062
Si Si7 0.253551 0.465014 0.000000
O O1 0.362697 0.065389 0.500000
O O2 0.084238 0.041538 0.361026
O O3 0.451501 0.096479 0.341974
O O4 0.500000 0.000000 0.393449
O O5 0.808318 0.028310 0.232073
O O6 0.669889 0.410743 0.200695
O O7 0.170364 0.380801 0.206803
O O8 0.290849 0.433433 0.082949
O O9 0.731808 0.825920 0.250389
O O10 0.710679 0.306532 0.910085
O O11 0.354579 0.263543 0.000000
O O12 0.427454 0.257034 0.807881
O O13 0.500000 0.500000 0.000000
O O14 0.000000 0.500000 0.000000
#
# Coordination Sequence:
#
# PCOD9426189 Si02
#       7
#     8   4   8   8   4   8   4
#     4  10  20  35  58  85 115 151 190 242 294 347
#     4  10  19  35  56  76 118 150 198 229 287 336
#     4  11  23  36  55  81 116 158 199 240 278 330
#     4  11  23  39  59  87 116 150 198 247 293 355
#     4   8  16  30  52  80 101 134 180 232 278 330
#     4  10  20  37  60  82 112 148 188 240 300 346
#     4  12  24  36  54  78 118 170 212 227 270 344
#
# _framework density 19.642396999999999
#
# number of rings (size 3 to 8) (size 9 to 14) (size 15 to 20)
#    0.000    1.636    2.727    2.455    2.545    1.455 
#    0.000    1.818    0.000    1.091    0.000    0.000 
#    0.000    0.000    0.000    0.000    0.000    0.000 
#
# Total GULP energy -245018.596598 kJ/mol
# GULP energy per Si atom -5568.604468 kJ/mol
# Density = 1.959769 g / cm^3
# Si number density = 19.642397 Si / 1000 Ang^3
#
#
#
# Elastic Constant Matrix: (Units=GPa)
#
#
# Indices 1 2 3 4 5 6 
#
# 1 63.1491 -10.5434 3.3315 0.0000 0.0000 0.0000
# 2 -10.5434 48.8434 31.6363 0.0000 0.0000 0.0000
# 3 3.3315 31.6363 146.3218 0.0000 0.0000 0.0000
# 4 0.0000 0.0000 0.0000 20.4771 0.0000 0.0000
# 5 0.0000 0.0000 0.0000 0.0000 13.9068 0.0000
# 6 0.0000 0.0000 0.0000 0.0000 0.0000 22.9761
#
#
#
# Elastic Compliance Matrix: (Units=1/GPa)
#
#
# Indices 1 2 3 4 5 6 
#
# 1 0.016652 0.004465 -0.001345 0.000000 0.000000 0.000000
# 2 0.004465 0.025005 -0.005508 0.000000 0.000000 0.000000
# 3 -0.001345 -0.005508 0.008056 0.000000 0.000000 0.000000
# 4 0.000000 0.000000 0.000000 0.048835 0.000000 0.000000
# 5 0.000000 0.000000 0.000000 0.000000 0.071907 0.000000
# 6 0.000000 0.000000 0.000000 0.000000 0.000000 0.043523
#
#
# Mechanical properties :
#
#
# Convention : Reuss Voigt Hill
#
# Bulk Modulus (GPa) = 22.25266 34.12924 28.19095
# Shear Modulus (GPa) = 21.39197 27.06467 24.22832
#
# Velocity S-wave (km/s) = 3.30369 3.71599 3.51589
# Velocity P-wave (km/s) = 5.08979 5.98536 5.55565
#
# Compressibility (1/GPa) = 0.04493845
#
# Stress axis : x y z
#
# Youngs Moduli (GPa) = 60.05280 39.99183 124.13481
#
# Poissons Ratio (x) = -0.17858 0.16691
# Poissons Ratio (y) = -0.26816 0.68374
# Poissons Ratio (z) = 0.08075 0.22028
#
# Static dielectric constant tensor:
#      x y z
#    x 1.768090 0.000000 0.000000 
#    y 0.000000 1.739350 0.000000 
#    z 0.000000 0.000000 1.677240 
# 
# From -- ./inp_files/16637.got.cif
#   From: 2010.05.17/outbox.cif.g08.bks.cpg/sg55_9_cif.got.tgz:16637.got - 2010.06.03 13:27:54.
