data_PCOD9426334
_publ_section_title
;
Structure prediction by ZEFSAII (Michael W. Deem and Ramdas Pophale) SiO2 
 PCOD9426334
Probable space group: P B A M
;
_chemical_formula_sum "Si O2"
_cell_formula_units_Z 44
_cell_length_a 5.058489
_cell_length_b 16.149288
_cell_length_c 28.053927
_cell_angle_alpha 90.000000
_cell_angle_beta 90.000000
_cell_angle_gamma 90.000000
_cell_volume 2291.753230
_symmetry_space_group_name_H-M "P B A M"
_symmetry_group_IT_number 55
_symmetry_cell_setting 'orthorhombic'
loop_
_space_group_symop_operation_xyz
x,y,z
-x,-y,z
1/2+x,1/2-y,-z
1/2-x,1/2+y,-z
-x,-y,-z
x,y,-z
1/2-x,1/2+y,z
1/2+x,1/2-y,z
loop_
_atom_site_type_symbol
_atom_site_label
_atom_site_fract_x
_atom_site_fract_y
_atom_site_fract_z
Si Si1 0.385209 0.191001 0.104346
Si Si2 0.217787 0.695665 0.000000
Si Si3 0.608960 0.306441 0.739511
Si Si4 0.898710 0.802341 0.372002
Si Si5 0.748928 0.442922 0.815829
Si Si6 0.244589 0.557915 0.553903
O O1 0.667085 0.235941 0.109604
O O2 0.332957 0.120194 0.142493
O O3 0.350044 0.155539 0.050623
O O4 0.522912 0.723776 0.000000
O O5 0.327299 0.264331 0.749473
O O6 0.629691 0.327394 0.683396
O O7 0.662578 0.385686 0.771612
O O8 0.701062 0.724771 0.379292
O O9 0.803750 0.871269 0.408397
O O10 0.500000 0.500000 0.829739
O O11 0.000000 0.500000 0.803949
O O12 0.500000 0.500000 0.551973
O O13 0.193679 0.590361 0.500000
O O14 0.000000 0.500000 0.567731
#
# Coordination Sequence:
#
# PCOD9426334 Si02
#       6
#     8   4   8   8   8   8
#     4  10  19  36  58  78 104 141 179 216 258 310
#     4   8  16  30  54  80  98 130 182 218 246 304
#     4  10  21  39  58  77 104 141 179 216 263 316
#     4  10  21  36  57  82 105 134 178 225 264 305
#     4  12  24  36  53  82 111 138 175 218 265 314
#     4  10  21  36  54  78 110 145 176 209 259 319
#
# _framework density 19.199276000000001
#
# number of rings (size 3 to 8) (size 9 to 14) (size 15 to 20)
#    0.000    1.818    0.000    4.364    0.000    2.182 
#    0.000    0.909    0.000    0.000    0.000    0.000 
#    0.000    0.000    0.000    0.000    0.000    0.000 
#
# Total GULP energy -245749.736628 kJ/mol
# GULP energy per Si atom -5585.221287 kJ/mol
# Density = 1.915558 g / cm^3
# Si number density = 19.199276 Si / 1000 Ang^3
#
#
#
# Elastic Constant Matrix: (Units=GPa)
#
#
# Indices 1 2 3 4 5 6 
#
# 1 53.4340 -19.1027 -26.8468 0.0000 0.0000 0.0000
# 2 -19.1027 44.5473 32.0004 0.0000 0.0000 0.0000
# 3 -26.8468 32.0004 54.4695 0.0000 0.0000 0.0000
# 4 0.0000 0.0000 0.0000 -66.9809 0.0000 0.0000
# 5 0.0000 0.0000 0.0000 0.0000 21.9626 0.0000
# 6 0.0000 0.0000 0.0000 0.0000 0.0000 10.8701
#
#
#
# Elastic Compliance Matrix: (Units=1/GPa)
#
#
# Indices 1 2 3 4 5 6 
#
# 1 0.025144 0.003252 0.010482 0.000000 0.000000 0.000000
# 2 0.003252 0.039260 -0.021462 0.000000 0.000000 0.000000
# 3 0.010482 -0.021462 0.036134 0.000000 0.000000 0.000000
# 4 0.000000 0.000000 0.000000 -0.014930 0.000000 0.000000
# 5 0.000000 0.000000 0.000000 0.000000 0.045532 0.000000
# 6 0.000000 0.000000 0.000000 0.000000 0.000000 0.091995
#
#
# Mechanical properties :
#
#
# Convention : Reuss Voigt Hill
#
# Bulk Modulus (GPa) = 11.75321 13.83917 12.79619
# Shear Modulus (GPa) = 18.73001 4.26368 11.49685
#
# Velocity S-wave (km/s) = 3.12678 1.49184 2.44973
# Velocity P-wave (km/s) = 4.37843 3.19237 3.83157
#
# Compressibility (1/GPa) = 0.08508316
#
# Stress axis : x y z
#
# Youngs Moduli (GPa) = 39.77099 25.47133 27.67473
#
# Poissons Ratio (x) = -0.08284 -0.29009
# Poissons Ratio (y) = -0.12935 0.59395
# Poissons Ratio (z) = -0.41689 0.54666
#
# Static dielectric constant tensor:
#      x y z
#    x 1.659150 0.000000 0.000000 
#    y 0.000000 1.620300 0.000000 
#    z 0.000000 0.000000 1.689800 
# 
# From -- ./inp_files/23783.got.cif
#   From: 2010.05.17/outbox.cif.g08.bks.cpg/sg55_12_cif.got.tgz:23783.got - 2010.06.03 13:27:54.
