data_PCOD9426740
_publ_section_title
;
Structure prediction by ZEFSAII (Michael W. Deem and Ramdas Pophale) SiO2 
 PCOD9426740
Probable space group: P B A M
;
_chemical_formula_sum "Si O2"
_cell_formula_units_Z 58
_cell_length_a 23.785897
_cell_length_b 16.056256
_cell_length_c 7.435117
_cell_angle_alpha 90.000000
_cell_angle_beta 90.000000
_cell_angle_gamma 90.000000
_cell_volume 2839.563760
_symmetry_space_group_name_H-M "P B A M"
_symmetry_group_IT_number 55
_symmetry_cell_setting 'orthorhombic'
loop_
_space_group_symop_operation_xyz
x,y,z
-x,-y,z
1/2+x,1/2-y,-z
1/2-x,1/2+y,-z
-x,-y,-z
x,y,-z
1/2-x,1/2+y,z
1/2+x,1/2-y,z
loop_
_atom_site_type_symbol
_atom_site_label
_atom_site_fract_x
_atom_site_fract_y
_atom_site_fract_z
Si Si1 0.919543 0.940493 0.216714
Si Si2 0.539380 0.621118 0.219225
Si Si3 0.215851 0.469932 0.718633
Si Si4 0.121771 0.735625 0.216785
Si Si5 0.000000 0.500000 0.500000
Si Si6 0.204861 0.118637 0.288735
Si Si7 0.252136 0.289395 0.290053
Si Si8 0.904108 0.454651 0.210274
O O1 0.860411 0.903371 0.273007
O O2 0.974659 0.889309 0.276550
O O3 0.928652 0.036348 0.274644
O O4 0.920369 0.941091 0.000000
O O5 0.572271 0.702811 0.279470
O O6 0.539206 0.621908 0.000000
O O7 0.218261 0.470014 0.500000
O O8 0.257190 0.543389 0.784426
O O9 0.236222 0.379653 0.784630
O O10 0.152713 0.491629 0.773919
O O11 0.181732 0.770389 0.277895
O O12 0.111710 0.640098 0.267989
O O13 0.122652 0.737724 0.000000
O O14 0.048503 0.512005 0.342275
O O15 0.218922 0.123204 0.500000
O O16 0.220764 0.208689 0.210951
O O17 0.236296 0.293931 0.500000
O O18 0.921534 0.452554 0.000000
#
# Coordination Sequence:
#
# PCOD9426740 Si02
#       8
#     8   8   8   8   2   8   8   8
#     4   9  17  32  55  79 111 156 193 231 303 374
#     4   8  16  33  54  80 114 149 190 244 300 364
#     4  10  20  39  62  87 124 167 201 257 324 376
#     4  10  20  36  60  90 119 152 207 267 309 369
#     4  12  26  48  72  86 128 166 210 270 332 354
#     4  10  20  34  53  81 120 152 192 249 306 367
#     4  10  21  35  58  87 118 159 204 243 314 388
#     4  11  24  43  69  96 123 165 218 263 319 388
#
# _framework density 20.425673
#
# number of rings (size 3 to 8) (size 9 to 14) (size 15 to 20)
#    0.000    2.207    2.069    1.862    0.966    1.655 
#    2.483    2.069    0.000    0.000    0.000    0.000 
#    0.000    0.000    0.000    0.000    0.000    0.000 
#
# Total GULP energy -323371.239664 kJ/mol
# GULP energy per Si atom -5575.366201 kJ/mol
# Density = 2.037918 g / cm^3
# Si number density = 20.425673 Si / 1000 Ang^3
#
#
#
# Elastic Constant Matrix: (Units=GPa)
#
#
# Indices 1 2 3 4 5 6 
#
# 1 142.2775 79.5998 10.4375 0.0000 0.0000 0.0000
# 2 79.5998 104.5793 30.2114 0.0000 0.0000 0.0000
# 3 10.4375 30.2114 79.9242 0.0000 0.0000 0.0000
# 4 0.0000 0.0000 0.0000 -13.4475 0.0000 0.0000
# 5 0.0000 0.0000 0.0000 0.0000 20.4342 0.0000
# 6 0.0000 0.0000 0.0000 0.0000 0.0000 21.3802
#
#
#
# Elastic Compliance Matrix: (Units=1/GPa)
#
#
# Indices 1 2 3 4 5 6 
#
# 1 0.012582 -0.010218 0.002219 0.000000 0.000000 0.000000
# 2 -0.010218 0.019032 -0.005860 0.000000 0.000000 0.000000
# 3 0.002219 -0.005860 0.014437 0.000000 0.000000 0.000000
# 4 0.000000 0.000000 0.000000 -0.074363 0.000000 0.000000
# 5 0.000000 0.000000 0.000000 0.000000 0.048938 0.000000
# 6 0.000000 0.000000 0.000000 0.000000 0.000000 0.046772
#
#
# Mechanical properties :
#
#
# Convention : Reuss Voigt Hill
#
# Bulk Modulus (GPa) = 54.54198 63.03095 58.78647
# Shear Modulus (GPa) = 49.39369 19.44219 34.41794
#
# Velocity S-wave (km/s) = 4.92287 3.08855 4.10937
# Velocity P-wave (km/s) = 7.68593 6.60640 7.16652
#
# Compressibility (1/GPa) = 0.01833450
#
# Stress axis : x y z
#
# Youngs Moduli (GPa) = 79.47573 52.54190 69.26615
#
# Poissons Ratio (x) = 0.53688 -0.15372
# Poissons Ratio (y) = 0.81210 0.40589
# Poissons Ratio (z) = -0.17638 0.30789
#
# Static dielectric constant tensor:
#      x y z
#    x 1.668620 0.000000 0.000000 
#    y 0.000000 1.734810 0.000000 
#    z 0.000000 0.000000 1.771140 
# 
# From -- ./inp_files/9606.got.cif
#   From: 2010.05.17/outbox.cif.g08.bks.cpg/sg55_5_cif.got.tgz:9606.got - 2010.06.03 13:27:54.
