data_PCOD9426278
_publ_section_title
;
Structure prediction by ZEFSAII (Michael W. Deem and Ramdas Pophale) SiO2 
 PCOD9426278
Probable space group: P B A M
;
_chemical_formula_sum "Si O2"
_cell_formula_units_Z 58
_cell_length_a 11.637899
_cell_length_b 27.993640
_cell_length_c 7.468639
_cell_angle_alpha 90.000000
_cell_angle_beta 90.000000
_cell_angle_gamma 90.000000
_cell_volume 2433.186651
_symmetry_space_group_name_H-M "P B A M"
_symmetry_group_IT_number 55
_symmetry_cell_setting 'orthorhombic'
loop_
_space_group_symop_operation_xyz
x,y,z
-x,-y,z
1/2+x,1/2-y,-z
1/2-x,1/2+y,-z
-x,-y,-z
x,y,-z
1/2-x,1/2+y,z
1/2+x,1/2-y,z
loop_
_atom_site_type_symbol
_atom_site_label
_atom_site_fract_x
_atom_site_fract_y
_atom_site_fract_z
Si Si1 0.001172 0.569756 0.706593
Si Si2 0.166187 0.957701 0.216212
Si Si3 0.235137 0.763127 0.782003
Si Si4 0.258502 0.563692 0.294759
Si Si5 0.980347 0.888535 0.797772
Si Si6 0.500000 0.000000 0.000000
Si Si7 0.018403 0.218823 0.780371
Si Si8 0.816760 0.633225 0.785430
O O1 0.997669 0.554763 0.500000
O O2 0.130674 0.568358 0.779558
O O3 0.944995 0.621626 0.722758
O O4 0.941145 0.533339 0.842269
O O5 0.246584 0.913469 0.272441
O O6 0.043694 0.935614 0.275398
O O7 0.201200 0.008897 0.288757
O O8 0.166261 0.964073 0.000000
O O9 0.352951 0.735790 0.724947
O O10 0.262025 0.817643 0.725810
O O11 0.100981 0.753768 0.728172
O O12 0.234427 0.760302 0.000000
O O13 0.253386 0.579403 0.500000
O O14 0.347990 0.597634 0.198943
O O15 0.996086 0.836240 0.718568
O O16 0.026921 0.883757 0.000000
O O17 0.020488 0.219648 0.000000
O O18 0.816727 0.634632 0.000000
#
# Coordination Sequence:
#
# PCOD9426278 Si02
#       8
#     8   8   8   8   8   2   8   8
#     4  11  25  40  57  90 128 164 216 268 315 374
#     4  10  20  34  56  83 115 157 205 253 301 364
#     4   9  17  31  56  89 128 160 207 260 326 387
#     4  11  25  39  54  83 122 160 202 262 314 368
#     4  10  20  36  58  83 118 160 207 253 312 377
#     4  12  22  40  64  86 122 176 218 256 324 376
#     4   9  17  32  54  89 125 162 203 269 324 386
#     4  10  19  35  60  87 120 167 211 257 314 383
#
# _framework density 23.837052
#
# number of rings (size 3 to 8) (size 9 to 14) (size 15 to 20)
#    0.000    1.931    2.069    1.862    3.862    4.966 
#    0.000    2.759    0.000    0.828    0.000    0.000 
#    0.000    0.000    0.000    0.000    0.000    0.000 
#
# Total GULP energy -323188.418617 kJ/mol
# GULP energy per Si atom -5572.214114 kJ/mol
# Density = 2.378280 g / cm^3
# Si number density = 23.837052 Si / 1000 Ang^3
#
#
#
# Elastic Constant Matrix: (Units=GPa)
#
#
# Indices 1 2 3 4 5 6 
#
# 1 160.0217 38.4919 1.6198 0.0000 0.0000 0.0000
# 2 38.4919 46.2433 -1.2720 0.0000 0.0000 0.0000
# 3 1.6198 -1.2720 87.4322 0.0000 0.0000 0.0000
# 4 0.0000 0.0000 0.0000 36.5266 0.0000 0.0000
# 5 0.0000 0.0000 0.0000 0.0000 -9.4622 0.0000
# 6 0.0000 0.0000 0.0000 0.0000 0.0000 38.1808
#
#
#
# Elastic Compliance Matrix: (Units=1/GPa)
#
#
# Indices 1 2 3 4 5 6 
#
# 1 0.007819 -0.006515 -0.000240 0.000000 0.000000 0.000000
# 2 -0.006515 0.027062 0.000514 0.000000 0.000000 0.000000
# 3 -0.000240 0.000514 0.011449 0.000000 0.000000 0.000000
# 4 0.000000 0.000000 0.000000 0.027377 0.000000 0.000000
# 5 0.000000 0.000000 0.000000 0.000000 -0.105684 0.000000
# 6 0.000000 0.000000 0.000000 0.000000 0.000000 0.026191
#
#
# Mechanical properties :
#
#
# Convention : Reuss Voigt Hill
#
# Bulk Modulus (GPa) = 29.54233 41.26408 35.40320
# Shear Modulus (GPa) = 278.12906 30.03954 154.08430
#
# Velocity S-wave (km/s) = 10.81354 3.55379 8.04866
# Velocity P-wave (km/s) = 12.97422 5.84702 10.06276
#
# Compressibility (1/GPa) = 0.03384973
#
# Stress axis : x y z
#
# Youngs Moduli (GPa) = 127.89983 36.95286 87.34119
#
# Poissons Ratio (x) = 0.24073 0.02093
# Poissons Ratio (y) = 0.83322 -0.04493
# Poissons Ratio (z) = 0.03065 -0.01901
#
# Static dielectric constant tensor:
#      x y z
#    x 2.087020 0.000000 0.000000 
#    y 0.000000 1.901170 0.000000 
#    z 0.000000 0.000000 1.896840 
# 
# From -- ./inp_files/4310.got.cif
#   From: 2010.05.17/outbox.cif.g08.bks.cpg/sg55_3_cif.got.tgz:4310.got - 2010.06.03 13:27:54.
