data_PCOD9426531
_publ_section_title
;
Structure prediction by ZEFSAII (Michael W. Deem and Ramdas Pophale) SiO2 
 PCOD9426531
Probable space group: P B A M
;
_chemical_formula_sum "Si O2"
_cell_formula_units_Z 56
_cell_length_a 18.726515
_cell_length_b 19.688356
_cell_length_c 7.597463
_cell_angle_alpha 90.000000
_cell_angle_beta 90.000000
_cell_angle_gamma 90.000000
_cell_volume 2801.141257
_symmetry_space_group_name_H-M "P B A M"
_symmetry_group_IT_number 55
_symmetry_cell_setting 'orthorhombic'
loop_
_space_group_symop_operation_xyz
x,y,z
-x,-y,z
1/2+x,1/2-y,-z
1/2-x,1/2+y,-z
-x,-y,-z
x,y,-z
1/2-x,1/2+y,z
1/2+x,1/2-y,z
loop_
_atom_site_type_symbol
_atom_site_label
_atom_site_fract_x
_atom_site_fract_y
_atom_site_fract_z
Si Si1 0.029436 0.926913 0.216278
Si Si2 0.462384 0.860765 0.785285
Si Si3 0.833651 0.546666 0.795201
Si Si4 0.125693 0.602848 0.294223
Si Si5 0.017033 0.213664 0.799360
Si Si6 0.188934 0.892014 0.789678
Si Si7 0.643479 0.750164 0.289148
O O1 0.982167 0.862226 0.277663
O O2 0.111188 0.915787 0.276805
O O3 0.028955 0.924321 0.000000
O O4 0.000000 0.000000 0.268868
O O5 0.400689 0.911174 0.721906
O O6 0.540634 0.886440 0.729705
O O7 0.450709 0.782979 0.722116
O O8 0.464088 0.859408 0.000000
O O9 0.848737 0.466889 0.788510
O O10 0.757185 0.567881 0.718738
O O11 0.830795 0.566857 0.000000
O O12 0.140962 0.596364 0.500000
O O13 0.161032 0.673434 0.230300
O O14 0.932098 0.230457 0.797868
O O15 0.043170 0.208886 0.000000
O O16 0.195724 0.811555 0.753342
O O17 0.185543 0.901588 0.000000
O O18 0.632200 0.752144 0.500000
#
# Coordination Sequence:
#
# PCOD9426531 Si02
#       7
#     8   8   8   8   8   8   8
#     4   8  13  24  45  69  89 112 148 193 234 272
#     4   9  17  30  47  67  93 125 159 194 233 278
#     4  10  20  32  46  68  98 127 156 194 240 287
#     4  10  20  32  48  71  95 122 160 198 233 279
#     4   8  14  26  45  66  87 113 146 186 230 274
#     4   9  18  32  48  68  94 124 158 194 236 285
#     4   9  17  30  48  67  87 115 152 190 227 274
#
# _framework density 19.991852000000002
#
# number of rings (size 3 to 8) (size 9 to 14) (size 15 to 20)
#    0.000    3.000    0.000    2.143    0.000    4.571 
#    0.000    1.429    0.000   12.000    0.000    4.000 
#    0.000    0.000    0.000    0.000    0.000    0.000 
#
# Total GULP energy -311911.659566 kJ/mol
# GULP energy per Si atom -5569.851064 kJ/mol
# Density = 1.994635 g / cm^3
# Si number density = 19.991852 Si / 1000 Ang^3
#
#
#
# Elastic Constant Matrix: (Units=GPa)
#
#
# Indices 1 2 3 4 5 6 
#
# 1 62.4401 62.5864 -5.2143 0.0000 0.0000 0.0000
# 2 62.5864 180.4687 -14.5492 0.0000 0.0000 0.0000
# 3 -5.2143 -14.5492 40.3045 0.0000 0.0000 0.0000
# 4 0.0000 0.0000 0.0000 -5.4955 0.0000 0.0000
# 5 0.0000 0.0000 0.0000 0.0000 -60.9399 0.0000
# 6 0.0000 0.0000 0.0000 0.0000 0.0000 21.0738
#
#
#
# Elastic Compliance Matrix: (Units=1/GPa)
#
#
# Indices 1 2 3 4 5 6 
#
# 1 0.024549 -0.008505 0.000106 0.000000 0.000000 0.000000
# 2 -0.008505 0.008654 0.002024 0.000000 0.000000 0.000000
# 3 0.000106 0.002024 0.025555 0.000000 0.000000 0.000000
# 4 0.000000 0.000000 0.000000 -0.181966 0.000000 0.000000
# 5 0.000000 0.000000 0.000000 0.000000 -0.016410 0.000000
# 6 0.000000 0.000000 0.000000 0.000000 0.000000 0.047452
#
#
# Mechanical properties :
#
#
# Convention : Reuss Voigt Hill
#
# Bulk Modulus (GPa) = 21.73590 40.98435 31.36013
# Shear Modulus (GPa) = -78.03019 6.95368 -35.53825
#
# Velocity S-wave (km/s) = -6.25426 1.86703 -4.22078
# Velocity P-wave (km/s) = 6.42326 5.01924 2.83421
#
# Compressibility (1/GPa) = 0.04600683
#
# Stress axis : x y z
#
# Youngs Moduli (GPa) = 40.73446 115.55567 39.13082
#
# Poissons Ratio (x) = 0.98282 -0.00414
# Poissons Ratio (y) = 0.34645 -0.07918
# Poissons Ratio (z) = -0.00431 -0.23383
#
# Static dielectric constant tensor:
#      x y z
#    x 1.681530 0.000000 0.000000 
#    y 0.000000 1.744030 0.000000 
#    z 0.000000 0.000000 1.757050 
# 
# From -- ./inp_files/7886.got.cif
#   From: 2010.05.17/outbox.cif.g08.bks.cpg/sg55_4_cif.got.tgz:7886.got - 2010.06.03 13:27:54.
