data_PCOD9426310
_publ_section_title
;
Structure prediction by ZEFSAII (Michael W. Deem and Ramdas Pophale) SiO2 
 PCOD9426310
Probable space group: P B A M
;
_chemical_formula_sum "Si O2"
_cell_formula_units_Z 48
_cell_length_a 13.479562
_cell_length_b 9.362726
_cell_length_c 17.707409
_cell_angle_alpha 90.000000
_cell_angle_beta 90.000000
_cell_angle_gamma 90.000000
_cell_volume 2234.771443
_symmetry_space_group_name_H-M "P B A M"
_symmetry_group_IT_number 55
_symmetry_cell_setting 'orthorhombic'
loop_
_space_group_symop_operation_xyz
x,y,z
-x,-y,z
1/2+x,1/2-y,-z
1/2-x,1/2+y,-z
-x,-y,-z
x,y,-z
1/2-x,1/2+y,z
1/2+x,1/2-y,z
loop_
_atom_site_type_symbol
_atom_site_label
_atom_site_fract_x
_atom_site_fract_y
_atom_site_fract_z
Si Si1 0.356636 0.106875 0.500000
Si Si2 0.175911 0.903198 0.269655
Si Si3 0.720349 0.978218 0.000000
Si Si4 0.032454 0.741400 0.166389
Si Si5 0.890034 0.182908 0.000000
Si Si6 0.852310 0.555930 0.840396
Si Si7 0.065257 0.286868 0.500000
Si Si8 0.202944 0.172603 0.630450
O O1 0.446379 0.220342 0.500000
O O2 0.288199 0.121303 0.572901
O O3 0.402994 0.951314 0.500000
O O4 0.077058 0.843320 0.230393
O O5 0.248503 0.940620 0.200859
O O6 0.240437 0.789612 0.318490
O O7 0.163439 0.042698 0.319900
O O8 0.833915 0.030755 0.000000
O O9 0.667728 0.046924 0.928396
O O10 0.693873 0.809921 0.000000
O O11 0.092128 0.592101 0.177736
O O12 0.919283 0.693330 0.177427
O O13 0.052410 0.794466 0.079906
O O14 0.115042 0.225736 0.575798
#
# Coordination Sequence:
#
# PCOD9426310 Si02
#       8
#     4   8   4   8   4   8   4   8
#     4  10  22  45  74  97 126 171 216 254 320 383
#     4  12  22  40  64  94 137 171 205 269 337 387
#     4  10  19  35  63  86 120 170 227 281 321 386
#     4  10  21  38  62  92 124 174 225 274 321 392
#     4  10  19  35  63  86 120 170 229 275 327 382
#     4  10  21  38  62  91 125 172 228 269 328 392
#     4  10  22  45  74 101 124 170 218 254 309 393
#     4  11  24  42  68 100 133 166 211 265 318 391
#
# _framework density 21.478705999999999
#
# number of rings (size 3 to 8) (size 9 to 14) (size 15 to 20)
#    0.000    1.500    5.000    0.500    0.000    3.333 
#    0.000    4.167    0.000    1.000    0.000    0.000 
#    0.000    0.000    0.000    0.000    0.000    0.083 
#
# Total GULP energy -268247.284279 kJ/mol
# GULP energy per Si atom -5588.485089 kJ/mol
# Density = 2.142982 g / cm^3
# Si number density = 21.478706 Si / 1000 Ang^3
#
#
#
# Elastic Constant Matrix: (Units=GPa)
#
#
# Indices 1 2 3 4 5 6 
#
# 1 62.5372 19.7251 28.4098 0.0000 0.0000 0.0000
# 2 19.7251 75.6806 58.6835 0.0000 0.0000 0.0000
# 3 28.4098 58.6835 115.0167 0.0000 0.0000 0.0000
# 4 0.0000 0.0000 0.0000 143.5569 0.0000 0.0000
# 5 0.0000 0.0000 0.0000 0.0000 -9.5755 0.0000
# 6 0.0000 0.0000 0.0000 0.0000 0.0000 32.4293
#
#
#
# Elastic Compliance Matrix: (Units=1/GPa)
#
#
# Indices 1 2 3 4 5 6 
#
# 1 0.018208 -0.002082 -0.003435 0.000000 0.000000 0.000000
# 2 -0.002082 0.022101 -0.010762 0.000000 0.000000 0.000000
# 3 -0.003435 -0.010762 0.015034 0.000000 0.000000 0.000000
# 4 0.000000 0.000000 0.000000 0.006966 0.000000 0.000000
# 5 0.000000 0.000000 0.000000 0.000000 -0.104433 0.000000
# 6 0.000000 0.000000 0.000000 0.000000 0.000000 0.030836
#
#
# Mechanical properties :
#
#
# Convention : Reuss Voigt Hill
#
# Bulk Modulus (GPa) = 43.88988 51.87460 47.88224
# Shear Modulus (GPa) = 173.22056 43.04321 108.13189
#
# Velocity S-wave (km/s) = 8.99014 4.48146 7.10303
# Velocity P-wave (km/s) = 11.32440 7.14017 9.46636
#
# Compressibility (1/GPa) = 0.02278430
#
# Stress axis : x y z
#
# Youngs Moduli (GPa) = 54.92184 45.24657 66.51621
#
# Poissons Ratio (x) = 0.09420 0.22850
# Poissons Ratio (y) = 0.11434 0.71586
# Poissons Ratio (z) = 0.18867 0.48695
#
# Static dielectric constant tensor:
#      x y z
#    x 1.779760 0.000000 0.000000 
#    y 0.000000 1.800920 0.000000 
#    z 0.000000 0.000000 1.692370 
# 
# From -- ./inp_files/21570.got.cif
#   From: 2010.05.17/outbox.cif.g08.bks.cpg/sg55_11_cif.got.tgz:21570.got - 2010.06.03 13:27:54.
