data_PCOD9426295
_publ_section_title
;
Structure prediction by ZEFSAII (Michael W. Deem and Ramdas Pophale) SiO2 
 PCOD9426295
Probable space group: P B A M
;
_chemical_formula_sum "Si O2"
_cell_formula_units_Z 52
_cell_length_a 20.038334
_cell_length_b 15.488957
_cell_length_c 8.120272
_cell_angle_alpha 90.000000
_cell_angle_beta 90.000000
_cell_angle_gamma 90.000000
_cell_volume 2520.312318
_symmetry_space_group_name_H-M "P B A M"
_symmetry_group_IT_number 55
_symmetry_cell_setting 'orthorhombic'
loop_
_space_group_symop_operation_xyz
x,y,z
-x,-y,z
1/2+x,1/2-y,-z
1/2-x,1/2+y,-z
-x,-y,-z
x,y,-z
1/2-x,1/2+y,z
1/2+x,1/2-y,z
loop_
_atom_site_type_symbol
_atom_site_label
_atom_site_fract_x
_atom_site_fract_y
_atom_site_fract_z
Si Si1 0.815543 0.247516 0.500000
Si Si2 0.662854 0.422828 0.820390
Si Si3 0.587748 0.754306 0.804157
Si Si4 0.444121 0.070944 0.698337
Si Si5 0.244538 0.936158 0.500000
Si Si6 0.944780 0.063714 0.805055
Si Si7 0.313927 0.633686 0.500000
Si Si8 0.194537 0.494293 0.181478
O O1 0.853767 0.269658 0.330148
O O2 0.803750 0.144874 0.500000
O O3 0.747330 0.301346 0.500000
O O4 0.625785 0.514314 0.791418
O O5 0.646634 0.360523 0.670065
O O6 0.742309 0.439923 0.824315
O O7 0.640861 0.392039 0.000000
O O8 0.539931 0.835675 0.774184
O O9 0.558078 0.661954 0.750243
O O10 0.606636 0.750263 0.000000
O O11 0.436664 0.076898 0.500000
O O12 0.500000 0.000000 0.733891
O O13 0.374234 0.041311 0.777793
O O14 0.288440 0.932857 0.665592
O O15 0.211449 0.032353 0.500000
O O16 0.959159 0.070245 0.000000
O O17 0.000000 0.000000 0.730012
O O18 0.192003 0.453516 0.000000
#
# Coordination Sequence:
#
# PCOD9426295 Si02
#       8
#     4   8   8   8   4   8   4   8
#     4  12  24  38  62  94 126 166 212 256 314 376
#     4   9  18  34  58  86 118 156 196 243 300 360
#     4  11  22  38  62  92 124 163 215 264 309 372
#     4  11  23  41  65  91 125 167 212 263 322 385
#     4  10  20  36  56  83 124 157 193 253 305 351
#     4   9  19  38  64  92 125 165 207 255 310 368
#     4  10  20  34  54  81 116 153 195 243 299 351
#     4  10  19  35  61  89 118 158 203 248 309 371
#
# _framework density 20.632362000000001
#
# number of rings (size 3 to 8) (size 9 to 14) (size 15 to 20)
#    0.000    1.846    1.538    4.154    0.000    4.923 
#    0.000    3.077    0.000    1.846    0.000    0.000 
#    0.000    0.000    0.000    0.000    0.000    0.000 
#
# Total GULP energy -289850.466946 kJ/mol
# GULP energy per Si atom -5574.047441 kJ/mol
# Density = 2.058540 g / cm^3
# Si number density = 20.632362 Si / 1000 Ang^3
#
#
#
# Elastic Constant Matrix: (Units=GPa)
#
#
# Indices 1 2 3 4 5 6 
#
# 1 48.7097 14.5239 8.4091 0.0000 0.0000 0.0000
# 2 14.5239 44.8610 22.3382 0.0000 0.0000 0.0000
# 3 8.4091 22.3382 152.8919 0.0000 0.0000 0.0000
# 4 0.0000 0.0000 0.0000 22.4781 0.0000 0.0000
# 5 0.0000 0.0000 0.0000 0.0000 16.1167 0.0000
# 6 0.0000 0.0000 0.0000 0.0000 0.0000 26.4224
#
#
#
# Elastic Compliance Matrix: (Units=1/GPa)
#
#
# Indices 1 2 3 4 5 6 
#
# 1 0.022728 -0.007264 -0.000189 0.000000 0.000000 0.000000
# 2 -0.007264 0.026362 -0.003452 0.000000 0.000000 0.000000
# 3 -0.000189 -0.003452 0.007055 0.000000 0.000000 0.000000
# 4 0.000000 0.000000 0.000000 0.044488 0.000000 0.000000
# 5 0.000000 0.000000 0.000000 0.000000 0.062048 0.000000
# 6 0.000000 0.000000 0.000000 0.000000 0.000000 0.037847
#
#
# Mechanical properties :
#
#
# Convention : Reuss Voigt Hill
#
# Bulk Modulus (GPa) = 29.12460 37.44500 33.28480
# Shear Modulus (GPa) = 21.38736 26.41621 23.90178
#
# Velocity S-wave (km/s) = 3.22311 3.58205 3.40731
# Velocity P-wave (km/s) = 5.29130 5.94106 5.62557
#
# Compressibility (1/GPa) = 0.03433523
#
# Stress axis : x y z
#
# Youngs Moduli (GPa) = 43.99775 37.93357 141.73735
#
# Poissons Ratio (x) = 0.27557 0.02675
# Poissons Ratio (y) = 0.31962 0.48928
# Poissons Ratio (z) = 0.00830 0.13095
#
# Static dielectric constant tensor:
#      x y z
#    x 1.752700 0.000000 0.000000 
#    y 0.000000 1.741940 0.000000 
#    z 0.000000 0.000000 1.847130 
# 
# From -- ./inp_files/8660.got.cif
#   From: 2010.05.17/outbox.cif.g08.bks.cpg/sg55_5_cif.got.tgz:8660.got - 2010.06.03 13:27:54.
