data_PCOD9426642
_publ_section_title
;
Structure prediction by ZEFSAII (Michael W. Deem and Ramdas Pophale) SiO2 
 PCOD9426642
Probable space group: P B A M
;
_chemical_formula_sum "Si O2"
_cell_formula_units_Z 48
_cell_length_a 17.178348
_cell_length_b 10.643781
_cell_length_c 13.223425
_cell_angle_alpha 90.000000
_cell_angle_beta 90.000000
_cell_angle_gamma 90.000000
_cell_volume 2417.805065
_symmetry_space_group_name_H-M "P B A M"
_symmetry_group_IT_number 55
_symmetry_cell_setting 'orthorhombic'
loop_
_space_group_symop_operation_xyz
x,y,z
-x,-y,z
1/2+x,1/2-y,-z
1/2-x,1/2+y,-z
-x,-y,-z
x,y,-z
1/2-x,1/2+y,z
1/2+x,1/2-y,z
loop_
_atom_site_type_symbol
_atom_site_label
_atom_site_fract_x
_atom_site_fract_y
_atom_site_fract_z
Si Si1 0.705460 0.834401 0.380802
Si Si2 0.217660 0.927950 0.732567
Si Si3 0.048340 0.258878 0.111472
Si Si4 0.554038 0.875436 0.734040
Si Si5 0.094373 0.998833 0.886116
Si Si6 0.343822 0.996360 0.110360
O O1 0.719415 0.829429 0.500000
O O2 0.725684 0.700783 0.329186
O O3 0.612568 0.853885 0.358596
O O4 0.755259 0.950422 0.333238
O O5 0.275626 0.933472 0.827359
O O6 0.134757 0.938139 0.789346
O O7 0.111072 0.148203 0.118732
O O8 0.089289 0.392313 0.103684
O O9 0.999634 0.268776 0.215130
O O10 0.008334 0.241955 0.000000
O O11 0.500000 0.000000 0.717722
O O12 0.616523 0.896522 0.824146
O O13 0.116711 0.955300 0.000000
O O14 0.000000 0.000000 0.879991
O O15 0.319347 0.038222 0.000000
#
# Coordination Sequence:
#
# PCOD9426642 Si02
#       6
#     8   8   8   8   8   8
#     4  11  24  41  61  82 108 148 196 247 291 328
#     4  11  22  39  60  83 114 149 190 236 286 341
#     4   9  16  29  50  79 116 150 180 218 269 334
#     4   9  18  33  56  84 114 150 190 232 280 337
#     4  10  20  33  53  83 118 152 181 217 275 348
#     4   9  17  30  52  83 115 147 183 223 272 336
#
# _framework density 19.852716000000001
#
# number of rings (size 3 to 8) (size 9 to 14) (size 15 to 20)
#    0.000    2.167    0.000    3.500    0.000    2.333 
#    0.000    8.333    0.000   15.000    0.000    0.000 
#    0.000    0.000    0.000    0.000    0.000    0.000 
#
# Total GULP energy -267218.129437 kJ/mol
# GULP energy per Si atom -5567.044363 kJ/mol
# Density = 1.980753 g / cm^3
# Si number density = 19.852716 Si / 1000 Ang^3
#
#
#
# Elastic Constant Matrix: (Units=GPa)
#
#
# Indices 1 2 3 4 5 6 
#
# 1 56.1634 6.6956 30.9377 0.0000 0.0000 0.0000
# 2 6.6956 77.6357 28.8452 0.0000 0.0000 0.0000
# 3 30.9377 28.8452 103.5829 0.0000 0.0000 0.0000
# 4 0.0000 0.0000 0.0000 7.5636 0.0000 0.0000
# 5 0.0000 0.0000 0.0000 0.0000 27.5727 0.0000
# 6 0.0000 0.0000 0.0000 0.0000 0.0000 21.8947
#
#
#
# Elastic Compliance Matrix: (Units=1/GPa)
#
#
# Indices 1 2 3 4 5 6 
#
# 1 0.021336 0.000588 -0.006536 0.000000 0.000000 0.000000
# 2 0.000588 0.014383 -0.004181 0.000000 0.000000 0.000000
# 3 -0.006536 -0.004181 0.012771 0.000000 0.000000 0.000000
# 4 0.000000 0.000000 0.000000 0.132213 0.000000 0.000000
# 5 0.000000 0.000000 0.000000 0.000000 0.036268 0.000000
# 6 0.000000 0.000000 0.000000 0.000000 0.000000 0.045673
#
#
# Mechanical properties :
#
#
# Convention : Reuss Voigt Hill
#
# Bulk Modulus (GPa) = 35.42122 41.14877 38.28499
# Shear Modulus (GPa) = 17.10501 22.79975 19.95238
#
# Velocity S-wave (km/s) = 2.93848 3.39255 3.17364
# Velocity P-wave (km/s) = 5.42159 6.00981 5.72326
#
# Compressibility (1/GPa) = 0.02823167
#
# Stress axis : x y z
#
# Youngs Moduli (GPa) = 46.87015 69.52454 78.30436
#
# Poissons Ratio (x) = -0.04091 0.51182
# Poissons Ratio (y) = -0.02758 0.32740
# Poissons Ratio (z) = 0.30636 0.29069
#
# Static dielectric constant tensor:
#      x y z
#    x 1.801100 0.000000 0.000000 
#    y 0.000000 1.792890 0.000000 
#    z 0.000000 0.000000 1.721930 
# 
# From -- ./inp_files/14791.got.cif
#   From: 2010.05.17/outbox.cif.g08.bks.cpg/sg55_8_cif.got.tgz:14791.got - 2010.06.03 13:27:54.
