data_PCOD9426690
_publ_section_title
;
Structure prediction by ZEFSAII (Michael W. Deem and Ramdas Pophale) SiO2 
 PCOD9426690
Probable space group: P B A M
;
_chemical_formula_sum "Si O2"
_cell_formula_units_Z 64
_cell_length_a 12.987100
_cell_length_b 8.919894
_cell_length_c 29.723092
_cell_angle_alpha 90.000000
_cell_angle_beta 90.000000
_cell_angle_gamma 90.000000
_cell_volume 3443.228654
_symmetry_space_group_name_H-M "P B A M"
_symmetry_group_IT_number 55
_symmetry_cell_setting 'orthorhombic'
loop_
_space_group_symop_operation_xyz
x,y,z
-x,-y,z
1/2+x,1/2-y,-z
1/2-x,1/2+y,-z
-x,-y,-z
x,y,-z
1/2-x,1/2+y,z
1/2+x,1/2-y,z
loop_
_atom_site_type_symbol
_atom_site_label
_atom_site_fract_x
_atom_site_fract_y
_atom_site_fract_z
Si Si1 0.378401 0.007761 0.553810
Si Si2 0.250366 0.257995 0.394532
Si Si3 0.378849 0.502979 0.764479
Si Si4 0.612591 0.468495 0.054261
Si Si5 0.621344 0.492078 0.343079
Si Si6 0.686508 0.136769 0.053755
Si Si7 0.382454 0.009469 0.136345
Si Si8 0.752190 0.244211 0.184801
O O1 0.367312 0.012171 0.500000
O O2 0.318854 0.864909 0.574139
O O3 0.500000 0.000000 0.564555
O O4 0.324888 0.152397 0.576074
O O5 0.319338 0.363743 0.362724
O O6 0.175818 0.151160 0.365609
O O7 0.500000 0.500000 0.775928
O O8 0.368780 0.515067 0.710742
O O9 0.323169 0.353069 0.781962
O O10 0.320903 0.640796 0.788467
O O11 0.500000 0.500000 0.073469
O O12 0.654349 0.304705 0.066799
O O13 0.695357 0.595921 0.064835
O O14 0.605116 0.465816 0.000000
O O15 0.500000 0.500000 0.354255
O O16 0.623078 0.017642 0.082836
O O17 0.672499 0.119169 0.000000
O O18 0.326044 0.158727 0.152665
O O19 0.500000 0.000000 0.151498
O O20 0.317986 0.872524 0.157649
#
# Coordination Sequence:
#
# PCOD9426690 Si02
#       8
#     8   8   8   8   8   8   8   8
#     4  10  20  34  52  74 105 149 194 231 272 321
#     4  10  20  34  52  78 111 142 180 233 278 320
#     4  10  20  37  60  83 109 142 176 216 270 328
#     4   9  19  36  56  78 107 140 173 214 260 304
#     4  10  20  34  55  82 109 139 176 221 278 333
#     4  10  21  37  57  82 110 142 182 221 261 314
#     4  11  23  39  58  82 110 142 178 218 264 311
#     4  10  22  39  58  82 110 140 178 219 259 320
#
# _framework density 18.587205999999998
#
# number of rings (size 3 to 8) (size 9 to 14) (size 15 to 20)
#    0.000    2.000    0.000    3.375    0.000    2.250 
#    0.000    5.625    0.000   18.000    0.000    0.000 
#    0.000    0.500    0.000    0.000    0.000    0.000 
#
# Total GULP energy -357475.892020 kJ/mol
# GULP energy per Si atom -5585.560813 kJ/mol
# Density = 1.854490 g / cm^3
# Si number density = 18.587206 Si / 1000 Ang^3
#
#
#
# Elastic Constant Matrix: (Units=GPa)
#
#
# Indices 1 2 3 4 5 6 
#
# 1 137.5457 43.3394 43.7857 0.0000 0.0000 0.0000
# 2 43.3394 89.9893 31.3832 0.0000 0.0000 0.0000
# 3 43.7857 31.3832 68.3075 0.0000 0.0000 0.0000
# 4 0.0000 0.0000 0.0000 14.7203 0.0000 0.0000
# 5 0.0000 0.0000 0.0000 0.0000 24.7471 0.0000
# 6 0.0000 0.0000 0.0000 0.0000 0.0000 18.2136
#
#
#
# Elastic Compliance Matrix: (Units=1/GPa)
#
#
# Indices 1 2 3 4 5 6 
#
# 1 0.009771 -0.003003 -0.004884 0.000000 0.000000 0.000000
# 2 -0.003003 0.014155 -0.004579 0.000000 0.000000 0.000000
# 3 -0.004884 -0.004579 0.019874 0.000000 0.000000 0.000000
# 4 0.000000 0.000000 0.000000 0.067933 0.000000 0.000000
# 5 0.000000 0.000000 0.000000 0.000000 0.040409 0.000000
# 6 0.000000 0.000000 0.000000 0.000000 0.000000 0.054904
#
#
# Mechanical properties :
#
#
# Convention : Reuss Voigt Hill
#
# Bulk Modulus (GPa) = 52.99459 59.20655 56.10057
# Shear Modulus (GPa) = 20.98488 23.35850 22.17169
#
# Velocity S-wave (km/s) = 3.36370 3.54884 3.45751
# Velocity P-wave (km/s) = 6.60751 6.97960 6.79610
#
# Compressibility (1/GPa) = 0.01886985
#
# Stress axis : x y z
#
# Youngs Moduli (GPa) = 102.34256 70.64467 50.31709
#
# Poissons Ratio (x) = 0.21212 0.24574
# Poissons Ratio (y) = 0.30730 0.23039
# Poissons Ratio (z) = 0.49983 0.32347
#
# Static dielectric constant tensor:
#      x y z
#    x 1.633900 0.000000 0.000000 
#    y 0.000000 1.619890 0.000000 
#    z 0.000000 0.000000 1.628180 
# 
# From -- ./inp_files/24162.got.cif
#   From: 2010.05.17/outbox.cif.g08.bks.cpg/sg55_13_cif.got.tgz:24162.got - 2010.06.03 13:27:54.
