data_PCOD9426779
_publ_section_title
;
Structure prediction by ZEFSAII (Michael W. Deem and Ramdas Pophale) SiO2 
 PCOD9426779
Probable space group: P B A M
;
_chemical_formula_sum "Si O2"
_cell_formula_units_Z 58
_cell_length_a 23.264961
_cell_length_b 15.801383
_cell_length_c 7.585455
_cell_angle_alpha 90.000000
_cell_angle_beta 90.000000
_cell_angle_gamma 90.000000
_cell_volume 2788.554038
_symmetry_space_group_name_H-M "P B A M"
_symmetry_group_IT_number 55
_symmetry_cell_setting 'orthorhombic'
loop_
_space_group_symop_operation_xyz
x,y,z
-x,-y,z
1/2+x,1/2-y,-z
1/2-x,1/2+y,-z
-x,-y,-z
x,y,-z
1/2-x,1/2+y,z
1/2+x,1/2-y,z
loop_
_atom_site_type_symbol
_atom_site_label
_atom_site_fract_x
_atom_site_fract_y
_atom_site_fract_z
Si Si1 0.500000 0.000000 0.000000
Si Si2 0.237771 0.590923 0.205713
Si Si3 0.369702 0.565314 0.285835
Si Si4 0.902618 0.124743 0.713093
Si Si5 0.788660 0.225445 0.208970
Si Si6 0.026361 0.180752 0.704539
Si Si7 0.930651 0.642801 0.805120
Si Si8 0.194469 0.409923 0.217120
O O1 0.530293 0.061571 0.848695
O O2 0.306546 0.586864 0.218005
O O3 0.217282 0.680118 0.283781
O O4 0.212224 0.503563 0.279293
O O5 0.220504 0.591180 0.000000
O O6 0.366289 0.567621 0.500000
O O7 0.387279 0.470550 0.231491
O O8 0.418510 0.630542 0.224008
O O9 0.903637 0.124948 0.500000
O O10 0.851559 0.186901 0.767298
O O11 0.964817 0.154193 0.780890
O O12 0.741358 0.158833 0.277000
O O13 0.777140 0.231743 0.000000
O O14 0.023872 0.154643 0.500000
O O15 0.036882 0.280856 0.712372
O O16 0.869561 0.615778 0.726633
O O17 0.916629 0.679552 0.000000
O O18 0.195151 0.412004 0.000000
#
# Coordination Sequence:
#
# PCOD9426779 Si02
#       8
#     2   8   8   8   8   8   8   8
#     4   8  20  36  62  84 106 144 186 234 272 330
#     4  10  20  34  56  83 111 147 182 229 282 339
#     4  10  20  36  57  81 112 150 190 229 279 340
#     4  10  21  37  55  78 114 150 184 233 284 335
#     4  10  20  34  54  82 109 145 185 229 280 336
#     4  10  21  37  57  82 111 148 190 233 284 336
#     4   9  19  37  58  83 111 145 189 232 276 334
#     4   9  17  33  54  77 113 143 176 227 277 328
#
# _framework density 20.799309999999998
#
# number of rings (size 3 to 8) (size 9 to 14) (size 15 to 20)
#    0.414    1.931    1.379    1.241    0.000    5.517 
#    2.483    1.724    0.000    2.483    0.000    0.000 
#    0.000    0.000    0.000    0.000    0.000    0.000 
#
# Total GULP energy -323023.305139 kJ/mol
# GULP energy per Si atom -5569.367330 kJ/mol
# Density = 2.075197 g / cm^3
# Si number density = 20.799310 Si / 1000 Ang^3
#
#
#
# Elastic Constant Matrix: (Units=GPa)
#
#
# Indices 1 2 3 4 5 6 
#
# 1 45.5318 13.1090 -17.0855 0.0000 0.0000 0.0000
# 2 13.1090 88.6882 0.1598 0.0000 0.0000 0.0000
# 3 -17.0855 0.1598 39.0071 0.0000 0.0000 0.0000
# 4 0.0000 0.0000 0.0000 24.8127 0.0000 0.0000
# 5 0.0000 0.0000 0.0000 0.0000 20.1801 0.0000
# 6 0.0000 0.0000 0.0000 0.0000 0.0000 34.4895
#
#
#
# Elastic Compliance Matrix: (Units=1/GPa)
#
#
# Indices 1 2 3 4 5 6 
#
# 1 0.027709 -0.004118 0.012154 0.000000 0.000000 0.000000
# 2 -0.004118 0.011887 -0.001852 0.000000 0.000000 0.000000
# 3 0.012154 -0.001852 0.030967 0.000000 0.000000 0.000000
# 4 0.000000 0.000000 0.000000 0.040302 0.000000 0.000000
# 5 0.000000 0.000000 0.000000 0.000000 0.049554 0.000000
# 6 0.000000 0.000000 0.000000 0.000000 0.000000 0.028994
#
#
# Mechanical properties :
#
#
# Convention : Reuss Voigt Hill
#
# Bulk Modulus (GPa) = 12.05821 18.39929 15.22875
# Shear Modulus (GPa) = 24.42725 27.69937 26.06331
#
# Velocity S-wave (km/s) = 3.43071 3.65327 3.54373
# Velocity P-wave (km/s) = 4.63713 5.16338 4.90731
#
# Compressibility (1/GPa) = 0.08293103
#
# Stress axis : x y z
#
# Youngs Moduli (GPa) = 36.08981 84.12263 32.29209
#
# Poissons Ratio (x) = 0.34638 -0.39246
# Poissons Ratio (y) = 0.14860 0.05981
# Poissons Ratio (z) = -0.43862 0.15581
#
# Static dielectric constant tensor:
#      x y z
#    x 1.712700 0.000000 0.000000 
#    y 0.000000 1.732660 0.000000 
#    z 0.000000 0.000000 1.843090 
# 
# From -- ./inp_files/9577.got.cif
#   From: 2010.05.17/outbox.cif.g08.bks.cpg/sg55_5_cif.got.tgz:9577.got - 2010.06.03 13:27:54.
