data_PCOD9426072
_publ_section_title
;
Structure prediction by ZEFSAII (Michael W. Deem and Ramdas Pophale) SiO2 
 PCOD9426072
Probable space group: P B A M
;
_chemical_formula_sum "Si O2"
_cell_formula_units_Z 64
_cell_length_a 14.840222
_cell_length_b 21.176229
_cell_length_c 8.543922
_cell_angle_alpha 90.000000
_cell_angle_beta 90.000000
_cell_angle_gamma 90.000000
_cell_volume 2685.012411
_symmetry_space_group_name_H-M "P B A M"
_symmetry_group_IT_number 55
_symmetry_cell_setting 'orthorhombic'
loop_
_space_group_symop_operation_xyz
x,y,z
-x,-y,z
1/2+x,1/2-y,-z
1/2-x,1/2+y,-z
-x,-y,-z
x,y,-z
1/2-x,1/2+y,z
1/2+x,1/2-y,z
loop_
_atom_site_type_symbol
_atom_site_label
_atom_site_fract_x
_atom_site_fract_y
_atom_site_fract_z
Si Si1 0.994117 0.749091 0.174406
Si Si2 0.413438 0.870453 0.681164
Si Si3 0.775214 0.523803 0.684815
Si Si4 0.261257 0.174549 0.814251
Si Si5 0.835924 0.204878 0.677773
Si Si6 0.100337 0.926273 0.185720
Si Si7 0.090664 0.111713 0.820807
Si Si8 0.085956 0.576049 0.818765
O O1 0.069589 0.757681 0.305891
O O2 0.942285 0.815280 0.171346
O O3 0.931812 0.689759 0.211300
O O4 0.035321 0.741757 0.000000
O O5 0.415479 0.851600 0.500000
O O6 0.321374 0.907584 0.711312
O O7 0.496519 0.918119 0.716044
O O8 0.777676 0.511211 0.500000
O O9 0.672366 0.525193 0.743886
O O10 0.842584 0.477031 0.772530
O O11 0.264493 0.243469 0.737303
O O12 0.357406 0.140458 0.799714
O O13 0.188276 0.124391 0.746737
O O14 0.243433 0.181503 0.000000
O O15 0.817435 0.186201 0.500000
O O16 0.857311 0.142751 0.778276
O O17 0.996698 0.924493 0.246443
O O18 0.095210 0.934319 0.000000
O O19 0.103217 0.088251 0.000000
O O20 0.059781 0.568899 0.000000
#
# Coordination Sequence:
#
# PCOD9426072 Si02
#       8
#     8   8   8   8   8   8   8   8
#     4  10  19  34  56  85 117 155 195 235 285 350
#     4  11  23  38  57  84 120 158 193 243 302 356
#     4  11  25  42  60  84 118 158 200 248 306 360
#     4  10  20  37  60  88 118 153 198 247 295 351
#     4  11  21  34  55  85 121 158 191 236 297 352
#     4  10  21  40  63  86 115 154 201 249 297 350
#     4   8  18  36  59  86 117 151 192 244 296 342
#     4  11  23  39  62  88 117 155 203 248 294 357
#
# _framework density 23.836016000000001
#
# number of rings (size 3 to 8) (size 9 to 14) (size 15 to 20)
#    0.000    1.750    1.250    4.125    1.750    4.000 
#    0.000    3.750    0.000    3.750    0.000    0.000 
#    0.000    0.000    0.000    0.000    0.000    0.000 
#
# Total GULP energy -357753.275224 kJ/mol
# GULP energy per Si atom -5589.894925 kJ/mol
# Density = 2.378176 g / cm^3
# Si number density = 23.836016 Si / 1000 Ang^3
#
#
#
# Elastic Constant Matrix: (Units=GPa)
#
#
# Indices 1 2 3 4 5 6 
#
# 1 115.7789 -8.8966 7.2074 0.0000 0.0000 0.0000
# 2 -8.8966 65.9822 2.6074 0.0000 0.0000 0.0000
# 3 7.2074 2.6074 43.2786 0.0000 0.0000 0.0000
# 4 0.0000 0.0000 0.0000 10.7671 0.0000 0.0000
# 5 0.0000 0.0000 0.0000 0.0000 18.5582 0.0000
# 6 0.0000 0.0000 0.0000 0.0000 0.0000 35.9513
#
#
#
# Elastic Compliance Matrix: (Units=1/GPa)
#
#
# Indices 1 2 3 4 5 6 
#
# 1 0.008830 0.001252 -0.001546 0.000000 0.000000 0.000000
# 2 0.001252 0.015369 -0.001134 0.000000 0.000000 0.000000
# 3 -0.001546 -0.001134 0.023432 0.000000 0.000000 0.000000
# 4 0.000000 0.000000 0.000000 0.092875 0.000000 0.000000
# 5 0.000000 0.000000 0.000000 0.000000 0.053885 0.000000
# 6 0.000000 0.000000 0.000000 0.000000 0.000000 0.027815
#
#
# Mechanical properties :
#
#
# Convention : Reuss Voigt Hill
#
# Bulk Modulus (GPa) = 22.33470 25.20846 23.77158
# Shear Modulus (GPa) = 20.83442 27.99675 24.41558
#
# Velocity S-wave (km/s) = 2.95968 3.43090 3.20396
# Velocity P-wave (km/s) = 4.59022 5.12772 4.86639
#
# Compressibility (1/GPa) = 0.04477339
#
# Stress axis : x y z
#
# Youngs Moduli (GPa) = 113.25593 65.06521 42.67691
#
# Poissons Ratio (x) = -0.08144 0.06597
# Poissons Ratio (y) = -0.14175 0.04841
# Poissons Ratio (z) = 0.17508 0.07381
#
# Static dielectric constant tensor:
#      x y z
#    x 1.969360 0.000000 0.000000 
#    y 0.000000 1.966770 0.000000 
#    z 0.000000 0.000000 1.801310 
# 
# From -- ./inp_files/6654.got.cif
#   From: 2010.05.17/outbox.cif.g08.bks.cpg/sg55_4_cif.got.tgz:6654.got - 2010.06.03 13:27:54.
