data_PCOD9426784
_publ_section_title
;
Structure prediction by ZEFSAII (Michael W. Deem and Ramdas Pophale) SiO2 
 PCOD9426784
Probable space group: P B A M
;
_chemical_formula_sum "Si O2"
_cell_formula_units_Z 56
_cell_length_a 23.728049
_cell_length_b 13.514876
_cell_length_c 9.088957
_cell_angle_alpha 90.000000
_cell_angle_beta 90.000000
_cell_angle_gamma 90.000000
_cell_volume 2914.661636
_symmetry_space_group_name_H-M "P B A M"
_symmetry_group_IT_number 55
_symmetry_cell_setting 'orthorhombic'
loop_
_space_group_symop_operation_xyz
x,y,z
-x,-y,z
1/2+x,1/2-y,-z
1/2-x,1/2+y,-z
-x,-y,-z
x,y,-z
1/2-x,1/2+y,z
1/2+x,1/2-y,z
loop_
_atom_site_type_symbol
_atom_site_label
_atom_site_fract_x
_atom_site_fract_y
_atom_site_fract_z
Si Si1 0.626607 0.309353 0.167938
Si Si2 0.474456 0.608268 0.673576
Si Si3 0.669137 0.018910 0.671322
Si Si4 0.959051 0.287036 0.176798
Si Si5 0.662217 0.792466 0.673005
Si Si6 0.735051 0.193676 0.176571
Si Si7 0.564185 0.094642 0.831863
O O1 0.589622 0.380074 0.269600
O O2 0.689411 0.279640 0.215322
O O3 0.594125 0.203319 0.165433
O O4 0.627435 0.346519 0.000000
O O5 0.500000 0.500000 0.698275
O O6 0.476783 0.630444 0.500000
O O7 0.510722 0.688899 0.761735
O O8 0.671675 0.047025 0.500000
O O9 0.708537 0.091939 0.763960
O O10 0.605026 0.032269 0.728854
O O11 0.684961 0.904588 0.687292
O O12 0.898093 0.291692 0.248415
O O13 0.000434 0.379680 0.213834
O O14 0.956159 0.283414 0.000000
O O15 0.655962 0.770190 0.500000
O O16 0.705890 0.719100 0.749861
O O17 0.738784 0.190470 0.000000
O O18 0.565237 0.056409 0.000000
#
# Coordination Sequence:
#
# PCOD9426784 Si02
#       7
#     8   8   8   8   8   8   8
#     4   8  16  32  54  79 105 140 186 232 276 329
#     4  10  20  34  54  83 116 151 189 234 289 346
#     4  10  21  37  59  86 114 150 190 234 291 348
#     4  10  21  37  57  82 114 152 190 236 290 338
#     4  11  24  40  58  84 119 154 191 239 292 346
#     4  10  21  39  61  83 110 148 194 241 286 340
#     4   8  16  32  55  82 111 143 182 227 275 333
#
# _framework density 19.213208000000002
#
# number of rings (size 3 to 8) (size 9 to 14) (size 15 to 20)
#    0.000    2.429    0.000    3.857    0.000   10.286 
#    2.571    2.857    0.000    0.000    0.000    0.000 
#    0.000    0.000    0.000    0.000    0.000    0.000 
#
# Total GULP energy -312587.108753 kJ/mol
# GULP energy per Si atom -5581.912656 kJ/mol
# Density = 1.916948 g / cm^3
# Si number density = 19.213208 Si / 1000 Ang^3
#
#
#
# Elastic Constant Matrix: (Units=GPa)
#
#
# Indices 1 2 3 4 5 6 
#
# 1 104.1216 17.7558 35.9133 0.0000 0.0000 0.0000
# 2 17.7558 40.8273 35.0528 0.0000 0.0000 0.0000
# 3 35.9133 35.0528 75.5342 0.0000 0.0000 0.0000
# 4 0.0000 0.0000 0.0000 -243.7711 0.0000 0.0000
# 5 0.0000 0.0000 0.0000 0.0000 17.8545 0.0000
# 6 0.0000 0.0000 0.0000 0.0000 0.0000 26.3372
#
#
#
# Elastic Compliance Matrix: (Units=1/GPa)
#
#
# Indices 1 2 3 4 5 6 
#
# 1 0.011495 -0.000510 -0.005228 0.000000 0.000000 0.000000
# 2 -0.000510 0.040738 -0.018663 0.000000 0.000000 0.000000
# 3 -0.005228 -0.018663 0.024386 0.000000 0.000000 0.000000
# 4 0.000000 0.000000 0.000000 -0.004102 0.000000 0.000000
# 5 0.000000 0.000000 0.000000 0.000000 0.056008 0.000000
# 6 0.000000 0.000000 0.000000 0.000000 0.000000 0.037969
#
#
# Mechanical properties :
#
#
# Convention : Reuss Voigt Hill
#
# Bulk Modulus (GPa) = 35.95041 44.21407 40.08224
# Shear Modulus (GPa) = 22.26495 -31.13180 -4.43342
#
# Velocity S-wave (km/s) = 3.40786 -4.02970 -1.52069
# Velocity P-wave (km/s) = 5.85121 1.18783 4.22182
#
# Compressibility (1/GPa) = 0.02781609
#
# Stress axis : x y z
#
# Youngs Moduli (GPa) = 86.99806 24.54691 41.00764
#
# Poissons Ratio (x) = 0.01252 0.21441
# Poissons Ratio (y) = 0.04437 0.76532
# Poissons Ratio (z) = 0.45487 0.45811
#
# Static dielectric constant tensor:
#      x y z
#    x 1.689220 0.000000 0.000000 
#    y 0.000000 1.674110 0.000000 
#    z 0.000000 0.000000 1.641730 
# 
# From -- ./inp_files/8701.got.cif
#   From: 2010.05.17/outbox.cif.g08.bks.cpg/sg55_5_cif.got.tgz:8701.got - 2010.06.03 13:27:54.
