data_PCOD9426933
_publ_section_title
;
Structure prediction by ZEFSAII (Michael W. Deem and Ramdas Pophale) SiO2 
 PCOD9426933
Probable space group: P B A M
;
_chemical_formula_sum "Si O2"
_cell_formula_units_Z 64
_cell_length_a 19.680509
_cell_length_b 9.367868
_cell_length_c 18.195092
_cell_angle_alpha 90.000000
_cell_angle_beta 90.000000
_cell_angle_gamma 90.000000
_cell_volume 3354.527410
_symmetry_space_group_name_H-M "P B A M"
_symmetry_group_IT_number 55
_symmetry_cell_setting 'orthorhombic'
loop_
_space_group_symop_operation_xyz
x,y,z
-x,-y,z
1/2+x,1/2-y,-z
1/2-x,1/2+y,-z
-x,-y,-z
x,y,-z
1/2-x,1/2+y,z
1/2+x,1/2-y,z
loop_
_atom_site_type_symbol
_atom_site_label
_atom_site_fract_x
_atom_site_fract_y
_atom_site_fract_z
Si Si1 0.182569 0.471613 0.735257
Si Si2 0.751634 0.277013 0.175453
Si Si3 0.550677 0.883019 0.691937
Si Si4 0.759575 0.498340 0.415620
Si Si5 0.346298 0.278464 0.415470
Si Si6 0.875783 0.840150 0.914585
Si Si7 0.118328 0.829429 0.914401
Si Si8 0.994278 0.669408 0.841421
O O1 0.208097 0.342391 0.783470
O O2 0.225950 0.605677 0.765074
O O3 0.105448 0.523014 0.737714
O O4 0.196051 0.437776 0.649967
O O5 0.701468 0.338241 0.113910
O O6 0.818425 0.213188 0.137053
O O7 0.595560 0.783279 0.638310
O O8 0.509759 0.799862 0.755175
O O9 0.500000 0.000000 0.655750
O O10 0.775126 0.540680 0.500000
O O11 0.684549 0.563793 0.400694
O O12 0.781694 0.331648 0.411014
O O13 0.370272 0.273718 0.500000
O O14 0.923796 0.736063 0.868289
O O15 0.898923 0.003614 0.906462
O O16 0.878989 0.799433 0.000000
O O17 0.053484 0.740739 0.889277
O O18 0.135137 0.803367 0.000000
O O19 0.000000 0.500000 0.852691
#
# Coordination Sequence:
#
# PCOD9426933 Si02
#       8
#     8   8   8   8   8   8   8   8
#     4  11  21  36  61  85 120 156 193 246 300 356
#     4  12  22  40  58  90 117 152 196 250 307 363
#     4  10  20  35  55  84 118 153 198 245 289 352
#     4   9  18  33  54  86 120 150 190 236 289 348
#     4   9  18  33  56  87 121 157 195 239 296 353
#     4  11  25  42  61  85 118 157 200 252 311 369
#     4  11  24  42  60  83 117 153 196 251 307 365
#     4  11  23  41  61  86 115 155 205 252 298 359
#
# _framework density 19.078693000000001
#
# number of rings (size 3 to 8) (size 9 to 14) (size 15 to 20)
#    0.000    1.500    2.500    4.125    0.000    2.250 
#    0.000    0.000    0.000    0.000    0.000    0.875 
#    0.000   38.000    0.000    0.000    0.000    0.000 
#
# Total GULP energy -356786.916218 kJ/mol
# GULP energy per Si atom -5574.795566 kJ/mol
# Density = 1.903527 g / cm^3
# Si number density = 19.078693 Si / 1000 Ang^3
#
#
#
# Elastic Constant Matrix: (Units=GPa)
#
#
# Indices 1 2 3 4 5 6 
#
# 1 90.5424 21.9574 26.2922 0.0000 0.0000 0.0000
# 2 21.9574 45.9277 27.8648 0.0000 0.0000 0.0000
# 3 26.2922 27.8648 82.6055 0.0000 0.0000 0.0000
# 4 0.0000 0.0000 0.0000 23.4456 0.0000 0.0000
# 5 0.0000 0.0000 0.0000 0.0000 15.1827 0.0000
# 6 0.0000 0.0000 0.0000 0.0000 0.0000 22.0499
#
#
#
# Elastic Compliance Matrix: (Units=1/GPa)
#
#
# Indices 1 2 3 4 5 6 
#
# 1 0.012906 -0.004624 -0.002548 0.000000 0.000000 0.000000
# 2 -0.004624 0.029033 -0.008322 0.000000 0.000000 0.000000
# 3 -0.002548 -0.008322 0.015724 0.000000 0.000000 0.000000
# 4 0.000000 0.000000 0.000000 0.042652 0.000000 0.000000
# 5 0.000000 0.000000 0.000000 0.000000 0.065864 0.000000
# 6 0.000000 0.000000 0.000000 0.000000 0.000000 0.045352
#
#
# Mechanical properties :
#
#
# Convention : Reuss Voigt Hill
#
# Bulk Modulus (GPa) = 37.48835 41.25604 39.37220
# Shear Modulus (GPa) = 19.88785 21.66639 20.77712
#
# Velocity S-wave (km/s) = 3.23214 3.37357 3.30361
# Velocity P-wave (km/s) = 5.79836 6.07007 5.93577
#
# Compressibility (1/GPa) = 0.02667496
#
# Stress axis : x y z
#
# Youngs Moduli (GPa) = 77.48420 34.44360 63.59788
#
# Poissons Ratio (x) = 0.15928 0.16204
# Poissons Ratio (y) = 0.35831 0.52924
# Poissons Ratio (z) = 0.19742 0.28663
#
# Static dielectric constant tensor:
#      x y z
#    x 1.659560 0.000000 0.000000 
#    y 0.000000 1.680650 0.000000 
#    z 0.000000 0.000000 1.678590 
# 
# From -- ./inp_files/21940.got.cif
#   From: 2010.05.17/outbox.cif.g08.bks.cpg/sg55_11_cif.got.tgz:21940.got - 2010.06.03 13:27:54.
