data_PCOD9426999
_publ_section_title
;
Structure prediction by ZEFSAII (Michael W. Deem and Ramdas Pophale) SiO2 
 PCOD9426999
Probable space group: P B A M
;
_chemical_formula_sum "Si O2"
_cell_formula_units_Z 64
_cell_length_a 8.314210
_cell_length_b 15.553205
_cell_length_c 22.773332
_cell_angle_alpha 90.000000
_cell_angle_beta 90.000000
_cell_angle_gamma 90.000000
_cell_volume 2944.879057
_symmetry_space_group_name_H-M "P B A M"
_symmetry_group_IT_number 55
_symmetry_cell_setting 'orthorhombic'
loop_
_space_group_symop_operation_xyz
x,y,z
-x,-y,z
1/2+x,1/2-y,-z
1/2-x,1/2+y,-z
-x,-y,-z
x,y,-z
1/2-x,1/2+y,z
1/2+x,1/2-y,z
loop_
_atom_site_type_symbol
_atom_site_label
_atom_site_fract_x
_atom_site_fract_y
_atom_site_fract_z
Si Si1 0.574866 0.096290 0.268510
Si Si2 0.311387 0.981941 0.840212
Si Si3 0.196810 0.662711 0.797750
Si Si4 0.157602 0.791667 0.567104
Si Si5 0.428039 0.755053 0.129073
Si Si6 0.667251 0.051327 0.606063
Si Si7 0.668019 0.378654 0.427978
Si Si8 0.659397 0.629483 0.930864
O O1 0.683473 0.092459 0.209805
O O2 0.421245 0.158368 0.258373
O O3 0.664441 0.096069 0.329714
O O4 0.500000 0.000000 0.268192
O O5 0.206647 0.955449 0.895223
O O6 0.500000 0.000000 0.856017
O O7 0.245624 0.066338 0.808919
O O8 0.344863 0.723979 0.810132
O O9 0.078099 0.687178 0.851517
O O10 0.113010 0.773230 0.500000
O O11 0.295702 0.865117 0.567056
O O12 0.210385 0.698485 0.590578
O O13 0.003485 0.841003 0.592549
O O14 0.306481 0.807131 0.088035
O O15 0.499977 0.673845 0.094711
O O16 0.500000 0.000000 0.595188
O O17 0.791875 0.972646 0.597291
O O18 0.669952 0.386804 0.500000
O O19 0.651080 0.618048 0.000000
#
# Coordination Sequence:
#
# PCOD9426999 Si02
#       8
#     8   8   8   8   8   8   8   8
#     4   8  17  36  60  78 109 153 196 240 298 354
#     4   9  17  37  58  79 110 155 198 234 293 365
#     4   9  18  37  60  78 109 154 195 240 291 363
#     4  10  21  38  61  90 130 173 219 268 320 383
#     4  10  20  35  57  85 116 148 190 242 301 361
#     4  11  21  35  61  89 126 164 212 269 326 377
#     4  10  21  38  61  90 127 174 218 265 321 379
#     4  11  21  35  57  88 119 150 194 246 301 365
#
# _framework density 21.732641000000001
#
# number of rings (size 3 to 8) (size 9 to 14) (size 15 to 20)
#    0.000    2.500    2.500    1.875    0.000    3.750 
#    0.000    6.875   16.500    0.000    0.000    0.000 
#    0.000    0.000    0.000    0.000    0.000    0.000 
#
# Total GULP energy -356387.306849 kJ/mol
# GULP energy per Si atom -5568.551670 kJ/mol
# Density = 2.168318 g / cm^3
# Si number density = 21.732641 Si / 1000 Ang^3
#
#
#
# Elastic Constant Matrix: (Units=GPa)
#
#
# Indices 1 2 3 4 5 6 
#
# 1 42.7636 9.5021 16.7934 0.0000 0.0000 0.0000
# 2 9.5021 84.2161 17.3592 0.0000 0.0000 0.0000
# 3 16.7934 17.3592 81.2306 0.0000 0.0000 0.0000
# 4 0.0000 0.0000 0.0000 -353.4910 0.0000 0.0000
# 5 0.0000 0.0000 0.0000 0.0000 23.3474 0.0000
# 6 0.0000 0.0000 0.0000 0.0000 0.0000 33.9205
#
#
#
# Elastic Compliance Matrix: (Units=1/GPa)
#
#
# Indices 1 2 3 4 5 6 
#
# 1 0.025735 -0.001890 -0.004916 0.000000 0.000000 0.000000
# 2 -0.001890 0.012560 -0.002293 0.000000 0.000000 0.000000
# 3 -0.004916 -0.002293 0.013817 0.000000 0.000000 0.000000
# 4 0.000000 0.000000 0.000000 -0.002829 0.000000 0.000000
# 5 0.000000 0.000000 0.000000 0.000000 0.042831 0.000000
# 6 0.000000 0.000000 0.000000 0.000000 0.000000 0.029481
#
#
# Mechanical properties :
#
#
# Convention : Reuss Voigt Hill
#
# Bulk Modulus (GPa) = 29.48784 32.83552 31.16168
# Shear Modulus (GPa) = 33.09069 -48.27424 -7.59178
#
# Velocity S-wave (km/s) = 3.90632 -4.71816 -1.87105
# Velocity P-wave (km/s) = 5.82612 3.81309 3.11480
#
# Compressibility (1/GPa) = 0.03391229
#
# Stress axis : x y z
#
# Youngs Moduli (GPa) = 38.85739 79.61650 72.37381
#
# Poissons Ratio (x) = 0.15050 0.35582
# Poissons Ratio (y) = 0.07345 0.16598
# Poissons Ratio (z) = 0.19104 0.18259
#
# Static dielectric constant tensor:
#      x y z
#    x 1.865980 0.000000 0.000000 
#    y 0.000000 1.850900 0.000000 
#    z 0.000000 0.000000 1.844850 
# 
# From -- ./inp_files/23489.got.cif
#   From: 2010.05.17/outbox.cif.g08.bks.cpg/sg55_12_cif.got.tgz:23489.got - 2010.06.03 13:27:54.
