data_PCOD9426197
_publ_section_title
;
Structure prediction by ZEFSAII (Michael W. Deem and Ramdas Pophale) SiO2 
 PCOD9426197
Probable space group: P B A M
;
_chemical_formula_sum "Si O2"
_cell_formula_units_Z 34
_cell_length_a 4.736432
_cell_length_b 23.395428
_cell_length_c 15.363958
_cell_angle_alpha 90.000000
_cell_angle_beta 90.000000
_cell_angle_gamma 90.000000
_cell_volume 1702.493304
_symmetry_space_group_name_H-M "P B A M"
_symmetry_group_IT_number 55
_symmetry_cell_setting 'orthorhombic'
loop_
_space_group_symop_operation_xyz
x,y,z
-x,-y,z
1/2+x,1/2-y,-z
1/2-x,1/2+y,-z
-x,-y,-z
x,y,-z
1/2-x,1/2+y,z
1/2+x,1/2-y,z
loop_
_atom_site_type_symbol
_atom_site_label
_atom_site_fract_x
_atom_site_fract_y
_atom_site_fract_z
Si Si1 0.366866 0.290070 0.312657
Si Si2 0.375407 0.555385 0.845071
Si Si3 0.889674 0.634224 0.838635
Si Si4 0.902688 0.290145 0.000000
Si Si5 0.000000 0.500000 0.000000
Si Si6 0.777071 0.709957 0.500000
O O1 0.686820 0.268982 0.307106
O O2 0.263663 0.328521 0.234190
O O3 0.301786 0.316837 0.407450
O O4 0.500000 0.500000 0.795654
O O5 0.643484 0.592922 0.875066
O O6 0.146418 0.596532 0.800332
O O7 0.200795 0.529764 0.925058
O O8 0.018293 0.673284 0.915081
O O9 0.082067 0.231270 0.000000
O O10 0.599317 0.769741 0.500000
#
# Coordination Sequence:
#
# PCOD9426197 Si02
#       6
#     8   8   8   4   2   4
#     4  10  19  35  56  85 119 150 183 225 270 334
#     4  12  24  39  57  81 103 139 187 248 284 318
#     4  12  23  37  57  81 109 151 185 224 283 331
#     4  12  24  38  49  75 112 148 179 211 257 336
#     4  12  22  40  58  72 106 130 184 246 288 304
#     4   8  16  30  54  82 113 147 182 224 272 316
#
# _framework density 19.970707999999998
#
# number of rings (size 3 to 8) (size 9 to 14) (size 15 to 20)
#    0.000    0.941    2.353    6.000    0.000    0.000 
#    0.000    0.000    0.000    0.000    0.000    4.941 
#    0.000    0.000    0.000    0.000    0.000    0.000 
#
# Total GULP energy -189398.287377 kJ/mol
# GULP energy per Si atom -5570.537864 kJ/mol
# Density = 1.992525 g / cm^3
# Si number density = 19.970708 Si / 1000 Ang^3
#
#
#
# Elastic Constant Matrix: (Units=GPa)
#
#
# Indices 1 2 3 4 5 6 
#
# 1 83.7883 14.6851 -11.5053 0.0000 0.0000 0.0000
# 2 14.6851 64.3287 21.6453 0.0000 0.0000 0.0000
# 3 -11.5053 21.6453 77.4086 0.0000 0.0000 0.0000
# 4 0.0000 0.0000 0.0000 -0.7710 0.0000 0.0000
# 5 0.0000 0.0000 0.0000 0.0000 24.6355 0.0000
# 6 0.0000 0.0000 0.0000 0.0000 0.0000 42.7137
#
#
#
# Elastic Compliance Matrix: (Units=1/GPa)
#
#
# Indices 1 2 3 4 5 6 
#
# 1 0.013058 -0.004012 0.003063 0.000000 0.000000 0.000000
# 2 -0.004012 0.018392 -0.005739 0.000000 0.000000 0.000000
# 3 0.003063 -0.005739 0.014978 0.000000 0.000000 0.000000
# 4 0.000000 0.000000 0.000000 -1.297049 0.000000 0.000000
# 5 0.000000 0.000000 0.000000 0.000000 0.040592 0.000000
# 6 0.000000 0.000000 0.000000 0.000000 0.000000 0.023412
#
#
# Mechanical properties :
#
#
# Convention : Reuss Voigt Hill
#
# Bulk Modulus (GPa) = 30.25451 30.57508 30.41480
# Shear Modulus (GPa) = -4.30210 26.69568 11.19679
#
# Velocity S-wave (km/s) = -1.46931 3.66011 2.37040
# Velocity P-wave (km/s) = 3.50768 5.76239 4.77016
#
# Compressibility (1/GPa) = 0.03305292
#
# Stress axis : x y z
#
# Youngs Moduli (GPa) = 76.57870 54.37141 66.76258
#
# Poissons Ratio (x) = 0.21811 -0.20447
# Poissons Ratio (y) = 0.30720 0.38316
# Poissons Ratio (z) = -0.23453 0.31204
#
# Static dielectric constant tensor:
#      x y z
#    x 1.739130 0.000000 0.000000 
#    y 0.000000 1.781010 0.000000 
#    z 0.000000 0.000000 1.697880 
# 
# From -- ./inp_files/16512.got.cif
#   From: 2010.05.17/outbox.cif.g08.bks.cpg/sg55_9_cif.got.tgz:16512.got - 2010.06.03 13:27:54.
