data_PCOD9426599
_publ_section_title
;
Structure prediction by ZEFSAII (Michael W. Deem and Ramdas Pophale) SiO2 
 PCOD9426599
Probable space group: P B A M
;
_chemical_formula_sum "Si O2"
_cell_formula_units_Z 56
_cell_length_a 14.046030
_cell_length_b 21.843362
_cell_length_c 10.158027
_cell_angle_alpha 90.000000
_cell_angle_beta 90.000000
_cell_angle_gamma 90.000000
_cell_volume 3116.609841
_symmetry_space_group_name_H-M "P B A M"
_symmetry_group_IT_number 55
_symmetry_cell_setting 'orthorhombic'
loop_
_space_group_symop_operation_xyz
x,y,z
-x,-y,z
1/2+x,1/2-y,-z
1/2-x,1/2+y,-z
-x,-y,-z
x,y,-z
1/2-x,1/2+y,z
1/2+x,1/2-y,z
loop_
_atom_site_type_symbol
_atom_site_label
_atom_site_fract_x
_atom_site_fract_y
_atom_site_fract_z
Si Si1 0.040965 0.564278 0.341233
Si Si2 0.094125 0.031587 0.749952
Si Si3 0.802746 0.087455 0.149819
Si Si4 0.648020 0.136364 0.345660
Si Si5 0.498170 0.346882 0.149065
Si Si6 0.868328 0.779656 0.657643
Si Si7 0.759900 0.388326 0.348252
O O1 0.051849 0.556313 0.500000
O O2 0.959719 0.614601 0.320263
O O3 0.000000 0.500000 0.289723
O O4 0.143657 0.584678 0.287417
O O5 0.053065 0.087934 0.835214
O O6 0.173886 0.062965 0.659746
O O7 0.147874 0.978463 0.829078
O O8 0.000000 0.000000 0.686977
O O9 0.720515 0.099725 0.254291
O O10 0.887742 0.136575 0.169924
O O11 0.768294 0.092435 0.000000
O O12 0.668374 0.123873 0.500000
O O13 0.654952 0.208851 0.322482
O O14 0.541292 0.301973 0.258169
O O15 0.511799 0.324323 0.000000
O O16 0.884144 0.789181 0.500000
O O17 0.783023 0.824616 0.703604
O O18 0.782387 0.375665 0.500000
#
# Coordination Sequence:
#
# PCOD9426599 Si02
#       7
#     8   8   8   8   8   8   8
#     4   9  17  30  49  71  95 129 172 211 250 302
#     4   9  17  30  50  75 102 132 166 205 253 311
#     4  10  20  33  51  76 104 133 166 207 256 305
#     4  10  21  35  52  74 100 134 175 216 258 305
#     4   9  18  33  53  75 101 135 168 200 248 310
#     4   9  19  34  51  75 103 130 166 212 259 304
#     4   9  17  30  49  73 102 133 166 210 260 308
#
# _framework density 17.968243000000001
#
# number of rings (size 3 to 8) (size 9 to 14) (size 15 to 20)
#    0.000    2.714    0.000    1.286    0.000    6.000 
#    0.000    5.714    0.000    7.286    0.000    0.000 
#    0.000    0.000    0.000    0.000    0.000    0.000 
#
# Total GULP energy -311844.744475 kJ/mol
# GULP energy per Si atom -5568.656151 kJ/mol
# Density = 1.792735 g / cm^3
# Si number density = 17.968243 Si / 1000 Ang^3
#
#
#
# Elastic Constant Matrix: (Units=GPa)
#
#
# Indices 1 2 3 4 5 6 
#
# 1 86.7385 32.1464 18.2614 0.0000 0.0000 0.0000
# 2 32.1464 67.6719 13.0773 0.0000 0.0000 0.0000
# 3 18.2614 13.0773 32.9347 0.0000 0.0000 0.0000
# 4 0.0000 0.0000 0.0000 6.5247 0.0000 0.0000
# 5 0.0000 0.0000 0.0000 0.0000 17.2365 0.0000
# 6 0.0000 0.0000 0.0000 0.0000 0.0000 11.9886
#
#
#
# Elastic Compliance Matrix: (Units=1/GPa)
#
#
# Indices 1 2 3 4 5 6 
#
# 1 0.014994 -0.005974 -0.005941 0.000000 0.000000 0.000000
# 2 -0.005974 0.018386 -0.003988 0.000000 0.000000 0.000000
# 3 -0.005941 -0.003988 0.035241 0.000000 0.000000 0.000000
# 4 0.000000 0.000000 0.000000 0.153263 0.000000 0.000000
# 5 0.000000 0.000000 0.000000 0.000000 0.058016 0.000000
# 6 0.000000 0.000000 0.000000 0.000000 0.000000 0.083413
#
#
# Mechanical properties :
#
#
# Convention : Reuss Voigt Hill
#
# Bulk Modulus (GPa) = 27.16407 34.92392 31.04399
# Shear Modulus (GPa) = 12.27319 15.40730 13.84025
#
# Velocity S-wave (km/s) = 2.61636 2.93144 2.77837
# Velocity P-wave (km/s) = 4.92724 5.56206 5.25425
#
# Compressibility (1/GPa) = 0.03681333
#
# Stress axis : x y z
#
# Youngs Moduli (GPa) = 66.69334 54.38954 28.37615
#
# Poissons Ratio (x) = 0.32495 0.16860
# Poissons Ratio (y) = 0.39846 0.11316
# Poissons Ratio (z) = 0.39626 0.21689
#
# Static dielectric constant tensor:
#      x y z
#    x 1.629060 0.000000 0.000000 
#    y 0.000000 1.625500 0.000000 
#    z 0.000000 0.000000 1.601530 
# 
# From -- ./inp_files/13356.got.cif
#   From: 2010.05.17/outbox.cif.g08.bks.cpg/sg55_7_cif.got.tgz:13356.got - 2010.06.03 13:27:54.
