data_PCOD9426816
_publ_section_title
;
Structure prediction by ZEFSAII (Michael W. Deem and Ramdas Pophale) SiO2 
 PCOD9426816
Probable space group: P B A M
;
_chemical_formula_sum "Si O2"
_cell_formula_units_Z 64
_cell_length_a 21.204702
_cell_length_b 17.067108
_cell_length_c 8.861483
_cell_angle_alpha 90.000000
_cell_angle_beta 90.000000
_cell_angle_gamma 90.000000
_cell_volume 3206.996743
_symmetry_space_group_name_H-M "P B A M"
_symmetry_group_IT_number 55
_symmetry_cell_setting 'orthorhombic'
loop_
_space_group_symop_operation_xyz
x,y,z
-x,-y,z
1/2+x,1/2-y,-z
1/2-x,1/2+y,-z
-x,-y,-z
x,y,-z
1/2-x,1/2+y,z
1/2+x,1/2-y,z
loop_
_atom_site_type_symbol
_atom_site_label
_atom_site_fract_x
_atom_site_fract_y
_atom_site_fract_z
Si Si1 0.617481 0.708430 0.176736
Si Si2 0.977622 0.334244 0.319182
Si Si3 0.117627 0.536575 0.323176
Si Si4 0.395645 0.774646 0.182290
Si Si5 0.853735 0.890442 0.176680
Si Si6 0.708011 0.844790 0.172601
Si Si7 0.667647 0.555356 0.678875
Si Si8 0.197160 0.404472 0.178909
O O1 0.566204 0.765842 0.250182
O O2 0.683540 0.756318 0.189350
O O3 0.625428 0.625576 0.255906
O O4 0.603604 0.698318 0.000000
O O5 0.976533 0.329390 0.500000
O O6 0.946337 0.418111 0.278815
O O7 0.046807 0.320273 0.256319
O O8 0.114799 0.515451 0.500000
O O9 0.171149 0.602409 0.292451
O O10 0.141564 0.464286 0.225389
O O11 0.394639 0.683696 0.229540
O O12 0.330586 0.819412 0.219585
O O13 0.401267 0.776619 0.000000
O O14 0.781706 0.859522 0.185316
O O15 0.856825 0.971186 0.265505
O O16 0.867331 0.905514 0.000000
O O17 0.689341 0.868610 0.000000
O O18 0.668947 0.558230 0.500000
O O19 0.738655 0.569590 0.740695
O O20 0.208503 0.407679 0.000000
#
# Coordination Sequence:
#
# PCOD9426816 Si02
#       8
#     8   8   8   8   8   8   8   8
#     4  10  20  37  62  87 113 152 198 242 286 342
#     4  10  22  40  60  85 120 157 197 244 294 346
#     4  10  20  34  55  86 120 155 191 233 289 348
#     4  10  23  41  61  85 113 154 204 246 288 344
#     4  10  20  37  59  83 114 150 191 241 293 347
#     4   9  17  32  57  84 111 147 188 232 287 344
#     4  12  24  37  57  90 124 153 188 237 298 357
#     4  11  22  38  60  88 121 155 196 243 292 348
#
# _framework density 19.956365000000002
#
# number of rings (size 3 to 8) (size 9 to 14) (size 15 to 20)
#    0.000    1.750    1.250    3.375    0.000    6.000 
#    0.000    4.375    0.000    3.750    0.000    0.000 
#    0.000    0.000    0.000    0.000    0.000    0.000 
#
# Total GULP energy -357524.608527 kJ/mol
# GULP energy per Si atom -5586.322008 kJ/mol
# Density = 1.991094 g / cm^3
# Si number density = 19.956365 Si / 1000 Ang^3
#
#
#
# Elastic Constant Matrix: (Units=GPa)
#
#
# Indices 1 2 3 4 5 6 
#
# 1 32.5991 -4.4399 2.9386 0.0000 0.0000 0.0000
# 2 -4.4399 84.1727 24.8353 0.0000 0.0000 0.0000
# 3 2.9386 24.8353 49.6581 0.0000 0.0000 0.0000
# 4 0.0000 0.0000 0.0000 13.2454 0.0000 0.0000
# 5 0.0000 0.0000 0.0000 0.0000 17.6316 0.0000
# 6 0.0000 0.0000 0.0000 0.0000 0.0000 21.8095
#
#
#
# Elastic Compliance Matrix: (Units=1/GPa)
#
#
# Indices 1 2 3 4 5 6 
#
# 1 0.031310 0.002579 -0.003143 0.000000 0.000000 0.000000
# 2 0.002579 0.014149 -0.007229 0.000000 0.000000 0.000000
# 3 -0.003143 -0.007229 0.023939 0.000000 0.000000 0.000000
# 4 0.000000 0.000000 0.000000 0.075498 0.000000 0.000000
# 5 0.000000 0.000000 0.000000 0.000000 0.056716 0.000000
# 6 0.000000 0.000000 0.000000 0.000000 0.000000 0.045852
#
#
# Mechanical properties :
#
#
# Convention : Reuss Voigt Hill
#
# Bulk Modulus (GPa) = 18.58288 23.67753 21.13020
# Shear Modulus (GPa) = 17.79436 20.07702 18.93569
#
# Velocity S-wave (km/s) = 2.98931 3.17526 3.08369
# Velocity P-wave (km/s) = 4.60941 5.03324 4.82598
#
# Compressibility (1/GPa) = 0.05381297
#
# Stress axis : x y z
#
# Youngs Moduli (GPa) = 31.93849 70.67486 41.77265
#
# Poissons Ratio (x) = -0.18225 0.13127
# Poissons Ratio (y) = -0.08236 0.30198
# Poissons Ratio (z) = 0.10037 0.51091
#
# Static dielectric constant tensor:
#      x y z
#    x 1.706900 0.000000 0.000000 
#    y 0.000000 1.724510 0.000000 
#    z 0.000000 0.000000 1.667480 
# 
# From -- ./inp_files/9727.got.cif
#   From: 2010.05.17/outbox.cif.g08.bks.cpg/sg55_5_cif.got.tgz:9727.got - 2010.06.03 13:27:54.
