data_PCOD9426614
_publ_section_title
;
Structure prediction by ZEFSAII (Michael W. Deem and Ramdas Pophale) SiO2 
 PCOD9426614
Probable space group: P B A M
;
_chemical_formula_sum "Si O2"
_cell_formula_units_Z 64
_cell_length_a 20.760468
_cell_length_b 19.772422
_cell_length_c 7.518118
_cell_angle_alpha 90.000000
_cell_angle_beta 90.000000
_cell_angle_gamma 90.000000
_cell_volume 3086.072669
_symmetry_space_group_name_H-M "P B A M"
_symmetry_group_IT_number 55
_symmetry_cell_setting 'orthorhombic'
loop_
_space_group_symop_operation_xyz
x,y,z
-x,-y,z
1/2+x,1/2-y,-z
1/2-x,1/2+y,-z
-x,-y,-z
x,y,-z
1/2-x,1/2+y,z
1/2+x,1/2-y,z
loop_
_atom_site_type_symbol
_atom_site_label
_atom_site_fract_x
_atom_site_fract_y
_atom_site_fract_z
Si Si1 0.278917 0.256360 0.708186
Si Si2 0.433372 0.470791 0.788250
Si Si3 0.321703 0.564765 0.210307
Si Si4 0.817794 0.396095 0.216511
Si Si5 0.010068 0.289947 0.715163
Si Si6 0.904813 0.182242 0.285337
Si Si7 0.541501 0.937480 0.789839
Si Si8 0.140865 0.217666 0.284370
O O1 0.271217 0.272414 0.500000
O O2 0.309745 0.181604 0.724473
O O3 0.332456 0.306279 0.783864
O O4 0.207058 0.251709 0.783037
O O5 0.500000 0.500000 0.714733
O O6 0.370390 0.509008 0.715158
O O7 0.430229 0.391184 0.760764
O O8 0.433514 0.484149 0.000000
O O9 0.248320 0.568150 0.279422
O O10 0.353951 0.638766 0.233755
O O11 0.314920 0.552692 0.000000
O O12 0.885568 0.426694 0.280046
O O13 0.818121 0.395697 0.000000
O O14 0.010424 0.288715 0.500000
O O15 0.077337 0.256955 0.775809
O O16 0.952385 0.241247 0.777910
O O17 0.996107 0.366725 0.768861
O O18 0.902867 0.187494 0.500000
O O19 0.500000 0.000000 0.715689
O O20 0.549473 0.950409 0.000000
O O21 0.141175 0.218895 0.500000
#
# Coordination Sequence:
#
# PCOD9426614 Si02
#       8
#     8   8   8   8   8   8   8   8
#     4   9  17  32  52  74 101 129 163 206 249 296
#     4  10  21  35  50  73 105 138 171 209 254 302
#     4   9  18  33  52  75 103 136 174 212 250 297
#     4   9  17  32  54  74  97 131 170 209 249 296
#     4  10  20  35  54  78 104 132 168 208 255 304
#     4  10  20  33  52  75 102 134 169 210 251 299
#     4  10  21  36  53  75 102 132 169 212 257 304
#     4   9  18  32  53  78 104 133 166 208 253 299
#
# _framework density 20.738332
#
# number of rings (size 3 to 8) (size 9 to 14) (size 15 to 20)
#    0.000    2.500    1.250    0.750    0.000    2.500 
#    2.250    0.000    0.000    0.000    0.000    0.000 
#    0.000    0.000    0.000    0.000    0.000    0.000 
#
# Total GULP energy -357135.706164 kJ/mol
# GULP energy per Si atom -5580.245409 kJ/mol
# Density = 2.069113 g / cm^3
# Si number density = 20.738332 Si / 1000 Ang^3
#
#
#
# Elastic Constant Matrix: (Units=GPa)
#
#
# Indices 1 2 3 4 5 6 
#
# 1 113.6512 44.8326 -8.5886 0.0000 0.0000 0.0000
# 2 44.8326 88.3622 -22.7237 0.0000 0.0000 0.0000
# 3 -8.5886 -22.7237 49.1821 0.0000 0.0000 0.0000
# 4 0.0000 0.0000 0.0000 20.9966 0.0000 0.0000
# 5 0.0000 0.0000 0.0000 0.0000 -7.7887 0.0000
# 6 0.0000 0.0000 0.0000 0.0000 0.0000 26.4250
#
#
#
# Elastic Compliance Matrix: (Units=1/GPa)
#
#
# Indices 1 2 3 4 5 6 
#
# 1 0.011025 -0.005786 -0.000748 0.000000 0.000000 0.000000
# 2 -0.005786 0.015880 0.006327 0.000000 0.000000 0.000000
# 3 -0.000748 0.006327 0.023125 0.000000 0.000000 0.000000
# 4 0.000000 0.000000 0.000000 0.047627 0.000000 0.000000
# 5 0.000000 0.000000 0.000000 0.000000 -0.128391 0.000000
# 6 0.000000 0.000000 0.000000 0.000000 0.000000 0.037843
#
#
# Mechanical properties :
#
#
# Convention : Reuss Voigt Hill
#
# Bulk Modulus (GPa) = 20.15553 30.91512 25.53533
# Shear Modulus (GPa) = 207.80214 23.77159 115.78686
#
# Velocity S-wave (km/s) = 10.02095 3.38932 7.48021
# Velocity P-wave (km/s) = 11.98469 5.50057 9.32440
#
# Compressibility (1/GPa) = 0.04961417
#
# Stress axis : x y z
#
# Youngs Moduli (GPa) = 90.70480 62.97349 43.24326
#
# Poissons Ratio (x) = 0.36437 0.03235
# Poissons Ratio (y) = 0.52482 -0.27358
# Poissons Ratio (z) = 0.06786 -0.39840
#
# Static dielectric constant tensor:
#      x y z
#    x 1.773670 0.000000 0.000000 
#    y 0.000000 1.683980 0.000000 
#    z 0.000000 0.000000 1.764220 
# 
# From -- ./inp_files/9187.got.cif
#   From: 2010.05.17/outbox.cif.g08.bks.cpg/sg55_5_cif.got.tgz:9187.got - 2010.06.03 13:27:54.
