data_PCOD9426724
_publ_section_title
;
Structure prediction by ZEFSAII (Michael W. Deem and Ramdas Pophale) SiO2 
 PCOD9426724
Probable space group: P B A M
;
_chemical_formula_sum "Si O2"
_cell_formula_units_Z 56
_cell_length_a 18.362741
_cell_length_b 19.859901
_cell_length_c 7.688669
_cell_angle_alpha 90.000000
_cell_angle_beta 90.000000
_cell_angle_gamma 90.000000
_cell_volume 2803.920867
_symmetry_space_group_name_H-M "P B A M"
_symmetry_group_IT_number 55
_symmetry_cell_setting 'orthorhombic'
loop_
_space_group_symop_operation_xyz
x,y,z
-x,-y,z
1/2+x,1/2-y,-z
1/2-x,1/2+y,-z
-x,-y,-z
x,y,-z
1/2-x,1/2+y,z
1/2+x,1/2-y,z
loop_
_atom_site_type_symbol
_atom_site_label
_atom_site_fract_x
_atom_site_fract_y
_atom_site_fract_z
Si Si1 0.536812 0.429154 0.787394
Si Si2 0.713528 0.617937 0.208918
Si Si3 0.625672 0.100761 0.708752
Si Si4 0.143677 0.552317 0.291885
Si Si5 0.025927 0.659455 0.290973
Si Si6 0.930218 0.188966 0.209428
Si Si7 0.695217 0.463932 0.209336
O O1 0.500000 0.500000 0.736701
O O2 0.488651 0.366323 0.727605
O O3 0.620842 0.429429 0.729852
O O4 0.536362 0.428101 0.000000
O O5 0.796768 0.634577 0.252174
O O6 0.650123 0.667204 0.272598
O O7 0.698163 0.541601 0.272708
O O8 0.708689 0.615702 0.000000
O O9 0.620289 0.096893 0.500000
O O10 0.554265 0.138949 0.774410
O O11 0.629054 0.023519 0.775687
O O12 0.134923 0.549347 0.500000
O O13 0.086570 0.606913 0.224233
O O14 0.227956 0.569063 0.256757
O O15 0.024354 0.652636 0.500000
O O16 0.047508 0.735673 0.253149
O O17 0.929200 0.184052 0.000000
O O18 0.691867 0.466384 0.000000
#
# Coordination Sequence:
#
# PCOD9426724 Si02
#       7
#     8   8   8   8   8   8   8
#     4   9  15  29  54  77  99 132 171 208 247 297
#     4   9  17  31  52  78 103 129 164 209 256 301
#     4   9  18  34  57  78  97 130 176 216 253 302
#     4   9  18  34  55  76 100 132 171 215 258 302
#     4  10  21  37  53  73 103 139 174 210 257 309
#     4  10  20  34  53  76 104 138 173 208 251 307
#     4   9  16  29  53  81 103 125 164 211 254 299
#
# _framework density 19.972031999999999
#
# number of rings (size 3 to 8) (size 9 to 14) (size 15 to 20)
#    0.000    2.714    1.429    0.429    0.000    3.429 
#    2.571    0.714    0.000    5.143    0.000    0.000 
#    0.000    0.000    0.000    0.000    0.000    0.000 
#
# Total GULP energy -312401.873691 kJ/mol
# GULP energy per Si atom -5578.604887 kJ/mol
# Density = 1.992657 g / cm^3
# Si number density = 19.972032 Si / 1000 Ang^3
#
#
#
# Elastic Constant Matrix: (Units=GPa)
#
#
# Indices 1 2 3 4 5 6 
#
# 1 244.0308 118.2769 7.8910 0.0000 0.0000 0.0000
# 2 118.2769 113.6983 3.0566 0.0000 0.0000 0.0000
# 3 7.8910 3.0566 32.2232 0.0000 0.0000 0.0000
# 4 0.0000 0.0000 0.0000 25.4232 0.0000 0.0000
# 5 0.0000 0.0000 0.0000 0.0000 23.7648 0.0000
# 6 0.0000 0.0000 0.0000 0.0000 0.0000 21.6982
#
#
#
# Elastic Compliance Matrix: (Units=1/GPa)
#
#
# Indices 1 2 3 4 5 6 
#
# 1 0.008313 -0.008615 -0.001218 0.000000 0.000000 0.000000
# 2 -0.008615 0.017745 0.000426 0.000000 0.000000 0.000000
# 3 -0.001218 0.000426 0.031291 0.000000 0.000000 0.000000
# 4 0.000000 0.000000 0.000000 0.039334 0.000000 0.000000
# 5 0.000000 0.000000 0.000000 0.000000 0.042079 0.000000
# 6 0.000000 0.000000 0.000000 0.000000 0.000000 0.046087
#
#
# Mechanical properties :
#
#
# Convention : Reuss Voigt Hill
#
# Bulk Modulus (GPa) = 25.94989 72.04460 48.99725
# Shear Modulus (GPa) = 23.09386 31.55909 27.32648
#
# Velocity S-wave (km/s) = 3.40414 3.97944 3.70298
# Velocity P-wave (km/s) = 5.33594 7.56741 6.54744
#
# Compressibility (1/GPa) = 0.03853581
#
# Stress axis : x y z
#
# Youngs Moduli (GPa) = 120.30024 56.35335 31.95760
#
# Poissons Ratio (x) = 0.48546 0.03894
# Poissons Ratio (y) = 1.03633 -0.01362
# Poissons Ratio (z) = 0.14658 -0.02402
#
# Static dielectric constant tensor:
#      x y z
#    x 1.717460 0.000000 0.000000 
#    y 0.000000 1.666750 0.000000 
#    z 0.000000 0.000000 1.753740 
# 
# From -- ./inp_files/14214.got.cif
#   From: 2010.05.17/outbox.cif.g08.bks.cpg/sg55_8_cif.got.tgz:14214.got - 2010.06.03 13:27:54.
