data_PCOD9426997
_publ_section_title
;
Structure prediction by ZEFSAII (Michael W. Deem and Ramdas Pophale) SiO2 
 PCOD9426997
Probable space group: P B A M
;
_chemical_formula_sum "Si O2"
_cell_formula_units_Z 58
_cell_length_a 24.169159
_cell_length_b 14.663755
_cell_length_c 7.470456
_cell_angle_alpha 90.000000
_cell_angle_beta 90.000000
_cell_angle_gamma 90.000000
_cell_volume 2647.608988
_symmetry_space_group_name_H-M "P B A M"
_symmetry_group_IT_number 55
_symmetry_cell_setting 'orthorhombic'
loop_
_space_group_symop_operation_xyz
x,y,z
-x,-y,z
1/2+x,1/2-y,-z
1/2-x,1/2+y,-z
-x,-y,-z
x,y,-z
1/2-x,1/2+y,z
1/2+x,1/2-y,z
loop_
_atom_site_type_symbol
_atom_site_label
_atom_site_fract_x
_atom_site_fract_y
_atom_site_fract_z
Si Si1 0.884879 0.154056 0.283211
Si Si2 0.404739 0.857758 0.716298
Si Si3 0.698700 0.807409 0.716189
Si Si4 0.676631 0.291954 0.282805
Si Si5 0.482896 0.225273 0.298049
Si Si6 0.097149 0.570580 0.203074
Si Si7 0.000000 0.000000 0.000000
Si Si8 0.411174 0.550716 0.284432
O O1 0.886060 0.161356 0.500000
O O2 0.833767 0.216222 0.223270
O O3 0.941373 0.201009 0.214353
O O4 0.884429 0.048211 0.240450
O O5 0.406763 0.854152 0.500000
O O6 0.350190 0.803722 0.775539
O O7 0.458965 0.803920 0.783691
O O8 0.406327 0.963611 0.763569
O O9 0.700200 0.805896 0.500000
O O10 0.761388 0.810242 0.782373
O O11 0.658842 0.891143 0.766160
O O12 0.679812 0.289451 0.500000
O O13 0.632854 0.370959 0.241307
O O14 0.495208 0.258295 0.500000
O O15 0.445527 0.133656 0.310085
O O16 0.081346 0.588729 0.000000
O O17 0.964343 0.946459 0.158902
O O18 0.423013 0.553455 0.500000
#
# Coordination Sequence:
#
# PCOD9426997 Si02
#       8
#     8   8   8   8   8   8   2   8
#     4   8  16  33  60  87 113 151 193 244 297 349
#     4  10  20  35  57  85 114 146 190 238 291 349
#     4   9  18  38  64  86 111 147 198 245 294 359
#     4   9  20  38  63  90 113 149 196 249 304 352
#     4   9  18  34  57  83 113 149 191 235 283 343
#     4  11  22  36  52  82 116 156 191 231 289 341
#     4  12  26  40  60  94 120 170 210 248 310 366
#     4  10  22  42  63  90 126 161 207 255 303 367
#
# _framework density 21.906556999999999
#
# number of rings (size 3 to 8) (size 9 to 14) (size 15 to 20)
#    0.000    2.483    0.000    2.690    1.931    3.310 
#    7.448    4.138    0.000    0.000    0.000    0.000 
#    0.000    0.000    0.000    0.000    0.000    0.000 
#
# Total GULP energy -323417.475857 kJ/mol
# GULP energy per Si atom -5576.163377 kJ/mol
# Density = 2.185670 g / cm^3
# Si number density = 21.906557 Si / 1000 Ang^3
#
#
#
# Elastic Constant Matrix: (Units=GPa)
#
#
# Indices 1 2 3 4 5 6 
#
# 1 116.0907 22.6385 9.7911 0.0000 0.0000 0.0000
# 2 22.6385 90.8367 -1.4699 0.0000 0.0000 0.0000
# 3 9.7911 -1.4699 89.6450 0.0000 0.0000 0.0000
# 4 0.0000 0.0000 0.0000 6941.9485 0.0000 0.0000
# 5 0.0000 0.0000 0.0000 0.0000 -53.4557 0.0000
# 6 0.0000 0.0000 0.0000 0.0000 0.0000 21.2714
#
#
#
# Elastic Compliance Matrix: (Units=1/GPa)
#
#
# Indices 1 2 3 4 5 6 
#
# 1 0.009149 -0.002297 -0.001037 0.000000 0.000000 0.000000
# 2 -0.002297 0.011588 0.000441 0.000000 0.000000 0.000000
# 3 -0.001037 0.000441 0.011276 0.000000 0.000000 0.000000
# 4 0.000000 0.000000 0.000000 0.000144 0.000000 0.000000
# 5 0.000000 0.000000 0.000000 0.000000 -0.018707 0.000000
# 6 0.000000 0.000000 0.000000 0.000000 0.000000 0.047012
#
#
# Mechanical properties :
#
#
# Convention : Reuss Voigt Hill
#
# Bulk Modulus (GPa) = 38.12839 39.83242 38.98041
# Shear Modulus (GPa) = 66.67523 1399.66034 733.16778
#
# Velocity S-wave (km/s) = 5.52289 25.30435 18.31410
# Velocity P-wave (km/s) = 7.62316 29.52912 21.56480
#
# Compressibility (1/GPa) = 0.02622717
#
# Stress axis : x y z
#
# Youngs Moduli (GPa) = 109.29743 86.29342 88.68711
#
# Poissons Ratio (x) = 0.19822 0.09197
# Poissons Ratio (y) = 0.25106 -0.03910
# Poissons Ratio (z) = 0.11334 -0.03805
#
# Static dielectric constant tensor:
#      x y z
#    x 1.788610 0.000000 0.000000 
#    y 0.000000 1.791140 0.000000 
#    z 0.000000 0.000000 1.853340 
# 
# From -- ./inp_files/9581.got.cif
#   From: 2010.05.17/outbox.cif.g08.bks.cpg/sg55_5_cif.got.tgz:9581.got - 2010.06.03 13:27:54.
