data_PCOD9426587
_publ_section_title
;
Structure prediction by ZEFSAII (Michael W. Deem and Ramdas Pophale) SiO2 
 PCOD9426587
Probable space group: P B A M
;
_chemical_formula_sum "Si O2"
_cell_formula_units_Z 56
_cell_length_a 21.354605
_cell_length_b 14.975607
_cell_length_c 8.501720
_cell_angle_alpha 90.000000
_cell_angle_beta 90.000000
_cell_angle_gamma 90.000000
_cell_volume 2718.834516
_symmetry_space_group_name_H-M "P B A M"
_symmetry_group_IT_number 55
_symmetry_cell_setting 'orthorhombic'
loop_
_space_group_symop_operation_xyz
x,y,z
-x,-y,z
1/2+x,1/2-y,-z
1/2-x,1/2+y,-z
-x,-y,-z
x,y,-z
1/2-x,1/2+y,z
1/2+x,1/2-y,z
loop_
_atom_site_type_symbol
_atom_site_label
_atom_site_fract_x
_atom_site_fract_y
_atom_site_fract_z
Si Si1 0.043015 0.579215 0.314201
Si Si2 0.521061 0.721089 0.689296
Si Si3 0.848397 0.156442 0.810775
Si Si4 0.369007 0.953179 0.817598
Si Si5 0.608770 0.242596 0.810982
Si Si6 0.245412 0.202225 0.313591
Si Si7 0.732213 0.494110 0.183081
O O1 0.031105 0.584478 0.500000
O O2 0.034468 0.677633 0.250644
O O3 0.110738 0.538638 0.281231
O O4 0.000000 0.500000 0.245656
O O5 0.521757 0.718608 0.500000
O O6 0.580569 0.667445 0.752391
O O7 0.450499 0.701876 0.747552
O O8 0.802003 0.236596 0.754456
O O9 0.821461 0.060233 0.756522
O O10 0.846717 0.157222 0.000000
O O11 0.398366 0.860994 0.757483
O O12 0.294576 0.945591 0.813372
O O13 0.386692 0.967301 0.000000
O O14 0.677063 0.270261 0.752027
O O15 0.608341 0.243568 0.000000
O O16 0.246708 0.214189 0.500000
O O17 0.247518 0.097407 0.270554
O O18 0.719423 0.470843 0.000000
#
# Coordination Sequence:
#
# PCOD9426587 Si02
#       7
#     8   8   8   8   8   8   8
#     4  10  20  33  50  79 120 160 194 238 303 371
#     4  11  23  39  59  90 128 167 208 261 321 374
#     4  11  23  43  67  93 127 169 213 261 315 378
#     4  10  20  35  58  86 115 154 203 252 302 361
#     4  11  22  40  63  89 122 166 212 256 308 373
#     4  12  25  41  65  97 129 166 209 263 322 375
#     4  10  22  42  65  90 121 161 211 263 312 372
#
# _framework density 20.597062000000001
#
# number of rings (size 3 to 8) (size 9 to 14) (size 15 to 20)
#    0.000    1.286    2.857    3.429    0.000    6.000 
#    0.000    0.714    0.000    4.286    0.000    0.000 
#    0.000    0.000    0.000    0.000    0.000    0.000 
#
# Total GULP energy -312556.557593 kJ/mol
# GULP energy per Si atom -5581.367100 kJ/mol
# Density = 2.055018 g / cm^3
# Si number density = 20.597062 Si / 1000 Ang^3
#
#
#
# Elastic Constant Matrix: (Units=GPa)
#
#
# Indices 1 2 3 4 5 6 
#
# 1 87.1017 7.2774 18.4988 0.0000 0.0000 0.0000
# 2 7.2774 40.9548 6.2703 0.0000 0.0000 0.0000
# 3 18.4988 6.2703 53.8770 0.0000 0.0000 0.0000
# 4 0.0000 0.0000 0.0000 18.1324 0.0000 0.0000
# 5 0.0000 0.0000 0.0000 0.0000 20.1554 0.0000
# 6 0.0000 0.0000 0.0000 0.0000 0.0000 28.3257
#
#
#
# Elastic Compliance Matrix: (Units=1/GPa)
#
#
# Indices 1 2 3 4 5 6 
#
# 1 0.012485 -0.001590 -0.004102 0.000000 0.000000 0.000000
# 2 -0.001590 0.025063 -0.002371 0.000000 0.000000 0.000000
# 3 -0.004102 -0.002371 0.020245 0.000000 0.000000 0.000000
# 4 0.000000 0.000000 0.000000 0.055150 0.000000 0.000000
# 5 0.000000 0.000000 0.000000 0.000000 0.049614 0.000000
# 6 0.000000 0.000000 0.000000 0.000000 0.000000 0.035304
#
#
# Mechanical properties :
#
#
# Convention : Reuss Voigt Hill
#
# Bulk Modulus (GPa) = 23.99988 27.33629 25.66809
# Shear Modulus (GPa) = 21.94185 23.31518 22.62852
#
# Velocity S-wave (km/s) = 3.26742 3.36812 3.31815
# Velocity P-wave (km/s) = 5.09039 5.33164 5.21241
#
# Compressibility (1/GPa) = 0.04166687
#
# Stress axis : x y z
#
# Youngs Moduli (GPa) = 80.09731 39.89988 49.39495
#
# Poissons Ratio (x) = 0.06346 0.20260
# Poissons Ratio (y) = 0.12739 0.11710
# Poissons Ratio (z) = 0.32853 0.09459
#
# Static dielectric constant tensor:
#      x y z
#    x 1.816500 0.000000 0.000000 
#    y 0.000000 1.760550 0.000000 
#    z 0.000000 0.000000 1.709240 
# 
# From -- ./inp_files/8708.got.cif
#   From: 2010.05.17/outbox.cif.g08.bks.cpg/sg55_5_cif.got.tgz:8708.got - 2010.06.03 13:27:54.
