data_PCOD9426361
_publ_section_title
;
Structure prediction by ZEFSAII (Michael W. Deem and Ramdas Pophale) SiO2 
 PCOD9426361
Probable space group: P B A M
;
_chemical_formula_sum "Si O2"
_cell_formula_units_Z 64
_cell_length_a 19.682517
_cell_length_b 17.776946
_cell_length_c 8.339852
_cell_angle_alpha 90.000000
_cell_angle_beta 90.000000
_cell_angle_gamma 90.000000
_cell_volume 2918.072865
_symmetry_space_group_name_H-M "P B A M"
_symmetry_group_IT_number 55
_symmetry_cell_setting 'orthorhombic'
loop_
_space_group_symop_operation_xyz
x,y,z
-x,-y,z
1/2+x,1/2-y,-z
1/2-x,1/2+y,-z
-x,-y,-z
x,y,-z
1/2-x,1/2+y,z
1/2+x,1/2-y,z
loop_
_atom_site_type_symbol
_atom_site_label
_atom_site_fract_x
_atom_site_fract_y
_atom_site_fract_z
Si Si1 0.825742 0.639734 0.192392
Si Si2 0.320576 0.563899 0.184435
Si Si3 0.579127 0.999515 0.808019
Si Si4 0.099394 0.210424 0.306646
Si Si5 0.699410 0.722564 0.694521
Si Si6 0.449200 0.291704 0.319177
Si Si7 0.687842 0.889520 0.686448
Si Si8 0.069264 0.968375 0.318142
O O1 0.871498 0.568435 0.249590
O O2 0.860193 0.715365 0.259671
O O3 0.747403 0.656131 0.242459
O O4 0.827456 0.638240 0.000000
O O5 0.366445 0.635133 0.238037
O O6 0.251503 0.556402 0.283272
O O7 0.367279 0.492149 0.214974
O O8 0.301467 0.572194 0.000000
O O9 0.500000 0.000000 0.748870
O O10 0.620938 0.923290 0.768898
O O11 0.575311 0.006705 0.000000
O O12 0.097456 0.202313 0.500000
O O13 0.022371 0.222559 0.245127
O O14 0.697823 0.713977 0.500000
O O15 0.622271 0.727351 0.758913
O O16 0.720245 0.808450 0.734202
O O17 0.449859 0.258090 0.500000
O O18 0.442310 0.380909 0.333380
O O19 0.671617 0.883667 0.500000
O O20 0.077787 0.000022 0.500000
O O21 0.000000 0.000000 0.246905
#
# Coordination Sequence:
#
# PCOD9426361 Si02
#       8
#     8   8   8   8   8   8   8   8
#     4  11  24  42  64  94 127 167 215 265 326 391
#     4  12  24  38  59  89 128 166 206 256 313 380
#     4  10  25  48  69  93 134 178 218 270 334 395
#     4  11  21  39  65  91 121 163 210 261 318 381
#     4  10  22  41  64  93 125 162 208 266 323 379
#     4   9  20  37  60  89 122 160 205 257 314 370
#     4  11  24  42  67  94 122 162 216 267 315 379
#     4  10  19  36  59  85 122 164 205 246 299 368
#
# _framework density 21.932282000000001
#
# number of rings (size 3 to 8) (size 9 to 14) (size 15 to 20)
#    0.000    1.500    2.500    2.250    3.500    2.000 
#    0.000    1.250    0.000    0.000    0.000    0.000 
#    0.000    0.000    0.000    0.000    0.000    0.000 
#
# Total GULP energy -356984.305423 kJ/mol
# GULP energy per Si atom -5577.879772 kJ/mol
# Density = 2.188236 g / cm^3
# Si number density = 21.932282 Si / 1000 Ang^3
#
#
#
# Elastic Constant Matrix: (Units=GPa)
#
#
# Indices 1 2 3 4 5 6 
#
# 1 134.0688 17.4802 0.0741 0.0000 0.0000 0.0000
# 2 17.4802 42.8778 7.0114 0.0000 0.0000 0.0000
# 3 0.0741 7.0114 19.8624 0.0000 0.0000 0.0000
# 4 0.0000 0.0000 0.0000 15.7884 0.0000 0.0000
# 5 0.0000 0.0000 0.0000 0.0000 19.4449 0.0000
# 6 0.0000 0.0000 0.0000 0.0000 0.0000 36.1763
#
#
#
# Elastic Compliance Matrix: (Units=1/GPa)
#
#
# Indices 1 2 3 4 5 6 
#
# 1 0.007903 -0.003414 0.001176 0.000000 0.000000 0.000000
# 2 -0.003414 0.026226 -0.009245 0.000000 0.000000 0.000000
# 3 0.001176 -0.009245 0.053606 0.000000 0.000000 0.000000
# 4 0.000000 0.000000 0.000000 0.063337 0.000000 0.000000
# 5 0.000000 0.000000 0.000000 0.000000 0.051427 0.000000
# 6 0.000000 0.000000 0.000000 0.000000 0.000000 0.027642
#
#
# Mechanical properties :
#
#
# Convention : Reuss Voigt Hill
#
# Bulk Modulus (GPa) = 15.43980 27.32672 21.38326
# Shear Modulus (GPa) = 18.20180 25.76481 21.98331
#
# Velocity S-wave (km/s) = 2.88394 3.43117 3.16939
# Velocity P-wave (km/s) = 4.25964 5.30885 4.81292
#
# Compressibility (1/GPa) = 0.06476767
#
# Stress axis : x y z
#
# Youngs Moduli (GPa) = 126.52839 38.13051 18.65479
#
# Poissons Ratio (x) = 0.13019 -0.02193
# Poissons Ratio (y) = 0.43200 0.17246
# Poissons Ratio (z) = -0.14877 0.35252
#
# Static dielectric constant tensor:
#      x y z
#    x -0.852540 0.000000 0.000000 
#    y 0.000000 1.556150 0.000000 
#    z 0.000000 0.000000 1.793010 
# 
# From -- ./inp_files/8095.got.cif
#   From: 2010.05.17/outbox.cif.g08.bks.cpg/sg55_5_cif.got.tgz:8095.got - 2010.06.03 13:27:54.
