data_PCOD9426152
_publ_section_title
;
Structure prediction by ZEFSAII (Michael W. Deem and Ramdas Pophale) SiO2 
 PCOD9426152
Probable space group: P B A M
;
_chemical_formula_sum "Si O2"
_cell_formula_units_Z 64
_cell_length_a 12.769313
_cell_length_b 15.215389
_cell_length_c 16.917043
_cell_angle_alpha 90.000000
_cell_angle_beta 90.000000
_cell_angle_gamma 90.000000
_cell_volume 3286.813377
_symmetry_space_group_name_H-M "P B A M"
_symmetry_group_IT_number 55
_symmetry_cell_setting 'orthorhombic'
loop_
_space_group_symop_operation_xyz
x,y,z
-x,-y,z
1/2+x,1/2-y,-z
1/2-x,1/2+y,-z
-x,-y,-z
x,y,-z
1/2-x,1/2+y,z
1/2+x,1/2-y,z
loop_
_atom_site_type_symbol
_atom_site_label
_atom_site_fract_x
_atom_site_fract_y
_atom_site_fract_z
Si Si1 0.693160 0.309210 0.089674
Si Si2 0.277202 0.090282 0.410318
Si Si3 0.511653 0.691047 0.187091
Si Si4 0.405583 0.564473 0.311178
Si Si5 0.589460 0.075101 0.412305
Si Si6 0.717223 0.967701 0.193142
Si Si7 0.058914 0.637931 0.284521
Si Si8 0.299227 0.380780 0.908416
O O1 0.578191 0.291126 0.123340
O O2 0.749890 0.382221 0.142501
O O3 0.752754 0.217009 0.091274
O O4 0.687615 0.341567 0.000000
O O5 0.298426 0.115182 0.500000
O O6 0.157493 0.100631 0.385826
O O7 0.351100 0.145650 0.351775
O O8 0.308679 0.986308 0.402691
O O9 0.457002 0.639417 0.258211
O O10 0.554626 0.780431 0.225360
O O11 0.596132 0.629453 0.143693
O O12 0.500000 0.500000 0.331497
O O13 0.311359 0.523693 0.257380
O O14 0.592896 0.118691 0.500000
O O15 0.549022 0.127330 0.334993
O O16 0.500000 0.000000 0.417343
O O17 0.607096 0.944983 0.235461
O O18 0.722878 0.051352 0.136104
O O19 0.318145 0.406908 0.000000
#
# Coordination Sequence:
#
# PCOD9426152 Si02
#       8
#     8   8   8   8   8   8   8   8
#     4  10  22  38  57  84 119 155 195 241 294 354
#     4   9  19  36  59  85 117 156 191 230 292 353
#     4  11  22  38  57  85 116 153 197 244 297 342
#     4  10  20  36  57  82 113 147 195 241 279 346
#     4   8  15  31  56  86 114 148 190 226 280 348
#     4  10  20  37  60  86 115 152 199 240 293 349
#     4  10  19  34  59  89 116 152 189 247 292 346
#     4  11  22  38  60  85 117 155 196 243 296 359
#
# _framework density 19.471748000000002
#
# number of rings (size 3 to 8) (size 9 to 14) (size 15 to 20)
#    0.000    2.125    2.500    1.875    0.000    4.250 
#    0.000    3.125    0.000    3.000    0.000    0.000 
#    0.000    0.000    0.000    0.000    0.000    0.000 
#
# Total GULP energy -356580.957433 kJ/mol
# GULP energy per Si atom -5571.577460 kJ/mol
# Density = 1.942743 g / cm^3
# Si number density = 19.471748 Si / 1000 Ang^3
#
#
#
# Elastic Constant Matrix: (Units=GPa)
#
#
# Indices 1 2 3 4 5 6 
#
# 1 67.7290 0.8971 30.3829 0.0000 0.0000 0.0000
# 2 0.8971 16.6561 18.0185 0.0000 0.0000 0.0000
# 3 30.3829 18.0185 112.6932 0.0000 0.0000 0.0000
# 4 0.0000 0.0000 0.0000 9.1286 0.0000 0.0000
# 5 0.0000 0.0000 0.0000 0.0000 24.1047 0.0000
# 6 0.0000 0.0000 0.0000 0.0000 0.0000 20.6392
#
#
#
# Elastic Compliance Matrix: (Units=1/GPa)
#
#
# Indices 1 2 3 4 5 6 
#
# 1 0.017124 0.004924 -0.005404 0.000000 0.000000 0.000000
# 2 0.004924 0.074011 -0.013161 0.000000 0.000000 0.000000
# 3 -0.005404 -0.013161 0.012435 0.000000 0.000000 0.000000
# 4 0.000000 0.000000 0.000000 0.109546 0.000000 0.000000
# 5 0.000000 0.000000 0.000000 0.000000 0.041486 0.000000
# 6 0.000000 0.000000 0.000000 0.000000 0.000000 0.048452
#
#
# Mechanical properties :
#
#
# Convention : Reuss Voigt Hill
#
# Bulk Modulus (GPa) = 13.10846 32.85281 22.98063
# Shear Modulus (GPa) = 14.05426 20.62648 17.34037
#
# Velocity S-wave (km/s) = 2.68951 3.25822 2.98743
# Velocity P-wave (km/s) = 4.04861 5.57345 4.87107
#
# Compressibility (1/GPa) = 0.07628662
#
# Stress axis : x y z
#
# Youngs Moduli (GPa) = 58.39871 13.51160 80.41890
#
# Poissons Ratio (x) = -0.06653 0.43458
# Poissons Ratio (y) = -0.28754 1.05839
# Poissons Ratio (z) = 0.31558 0.17783
#
# Static dielectric constant tensor:
#      x y z
#    x 1.717500 0.000000 0.000000 
#    y 0.000000 1.678240 0.000000 
#    z 0.000000 0.000000 1.726790 
# 
# From -- ./inp_files/21334.got.cif
#   From: 2010.05.17/outbox.cif.g08.bks.cpg/sg55_11_cif.got.tgz:21334.got - 2010.06.03 13:27:54.
