data_PCOD9426327
_publ_section_title
;
Structure prediction by ZEFSAII (Michael W. Deem and Ramdas Pophale) SiO2 
 PCOD9426327
Probable space group: P B A M
;
_chemical_formula_sum "Si O2"
_cell_formula_units_Z 64
_cell_length_a 21.651194
_cell_length_b 16.973319
_cell_length_c 8.261705
_cell_angle_alpha 90.000000
_cell_angle_beta 90.000000
_cell_angle_gamma 90.000000
_cell_volume 3036.115637
_symmetry_space_group_name_H-M "P B A M"
_symmetry_group_IT_number 55
_symmetry_cell_setting 'orthorhombic'
loop_
_space_group_symop_operation_xyz
x,y,z
-x,-y,z
1/2+x,1/2-y,-z
1/2-x,1/2+y,-z
-x,-y,-z
x,y,-z
1/2-x,1/2+y,z
1/2+x,1/2-y,z
loop_
_atom_site_type_symbol
_atom_site_label
_atom_site_fract_x
_atom_site_fract_y
_atom_site_fract_z
Si Si1 0.516534 0.408096 0.311092
Si Si2 0.569838 0.017335 0.192748
Si Si3 0.631564 0.860227 0.309219
Si Si4 0.672812 0.134010 0.190868
Si Si5 0.759986 0.792410 0.188256
Si Si6 0.097539 0.805299 0.697706
Si Si7 0.205008 0.916639 0.687278
Si Si8 0.145437 0.064708 0.820305
O O1 0.500000 0.500000 0.302932
O O2 0.526311 0.387909 0.500000
O O3 0.459633 0.357489 0.247541
O O4 0.579352 0.398663 0.216118
O O5 0.610683 0.091865 0.256714
O O6 0.500000 0.000000 0.256513
O O7 0.611429 0.939594 0.221499
O O8 0.563692 0.029680 0.000000
O O9 0.623805 0.874192 0.500000
O O10 0.699900 0.825380 0.279168
O O11 0.590593 0.785293 0.255775
O O12 0.702014 0.216523 0.254873
O O13 0.731086 0.075733 0.217516
O O14 0.662637 0.146746 0.000000
O O15 0.806112 0.865644 0.188806
O O16 0.742997 0.775600 0.000000
O O17 0.099617 0.808819 0.500000
O O18 0.161704 0.845745 0.750936
O O19 0.220290 0.902191 0.500000
O O20 0.163883 0.994801 0.700643
O O21 0.146131 0.029356 0.000000
#
# Coordination Sequence:
#
# PCOD9426327 Si02
#       8
#     8   8   8   8   8   8   8   8
#     4  10  19  36  57  77 109 155 194 228 279 342
#     4  10  23  43  65  88 120 164 209 252 307 372
#     4  11  22  39  63  91 120 151 198 255 303 355
#     4  10  21  39  62  87 115 151 199 250 300 355
#     4  10  22  39  58  84 121 157 190 241 304 359
#     4   9  19  35  56  83 115 150 190 239 291 350
#     4  11  20  36  59  84 115 154 195 236 292 353
#     4  11  23  36  53  84 121 152 190 237 283 341
#
# _framework density 21.079564999999999
#
# number of rings (size 3 to 8) (size 9 to 14) (size 15 to 20)
#    0.000    1.750    2.500    1.875    0.000    6.000 
#    0.000    2.500    0.000    0.000    0.000    0.000 
#    0.000    0.000    0.000    0.000    0.000    0.000 
#
# Total GULP energy -357085.560354 kJ/mol
# GULP energy per Si atom -5579.461881 kJ/mol
# Density = 2.103159 g / cm^3
# Si number density = 21.079565 Si / 1000 Ang^3
#
#
#
# Elastic Constant Matrix: (Units=GPa)
#
#
# Indices 1 2 3 4 5 6 
#
# 1 62.5975 12.2306 -3.9907 0.0000 0.0000 0.0000
# 2 12.2306 59.4634 0.5959 0.0000 0.0000 0.0000
# 3 -3.9907 0.5959 14.1027 0.0000 0.0000 0.0000
# 4 0.0000 0.0000 0.0000 15.4867 0.0000 0.0000
# 5 0.0000 0.0000 0.0000 0.0000 7.6219 0.0000
# 6 0.0000 0.0000 0.0000 0.0000 0.0000 31.4577
#
#
#
# Elastic Compliance Matrix: (Units=1/GPa)
#
#
# Indices 1 2 3 4 5 6 
#
# 1 0.016983 -0.003543 0.004956 0.000000 0.000000 0.000000
# 2 -0.003543 0.017563 -0.001745 0.000000 0.000000 0.000000
# 3 0.004956 -0.001745 0.072385 0.000000 0.000000 0.000000
# 4 0.000000 0.000000 0.000000 0.064571 0.000000 0.000000
# 5 0.000000 0.000000 0.000000 0.000000 0.131201 0.000000
# 6 0.000000 0.000000 0.000000 0.000000 0.000000 0.031789
#
#
# Mechanical properties :
#
#
# Convention : Reuss Voigt Hill
#
# Bulk Modulus (GPa) = 9.41026 17.09282 13.25154
# Shear Modulus (GPa) = 13.49243 19.40178 16.44711
#
# Velocity S-wave (km/s) = 2.53271 3.03711 2.79631
# Velocity P-wave (km/s) = 3.60925 4.51941 4.08973
#
# Compressibility (1/GPa) = 0.10626696
#
# Stress axis : x y z
#
# Youngs Moduli (GPa) = 58.88162 56.93710 13.81511
#
# Poissons Ratio (x) = 0.20172 -0.06846
# Poissons Ratio (y) = 0.20861 0.02410
# Poissons Ratio (z) = -0.29179 0.09934
#
# Static dielectric constant tensor:
#      x y z
#    x 1.817340 0.000000 0.000000 
#    y 0.000000 1.771280 0.000000 
#    z 0.000000 0.000000 1.763120 
# 
# From -- ./inp_files/8980.got.cif
#   From: 2010.05.17/outbox.cif.g08.bks.cpg/sg55_5_cif.got.tgz:8980.got - 2010.06.03 13:27:54.
