data_PCOD9426743
_publ_section_title
;
Structure prediction by ZEFSAII (Michael W. Deem and Ramdas Pophale) SiO2 
 PCOD9426743
Probable space group: P B A M
;
_chemical_formula_sum "Si O2"
_cell_formula_units_Z 58
_cell_length_a 9.027648
_cell_length_b 11.238295
_cell_length_c 28.569592
_cell_angle_alpha 90.000000
_cell_angle_beta 90.000000
_cell_angle_gamma 90.000000
_cell_volume 2898.538567
_symmetry_space_group_name_H-M "P B A M"
_symmetry_group_IT_number 55
_symmetry_cell_setting 'orthorhombic'
loop_
_space_group_symop_operation_xyz
x,y,z
-x,-y,z
1/2+x,1/2-y,-z
1/2-x,1/2+y,-z
-x,-y,-z
x,y,-z
1/2-x,1/2+y,z
1/2+x,1/2-y,z
loop_
_atom_site_type_symbol
_atom_site_label
_atom_site_fract_x
_atom_site_fract_y
_atom_site_fract_z
Si Si1 0.560366 0.133074 0.553206
Si Si2 0.647075 0.846791 0.916696
Si Si3 0.691306 0.747171 0.611261
Si Si4 0.039555 0.136991 0.947535
Si Si5 0.500000 0.000000 0.000000
Si Si6 0.924202 0.374754 0.811067
Si Si7 0.083122 0.127723 0.222319
Si Si8 0.056797 0.129525 0.666582
O O1 0.601001 0.165751 0.500000
O O2 0.422080 0.209683 0.571705
O O3 0.699332 0.151080 0.587709
O O4 0.500000 0.000000 0.554060
O O5 0.823374 0.847154 0.913394
O O6 0.596882 0.715379 0.931603
O O7 0.573681 0.875781 0.867491
O O8 0.598224 0.933735 0.958511
O O9 0.582907 0.710600 0.653217
O O10 0.804712 0.840378 0.633840
O O11 0.082872 0.179066 0.000000
O O12 0.000000 0.000000 0.949563
O O13 0.751525 0.374938 0.796227
O O14 0.000000 0.500000 0.794624
O O15 0.000774 0.249558 0.795002
O O16 0.091049 0.136736 0.278683
O O17 0.000000 0.000000 0.211013
O O18 0.000000 0.000000 0.654981
#
# Coordination Sequence:
#
# PCOD9426743 Si02
#       8
#     8   8   8   8   2   8   8   8
#     4  10  20  34  53  82 123 166 209 254 304 363
#     4  12  26  43  68  92 129 163 204 251 302 362
#     4  10  20  35  58  87 117 159 208 257 311 362
#     4  11  25  41  64  92 122 158 203 244 296 352
#     4  12  24  44  68  92 126 166 204 250 298 360
#     4  12  26  44  68  96 128 168 208 256 315 387
#     4  11  25  46  68  97 130 167 212 265 330 392
#     4  10  21  39  62  87 119 154 202 261 314 375
#
# _framework density 20.010083999999999
#
# number of rings (size 3 to 8) (size 9 to 14) (size 15 to 20)
#    0.000    1.103    2.069    3.724    1.931    4.414 
#    0.000    3.448    0.000    6.621    0.000    0.000 
#    0.000    0.000    0.000    0.000    0.000    0.000 
#
# Total GULP energy -323191.927008 kJ/mol
# GULP energy per Si atom -5572.274604 kJ/mol
# Density = 1.996454 g / cm^3
# Si number density = 20.010084 Si / 1000 Ang^3
#
#
#
# Elastic Constant Matrix: (Units=GPa)
#
#
# Indices 1 2 3 4 5 6 
#
# 1 101.3133 45.2609 12.9363 0.0000 0.0000 0.0000
# 2 45.2609 79.6579 16.3366 0.0000 0.0000 0.0000
# 3 12.9363 16.3366 54.3776 0.0000 0.0000 0.0000
# 4 0.0000 0.0000 0.0000 10.1579 0.0000 0.0000
# 5 0.0000 0.0000 0.0000 0.0000 54.6848 0.0000
# 6 0.0000 0.0000 0.0000 0.0000 0.0000 29.5943
#
#
#
# Elastic Compliance Matrix: (Units=1/GPa)
#
#
# Indices 1 2 3 4 5 6 
#
# 1 0.013274 -0.007347 -0.000951 0.000000 0.000000 0.000000
# 2 -0.007347 0.017445 -0.003493 0.000000 0.000000 0.000000
# 3 -0.000951 -0.003493 0.019665 0.000000 0.000000 0.000000
# 4 0.000000 0.000000 0.000000 0.098446 0.000000 0.000000
# 5 0.000000 0.000000 0.000000 0.000000 0.018287 0.000000
# 6 0.000000 0.000000 0.000000 0.000000 0.000000 0.033790
#
#
# Mechanical properties :
#
#
# Convention : Reuss Voigt Hill
#
# Bulk Modulus (GPa) = 37.30977 42.71293 40.01135
# Shear Modulus (GPa) = 21.42036 29.60839 25.51438
#
# Velocity S-wave (km/s) = 3.27537 3.85083 3.57469
# Velocity P-wave (km/s) = 5.74369 6.41591 6.08908
#
# Compressibility (1/GPa) = 0.02680263
#
# Stress axis : x y z
#
# Youngs Moduli (GPa) = 75.33474 57.32398 50.85056
#
# Poissons Ratio (x) = 0.42118 0.04834
# Poissons Ratio (y) = 0.55351 0.17762
# Poissons Ratio (z) = 0.07161 0.20023
#
# Static dielectric constant tensor:
#      x y z
#    x 1.697490 0.000000 0.000000 
#    y 0.000000 1.697640 0.000000 
#    z 0.000000 0.000000 1.700270 
# 
# From -- ./inp_files/23905.got.cif
#   From: 2010.05.17/outbox.cif.g08.bks.cpg/sg55_12_cif.got.tgz:23905.got - 2010.06.03 13:27:54.
