data_PCOD9426810
_publ_section_title
;
Structure prediction by ZEFSAII (Michael W. Deem and Ramdas Pophale) SiO2 
 PCOD9426810
Probable space group: P B A M
;
_chemical_formula_sum "Si O2"
_cell_formula_units_Z 64
_cell_length_a 11.767974
_cell_length_b 27.385746
_cell_length_c 9.253276
_cell_angle_alpha 90.000000
_cell_angle_beta 90.000000
_cell_angle_gamma 90.000000
_cell_volume 2982.097181
_symmetry_space_group_name_H-M "P B A M"
_symmetry_group_IT_number 55
_symmetry_cell_setting 'orthorhombic'
loop_
_space_group_symop_operation_xyz
x,y,z
-x,-y,z
1/2+x,1/2-y,-z
1/2-x,1/2+y,-z
-x,-y,-z
x,y,-z
1/2-x,1/2+y,z
1/2+x,1/2-y,z
loop_
_atom_site_type_symbol
_atom_site_label
_atom_site_fract_x
_atom_site_fract_y
_atom_site_fract_z
Si Si1 0.693569 0.680240 0.333916
Si Si2 0.859639 0.066519 0.665793
Si Si3 0.062648 0.579468 0.665605
Si Si4 0.633134 0.769109 0.832689
Si Si5 0.918460 0.922202 0.165628
Si Si6 0.722162 0.345600 0.334483
Si Si7 0.420670 0.842791 0.832287
Si Si8 0.204832 0.503262 0.165925
O O1 0.705568 0.695929 0.500000
O O2 0.650178 0.624926 0.332751
O O3 0.615978 0.718141 0.247791
O O4 0.814060 0.678179 0.253198
O O5 0.862038 0.049193 0.500000
O O6 0.975804 0.055612 0.749226
O O7 0.753942 0.042784 0.748739
O O8 0.028253 0.569880 0.500000
O O9 0.170846 0.616646 0.661235
O O10 0.967906 0.608660 0.754603
O O11 0.107273 0.531782 0.747947
O O12 0.732315 0.798354 0.749023
O O13 0.522463 0.803345 0.827372
O O14 0.663866 0.761724 0.000000
O O15 0.874755 0.873894 0.247051
O O16 0.812443 0.959368 0.163713
O O17 0.950775 0.912016 0.000000
O O18 0.688971 0.335416 0.500000
O O19 0.393161 0.852346 0.000000
O O20 0.173536 0.492774 0.000000
#
# Coordination Sequence:
#
# PCOD9426810 Si02
#       8
#     8   8   8   8   8   8   8   8
#     4  11  25  42  59  82 114 151 190 233 281 333
#     4  11  24  39  54  77 112 153 195 239 288 340
#     4   9  17  32  57  86 114 145 183 228 277 331
#     4  10  21  38  61  87 113 145 186 230 278 333
#     4  10  20  34  55  84 117 151 188 233 285 340
#     4   9  17  31  54  84 115 147 184 227 275 329
#     4  10  21  39  63  88 115 147 184 230 283 336
#     4  10  20  35  57  85 115 149 190 235 284 338
#
# _framework density 21.461407000000001
#
# number of rings (size 3 to 8) (size 9 to 14) (size 15 to 20)
#    0.000    2.000    0.000    3.375    0.000   10.500 
#    0.000    3.125    0.000    3.750    0.000    0.000 
#    0.000    0.000    0.000    0.000    0.000    0.000 
#
# Total GULP energy -357999.820036 kJ/mol
# GULP energy per Si atom -5593.747188 kJ/mol
# Density = 2.141256 g / cm^3
# Si number density = 21.461407 Si / 1000 Ang^3
#
#
#
# Elastic Constant Matrix: (Units=GPa)
#
#
# Indices 1 2 3 4 5 6 
#
# 1 38.9604 18.3515 38.5711 0.0000 0.0000 0.0000
# 2 18.3515 56.5135 45.5888 0.0000 0.0000 0.0000
# 3 38.5711 45.5888 200.5338 0.0000 0.0000 0.0000
# 4 0.0000 0.0000 0.0000 26.8342 0.0000 0.0000
# 5 0.0000 0.0000 0.0000 0.0000 21.1084 0.0000
# 6 0.0000 0.0000 0.0000 0.0000 0.0000 13.6500
#
#
#
# Elastic Compliance Matrix: (Units=1/GPa)
#
#
# Indices 1 2 3 4 5 6 
#
# 1 0.033839 -0.007027 -0.004911 0.000000 0.000000 0.000000
# 2 -0.007027 0.023128 -0.003906 0.000000 0.000000 0.000000
# 3 -0.004911 -0.003906 0.006819 0.000000 0.000000 0.000000
# 4 0.000000 0.000000 0.000000 0.037266 0.000000 0.000000
# 5 0.000000 0.000000 0.000000 0.000000 0.047374 0.000000
# 6 0.000000 0.000000 0.000000 0.000000 0.000000 0.073260
#
#
# Mechanical properties :
#
#
# Convention : Reuss Voigt Hill
#
# Bulk Modulus (GPa) = 31.15477 55.67007 43.41242
# Shear Modulus (GPa) = 18.93406 25.21827 22.07616
#
# Velocity S-wave (km/s) = 2.97347 3.43162 3.21073
# Velocity P-wave (km/s) = 5.13195 6.45734 5.83242
#
# Compressibility (1/GPa) = 0.03209782
#
# Stress axis : x y z
#
# Youngs Moduli (GPa) = 29.55171 43.23800 146.64097
#
# Poissons Ratio (x) = 0.30382 0.72019
# Poissons Ratio (y) = 0.20765 0.57282
# Poissons Ratio (z) = 0.14514 0.16890
#
# Static dielectric constant tensor:
#      x y z
#    x 1.766520 0.000000 0.000000 
#    y 0.000000 1.784620 0.000000 
#    z 0.000000 0.000000 1.734930 
# 
# From -- ./inp_files/4698.got.cif
#   From: 2010.05.17/outbox.cif.g08.bks.cpg/sg55_3_cif.got.tgz:4698.got - 2010.06.03 13:27:54.
