data_PCOD9426632
_publ_section_title
;
Structure prediction by ZEFSAII (Michael W. Deem and Ramdas Pophale) SiO2 
 PCOD9426632
Probable space group: P B A M
;
_chemical_formula_sum "Si O2"
_cell_formula_units_Z 64
_cell_length_a 32.559640
_cell_length_b 10.728353
_cell_length_c 7.550858
_cell_angle_alpha 90.000000
_cell_angle_beta 90.000000
_cell_angle_gamma 90.000000
_cell_volume 2637.600111
_symmetry_space_group_name_H-M "P B A M"
_symmetry_group_IT_number 55
_symmetry_cell_setting 'orthorhombic'
loop_
_space_group_symop_operation_xyz
x,y,z
-x,-y,z
1/2+x,1/2-y,-z
1/2-x,1/2+y,-z
-x,-y,-z
x,y,-z
1/2-x,1/2+y,z
1/2+x,1/2-y,z
loop_
_atom_site_type_symbol
_atom_site_label
_atom_site_fract_x
_atom_site_fract_y
_atom_site_fract_z
Si Si1 0.368329 0.106333 0.714024
Si Si2 0.570510 0.527713 0.206825
Si Si3 0.130931 0.329489 0.284133
Si Si4 0.541075 0.257272 0.286057
Si Si5 0.161605 0.067862 0.709735
Si Si6 0.454372 0.201863 0.701012
Si Si7 0.255264 0.444434 0.201775
Si Si8 0.216647 0.690385 0.210814
O O1 0.370073 0.107926 0.500000
O O2 0.413577 0.141393 0.781340
O O3 0.332192 0.199980 0.765611
O O4 0.356873 0.966901 0.774112
O O5 0.544019 0.403144 0.238212
O O6 0.616871 0.492551 0.262196
O O7 0.554817 0.650159 0.304186
O O8 0.569936 0.557183 0.000000
O O9 0.131544 0.327368 0.500000
O O10 0.083855 0.303937 0.228660
O O11 0.157571 0.211126 0.226340
O O12 0.540044 0.251124 0.500000
O O13 0.499676 0.192864 0.217757
O O14 0.170068 0.067332 0.500000
O O15 0.198019 0.994520 0.801370
O O16 0.457260 0.151869 0.500000
O O17 0.230435 0.557573 0.287696
O O18 0.258553 0.307911 0.285395
O O19 0.240259 0.429874 0.000000
O O20 0.224685 0.688029 0.000000
#
# Coordination Sequence:
#
# PCOD9426632 Si02
#       8
#     8   8   8   8   8   8   8   8
#     4  10  21  37  57  82 112 146 189 234 282 340
#     4  11  21  33  52  79 111 147 186 233 284 339
#     4   8  17  34  55  81 112 145 185 235 282 332
#     4   9  18  34  54  78 110 146 187 235 286 335
#     4  10  20  36  59  84 112 145 186 233 285 339
#     4  10  20  33  53  79 109 148 189 233 284 337
#     4  10  22  40  61  87 117 150 188 232 281 340
#     4  10  23  41  60  85 117 150 187 231 283 341
#
# _framework density 24.264482000000001
#
# number of rings (size 3 to 8) (size 9 to 14) (size 15 to 20)
#    0.000    2.250    0.000    3.375    1.750    6.000 
#    0.000    5.000    0.000    0.000    0.000    5.250 
#    0.000    0.000    0.000    0.000    0.000    0.000 
#
# Total GULP energy -357803.856265 kJ/mol
# GULP energy per Si atom -5590.685254 kJ/mol
# Density = 2.420925 g / cm^3
# Si number density = 24.264482 Si / 1000 Ang^3
#
#
#
# Elastic Constant Matrix: (Units=GPa)
#
#
# Indices 1 2 3 4 5 6 
#
# 1 79.2203 23.2625 -7.7710 0.0000 0.0000 0.0000
# 2 23.2625 100.6790 -0.6829 0.0000 0.0000 0.0000
# 3 -7.7710 -0.6829 81.6370 0.0000 0.0000 0.0000
# 4 0.0000 0.0000 0.0000 -6.4834 0.0000 0.0000
# 5 0.0000 0.0000 0.0000 0.0000 18.8291 0.0000
# 6 0.0000 0.0000 0.0000 0.0000 0.0000 25.9194
#
#
#
# Elastic Compliance Matrix: (Units=1/GPa)
#
#
# Indices 1 2 3 4 5 6 
#
# 1 0.013673 -0.003151 0.001275 0.000000 0.000000 0.000000
# 2 -0.003151 0.010659 -0.000211 0.000000 0.000000 0.000000
# 3 0.001275 -0.000211 0.012369 0.000000 0.000000 0.000000
# 4 0.000000 0.000000 0.000000 -0.154240 0.000000 0.000000
# 5 0.000000 0.000000 0.000000 0.000000 0.053109 0.000000
# 6 0.000000 0.000000 0.000000 0.000000 0.000000 0.038581
#
#
# Mechanical properties :
#
#
# Convention : Reuss Voigt Hill
#
# Bulk Modulus (GPa) = 30.74183 32.35040 31.54611
# Shear Modulus (GPa) = -461.58408 24.10152 -218.74128
#
# Velocity S-wave (km/s) = -13.80736 3.15506 -9.50497
# Velocity P-wave (km/s) = 15.54008 5.16080 10.36485
#
# Compressibility (1/GPa) = 0.03252897
#
# Stress axis : x y z
#
# Youngs Moduli (GPa) = 73.13534 93.81650 80.84742
#
# Poissons Ratio (x) = 0.29558 -0.10310
# Poissons Ratio (y) = 0.23042 0.01704
# Poissons Ratio (z) = -0.09326 0.01977
#
# Static dielectric constant tensor:
#      x y z
#    x 1.936670 0.000000 0.000000 
#    y 0.000000 1.934630 0.000000 
#    z 0.000000 0.000000 1.923410 
# 
# From -- ./inp_files/10710.got.cif
#   From: 2010.05.17/outbox.cif.g08.bks.cpg/sg55_6_cif.got.tgz:10710.got - 2010.06.03 13:27:54.
