data_PCOD9426085
_publ_section_title
;
Structure prediction by ZEFSAII (Michael W. Deem and Ramdas Pophale) SiO2 
 PCOD9426085
Probable space group: P B A M
;
_chemical_formula_sum "Si O2"
_cell_formula_units_Z 64
_cell_length_a 33.887749
_cell_length_b 11.807413
_cell_length_c 8.588917
_cell_angle_alpha 90.000000
_cell_angle_beta 90.000000
_cell_angle_gamma 90.000000
_cell_volume 3436.654570
_symmetry_space_group_name_H-M "P B A M"
_symmetry_group_IT_number 55
_symmetry_cell_setting 'orthorhombic'
loop_
_space_group_symop_operation_xyz
x,y,z
-x,-y,z
1/2+x,1/2-y,-z
1/2-x,1/2+y,-z
-x,-y,-z
x,y,-z
1/2-x,1/2+y,z
1/2+x,1/2-y,z
loop_
_atom_site_type_symbol
_atom_site_label
_atom_site_fract_x
_atom_site_fract_y
_atom_site_fract_z
Si Si1 0.441425 0.576901 0.311904
Si Si2 0.633868 0.037748 0.315431
Si Si3 0.300131 0.548156 0.190294
Si Si4 0.973813 0.168325 0.312880
Si Si5 0.210580 0.583528 0.811834
Si Si6 0.910577 0.325680 0.186149
Si Si7 0.631956 0.287053 0.185889
Si Si8 0.333756 0.309033 0.811132
O O1 0.437393 0.580041 0.500000
O O2 0.480547 0.649046 0.269937
O O3 0.450942 0.447309 0.266488
O O4 0.403092 0.628475 0.233447
O O5 0.633411 0.031001 0.500000
O O6 0.625953 0.164927 0.261019
O O7 0.676714 0.997862 0.253550
O O8 0.602356 0.947698 0.249116
O O9 0.254789 0.556462 0.240676
O O10 0.326983 0.654442 0.236448
O O11 0.320699 0.432035 0.244744
O O12 0.299819 0.546129 0.000000
O O13 0.972167 0.174852 0.500000
O O14 0.951899 0.275655 0.242060
O O15 0.197686 0.711464 0.770179
O O16 0.209262 0.575063 0.000000
O O17 0.876194 0.238043 0.241098
O O18 0.909396 0.329569 0.000000
O O19 0.632758 0.274378 0.000000
O O20 0.335149 0.314383 0.000000
#
# Coordination Sequence:
#
# PCOD9426085 Si02
#       8
#     8   8   8   8   8   8   8   8
#     4   9  19  36  56  83 120 156 185 221 272 332
#     4  11  23  39  56  75 108 150 185 228 284 342
#     4   9  18  30  52  81 107 138 176 222 275 326
#     4   9  18  34  58  85 116 153 188 221 271 334
#     4   9  18  33  55  79 104 137 181 228 270 323
#     4  10  19  34  57  82 108 141 186 237 278 323
#     4  11  22  36  56  83 111 145 189 234 279 331
#     4   8  15  28  47  76 107 133 168 217 269 318
#
# _framework density 18.622762000000002
#
# number of rings (size 3 to 8) (size 9 to 14) (size 15 to 20)
#    0.000    2.500    0.000    4.125    1.750    2.000 
#    0.000    3.125    0.000    5.250    0.000    0.000 
#    0.000    0.000    0.000    0.000    0.000    0.000 
#
# Total GULP energy -357139.463682 kJ/mol
# GULP energy per Si atom -5580.304120 kJ/mol
# Density = 1.858038 g / cm^3
# Si number density = 18.622762 Si / 1000 Ang^3
#
#
#
# Elastic Constant Matrix: (Units=GPa)
#
#
# Indices 1 2 3 4 5 6 
#
# 1 47.0639 0.3118 13.1702 0.0000 0.0000 0.0000
# 2 0.3118 33.5198 8.3947 0.0000 0.0000 0.0000
# 3 13.1702 8.3947 30.5209 0.0000 0.0000 0.0000
# 4 0.0000 0.0000 0.0000 19.3633 0.0000 0.0000
# 5 0.0000 0.0000 0.0000 0.0000 -24.5585 0.0000
# 6 0.0000 0.0000 0.0000 0.0000 0.0000 14.2706
#
#
#
# Elastic Compliance Matrix: (Units=1/GPa)
#
#
# Indices 1 2 3 4 5 6 
#
# 1 0.024373 0.002585 -0.011228 0.000000 0.000000 0.000000
# 2 0.002585 0.032314 -0.010004 0.000000 0.000000 0.000000
# 3 -0.011228 -0.010004 0.040361 0.000000 0.000000 0.000000
# 4 0.000000 0.000000 0.000000 0.051644 0.000000 0.000000
# 5 0.000000 0.000000 0.000000 0.000000 -0.040719 0.000000
# 6 0.000000 0.000000 0.000000 0.000000 0.000000 0.070074
#
#
# Mechanical properties :
#
#
# Convention : Reuss Voigt Hill
#
# Bulk Modulus (GPa) = 16.73498 17.20643 16.97070
# Shear Modulus (GPa) = 21.25322 7.76361 14.50842
#
# Velocity S-wave (km/s) = 3.38190 2.04400 2.79421
# Velocity P-wave (km/s) = 4.92499 3.85099 4.42072
#
# Compressibility (1/GPa) = 0.05975509
#
# Stress axis : x y z
#
# Youngs Moduli (GPa) = 41.02954 30.94598 24.77641
#
# Poissons Ratio (x) = -0.08000 0.27820
# Poissons Ratio (y) = -0.10607 0.24785
# Poissons Ratio (z) = 0.46069 0.30957
#
# Static dielectric constant tensor:
#      x y z
#    x 1.639170 0.000000 0.000000 
#    y 0.000000 1.629680 0.000000 
#    z 0.000000 0.000000 1.634600 
# 
# From -- ./inp_files/10814.got.cif
#   From: 2010.05.17/outbox.cif.g08.bks.cpg/sg55_6_cif.got.tgz:10814.got - 2010.06.03 13:27:54.
