data_PCOD9426522
_publ_section_title
;
Structure prediction by ZEFSAII (Michael W. Deem and Ramdas Pophale) SiO2 
 PCOD9426522
Probable space group: P B A M
;
_chemical_formula_sum "Si O2"
_cell_formula_units_Z 40
_cell_length_a 19.800178
_cell_length_b 9.249089
_cell_length_c 12.178027
_cell_angle_alpha 90.000000
_cell_angle_beta 90.000000
_cell_angle_gamma 90.000000
_cell_volume 2230.206029
_symmetry_space_group_name_H-M "P B A M"
_symmetry_group_IT_number 55
_symmetry_cell_setting 'orthorhombic'
loop_
_space_group_symop_operation_xyz
x,y,z
-x,-y,z
1/2+x,1/2-y,-z
1/2-x,1/2+y,-z
-x,-y,-z
x,y,-z
1/2-x,1/2+y,z
1/2+x,1/2-y,z
loop_
_atom_site_type_symbol
_atom_site_label
_atom_site_fract_x
_atom_site_fract_y
_atom_site_fract_z
Si Si1 0.066299 0.403933 0.130667
Si Si2 0.001224 0.173227 0.500000
Si Si3 0.671748 0.042683 0.690712
Si Si4 0.693281 0.377843 0.368010
Si Si5 0.444708 0.623867 0.727476
Si Si6 0.424434 0.065469 0.500000
O O1 0.133301 0.459411 0.193024
O O2 0.056395 0.241450 0.176881
O O3 0.000000 0.500000 0.158707
O O4 0.074091 0.405397 0.000000
O O5 0.932254 0.260898 0.500000
O O6 0.037156 0.209067 0.385712
O O7 0.000000 0.000000 0.500000
O O8 0.738395 0.947338 0.676895
O O9 0.616821 0.985354 0.604625
O O10 0.690716 0.206863 0.657831
O O11 0.687875 0.400301 0.500000
O O12 0.628420 0.440595 0.302983
O O13 0.500000 0.500000 0.745688
O O14 0.500000 0.000000 0.500000
#
# Coordination Sequence:
#
# PCOD9426522 Si02
#       6
#     8   4   8   8   8   4
#     4  10  22  41  62  83 112 153 205 251 291 345
#     4  10  20  31  51  86 119 146 183 236 290 355
#     4  11  23  37  57  85 119 157 194 240 297 355
#     4  11  20  37  54  85 124 155 190 235 298 364
#     4  10  21  37  59  88 122 152 192 245 300 356
#     4  12  20  33  57  82 116 156 192 236 296 359
#
# _framework density 17.935562000000001
#
# number of rings (size 3 to 8) (size 9 to 14) (size 15 to 20)
#    0.000    1.400    3.000    4.200    0.000    5.200 
#    0.000    4.000    0.000    0.000    0.000    0.000 
#    0.000    0.000    0.000    0.000    0.000    0.000 
#
# Total GULP energy -223261.190736 kJ/mol
# GULP energy per Si atom -5581.529768 kJ/mol
# Density = 1.789474 g / cm^3
# Si number density = 17.935562 Si / 1000 Ang^3
#
#
#
# Elastic Constant Matrix: (Units=GPa)
#
#
# Indices 1 2 3 4 5 6 
#
# 1 177.2964 77.8218 65.4500 0.0000 0.0000 0.0000
# 2 77.8218 95.0945 36.4957 0.0000 0.0000 0.0000
# 3 65.4500 36.4957 107.4174 0.0000 0.0000 0.0000
# 4 0.0000 0.0000 0.0000 12.6449 0.0000 0.0000
# 5 0.0000 0.0000 0.0000 0.0000 21.1587 0.0000
# 6 0.0000 0.0000 0.0000 0.0000 0.0000 48.2444
#
#
#
# Elastic Compliance Matrix: (Units=1/GPa)
#
#
# Indices 1 2 3 4 5 6 
#
# 1 0.009994 -0.006718 -0.003807 0.000000 0.000000 0.000000
# 2 -0.006718 0.016608 -0.001549 0.000000 0.000000 0.000000
# 3 -0.003807 -0.001549 0.012156 0.000000 0.000000 0.000000
# 4 0.000000 0.000000 0.000000 0.079083 0.000000 0.000000
# 5 0.000000 0.000000 0.000000 0.000000 0.047262 0.000000
# 6 0.000000 0.000000 0.000000 0.000000 0.000000 0.020728
#
#
# Mechanical properties :
#
#
# Convention : Reuss Voigt Hill
#
# Bulk Modulus (GPa) = 68.45041 82.14925 75.29983
# Shear Modulus (GPa) = 23.27202 29.74566 26.50884
#
# Velocity S-wave (km/s) = 3.60604 4.07685 3.84865
# Velocity P-wave (km/s) = 7.45557 8.25002 7.86284
#
# Compressibility (1/GPa) = 0.01460912
#
# Stress axis : x y z
#
# Youngs Moduli (GPa) = 100.05507 60.21104 82.26610
#
# Poissons Ratio (x) = 0.40450 0.31321
# Poissons Ratio (y) = 0.67217 0.12747
# Poissons Ratio (z) = 0.38093 0.09329
#
# Static dielectric constant tensor:
#      x y z
#    x 1.643870 0.000000 0.000000 
#    y 0.000000 1.650080 0.000000 
#    z 0.000000 0.000000 1.599760 
# 
# From -- ./inp_files/15231.got.cif
#   From: 2010.05.17/outbox.cif.g08.bks.cpg/sg55_8_cif.got.tgz:15231.got - 2010.06.03 13:27:54.
