data_PCOD9426458
_publ_section_title
;
Structure prediction by ZEFSAII (Michael W. Deem and Ramdas Pophale) SiO2 
 PCOD9426458
Probable space group: P B A M
;
_chemical_formula_sum "Si O2"
_cell_formula_units_Z 58
_cell_length_a 20.231979
_cell_length_b 16.459688
_cell_length_c 7.497296
_cell_angle_alpha 90.000000
_cell_angle_beta 90.000000
_cell_angle_gamma 90.000000
_cell_volume 2496.690000
_symmetry_space_group_name_H-M "P B A M"
_symmetry_group_IT_number 55
_symmetry_cell_setting 'orthorhombic'
loop_
_space_group_symop_operation_xyz
x,y,z
-x,-y,z
1/2+x,1/2-y,-z
1/2-x,1/2+y,-z
-x,-y,-z
x,y,-z
1/2-x,1/2+y,z
1/2+x,1/2-y,z
loop_
_atom_site_type_symbol
_atom_site_label
_atom_site_fract_x
_atom_site_fract_y
_atom_site_fract_z
Si Si1 0.855937 0.346232 0.795349
Si Si2 0.723779 0.272022 0.781268
Si Si3 0.500000 0.000000 0.500000
Si Si4 0.874628 0.017521 0.209459
Si Si5 0.260267 0.911723 0.784508
Si Si6 0.904126 0.514957 0.212810
Si Si7 0.436313 0.310640 0.704603
Si Si8 0.417024 0.656708 0.783872
O O1 0.783205 0.329984 0.719575
O O2 0.896303 0.421445 0.719175
O O3 0.897034 0.263117 0.793866
O O4 0.844871 0.372067 0.000000
O O5 0.741315 0.181149 0.722626
O O6 0.650712 0.299238 0.728847
O O7 0.724956 0.272790 0.000000
O O8 0.459402 0.950400 0.659042
O O9 0.801613 0.036285 0.284026
O O10 0.915446 0.100701 0.225073
O O11 0.910401 0.937041 0.279308
O O12 0.865767 0.999983 0.000000
O O13 0.332268 0.947446 0.752182
O O14 0.252804 0.909014 0.000000
O O15 0.918798 0.522024 0.000000
O O16 0.416179 0.307581 0.500000
O O17 0.515026 0.304042 0.720500
O O18 0.420370 0.659118 0.000000
#
# Coordination Sequence:
#
# PCOD9426458 Si02
#       8
#     8   8   2   8   8   8   8   8
#     4  10  20  40  67  90 119 160 211 260 316 381
#     4   9  17  34  64  95 120 152 204 268 318 370
#     4  12  26  44  64  90 132 168 218 280 320 390
#     4  10  19  37  64  90 120 159 208 259 311 379
#     4   9  17  35  64  95 122 155 209 266 320 375
#     4  10  23  42  67  96 127 172 219 270 328 388
#     4  12  25  38  56  87 129 168 206 251 313 383
#     4  10  21  36  60  92 120 156 205 254 309 377
#
# _framework density 23.230757000000001
#
# number of rings (size 3 to 8) (size 9 to 14) (size 15 to 20)
#    0.000    1.931    1.379    2.690    0.966    6.621 
#    1.241    3.448    3.034    0.000    0.000    0.000 
#    0.000    0.000    0.000    0.000    0.000    0.000 
#
# Total GULP energy -323623.913293 kJ/mol
# GULP energy per Si atom -5579.722643 kJ/mol
# Density = 2.317788 g / cm^3
# Si number density = 23.230757 Si / 1000 Ang^3
#
#
#
# Elastic Constant Matrix: (Units=GPa)
#
#
# Indices 1 2 3 4 5 6 
#
# 1 122.8271 -0.1041 0.3193 0.0000 0.0000 0.0000
# 2 -0.1041 40.1367 -6.4216 0.0000 0.0000 0.0000
# 3 0.3193 -6.4216 83.9027 0.0000 0.0000 0.0000
# 4 0.0000 0.0000 0.0000 -29.5272 0.0000 0.0000
# 5 0.0000 0.0000 0.0000 0.0000 104.2774 0.0000
# 6 0.0000 0.0000 0.0000 0.0000 0.0000 16.3111
#
#
#
# Elastic Compliance Matrix: (Units=1/GPa)
#
#
# Indices 1 2 3 4 5 6 
#
# 1 0.008142 0.000016 -0.000030 0.000000 0.000000 0.000000
# 2 0.000016 0.025224 0.001930 0.000000 0.000000 0.000000
# 3 -0.000030 0.001930 0.012066 0.000000 0.000000 0.000000
# 4 0.000000 0.000000 0.000000 -0.033867 0.000000 0.000000
# 5 0.000000 0.000000 0.000000 0.000000 0.009590 0.000000
# 6 0.000000 0.000000 0.000000 0.000000 0.000000 0.061308
#
#
# Mechanical properties :
#
#
# Convention : Reuss Voigt Hill
#
# Bulk Modulus (GPa) = 20.29798 26.05041 23.17420
# Shear Modulus (GPa) = 52.60373 35.08379 43.84376
#
# Velocity S-wave (km/s) = 4.76373 3.89038 4.34904
# Velocity P-wave (km/s) = 6.24612 5.60520 5.93432
#
# Compressibility (1/GPa) = 0.04926599
#
# Stress axis : x y z
#
# Youngs Moduli (GPa) = 122.82570 39.64519 82.87457
#
# Poissons Ratio (x) = -0.00065 0.00246
# Poissons Ratio (y) = -0.00201 -0.15999
# Poissons Ratio (z) = 0.00365 -0.07653
#
# Static dielectric constant tensor:
#      x y z
#    x 1.907580 0.000000 0.000000 
#    y 0.000000 1.899980 0.000000 
#    z 0.000000 0.000000 1.933150 
# 
# From -- ./inp_files/7748.got.cif
#   From: 2010.05.17/outbox.cif.g08.bks.cpg/sg55_4_cif.got.tgz:7748.got - 2010.06.03 13:27:54.
