data_PCOD9426951
_publ_section_title
;
Structure prediction by ZEFSAII (Michael W. Deem and Ramdas Pophale) SiO2 
 PCOD9426951
Probable space group: P B A M
;
_chemical_formula_sum "Si O2"
_cell_formula_units_Z 64
_cell_length_a 20.207616
_cell_length_b 19.945346
_cell_length_c 8.868116
_cell_angle_alpha 90.000000
_cell_angle_beta 90.000000
_cell_angle_gamma 90.000000
_cell_volume 3574.275468
_symmetry_space_group_name_H-M "P B A M"
_symmetry_group_IT_number 55
_symmetry_cell_setting 'orthorhombic'
loop_
_space_group_symop_operation_xyz
x,y,z
-x,-y,z
1/2+x,1/2-y,-z
1/2-x,1/2+y,-z
-x,-y,-z
x,y,-z
1/2-x,1/2+y,z
1/2+x,1/2-y,z
loop_
_atom_site_type_symbol
_atom_site_label
_atom_site_fract_x
_atom_site_fract_y
_atom_site_fract_z
Si Si1 0.069422 0.465137 0.319730
Si Si2 0.285936 0.748712 0.679235
Si Si3 0.011269 0.788714 0.818245
Si Si4 0.315594 0.605169 0.818863
Si Si5 0.039719 0.065152 0.183519
Si Si6 0.098039 0.323009 0.820324
Si Si7 0.136808 0.715384 0.680142
Si Si8 0.167260 0.571328 0.180140
O O1 0.074745 0.462953 0.500000
O O2 0.072369 0.390819 0.253874
O O3 0.127859 0.510274 0.252291
O O4 0.000000 0.500000 0.279506
O O5 0.294527 0.753176 0.500000
O O6 0.311697 0.676904 0.738364
O O7 0.329461 0.804678 0.759925
O O8 0.207767 0.749549 0.713520
O O9 0.076875 0.758802 0.744059
O O10 0.993196 0.864267 0.770200
O O11 0.950831 0.738576 0.781895
O O12 0.018888 0.788614 0.000000
O O13 0.382706 0.567299 0.774290
O O14 0.245943 0.569113 0.786372
O O15 0.318417 0.616910 0.000000
O O16 0.037921 0.064073 0.000000
O O17 0.000000 0.000000 0.237591
O O18 0.099073 0.330042 0.000000
O O19 0.130914 0.707679 0.500000
O O20 0.139849 0.641578 0.754229
O O21 0.158906 0.571332 0.000000
#
# Coordination Sequence:
#
# PCOD9426951 Si02
#       8
#     8   8   8   8   8   8   8   8
#     4  11  24  40  57  81 115 153 191 233 287 347
#     4  10  20  35  56  81 110 147 188 229 280 335
#     4  10  20  35  57  86 113 145 186 232 286 336
#     4   9  17  34  58  83 111 144 188 232 274 330
#     4   9  17  33  57  83 112 143 180 229 281 334
#     4  11  22  37  59  84 112 147 192 242 285 335
#     4  10  21  36  56  83 116 151 187 231 283 339
#     4  10  20  35  58  85 114 149 192 238 280 332
#
# _framework density 17.905726999999999
#
# number of rings (size 3 to 8) (size 9 to 14) (size 15 to 20)
#    0.000    2.000    1.250    2.625    0.000    6.000 
#    2.250    0.000    0.000    1.500    0.000    0.000 
#    0.000    0.000    0.000    0.000    0.000    0.000 
#
# Total GULP energy -357331.695084 kJ/mol
# GULP energy per Si atom -5583.307736 kJ/mol
# Density = 1.786497 g / cm^3
# Si number density = 17.905727 Si / 1000 Ang^3
#
#
#
# Elastic Constant Matrix: (Units=GPa)
#
#
# Indices 1 2 3 4 5 6 
#
# 1 116.2809 67.0261 44.2061 0.0000 0.0000 0.0000
# 2 67.0261 122.8045 40.6436 0.0000 0.0000 0.0000
# 3 44.2061 40.6436 33.6814 0.0000 0.0000 0.0000
# 4 0.0000 0.0000 0.0000 18.9785 0.0000 0.0000
# 5 0.0000 0.0000 0.0000 0.0000 19.8946 0.0000
# 6 0.0000 0.0000 0.0000 0.0000 0.0000 27.1970
#
#
#
# Elastic Compliance Matrix: (Units=1/GPa)
#
#
# Indices 1 2 3 4 5 6 
#
# 1 0.017946 -0.003329 -0.019536 0.000000 0.000000 0.000000
# 2 -0.003329 0.014175 -0.012736 0.000000 0.000000 0.000000
# 3 -0.019536 -0.012736 0.070700 0.000000 0.000000 0.000000
# 4 0.000000 0.000000 0.000000 0.052691 0.000000 0.000000
# 5 0.000000 0.000000 0.000000 0.000000 0.050265 0.000000
# 6 0.000000 0.000000 0.000000 0.000000 0.000000 0.036769
#
#
# Mechanical properties :
#
#
# Convention : Reuss Voigt Hill
#
# Bulk Modulus (GPa) = 31.62765 64.05758 47.84261
# Shear Modulus (GPa) = 15.41841 21.27342 18.34591
#
# Velocity S-wave (km/s) = 2.93761 3.45059 3.20438
# Velocity P-wave (km/s) = 5.40443 7.19222 6.36144
#
# Compressibility (1/GPa) = 0.03161791
#
# Stress axis : x y z
#
# Youngs Moduli (GPa) = 55.72339 70.54632 14.14429
#
# Poissons Ratio (x) = 0.23484 0.27633
# Poissons Ratio (y) = 0.18550 0.18014
# Poissons Ratio (z) = 1.08864 0.89848
#
# Static dielectric constant tensor:
#      x y z
#    x 1.614390 0.000000 0.000000 
#    y 0.000000 1.582300 0.000000 
#    z 0.000000 0.000000 1.592600 
# 
# From -- ./inp_files/9062.got.cif
#   From: 2010.05.17/outbox.cif.g08.bks.cpg/sg55_5_cif.got.tgz:9062.got - 2010.06.03 13:27:54.
