data_PCOD9426988
_publ_section_title
;
Structure prediction by ZEFSAII (Michael W. Deem and Ramdas Pophale) SiO2 
 PCOD9426988
Probable space group: P B A M
;
_chemical_formula_sum "Si O2"
_cell_formula_units_Z 64
_cell_length_a 23.674560
_cell_length_b 14.348897
_cell_length_c 9.328216
_cell_angle_alpha 90.000000
_cell_angle_beta 90.000000
_cell_angle_gamma 90.000000
_cell_volume 3168.830637
_symmetry_space_group_name_H-M "P B A M"
_symmetry_group_IT_number 55
_symmetry_cell_setting 'orthorhombic'
loop_
_space_group_symop_operation_xyz
x,y,z
-x,-y,z
1/2+x,1/2-y,-z
1/2-x,1/2+y,-z
-x,-y,-z
x,y,-z
1/2-x,1/2+y,z
1/2+x,1/2-y,z
loop_
_atom_site_type_symbol
_atom_site_label
_atom_site_fract_x
_atom_site_fract_y
_atom_site_fract_z
Si Si1 0.598302 0.222740 0.171265
Si Si2 0.387335 0.171174 0.333170
Si Si3 0.245727 0.965292 0.665139
Si Si4 0.506628 0.688002 0.333987
Si Si5 0.922416 0.049896 0.837197
Si Si6 0.119648 0.465659 0.665137
Si Si7 0.665757 0.396201 0.828644
Si Si8 0.815092 0.190703 0.163376
O O1 0.544144 0.270883 0.242217
O O2 0.603919 0.120398 0.235964
O O3 0.652263 0.289121 0.205247
O O4 0.592680 0.221256 0.000000
O O5 0.369222 0.166564 0.500000
O O6 0.441639 0.237993 0.326421
O O7 0.337397 0.216440 0.239962
O O8 0.403243 0.066531 0.288681
O O9 0.226257 0.959808 0.500000
O O10 0.312659 0.976535 0.667435
O O11 0.229033 0.870120 0.746684
O O12 0.214659 0.051379 0.742995
O O13 0.490836 0.675991 0.500000
O O14 0.531366 0.593506 0.266222
O O15 0.870065 0.123019 0.839851
O O16 0.891919 0.953958 0.796116
O O17 0.943385 0.043674 0.000000
O O18 0.102039 0.446861 0.500000
O O19 0.675593 0.406275 0.000000
O O20 0.796412 0.207144 0.000000
#
# Coordination Sequence:
#
# PCOD9426988 Si02
#       8
#     8   8   8   8   8   8   8   8
#     4  11  24  40  57  80 113 150 186 227 277 333
#     4   9  19  37  59  81 107 143 189 235 279 328
#     4  10  20  35  58  84 111 144 180 224 277 331
#     4  10  20  35  57  83 111 144 182 229 281 331
#     4   8  15  31  54  79 108 141 177 217 265 323
#     4  10  23  41  57  78 109 145 188 234 278 326
#     4   9  20  38  58  82 114 149 183 225 277 331
#     4   9  17  31  54  83 113 142 175 220 271 324
#
# _framework density 20.196724
#
# number of rings (size 3 to 8) (size 9 to 14) (size 15 to 20)
#    0.000    2.500    0.000    2.250    0.000    8.000 
#    0.000    8.750    0.000    0.000    0.000    0.000 
#    0.000    0.000    0.000    0.000    0.000    0.000 
#
# Total GULP energy -357433.968246 kJ/mol
# GULP energy per Si atom -5584.905754 kJ/mol
# Density = 2.015076 g / cm^3
# Si number density = 20.196724 Si / 1000 Ang^3
#
#
#
# Elastic Constant Matrix: (Units=GPa)
#
#
# Indices 1 2 3 4 5 6 
#
# 1 27.2158 1.0689 14.0049 0.0000 0.0000 0.0000
# 2 1.0689 99.8483 34.3366 0.0000 0.0000 0.0000
# 3 14.0049 34.3366 69.2801 0.0000 0.0000 0.0000
# 4 0.0000 0.0000 0.0000 26.5920 0.0000 0.0000
# 5 0.0000 0.0000 0.0000 0.0000 -835.9258 0.0000
# 6 0.0000 0.0000 0.0000 0.0000 0.0000 32.2395
#
#
#
# Elastic Compliance Matrix: (Units=1/GPa)
#
#
# Indices 1 2 3 4 5 6 
#
# 1 0.041722 0.002958 -0.009900 0.000000 0.000000 0.000000
# 2 0.002958 0.012283 -0.006685 0.000000 0.000000 0.000000
# 3 -0.009900 -0.006685 0.019749 0.000000 0.000000 0.000000
# 4 0.000000 0.000000 0.000000 0.037605 0.000000 0.000000
# 5 0.000000 0.000000 0.000000 0.000000 -0.001196 0.000000
# 6 0.000000 0.000000 0.000000 0.000000 0.000000 0.031018
#
#
# Mechanical properties :
#
#
# Convention : Reuss Voigt Hill
#
# Bulk Modulus (GPa) = 21.50634 32.79611 27.15122
# Shear Modulus (GPa) = 27.18365 -145.62328 -59.21981
#
# Velocity S-wave (km/s) = 3.67269 -8.50053 -5.42081
# Velocity P-wave (km/s) = 5.35317 8.94828 5.07027
#
# Compressibility (1/GPa) = 0.04649792
#
# Stress axis : x y z
#
# Youngs Moduli (GPa) = 23.96845 81.41635 50.63594
#
# Poissons Ratio (x) = -0.24081 0.50129
# Poissons Ratio (y) = -0.07089 0.33852
# Poissons Ratio (z) = 0.23729 0.54430
#
# Static dielectric constant tensor:
#      x y z
#    x 1.719520 0.000000 0.000000 
#    y 0.000000 1.737880 0.000000 
#    z 0.000000 0.000000 1.687170 
# 
# From -- ./inp_files/9803.got.cif
#   From: 2010.05.17/outbox.cif.g08.bks.cpg/sg55_5_cif.got.tgz:9803.got - 2010.06.03 13:27:54.
