data_PCOD9426616
_publ_section_title
;
Structure prediction by ZEFSAII (Michael W. Deem and Ramdas Pophale) SiO2 
 PCOD9426616
Probable space group: P B A M
;
_chemical_formula_sum "Si O2"
_cell_formula_units_Z 64
_cell_length_a 16.353388
_cell_length_b 21.979162
_cell_length_c 7.813784
_cell_angle_alpha 90.000000
_cell_angle_beta 90.000000
_cell_angle_gamma 90.000000
_cell_volume 2808.537795
_symmetry_space_group_name_H-M "P B A M"
_symmetry_group_IT_number 55
_symmetry_cell_setting 'orthorhombic'
loop_
_space_group_symop_operation_xyz
x,y,z
-x,-y,z
1/2+x,1/2-y,-z
1/2-x,1/2+y,-z
-x,-y,-z
x,y,-z
1/2-x,1/2+y,z
1/2+x,1/2-y,z
loop_
_atom_site_type_symbol
_atom_site_label
_atom_site_fract_x
_atom_site_fract_y
_atom_site_fract_z
Si Si1 0.811632 0.056340 0.790930
Si Si2 0.164262 0.082428 0.208325
Si Si3 0.021472 0.566731 0.706326
Si Si4 0.511135 0.573149 0.800750
Si Si5 0.553518 0.195005 0.298419
Si Si6 0.826821 0.360567 0.302624
Si Si7 0.734505 0.174312 0.793467
Si Si8 0.395943 0.260962 0.810944
O O1 0.740682 0.103017 0.741471
O O2 0.899000 0.083725 0.729401
O O3 0.810284 0.986185 0.736770
O O4 0.814622 0.055023 0.000000
O O5 0.073277 0.097632 0.273400
O O6 0.232848 0.127076 0.273240
O O7 0.162801 0.082830 0.000000
O O8 0.007876 0.564828 0.500000
O O9 0.117288 0.580872 0.734788
O O10 0.000000 0.500000 0.775233
O O11 0.974533 0.627773 0.771249
O O12 0.500000 0.500000 0.797113
O O13 0.512815 0.590556 0.000000
O O14 0.546354 0.190025 0.500000
O O15 0.648680 0.204068 0.256184
O O16 0.488585 0.247868 0.249915
O O17 0.843098 0.343535 0.500000
O O18 0.859567 0.306808 0.187740
O O19 0.819035 0.204118 0.725861
O O20 0.737509 0.177662 0.000000
O O21 0.404023 0.287305 0.000000
#
# Coordination Sequence:
#
# PCOD9426616 Si02
#       8
#     8   8   8   8   8   8   8   8
#     4   8  15  29  50  78 110 139 177 226 272 321
#     4   9  16  28  50  79 110 142 178 218 267 330
#     4   8  16  31  50  74 105 142 180 213 260 331
#     4   7  11  23  44  69  99 137 173 207 251 309
#     4  10  21  37  60  85 114 151 184 230 289 342
#     4  10  20  33  52  76 107 144 181 227 277 333
#     4  10  21  37  59  85 112 146 188 238 284 331
#     4  10  21  40  60  78 108 147 193 240 280 327
#
# _framework density 22.787656999999999
#
# number of rings (size 3 to 8) (size 9 to 14) (size 15 to 20)
#    0.000    3.000    0.000    3.375    1.750    1.000 
#    2.250    0.000    0.000    6.375    0.000    0.000 
#    0.000    0.000    0.000    0.000    0.000    0.000 
#
# Total GULP energy -356549.106259 kJ/mol
# GULP energy per Si atom -5571.079785 kJ/mol
# Density = 2.273579 g / cm^3
# Si number density = 22.787657 Si / 1000 Ang^3
#
#
#
# Elastic Constant Matrix: (Units=GPa)
#
#
# Indices 1 2 3 4 5 6 
#
# 1 126.0845 30.7881 7.9455 0.0000 0.0000 0.0000
# 2 30.7881 36.6927 2.2183 0.0000 0.0000 0.0000
# 3 7.9455 2.2183 32.9897 0.0000 0.0000 0.0000
# 4 0.0000 0.0000 0.0000 4.8880 0.0000 0.0000
# 5 0.0000 0.0000 0.0000 0.0000 7.3905 0.0000
# 6 0.0000 0.0000 0.0000 0.0000 0.0000 30.2967
#
#
#
# Elastic Compliance Matrix: (Units=1/GPa)
#
#
# Indices 1 2 3 4 5 6 
#
# 1 0.010088 -0.008352 -0.001868 0.000000 0.000000 0.000000
# 2 -0.008352 0.034279 -0.000293 0.000000 0.000000 0.000000
# 3 -0.001868 -0.000293 0.030782 0.000000 0.000000 0.000000
# 4 0.000000 0.000000 0.000000 0.204583 0.000000 0.000000
# 5 0.000000 0.000000 0.000000 0.000000 0.135309 0.000000
# 6 0.000000 0.000000 0.000000 0.000000 0.000000 0.033007
#
#
# Mechanical properties :
#
#
# Convention : Reuss Voigt Hill
#
# Bulk Modulus (GPa) = 18.47661 30.85229 24.66445
# Shear Modulus (GPa) = 10.26448 18.83603 14.55025
#
# Velocity S-wave (km/s) = 2.12466 2.87817 2.52963
# Velocity P-wave (km/s) = 3.76094 4.96120 4.40217
#
# Compressibility (1/GPa) = 0.05412248
#
# Stress axis : x y z
#
# Youngs Moduli (GPa) = 99.12417 29.17230 32.48639
#
# Poissons Ratio (x) = 0.24365 0.06069
# Poissons Ratio (y) = 0.82788 0.00953
# Poissons Ratio (z) = 0.18518 0.00856
#
# Static dielectric constant tensor:
#      x y z
#    x 1.884950 0.000000 0.000000 
#    y 0.000000 1.880690 0.000000 
#    z 0.000000 0.000000 1.843030 
# 
# From -- ./inp_files/6508.got.cif
#   From: 2010.05.17/outbox.cif.g08.bks.cpg/sg55_4_cif.got.tgz:6508.got - 2010.06.03 13:27:54.
