data_PCOD9426005
_publ_section_title
;
Structure prediction by ZEFSAII (Michael W. Deem and Ramdas Pophale) SiO2 
 PCOD9426005
Probable space group: P B A M
;
_chemical_formula_sum "Si O2"
_cell_formula_units_Z 56
_cell_length_a 12.667676
_cell_length_b 14.805576
_cell_length_c 14.364923
_cell_angle_alpha 90.000000
_cell_angle_beta 90.000000
_cell_angle_gamma 90.000000
_cell_volume 2694.173483
_symmetry_space_group_name_H-M "P B A M"
_symmetry_group_IT_number 55
_symmetry_cell_setting 'orthorhombic'
loop_
_space_group_symop_operation_xyz
x,y,z
-x,-y,z
1/2+x,1/2-y,-z
1/2-x,1/2+y,-z
-x,-y,-z
x,y,-z
1/2-x,1/2+y,z
1/2+x,1/2-y,z
loop_
_atom_site_type_symbol
_atom_site_label
_atom_site_fract_x
_atom_site_fract_y
_atom_site_fract_z
Si Si1 0.608910 0.048207 0.104734
Si Si2 0.737915 0.863863 0.103559
Si Si3 0.901151 0.949908 0.775923
Si Si4 0.234879 0.394571 0.271968
Si Si5 0.947877 0.650073 0.395519
Si Si6 0.138371 0.146583 0.395890
Si Si7 0.842400 0.296003 0.289727
O O1 0.663413 0.115960 0.177817
O O2 0.500000 0.000000 0.136974
O O3 0.689016 0.964115 0.096498
O O4 0.590738 0.085176 0.000000
O O5 0.666944 0.813742 0.179632
O O6 0.850450 0.877925 0.153649
O O7 0.742043 0.824799 0.000000
O O8 0.812863 0.022831 0.746601
O O9 0.065485 0.097024 0.679281
O O10 0.000000 0.000000 0.819676
O O11 0.306706 0.308525 0.299001
O O12 0.144614 0.409649 0.349769
O O13 0.976686 0.620671 0.500000
O O14 0.048610 0.667595 0.330535
O O15 0.897701 0.750109 0.402010
O O16 0.139297 0.108069 0.500000
O O17 0.252493 0.149630 0.346741
#
# Coordination Sequence:
#
# PCOD9426005 Si02
#       7
#     8   8   8   8   8   8   8
#     4   9  17  32  54  78 108 145 182 224 276 329
#     4   9  19  34  53  77 106 142 180 219 269 327
#     4  10  20  35  54  77 108 144 181 225 274 322
#     4  10  21  34  54  83 110 139 186 232 271 325
#     4  10  20  35  55  78 107 144 182 223 273 326
#     4   9  19  34  51  74 104 139 179 220 266 321
#     4  10  19  34  55  76 107 141 176 224 274 321
#
# _framework density 20.785596000000002
#
# number of rings (size 3 to 8) (size 9 to 14) (size 15 to 20)
#    0.000    2.429    0.000    2.143    0.000    2.286 
#    0.000    0.000    0.000   19.286    0.000    0.000 
#    0.000    0.000    0.000    0.000    0.000    0.000 
#
# Total GULP energy -312024.283549 kJ/mol
# GULP energy per Si atom -5571.862206 kJ/mol
# Density = 2.073829 g / cm^3
# Si number density = 20.785596 Si / 1000 Ang^3
#
#
#
# Elastic Constant Matrix: (Units=GPa)
#
#
# Indices 1 2 3 4 5 6 
#
# 1 79.3747 2.6461 31.0610 0.0000 0.0000 0.0000
# 2 2.6461 14.4367 -4.8878 0.0000 0.0000 0.0000
# 3 31.0610 -4.8878 128.6092 0.0000 0.0000 0.0000
# 4 0.0000 0.0000 0.0000 21.2501 0.0000 0.0000
# 5 0.0000 0.0000 0.0000 0.0000 14.6918 0.0000
# 6 0.0000 0.0000 0.0000 0.0000 0.0000 21.4609
#
#
#
# Elastic Compliance Matrix: (Units=1/GPa)
#
#
# Indices 1 2 3 4 5 6 
#
# 1 0.014115 -0.003790 -0.003553 0.000000 0.000000 0.000000
# 2 -0.003790 0.071189 0.003621 0.000000 0.000000 0.000000
# 3 -0.003553 0.003621 0.008771 0.000000 0.000000 0.000000
# 4 0.000000 0.000000 0.000000 0.047059 0.000000 0.000000
# 5 0.000000 0.000000 0.000000 0.000000 0.068065 0.000000
# 6 0.000000 0.000000 0.000000 0.000000 0.000000 0.046596
#
#
# Mechanical properties :
#
#
# Convention : Reuss Voigt Hill
#
# Bulk Modulus (GPa) = 11.54329 31.11768 21.33049
# Shear Modulus (GPa) = 17.11646 24.38732 20.75189
#
# Velocity S-wave (km/s) = 2.87274 3.42903 3.16314
# Velocity P-wave (km/s) = 4.07051 5.53904 4.86056
#
# Compressibility (1/GPa) = 0.08663038
#
# Stress axis : x y z
#
# Youngs Moduli (GPa) = 70.84548 14.04720 114.00910
#
# Poissons Ratio (x) = 0.05324 0.40508
# Poissons Ratio (y) = 0.26852 -0.41282
# Poissons Ratio (z) = 0.25172 -0.05086
#
# Static dielectric constant tensor:
#      x y z
#    x 1.763600 0.000000 0.000000 
#    y 0.000000 1.761130 0.000000 
#    z 0.000000 0.000000 1.804360 
# 
# From -- ./inp_files/13373.got.cif
#   From: 2010.05.17/outbox.cif.g08.bks.cpg/sg55_7_cif.got.tgz:13373.got - 2010.06.03 13:27:54.
