data_PCOD9426300
_publ_section_title
;
Structure prediction by ZEFSAII (Michael W. Deem and Ramdas Pophale) SiO2 
 PCOD9426300
Probable space group: P B A M
;
_chemical_formula_sum "Si O2"
_cell_formula_units_Z 64
_cell_length_a 18.915873
_cell_length_b 11.602101
_cell_length_c 13.695224
_cell_angle_alpha 90.000000
_cell_angle_beta 90.000000
_cell_angle_gamma 90.000000
_cell_volume 3005.606847
_symmetry_space_group_name_H-M "P B A M"
_symmetry_group_IT_number 55
_symmetry_cell_setting 'orthorhombic'
loop_
_space_group_symop_operation_xyz
x,y,z
-x,-y,z
1/2+x,1/2-y,-z
1/2-x,1/2+y,-z
-x,-y,-z
x,y,-z
1/2-x,1/2+y,z
1/2+x,1/2-y,z
loop_
_atom_site_type_symbol
_atom_site_label
_atom_site_fract_x
_atom_site_fract_y
_atom_site_fract_z
Si Si1 0.597655 0.182287 0.819731
Si Si2 0.445498 0.160768 0.110759
Si Si3 0.820422 0.463417 0.791454
Si Si4 0.733474 0.089959 0.390041
Si Si5 0.395310 0.453866 0.388833
Si Si6 0.614613 0.268929 0.611586
Si Si7 0.675346 0.411947 0.885025
Si Si8 0.562668 0.584007 0.183901
O O1 0.527617 0.134141 0.870329
O O2 0.579048 0.208248 0.705483
O O3 0.626956 0.301908 0.860979
O O4 0.660135 0.090129 0.832722
O O5 0.391289 0.106899 0.187882
O O6 0.441643 0.297600 0.127566
O O7 0.425098 0.129984 0.000000
O O8 0.799399 0.495590 0.681737
O O9 0.753638 0.403676 0.841362
O O10 0.722213 0.049486 0.500000
O O11 0.817170 0.098847 0.376120
O O12 0.693057 0.212073 0.380063
O O13 0.420186 0.431908 0.500000
O O14 0.387292 0.592915 0.377265
O O15 0.442430 0.404363 0.301545
O O16 0.590029 0.243187 0.500000
O O17 0.636322 0.520917 0.837311
O O18 0.679361 0.427512 0.000000
O O19 0.500000 0.500000 0.151101
#
# Coordination Sequence:
#
# PCOD9426300 Si02
#       8
#     8   8   8   8   8   8   8   8
#     4  11  23  44  68  94 131 174 214 270 329 396
#     4  12  27  45  66  92 130 178 222 269 330 393
#     4  11  25  43  67  98 131 165 222 277 325 383
#     4   9  18  35  61  92 126 167 208 258 327 393
#     4  10  19  35  61  93 128 165 207 262 323 387
#     4   9  17  33  60  91 123 163 207 255 322 389
#     4  12  25  41  64  94 125 168 220 275 326 376
#     4  12  24  43  64  91 129 169 218 267 323 390
#
# _framework density 21.293537000000001
#
# number of rings (size 3 to 8) (size 9 to 14) (size 15 to 20)
#    0.000    1.250    3.750    1.500    1.750    4.250 
#    0.000    3.125    0.000    3.000    0.000    0.000 
#    0.000    0.000    0.000    0.000    0.000    0.000 
#
# Total GULP energy -357589.099424 kJ/mol
# GULP energy per Si atom -5587.329679 kJ/mol
# Density = 2.124507 g / cm^3
# Si number density = 21.293537 Si / 1000 Ang^3
#
#
#
# Elastic Constant Matrix: (Units=GPa)
#
#
# Indices 1 2 3 4 5 6 
#
# 1 79.7072 1.2993 9.6640 0.0000 0.0000 0.0000
# 2 1.2993 31.2248 0.4586 0.0000 0.0000 0.0000
# 3 9.6640 0.4586 72.0090 0.0000 0.0000 0.0000
# 4 0.0000 0.0000 0.0000 12.6805 0.0000 0.0000
# 5 0.0000 0.0000 0.0000 0.0000 13.3874 0.0000
# 6 0.0000 0.0000 0.0000 0.0000 0.0000 30.3651
#
#
#
# Elastic Compliance Matrix: (Units=1/GPa)
#
#
# Indices 1 2 3 4 5 6 
#
# 1 0.012761 -0.000506 -0.001709 0.000000 0.000000 0.000000
# 2 -0.000506 0.032049 -0.000136 0.000000 0.000000 0.000000
# 3 -0.001709 -0.000136 0.014117 0.000000 0.000000 0.000000
# 4 0.000000 0.000000 0.000000 0.078861 0.000000 0.000000
# 5 0.000000 0.000000 0.000000 0.000000 0.074697 0.000000
# 6 0.000000 0.000000 0.000000 0.000000 0.000000 0.032933
#
#
# Mechanical properties :
#
#
# Convention : Reuss Voigt Hill
#
# Bulk Modulus (GPa) = 18.44179 22.86497 20.65338
# Shear Modulus (GPa) = 18.64302 22.72120 20.68211
#
# Velocity S-wave (km/s) = 2.96214 3.27011 3.11993
# Velocity P-wave (km/s) = 4.51426 5.00195 4.76435
#
# Compressibility (1/GPa) = 0.05422466
#
# Stress axis : x y z
#
# Youngs Moduli (GPa) = 78.36112 31.20233 70.83440
#
# Poissons Ratio (x) = 0.01579 0.12109
# Poissons Ratio (y) = 0.03964 0.00965
# Poissons Ratio (z) = 0.13395 0.00425
#
# Static dielectric constant tensor:
#      x y z
#    x 1.788080 0.000000 0.000000 
#    y 0.000000 1.758290 0.000000 
#    z 0.000000 0.000000 1.800900 
# 
# From -- ./inp_files/19489.got.cif
#   From: 2010.05.17/outbox.cif.g08.bks.cpg/sg55_10_cif.got.tgz:19489.got - 2010.06.03 13:27:54.
