data_PCOD9426634
_publ_section_title
;
Structure prediction by ZEFSAII (Michael W. Deem and Ramdas Pophale) SiO2 
 PCOD9426634
Probable space group: P B A M
;
_chemical_formula_sum "Si O2"
_cell_formula_units_Z 40
_cell_length_a 24.078370
_cell_length_b 8.040941
_cell_length_c 8.390804
_cell_angle_alpha 90.000000
_cell_angle_beta 90.000000
_cell_angle_gamma 90.000000
_cell_volume 1624.566659
_symmetry_space_group_name_H-M "P B A M"
_symmetry_group_IT_number 55
_symmetry_cell_setting 'orthorhombic'
loop_
_space_group_symop_operation_xyz
x,y,z
-x,-y,z
1/2+x,1/2-y,-z
1/2-x,1/2+y,-z
-x,-y,-z
x,y,-z
1/2-x,1/2+y,z
1/2+x,1/2-y,z
loop_
_atom_site_type_symbol
_atom_site_label
_atom_site_fract_x
_atom_site_fract_y
_atom_site_fract_z
Si Si1 0.066399 0.629365 0.812912
Si Si2 0.033715 0.176833 0.315309
Si Si3 0.872273 0.045324 0.308027
Si Si4 0.737971 0.369853 0.314269
Si Si5 0.832333 0.565938 0.187066
O O1 0.004652 0.681119 0.759339
O O2 0.106815 0.484668 0.746396
O O3 0.101665 0.795701 0.774510
O O4 0.063951 0.601204 0.000000
O O5 0.039520 0.219853 0.500000
O O6 0.092991 0.116719 0.249537
O O7 0.000000 0.000000 0.306020
O O8 0.881689 0.060000 0.500000
O O9 0.807563 0.015052 0.284823
O O10 0.754318 0.369993 0.500000
O O11 0.791620 0.406550 0.209332
O O12 0.701643 0.207222 0.278506
O O13 0.836079 0.607188 0.000000
#
# Coordination Sequence:
#
# PCOD9426634 Si02
#       5
#     8   8   8   8   8
#     4  10  20  33  53  81 110 143 181 218 261 319
#     4   8  15  30  52  77 107 141 176 218 266 312
#     4   9  19  35  55  81 110 139 176 224 271 313
#     4  11  23  39  60  83 106 139 186 229 267 322
#     4  11  24  40  56  79 113 146 177 221 279 329
#
# _framework density 24.621948
#
# number of rings (size 3 to 8) (size 9 to 14) (size 15 to 20)
#    0.000    2.200    0.000    4.200    0.000   11.600 
#    0.000    1.000    0.000    6.000    0.000    0.000 
#    0.000    0.000    0.000    0.000    0.000    0.000 
#
# Total GULP energy -223630.865737 kJ/mol
# GULP energy per Si atom -5590.771643 kJ/mol
# Density = 2.456591 g / cm^3
# Si number density = 24.621948 Si / 1000 Ang^3
#
#
#
# Elastic Constant Matrix: (Units=GPa)
#
#
# Indices 1 2 3 4 5 6 
#
# 1 137.2307 -3.0097 10.2292 0.0000 0.0000 0.0000
# 2 -3.0097 78.8052 -7.9984 0.0000 0.0000 0.0000
# 3 10.2292 -7.9984 33.8612 0.0000 0.0000 0.0000
# 4 0.0000 0.0000 0.0000 28.3909 0.0000 0.0000
# 5 0.0000 0.0000 0.0000 0.0000 28.3777 0.0000
# 6 0.0000 0.0000 0.0000 0.0000 0.0000 45.3314
#
#
#
# Elastic Compliance Matrix: (Units=1/GPa)
#
#
# Indices 1 2 3 4 5 6 
#
# 1 0.007455 0.000058 -0.002239 0.000000 0.000000 0.000000
# 2 0.000058 0.013002 0.003054 0.000000 0.000000 0.000000
# 3 -0.002239 0.003054 0.030930 0.000000 0.000000 0.000000
# 4 0.000000 0.000000 0.000000 0.035223 0.000000 0.000000
# 5 0.000000 0.000000 0.000000 0.000000 0.035239 0.000000
# 6 0.000000 0.000000 0.000000 0.000000 0.000000 0.022060
#
#
# Mechanical properties :
#
#
# Convention : Reuss Voigt Hill
#
# Bulk Modulus (GPa) = 18.82098 27.59325 23.20711
# Shear Modulus (GPa) = 31.27479 37.13174 34.20326
#
# Velocity S-wave (km/s) = 3.56785 3.88761 3.73116
# Velocity P-wave (km/s) = 4.96320 5.60200 5.29225
#
# Compressibility (1/GPa) = 0.05313219
#
# Stress axis : x y z
#
# Youngs Moduli (GPa) = 134.13593 76.91325 32.33113
#
# Poissons Ratio (x) = -0.00442 0.07238
# Poissons Ratio (y) = -0.00772 -0.09873
# Poissons Ratio (z) = 0.30027 -0.23487
#
# Static dielectric constant tensor:
#      x y z
#    x 2.004880 0.000000 0.000000 
#    y 0.000000 2.099100 0.000000 
#    z 0.000000 0.000000 1.824850 
# 
# From -- ./inp_files/2297.got.cif
#   From: 2010.05.17/outbox.cif.g08.bks.cpg/sg55_2_cif.got.tgz:2297.got - 2010.06.03 13:27:54.
