data_PCOD9426793
_publ_section_title
;
Structure prediction by ZEFSAII (Michael W. Deem and Ramdas Pophale) SiO2 
 PCOD9426793
Probable space group: P B A M
;
_chemical_formula_sum "Si O2"
_cell_formula_units_Z 56
_cell_length_a 13.030142
_cell_length_b 9.619884
_cell_length_c 21.547599
_cell_angle_alpha 90.000000
_cell_angle_beta 90.000000
_cell_angle_gamma 90.000000
_cell_volume 2700.958234
_symmetry_space_group_name_H-M "P B A M"
_symmetry_group_IT_number 55
_symmetry_cell_setting 'orthorhombic'
loop_
_space_group_symop_operation_xyz
x,y,z
-x,-y,z
1/2+x,1/2-y,-z
1/2-x,1/2+y,-z
-x,-y,-z
x,y,-z
1/2-x,1/2+y,z
1/2+x,1/2-y,z
loop_
_atom_site_type_symbol
_atom_site_label
_atom_site_fract_x
_atom_site_fract_y
_atom_site_fract_z
Si Si1 0.522679 0.844167 0.831482
Si Si2 0.574307 0.366580 0.615490
Si Si3 0.250334 0.961648 0.429837
Si Si4 0.114817 0.699594 0.575645
Si Si5 0.908865 0.888554 0.754638
Si Si6 0.756235 0.411274 0.857099
Si Si7 0.642894 0.172608 0.073172
O O1 0.459920 0.742721 0.787919
O O2 0.643903 0.825849 0.834635
O O3 0.472642 0.829054 0.899854
O O4 0.500000 0.000000 0.810226
O O5 0.500000 0.500000 0.616460
O O6 0.663694 0.416729 0.570158
O O7 0.499533 0.241711 0.596624
O O8 0.620289 0.352295 0.684309
O O9 0.278941 0.924038 0.500000
O O10 0.345482 0.048621 0.402077
O O11 0.193303 0.824857 0.403054
O O12 0.115586 0.701149 0.500000
O O13 0.816052 0.938966 0.797988
O O14 0.000000 0.000000 0.752754
O O15 0.798257 0.549179 0.890458
O O16 0.693789 0.316920 0.905475
O O17 0.646759 0.152983 0.000000
#
# Coordination Sequence:
#
# PCOD9426793 Si02
#       7
#     8   8   8   8   8   8   8
#     4   9  20  36  52  74 104 136 168 204 254 307
#     4   9  18  32  51  73  97 133 173 207 249 304
#     4   9  17  31  50  73 100 130 167 209 255 303
#     4   9  17  31  51  74 101 132 167 210 257 304
#     4  10  20  35  53  74 100 133 177 217 250 299
#     4  10  20  35  54  75 104 138 167 208 258 298
#     4  10  20  34  55  81 105 133 170 207 249 304
#
# _framework density 20.733384000000001
#
# number of rings (size 3 to 8) (size 9 to 14) (size 15 to 20)
#    0.000    2.571    0.000    1.714    0.000    6.000 
#    0.000    9.286    0.000    8.143    0.000    0.000 
#    0.000    0.000    0.000    0.000    0.000    0.000 
#
# Total GULP energy -312243.901852 kJ/mol
# GULP energy per Si atom -5575.783962 kJ/mol
# Density = 2.068619 g / cm^3
# Si number density = 20.733384 Si / 1000 Ang^3
#
#
#
# Elastic Constant Matrix: (Units=GPa)
#
#
# Indices 1 2 3 4 5 6 
#
# 1 67.9630 9.0215 18.4345 0.0000 0.0000 0.0000
# 2 9.0215 50.4547 10.3391 0.0000 0.0000 0.0000
# 3 18.4345 10.3391 83.6254 0.0000 0.0000 0.0000
# 4 0.0000 0.0000 0.0000 8.2125 0.0000 0.0000
# 5 0.0000 0.0000 0.0000 0.0000 15.6948 0.0000
# 6 0.0000 0.0000 0.0000 0.0000 0.0000 28.2869
#
#
#
# Elastic Compliance Matrix: (Units=1/GPa)
#
#
# Indices 1 2 3 4 5 6 
#
# 1 0.015879 -0.002177 -0.003231 0.000000 0.000000 0.000000
# 2 -0.002177 0.020633 -0.002071 0.000000 0.000000 0.000000
# 3 -0.003231 -0.002071 0.012926 0.000000 0.000000 0.000000
# 4 0.000000 0.000000 0.000000 0.121766 0.000000 0.000000
# 5 0.000000 0.000000 0.000000 0.000000 0.063715 0.000000
# 6 0.000000 0.000000 0.000000 0.000000 0.000000 0.035352
#
#
# Mechanical properties :
#
#
# Convention : Reuss Voigt Hill
#
# Bulk Modulus (GPa) = 29.00217 30.84815 29.92516
# Shear Modulus (GPa) = 16.85065 21.38872 19.11969
#
# Velocity S-wave (km/s) = 2.85394 3.21535 3.04002
# Velocity P-wave (km/s) = 4.98783 5.35681 5.17561
#
# Compressibility (1/GPa) = 0.03448018
#
# Stress axis : x y z
#
# Youngs Moduli (GPa) = 62.97489 48.46504 77.36070
#
# Poissons Ratio (x) = 0.10551 0.24998
# Poissons Ratio (y) = 0.13710 0.16022
# Poissons Ratio (z) = 0.20349 0.10038
#
# Static dielectric constant tensor:
#      x y z
#    x 1.789960 0.000000 0.000000 
#    y 0.000000 1.756260 0.000000 
#    z 0.000000 0.000000 1.731930 
# 
# From -- ./inp_files/22828.got.cif
#   From: 2010.05.17/outbox.cif.g08.bks.cpg/sg55_12_cif.got.tgz:22828.got - 2010.06.03 13:27:54.
