data_PCOD9426588
_publ_section_title
;
Structure prediction by ZEFSAII (Michael W. Deem and Ramdas Pophale) SiO2 
 PCOD9426588
Probable space group: P B A M
;
_chemical_formula_sum "Si O2"
_cell_formula_units_Z 56
_cell_length_a 7.978733
_cell_length_b 13.093207
_cell_length_c 24.402012
_cell_angle_alpha 90.000000
_cell_angle_beta 90.000000
_cell_angle_gamma 90.000000
_cell_volume 2549.209936
_symmetry_space_group_name_H-M "P B A M"
_symmetry_group_IT_number 55
_symmetry_cell_setting 'orthorhombic'
loop_
_space_group_symop_operation_xyz
x,y,z
-x,-y,z
1/2+x,1/2-y,-z
1/2-x,1/2+y,-z
-x,-y,-z
x,y,-z
1/2-x,1/2+y,z
1/2+x,1/2-y,z
loop_
_atom_site_type_symbol
_atom_site_label
_atom_site_fract_x
_atom_site_fract_y
_atom_site_fract_z
Si Si1 0.460936 0.708665 0.648451
Si Si2 0.177875 0.060894 0.562085
Si Si3 0.311003 0.913559 0.649735
Si Si4 0.672315 0.935997 0.145185
Si Si5 0.824970 0.086643 0.938496
Si Si6 0.017172 0.714063 0.061654
Si Si7 0.325812 0.561644 0.261821
O O1 0.363717 0.663790 0.595449
O O2 0.457638 0.830647 0.650009
O O3 0.643981 0.657589 0.648047
O O4 0.369153 0.659678 0.701188
O O5 0.233748 0.078483 0.500000
O O6 0.298375 0.988348 0.597704
O O7 0.000000 0.000000 0.560857
O O8 0.291530 0.985475 0.702711
O O9 0.794980 0.006785 0.109148
O O10 0.500000 0.000000 0.152566
O O11 0.623546 0.838917 0.108896
O O12 0.748087 0.911088 0.203845
O O13 0.663667 0.161744 0.936668
O O14 0.978219 0.164447 0.931643
O O15 0.826234 0.041618 0.000000
O O16 0.084126 0.692976 0.000000
O O17 0.500000 0.500000 0.254164
#
# Coordination Sequence:
#
# PCOD9426588 Si02
#       7
#     8   8   8   8   8   8   8
#     4   9  18  33  52  72  96 129 164 197 237 282
#     4   8  15  30  51  74 101 131 161 193 234 287
#     4   9  18  33  52  72  96 129 164 197 237 282
#     4  10  20  33  51  73  95 123 159 198 240 282
#     4   9  18  33  51  71  96 124 154 191 237 288
#     4   9  18  33  51  71  96 124 154 191 237 288
#     4   9  20  36  49  66  96 130 162 196 236 285
#
# _framework density 21.967590999999999
#
# number of rings (size 3 to 8) (size 9 to 14) (size 15 to 20)
#    0.000    3.000    0.000    2.143    0.000    5.714 
#    0.000    7.857    0.000    5.143    0.000    0.000 
#    0.000    0.000    0.000    0.000    0.000    0.000 
#
# Total GULP energy -313002.618929 kJ/mol
# GULP energy per Si atom -5589.332481 kJ/mol
# Density = 2.191759 g / cm^3
# Si number density = 21.967591 Si / 1000 Ang^3
#
#
#
# Elastic Constant Matrix: (Units=GPa)
#
#
# Indices 1 2 3 4 5 6 
#
# 1 62.0061 28.4819 38.2273 0.0000 0.0000 0.0000
# 2 28.4819 58.7193 35.5298 0.0000 0.0000 0.0000
# 3 38.2273 35.5298 156.8960 0.0000 0.0000 0.0000
# 4 0.0000 0.0000 0.0000 6.8413 0.0000 0.0000
# 5 0.0000 0.0000 0.0000 0.0000 -3.5775 0.0000
# 6 0.0000 0.0000 0.0000 0.0000 0.0000 44.0203
#
#
#
# Elastic Compliance Matrix: (Units=1/GPa)
#
#
# Indices 1 2 3 4 5 6 
#
# 1 0.022254 -0.008706 -0.003450 0.000000 0.000000 0.000000
# 2 -0.008706 0.023140 -0.003119 0.000000 0.000000 0.000000
# 3 -0.003450 -0.003119 0.007921 0.000000 0.000000 0.000000
# 4 0.000000 0.000000 0.000000 0.146172 0.000000 0.000000
# 5 0.000000 0.000000 0.000000 0.000000 -0.279524 0.000000
# 6 0.000000 0.000000 0.000000 0.000000 0.000000 0.022717
#
#
# Mechanical properties :
#
#
# Convention : Reuss Voigt Hill
#
# Bulk Modulus (GPa) = 43.93053 53.56661 48.74857
# Shear Modulus (GPa) = -260.68205 21.14897 -119.76654
#
# Velocity S-wave (km/s) = -10.90524 3.10616 -7.39175
# Velocity P-wave (km/s) = 11.76964 6.10751 7.11417
#
# Compressibility (1/GPa) = 0.02276321
#
# Stress axis : x y z
#
# Youngs Moduli (GPa) = 44.93586 43.21428 126.25217
#
# Poissons Ratio (x) = 0.37624 0.43563
# Poissons Ratio (y) = 0.39123 0.39378
# Poissons Ratio (z) = 0.15505 0.13478
#
# Static dielectric constant tensor:
#      x y z
#    x 1.891450 0.000000 0.000000 
#    y 0.000000 1.767710 0.000000 
#    z 0.000000 0.000000 1.749840 
# 
# From -- ./inp_files/22841.got.cif
#   From: 2010.05.17/outbox.cif.g08.bks.cpg/sg55_12_cif.got.tgz:22841.got - 2010.06.03 13:27:54.
