data_PCOD9426977
_publ_section_title
;
Structure prediction by ZEFSAII (Michael W. Deem and Ramdas Pophale) SiO2 
 PCOD9426977
Probable space group: P B A M
;
_chemical_formula_sum "Si O2"
_cell_formula_units_Z 56
_cell_length_a 21.746718
_cell_length_b 8.166627
_cell_length_c 13.476788
_cell_angle_alpha 90.000000
_cell_angle_beta 90.000000
_cell_angle_gamma 90.000000
_cell_volume 2393.441625
_symmetry_space_group_name_H-M "P B A M"
_symmetry_group_IT_number 55
_symmetry_cell_setting 'orthorhombic'
loop_
_space_group_symop_operation_xyz
x,y,z
-x,-y,z
1/2+x,1/2-y,-z
1/2-x,1/2+y,-z
-x,-y,-z
x,y,-z
1/2-x,1/2+y,z
1/2+x,1/2-y,z
loop_
_atom_site_type_symbol
_atom_site_label
_atom_site_fract_x
_atom_site_fract_y
_atom_site_fract_z
Si Si1 0.778499 0.641596 0.117827
Si Si2 0.811739 0.888838 0.286664
Si Si3 0.487463 0.195148 0.116138
Si Si4 0.064970 0.453118 0.384526
Si Si5 0.197644 0.448472 0.615556
Si Si6 0.945032 0.883547 0.710534
Si Si7 0.846770 0.293815 0.118280
O O1 0.806991 0.783589 0.185451
O O2 0.813779 0.470495 0.135807
O O3 0.705152 0.656954 0.141475
O O4 0.784442 0.676807 0.000000
O O5 0.807869 0.745536 0.370106
O O6 0.878766 0.968410 0.285788
O O7 0.754308 0.997331 0.317872
O O8 0.534246 0.295183 0.186329
O O9 0.417078 0.220811 0.153863
O O10 0.500000 0.000000 0.117668
O O11 0.493424 0.246366 0.000000
O O12 0.063689 0.498601 0.500000
O O13 0.131153 0.516612 0.348221
O O14 0.063538 0.259759 0.368913
O O15 0.000000 0.500000 0.337049
O O16 0.206187 0.489648 0.500000
O O17 0.000000 0.000000 0.681899
O O18 0.854459 0.287010 0.000000
#
# Coordination Sequence:
#
# PCOD9426977 Si02
#       7
#     8   8   8   8   8   8   8
#     4  10  20  35  56  87 126 162 202 256 312 373
#     4  11  23  39  61  90 119 160 207 248 309 374
#     4  10  21  39  62  85 116 166 223 267 307 367
#     4   9  20  41  67  92 119 157 202 247 302 370
#     4  10  22  41  63  88 120 154 198 255 305 361
#     4  11  25  40  58  89 127 163 200 257 321 375
#     4   9  19  35  56  82 115 159 205 253 311 369
#
# _framework density 23.397271
#
# number of rings (size 3 to 8) (size 9 to 14) (size 15 to 20)
#    0.000    2.000    0.000    2.571    0.000    9.714 
#    0.000    2.857    0.000    0.000    0.000    0.000 
#    0.000    0.000    0.000    0.000    0.000    0.000 
#
# Total GULP energy -312632.912627 kJ/mol
# GULP energy per Si atom -5582.730583 kJ/mol
# Density = 2.334402 g / cm^3
# Si number density = 23.397271 Si / 1000 Ang^3
#
#
#
# Elastic Constant Matrix: (Units=GPa)
#
#
# Indices 1 2 3 4 5 6 
#
# 1 232.2042 43.7692 44.1734 0.0000 0.0000 0.0000
# 2 43.7692 42.1808 1.2459 0.0000 0.0000 0.0000
# 3 44.1734 1.2459 86.4199 0.0000 0.0000 0.0000
# 4 0.0000 0.0000 0.0000 30.7496 0.0000 0.0000
# 5 0.0000 0.0000 0.0000 0.0000 -9.1855 0.0000
# 6 0.0000 0.0000 0.0000 0.0000 0.0000 40.5008
#
#
#
# Elastic Compliance Matrix: (Units=1/GPa)
#
#
# Indices 1 2 3 4 5 6 
#
# 1 0.006042 -0.006181 -0.002999 0.000000 0.000000 0.000000
# 2 -0.006181 0.030041 0.002726 0.000000 0.000000 0.000000
# 3 -0.002999 0.002726 0.013065 0.000000 0.000000 0.000000
# 4 0.000000 0.000000 0.000000 0.032521 0.000000 0.000000
# 5 0.000000 0.000000 0.000000 0.000000 -0.108867 0.000000
# 6 0.000000 0.000000 0.000000 0.000000 0.000000 0.024691
#
#
# Mechanical properties :
#
#
# Convention : Reuss Voigt Hill
#
# Bulk Modulus (GPa) = 27.59377 59.90911 43.75144
# Shear Modulus (GPa) = 222.40848 30.52073 126.46461
#
# Velocity S-wave (km/s) = 9.76032 3.61564 7.35991
# Velocity P-wave (km/s) = 11.78294 6.56439 9.53753
#
# Compressibility (1/GPa) = 0.03624006
#
# Stress axis : x y z
#
# Youngs Moduli (GPa) = 165.50086 33.28795 76.53901
#
# Poissons Ratio (x) = 0.20576 0.22957
# Poissons Ratio (y) = 1.02300 -0.20868
# Poissons Ratio (z) = 0.49640 -0.09076
#
# Static dielectric constant tensor:
#      x y z
#    x 1.954720 0.000000 0.000000 
#    y 0.000000 1.905470 0.000000 
#    z 0.000000 0.000000 1.891930 
# 
# From -- ./inp_files/19740.got.cif
#   From: 2010.05.17/outbox.cif.g08.bks.cpg/sg55_10_cif.got.tgz:19740.got - 2010.06.03 13:27:54.
