data_PCOD9426150
_publ_section_title
;
Structure prediction by ZEFSAII (Michael W. Deem and Ramdas Pophale) SiO2 
 PCOD9426150
Probable space group: P B A M
;
_chemical_formula_sum "Si O2"
_cell_formula_units_Z 56
_cell_length_a 15.047193
_cell_length_b 21.220016
_cell_length_c 7.562749
_cell_angle_alpha 90.000000
_cell_angle_beta 90.000000
_cell_angle_gamma 90.000000
_cell_volume 2414.798432
_symmetry_space_group_name_H-M "P B A M"
_symmetry_group_IT_number 55
_symmetry_cell_setting 'orthorhombic'
loop_
_space_group_symop_operation_xyz
x,y,z
-x,-y,z
1/2+x,1/2-y,-z
1/2-x,1/2+y,-z
-x,-y,-z
x,y,-z
1/2-x,1/2+y,z
1/2+x,1/2-y,z
loop_
_atom_site_type_symbol
_atom_site_label
_atom_site_fract_x
_atom_site_fract_y
_atom_site_fract_z
Si Si1 0.081390 0.585104 0.796198
Si Si2 0.686160 0.790581 0.290082
Si Si3 0.909697 0.024939 0.202999
Si Si4 0.109921 0.225618 0.788392
Si Si5 0.579919 0.667879 0.294361
Si Si6 0.105560 0.369582 0.783915
Si Si7 0.281393 0.982761 0.217350
O O1 0.132328 0.651504 0.791194
O O2 0.145448 0.532216 0.719109
O O3 0.984103 0.596460 0.720039
O O4 0.066806 0.566243 0.000000
O O5 0.670792 0.792608 0.500000
O O6 0.791065 0.797821 0.255809
O O7 0.643782 0.724214 0.225744
O O8 0.908907 0.100652 0.203010
O O9 0.816944 0.002359 0.282227
O O10 0.909903 0.001582 0.000000
O O11 0.000000 0.000000 0.287715
O O12 0.107196 0.297910 0.723302
O O13 0.023026 0.189671 0.719620
O O14 0.101645 0.225040 0.000000
O O15 0.601516 0.658289 0.500000
O O16 0.188405 0.412554 0.733080
O O17 0.102980 0.367618 0.000000
O O18 0.279541 0.984890 0.000000
#
# Coordination Sequence:
#
# PCOD9426150 Si02
#       7
#     8   8   8   8   8   8   8
#     4  10  19  34  59  88 116 151 199 247 299 357
#     4  11  24  40  58  86 125 164 202 246 304 365
#     4  10  22  39  60  88 121 158 206 255 299 354
#     4  11  22  37  63  92 119 154 203 255 303 357
#     4  11  24  42  62  87 123 165 203 247 305 367
#     4   9  17  32  56  89 118 147 191 247 303 353
#     4   9  18  33  56  86 120 153 192 249 305 352
#
# _framework density 23.190342000000001
#
# number of rings (size 3 to 8) (size 9 to 14) (size 15 to 20)
#    0.000    1.857    1.429    2.571    2.000    4.857 
#    0.000    0.714    0.000    3.429    0.000    0.000 
#    0.000    0.000    0.000    0.000    0.000    0.000 
#
# Total GULP energy -313109.032625 kJ/mol
# GULP energy per Si atom -5591.232725 kJ/mol
# Density = 2.313756 g / cm^3
# Si number density = 23.190342 Si / 1000 Ang^3
#
#
#
# Elastic Constant Matrix: (Units=GPa)
#
#
# Indices 1 2 3 4 5 6 
#
# 1 114.6556 -8.2549 -7.8116 0.0000 0.0000 0.0000
# 2 -8.2549 36.6248 -9.4581 0.0000 0.0000 0.0000
# 3 -7.8116 -9.4581 65.8915 0.0000 0.0000 0.0000
# 4 0.0000 0.0000 0.0000 -18.9198 0.0000 0.0000
# 5 0.0000 0.0000 0.0000 0.0000 -232.8143 0.0000
# 6 0.0000 0.0000 0.0000 0.0000 0.0000 32.7624
#
#
#
# Elastic Compliance Matrix: (Units=1/GPa)
#
#
# Indices 1 2 3 4 5 6 
#
# 1 0.008990 0.002390 0.001409 0.000000 0.000000 0.000000
# 2 0.002390 0.028990 0.004445 0.000000 0.000000 0.000000
# 3 0.001409 0.004445 0.015981 0.000000 0.000000 0.000000
# 4 0.000000 0.000000 0.000000 -0.052855 0.000000 0.000000
# 5 0.000000 0.000000 0.000000 0.000000 -0.004295 0.000000
# 6 0.000000 0.000000 0.000000 0.000000 0.000000 0.030523
#
#
# Mechanical properties :
#
#
# Convention : Reuss Voigt Hill
#
# Bulk Modulus (GPa) = 14.19471 18.45807 16.32639
# Shear Modulus (GPa) = 145.64371 -27.61457 59.01457
#
# Velocity S-wave (km/s) = 7.93347 -3.45451 5.05006
# Velocity P-wave (km/s) = 9.48969 2.81689 6.40778
#
# Compressibility (1/GPa) = 0.07044877
#
# Stress axis : x y z
#
# Youngs Moduli (GPa) = 111.23671 34.49422 62.57247
#
# Poissons Ratio (x) = -0.08244 -0.08815
# Poissons Ratio (y) = -0.26586 -0.27811
# Poissons Ratio (z) = -0.15672 -0.15331
#
# Static dielectric constant tensor:
#      x y z
#    x 1.858460 0.000000 0.000000 
#    y 0.000000 1.834570 0.000000 
#    z 0.000000 0.000000 1.876640 
# 
# From -- ./inp_files/6047.got.cif
#   From: 2010.05.17/outbox.cif.g08.bks.cpg/sg55_4_cif.got.tgz:6047.got - 2010.06.03 13:27:54.
