data_PCOD9426688
_publ_section_title
;
Structure prediction by ZEFSAII (Michael W. Deem and Ramdas Pophale) SiO2 
 PCOD9426688
Probable space group: P B A M
;
_chemical_formula_sum "Si O2"
_cell_formula_units_Z 56
_cell_length_a 24.161534
_cell_length_b 14.258125
_cell_length_c 7.650792
_cell_angle_alpha 90.000000
_cell_angle_beta 90.000000
_cell_angle_gamma 90.000000
_cell_volume 2635.683858
_symmetry_space_group_name_H-M "P B A M"
_symmetry_group_IT_number 55
_symmetry_cell_setting 'orthorhombic'
loop_
_space_group_symop_operation_xyz
x,y,z
-x,-y,z
1/2+x,1/2-y,-z
1/2-x,1/2+y,-z
-x,-y,-z
x,y,-z
1/2-x,1/2+y,z
1/2+x,1/2-y,z
loop_
_atom_site_type_symbol
_atom_site_label
_atom_site_fract_x
_atom_site_fract_y
_atom_site_fract_z
Si Si1 0.976143 0.401692 0.289914
Si Si2 0.035457 0.212267 0.709554
Si Si3 0.438408 0.402229 0.698271
Si Si4 0.326526 0.489554 0.203074
Si Si5 0.836113 0.805631 0.211177
Si Si6 0.267606 0.303062 0.213101
Si Si7 0.122029 0.713280 0.792485
O O1 0.981339 0.402568 0.500000
O O2 0.912091 0.380263 0.246933
O O3 0.000000 0.500000 0.223576
O O4 0.010171 0.310812 0.224028
O O5 0.027730 0.210160 0.500000
O O6 0.100021 0.208934 0.745525
O O7 0.998770 0.123390 0.774340
O O8 0.443423 0.437395 0.500000
O O9 0.391967 0.465067 0.788491
O O10 0.409956 0.298719 0.699497
O O11 0.318299 0.592089 0.280027
O O12 0.292130 0.402050 0.278060
O O13 0.310837 0.494664 0.000000
O O14 0.792766 0.727659 0.273656
O O15 0.832657 0.807726 0.000000
O O16 0.313877 0.224274 0.256343
O O17 0.266303 0.308069 0.000000
O O18 0.118132 0.731539 0.000000
#
# Coordination Sequence:
#
# PCOD9426688 Si02
#       7
#     8   8   8   8   8   8   8
#     4   9  18  34  53  73 103 141 174 207 257 316
#     4   9  19  34  50  72 103 135 165 208 258 300
#     4   9  17  31  52  74  99 132 165 200 253 309
#     4   9  18  33  53  74  98 131 171 212 253 304
#     4  10  20  34  52  74 102 137 171 208 261 311
#     4   8  16  33  51  70  98 132 167 209 254 300
#     4   9  16  29  51  76 100 128 169 216 253 294
#
# _framework density 21.246856999999999
#
# number of rings (size 3 to 8) (size 9 to 14) (size 15 to 20)
#    0.000    3.000    0.000    2.571    0.000    4.286 
#    2.571    6.429    0.000    0.000    0.000    0.000 
#    0.000    0.000    0.000    0.000    0.000    0.000 
#
# Total GULP energy -312148.367504 kJ/mol
# GULP energy per Si atom -5574.077991 kJ/mol
# Density = 2.119850 g / cm^3
# Si number density = 21.246857 Si / 1000 Ang^3
#
#
#
# Elastic Constant Matrix: (Units=GPa)
#
#
# Indices 1 2 3 4 5 6 
#
# 1 118.8151 28.3915 -6.3323 0.0000 0.0000 0.0000
# 2 28.3915 69.9393 2.4925 0.0000 0.0000 0.0000
# 3 -6.3323 2.4925 40.7864 0.0000 0.0000 0.0000
# 4 0.0000 0.0000 0.0000 8.9580 0.0000 0.0000
# 5 0.0000 0.0000 0.0000 0.0000 29.5143 0.0000
# 6 0.0000 0.0000 0.0000 0.0000 0.0000 27.7792
#
#
#
# Elastic Compliance Matrix: (Units=1/GPa)
#
#
# Indices 1 2 3 4 5 6 
#
# 1 0.009437 -0.003892 0.001703 0.000000 0.000000 0.000000
# 2 -0.003892 0.015934 -0.001578 0.000000 0.000000 0.000000
# 3 0.001703 -0.001578 0.024879 0.000000 0.000000 0.000000
# 4 0.000000 0.000000 0.000000 0.111632 0.000000 0.000000
# 5 0.000000 0.000000 0.000000 0.000000 0.033882 0.000000
# 6 0.000000 0.000000 0.000000 0.000000 0.000000 0.035998
#
#
# Mechanical properties :
#
#
# Convention : Reuss Voigt Hill
#
# Bulk Modulus (GPa) = 23.40996 30.96046 27.18521
# Shear Modulus (GPa) = 19.72120 26.91625 23.31872
#
# Velocity S-wave (km/s) = 3.04993 3.56312 3.31647
# Velocity P-wave (km/s) = 4.84198 5.61527 5.24290
#
# Compressibility (1/GPa) = 0.04271685
#
# Stress axis : x y z
#
# Youngs Moduli (GPa) = 105.96442 62.75838 40.19491
#
# Poissons Ratio (x) = 0.24423 -0.06845
# Poissons Ratio (y) = 0.41238 0.06342
# Poissons Ratio (z) = -0.18046 0.09903
#
# Static dielectric constant tensor:
#      x y z
#    x 1.783320 0.000000 0.000000 
#    y 0.000000 1.790030 0.000000 
#    z 0.000000 0.000000 1.842550 
# 
# From -- ./inp_files/6061.got.cif
#   From: 2010.05.17/outbox.cif.g08.bks.cpg/sg55_4_cif.got.tgz:6061.got - 2010.06.03 13:27:54.
