data_PCOD9426370
_publ_section_title
;
Structure prediction by ZEFSAII (Michael W. Deem and Ramdas Pophale) SiO2 
 PCOD9426370
Probable space group: P B A M
;
_chemical_formula_sum "Si O2"
_cell_formula_units_Z 56
_cell_length_a 14.330793
_cell_length_b 19.560354
_cell_length_c 9.089417
_cell_angle_alpha 90.000000
_cell_angle_beta 90.000000
_cell_angle_gamma 90.000000
_cell_volume 2547.903418
_symmetry_space_group_name_H-M "P B A M"
_symmetry_group_IT_number 55
_symmetry_cell_setting 'orthorhombic'
loop_
_space_group_symop_operation_xyz
x,y,z
-x,-y,z
1/2+x,1/2-y,-z
1/2-x,1/2+y,-z
-x,-y,-z
x,y,-z
1/2-x,1/2+y,z
1/2+x,1/2-y,z
loop_
_atom_site_type_symbol
_atom_site_label
_atom_site_fract_x
_atom_site_fract_y
_atom_site_fract_z
Si Si1 0.425395 0.705553 0.176398
Si Si2 0.955987 0.928861 0.329092
Si Si3 0.777690 0.283485 0.324032
Si Si4 0.227991 0.991628 0.328724
Si Si5 0.442620 0.856856 0.828405
Si Si6 0.782463 0.144278 0.171988
Si Si7 0.895354 0.420129 0.675347
O O1 0.475986 0.638457 0.236685
O O2 0.322108 0.705047 0.246513
O O3 0.467728 0.779090 0.218709
O O4 0.418627 0.703846 0.000000
O O5 0.983675 0.918752 0.500000
O O6 0.845566 0.946256 0.325926
O O7 0.000000 0.000000 0.277017
O O8 0.765442 0.278338 0.500000
O O9 0.813623 0.211593 0.258990
O O10 0.843067 0.348264 0.292935
O O11 0.238774 0.971369 0.500000
O O12 0.326146 0.020450 0.269757
O O13 0.187873 0.927448 0.241267
O O14 0.330958 0.859820 0.813335
O O15 0.502147 0.911802 0.740257
O O16 0.465393 0.864488 0.000000
O O17 0.805763 0.150360 0.000000
O O18 0.901034 0.427861 0.500000
#
# Coordination Sequence:
#
# PCOD9426370 Si02
#       7
#     8   8   8   8   8   8   8
#     4  10  20  36  57  82 113 147 186 235 287 341
#     4  10  21  38  60  84 115 154 194 239 290 345
#     4  10  19  36  60  83 110 148 191 240 287 340
#     4  10  21  39  58  84 117 150 193 239 286 345
#     4   9  21  38  55  81 116 149 189 237 283 339
#     4  10  22  39  57  84 117 153 195 237 287 344
#     4  10  21  36  58  86 114 146 194 240 284 342
#
# _framework density 21.978854999999999
#
# number of rings (size 3 to 8) (size 9 to 14) (size 15 to 20)
#    0.000    2.143    1.429    2.143    0.000    7.714 
#    0.000    7.143    0.000    0.000    0.000    0.000 
#    0.000    0.000    0.000    0.000    0.000    0.000 
#
# Total GULP energy -312981.099068 kJ/mol
# GULP energy per Si atom -5588.948198 kJ/mol
# Density = 2.192883 g / cm^3
# Si number density = 21.978855 Si / 1000 Ang^3
#
#
#
# Elastic Constant Matrix: (Units=GPa)
#
#
# Indices 1 2 3 4 5 6 
#
# 1 44.5323 4.1269 6.4772 0.0000 0.0000 0.0000
# 2 4.1269 102.7088 32.8703 0.0000 0.0000 0.0000
# 3 6.4772 32.8703 35.2339 0.0000 0.0000 0.0000
# 4 0.0000 0.0000 0.0000 26.0407 0.0000 0.0000
# 5 0.0000 0.0000 0.0000 0.0000 49.8585 0.0000
# 6 0.0000 0.0000 0.0000 0.0000 0.0000 34.8911
#
#
#
# Elastic Compliance Matrix: (Units=1/GPa)
#
#
# Indices 1 2 3 4 5 6 
#
# 1 0.023100 0.000614 -0.004820 0.000000 0.000000 0.000000
# 2 0.000614 0.013897 -0.013078 0.000000 0.000000 0.000000
# 3 -0.004820 -0.013078 0.041468 0.000000 0.000000 0.000000
# 4 0.000000 0.000000 0.000000 0.038401 0.000000 0.000000
# 5 0.000000 0.000000 0.000000 0.000000 0.020057 0.000000
# 6 0.000000 0.000000 0.000000 0.000000 0.000000 0.028661
#
#
# Mechanical properties :
#
#
# Convention : Reuss Voigt Hill
#
# Bulk Modulus (GPa) = 22.77963 29.93600 26.35781
# Shear Modulus (GPa) = 23.27943 31.42477 27.35210
#
# Velocity S-wave (km/s) = 3.25803 3.78534 3.53154
# Velocity P-wave (km/s) = 4.95377 5.72319 5.35233
#
# Compressibility (1/GPa) = 0.04389887
#
# Stress axis : x y z
#
# Youngs Moduli (GPa) = 43.29059 71.95888 24.11498
#
# Poissons Ratio (x) = -0.04420 0.11622
# Poissons Ratio (y) = -0.02659 0.31536
# Poissons Ratio (z) = 0.20864 0.94104
#
# Static dielectric constant tensor:
#      x y z
#    x 1.877850 0.000000 0.000000 
#    y 0.000000 1.805020 0.000000 
#    z 0.000000 0.000000 1.735680 
# 
# From -- ./inp_files/6116.got.cif
#   From: 2010.05.17/outbox.cif.g08.bks.cpg/sg55_4_cif.got.tgz:6116.got - 2010.06.03 13:27:54.
