data_PCOD9426299
_publ_section_title
;
Structure prediction by ZEFSAII (Michael W. Deem and Ramdas Pophale) SiO2 
 PCOD9426299
Probable space group: P B A M
;
_chemical_formula_sum "Si O2"
_cell_formula_units_Z 54
_cell_length_a 25.609941
_cell_length_b 5.392428
_cell_length_c 15.907433
_cell_angle_alpha 90.000000
_cell_angle_beta 90.000000
_cell_angle_gamma 90.000000
_cell_volume 2196.812726
_symmetry_space_group_name_H-M "P B A M"
_symmetry_group_IT_number 55
_symmetry_cell_setting 'orthorhombic'
loop_
_space_group_symop_operation_xyz
x,y,z
-x,-y,z
1/2+x,1/2-y,-z
1/2-x,1/2+y,-z
-x,-y,-z
x,y,-z
1/2-x,1/2+y,z
1/2+x,1/2-y,z
loop_
_atom_site_type_symbol
_atom_site_label
_atom_site_fract_x
_atom_site_fract_y
_atom_site_fract_z
Si Si1 0.000000 0.500000 0.500000
Si Si2 0.902097 0.610267 0.810535
Si Si3 0.221325 0.521711 0.000000
Si Si4 0.721396 0.778447 0.600356
Si Si5 0.559046 0.601757 0.175511
Si Si6 0.109789 0.826131 0.359094
Si Si7 0.284809 0.931326 0.811406
Si Si8 0.433702 0.819866 0.625088
O O1 0.986584 0.700488 0.425091
O O2 0.906149 0.873023 0.857369
O O3 0.843340 0.579620 0.774395
O O4 0.936974 0.653350 0.725521
O O5 0.925829 0.373976 0.859017
O O6 0.198025 0.453669 0.910162
O O7 0.231051 0.818147 0.000000
O O8 0.710826 0.761853 0.500000
O O9 0.736898 0.061572 0.618604
O O10 0.671033 0.699579 0.651350
O O11 0.500000 0.500000 0.168109
O O12 0.578214 0.648317 0.271920
O O13 0.100849 0.089212 0.400737
O O14 0.091481 0.578256 0.405454
O O15 0.251154 0.678141 0.797227
#
# Coordination Sequence:
#
# PCOD9426299 Si02
#       8
#     2   8   4   8   8   8   8   8
#     4  12  28  42  64  82 104 148 180 262 320 350
#     4  10  21  38  56  87 115 151 197 233 291 357
#     4   8  16  30  54  92 127 162 193 228 280 338
#     4  10  21  37  55  72  96 127 163 205 259 330
#     4  10  21  37  58  77 112 142 190 244 291 333
#     4  10  22  39  59  81 103 133 177 230 287 362
#     4  10  19  35  61  92 131 162 193 235 283 338
#     4  10  25  38  56  82 109 131 188 232 303 350
#
# _framework density 24.581067000000001
#
# number of rings (size 3 to 8) (size 9 to 14) (size 15 to 20)
#    0.000    2.074    0.000    2.222   10.370    0.593 
#    0.000   17.778    0.000    0.000    0.000    3.111 
#    0.000    0.000    0.000    0.000    0.000    0.000 
#
# Total GULP energy -300635.167741 kJ/mol
# GULP energy per Si atom -5567.317921 kJ/mol
# Density = 2.452512 g / cm^3
# Si number density = 24.581067 Si / 1000 Ang^3
#
#
#
# Elastic Constant Matrix: (Units=GPa)
#
#
# Indices 1 2 3 4 5 6 
#
# 1 62.6395 27.2482 -18.0114 0.0000 0.0000 0.0000
# 2 27.2482 222.8828 -8.0330 0.0000 0.0000 0.0000
# 3 -18.0114 -8.0330 26.5755 0.0000 0.0000 0.0000
# 4 0.0000 0.0000 0.0000 25.5131 0.0000 0.0000
# 5 0.0000 0.0000 0.0000 0.0000 -0.7915 0.0000
# 6 0.0000 0.0000 0.0000 0.0000 0.0000 41.4333
#
#
#
# Elastic Compliance Matrix: (Units=1/GPa)
#
#
# Indices 1 2 3 4 5 6 
#
# 1 0.020714 -0.002049 0.013420 0.000000 0.000000 0.000000
# 2 -0.002049 0.004739 0.000044 0.000000 0.000000 0.000000
# 3 0.013420 0.000044 0.046737 0.000000 0.000000 0.000000
# 4 0.000000 0.000000 0.000000 0.039196 0.000000 0.000000
# 5 0.000000 0.000000 0.000000 0.000000 -1.263434 0.000000
# 6 0.000000 0.000000 0.000000 0.000000 0.000000 0.024135
#
#
# Mechanical properties :
#
#
# Convention : Reuss Voigt Hill
#
# Bulk Modulus (GPa) = 10.52414 34.94506 22.73460
# Shear Modulus (GPa) = -4.46800 33.95725 14.74462
#
# Velocity S-wave (km/s) = -1.34967 3.72080 2.45181
# Velocity P-wave (km/s) = 1.36451 5.71894 4.15741
#
# Compressibility (1/GPa) = 0.09501966
#
# Stress axis : x y z
#
# Youngs Moduli (GPa) = 48.27590 211.02802 21.39632
#
# Poissons Ratio (x) = 0.43234 -0.28713
# Poissons Ratio (y) = 0.09890 -0.00094
# Poissons Ratio (z) = -0.64785 -0.00925
#
# Static dielectric constant tensor:
#      x y z
#    x 2.170710 0.000000 0.000000 
#    y 0.000000 2.087670 0.000000 
#    z 0.000000 0.000000 2.050840 
# 
# From -- ./inp_files/23174.got.cif
#   From: 2010.05.17/outbox.cif.g08.bks.cpg/sg55_12_cif.got.tgz:23174.got - 2010.06.03 13:27:54.
