data_PCOD9426183
_publ_section_title
;
Structure prediction by ZEFSAII (Michael W. Deem and Ramdas Pophale) SiO2 
 PCOD9426183
Probable space group: P B A M
;
_chemical_formula_sum "Si O2"
_cell_formula_units_Z 64
_cell_length_a 9.155049
_cell_length_b 19.864825
_cell_length_c 19.255044
_cell_angle_alpha 90.000000
_cell_angle_beta 90.000000
_cell_angle_gamma 90.000000
_cell_volume 3501.788660
_symmetry_space_group_name_H-M "P B A M"
_symmetry_group_IT_number 55
_symmetry_cell_setting 'orthorhombic'
loop_
_space_group_symop_operation_xyz
x,y,z
-x,-y,z
1/2+x,1/2-y,-z
1/2-x,1/2+y,-z
-x,-y,-z
x,y,-z
1/2-x,1/2+y,z
1/2+x,1/2-y,z
loop_
_atom_site_type_symbol
_atom_site_label
_atom_site_fract_x
_atom_site_fract_y
_atom_site_fract_z
Si Si1 0.114390 0.438599 0.294918
Si Si2 0.157590 0.465728 0.922802
Si Si3 0.105321 0.336679 0.579899
Si Si4 0.163523 0.160917 0.718698
Si Si5 0.616400 0.159327 0.166613
Si Si6 0.833470 0.981391 0.791272
Si Si7 0.604910 0.737598 0.217181
Si Si8 0.736639 0.803588 0.420235
O O1 0.127499 0.395434 0.364497
O O2 0.071906 0.387456 0.232628
O O3 0.263702 0.471606 0.268176
O O4 0.000000 0.500000 0.300867
O O5 0.129820 0.389177 0.898840
O O6 0.248729 0.502171 0.862330
O O7 0.000000 0.500000 0.923891
O O8 0.222641 0.469883 0.000000
O O9 0.127929 0.358483 0.500000
O O10 0.209253 0.272669 0.593526
O O11 0.937520 0.311723 0.586006
O O12 0.179482 0.094666 0.764848
O O13 0.293867 0.211775 0.739191
O O14 0.185277 0.149885 0.636823
O O15 0.009847 0.196380 0.736147
O O16 0.497190 0.218651 0.165562
O O17 0.776967 0.189290 0.181443
O O18 0.000000 0.000000 0.801559
O O19 0.777062 0.819192 0.500000
#
# Coordination Sequence:
#
# PCOD9426183 Si02
#       8
#     8   8   8   8   8   8   8   8
#     4  11  21  35  55  77 108 150 190 232 278 332
#     4  10  21  39  62  84 111 148 184 217 260 324
#     4  10  21  36  54  79 109 144 188 234 285 342
#     4  11  19  34  54  80 109 139 183 228 273 326
#     4  10  19  35  54  82 110 139 182 225 271 324
#     4  11  23  37  58  85 113 144 182 228 272 320
#     4  10  20  31  56  81 106 141 179 229 278 320
#     4  10  20  33  52  78 108 143 184 235 287 333
#
# _framework density 18.276374000000001
#
# number of rings (size 3 to 8) (size 9 to 14) (size 15 to 20)
#    0.000    1.625    0.000    8.250    0.000    1.500 
#    0.000    1.250    0.000    3.750    0.000    0.000 
#    0.000    0.000    0.000    0.000    0.000    0.000 
#
# Total GULP energy -357389.222117 kJ/mol
# GULP energy per Si atom -5584.206596 kJ/mol
# Density = 1.823478 g / cm^3
# Si number density = 18.276374 Si / 1000 Ang^3
#
#
#
# Elastic Constant Matrix: (Units=GPa)
#
#
# Indices 1 2 3 4 5 6 
#
# 1 102.3810 32.9071 56.1204 0.0000 0.0000 0.0000
# 2 32.9071 73.0661 71.1734 0.0000 0.0000 0.0000
# 3 56.1204 71.1734 133.2248 0.0000 0.0000 0.0000
# 4 0.0000 0.0000 0.0000 -60.0825 0.0000 0.0000
# 5 0.0000 0.0000 0.0000 0.0000 4.7053 0.0000
# 6 0.0000 0.0000 0.0000 0.0000 0.0000 27.2765
#
#
#
# Elastic Compliance Matrix: (Units=1/GPa)
#
#
# Indices 1 2 3 4 5 6 
#
# 1 0.012739 -0.001064 -0.004798 0.000000 0.000000 0.000000
# 2 -0.001064 0.028625 -0.014845 0.000000 0.000000 0.000000
# 3 -0.004798 -0.014845 0.017458 0.000000 0.000000 0.000000
# 4 0.000000 0.000000 0.000000 -0.016644 0.000000 0.000000
# 5 0.000000 0.000000 0.000000 0.000000 0.212526 0.000000
# 6 0.000000 0.000000 0.000000 0.000000 0.000000 0.036662
#
#
# Mechanical properties :
#
#
# Convention : Reuss Voigt Hill
#
# Bulk Modulus (GPa) = 57.43900 69.89708 63.66804
# Shear Modulus (GPa) = 14.76745 4.27792 9.52269
#
# Velocity S-wave (km/s) = 2.84563 1.53159 2.28510
# Velocity P-wave (km/s) = 6.50331 6.43857 6.47102
#
# Compressibility (1/GPa) = 0.01740977
#
# Stress axis : x y z
#
# Youngs Moduli (GPa) = 78.49627 34.93402 57.28058
#
# Poissons Ratio (x) = 0.03715 0.27485
# Poissons Ratio (y) = 0.08348 0.85031
# Poissons Ratio (z) = 0.37665 0.51858
#
# Static dielectric constant tensor:
#      x y z
#    x 1.611990 0.000000 0.000000 
#    y 0.000000 1.642040 0.000000 
#    z 0.000000 0.000000 1.637890 
# 
# From -- ./inp_files/21098.got.cif
#   From: 2010.05.17/outbox.cif.g08.bks.cpg/sg55_11_cif.got.tgz:21098.got - 2010.06.03 13:27:54.
