data_PCOD9426998
_publ_section_title
;
Structure prediction by ZEFSAII (Michael W. Deem and Ramdas Pophale) SiO2 
 PCOD9426998
Probable space group: P B A M
;
_chemical_formula_sum "Si O2"
_cell_formula_units_Z 64
_cell_length_a 23.940094
_cell_length_b 15.840713
_cell_length_c 7.692331
_cell_angle_alpha 90.000000
_cell_angle_beta 90.000000
_cell_angle_gamma 90.000000
_cell_volume 2917.148518
_symmetry_space_group_name_H-M "P B A M"
_symmetry_group_IT_number 55
_symmetry_cell_setting 'orthorhombic'
loop_
_space_group_symop_operation_xyz
x,y,z
-x,-y,z
1/2+x,1/2-y,-z
1/2-x,1/2+y,-z
-x,-y,-z
x,y,-z
1/2-x,1/2+y,z
1/2+x,1/2-y,z
loop_
_atom_site_type_symbol
_atom_site_label
_atom_site_fract_x
_atom_site_fract_y
_atom_site_fract_z
Si Si1 0.076357 0.747897 0.794466
Si Si2 0.540623 0.573605 0.799782
Si Si3 0.657970 0.500919 0.296454
Si Si4 0.005387 0.403170 0.289027
Si Si5 0.687621 0.313702 0.289902
Si Si6 0.126474 0.348139 0.709796
Si Si7 0.779871 0.516347 0.794621
Si Si8 0.810645 0.329916 0.205936
O O1 0.045180 0.831407 0.721406
O O2 0.040714 0.662867 0.772991
O O3 0.137933 0.724653 0.722109
O O4 0.083073 0.765865 0.000000
O O5 0.500000 0.500000 0.723582
O O6 0.604855 0.542081 0.794041
O O7 0.521497 0.583123 0.000000
O O8 0.643619 0.497400 0.500000
O O9 0.669783 0.406228 0.228868
O O10 0.719300 0.542088 0.278755
O O11 0.003232 0.402425 0.500000
O O12 0.000000 0.500000 0.232603
O O13 0.065635 0.372393 0.227835
O O14 0.688399 0.316583 0.500000
O O15 0.644922 0.243544 0.229264
O O16 0.749891 0.290037 0.231665
O O17 0.124700 0.346981 0.500000
O O18 0.173069 0.415233 0.761367
O O19 0.801854 0.425588 0.723201
O O20 0.771571 0.506119 0.000000
O O21 0.821508 0.338873 0.000000
#
# Coordination Sequence:
#
# PCOD9426998 Si02
#       8
#     8   8   8   8   8   8   8   8
#     4  10  22  39  60  86 117 154 198 246 292 345
#     4  10  23  41  59  83 118 156 198 251 301 348
#     4  10  21  38  60  84 113 150 192 238 292 348
#     4  10  22  39  60  87 119 156 194 238 293 348
#     4   9  20  36  55  81 112 146 183 232 285 341
#     4  10  21  36  55  82 117 148 188 237 282 342
#     4  10  20  35  57  85 115 149 186 231 289 349
#     4   9  19  36  56  81 112 145 185 234 284 340
#
# _framework density 21.939232000000001
#
# number of rings (size 3 to 8) (size 9 to 14) (size 15 to 20)
#    0.000    2.250    0.000    1.500    3.500    3.500 
#    0.000    0.000    0.000    0.000    0.000    0.000 
#    0.000    0.000    0.000    0.000    0.000    0.000 
#
# Total GULP energy -357301.000529 kJ/mol
# GULP energy per Si atom -5582.828133 kJ/mol
# Density = 2.188930 g / cm^3
# Si number density = 21.939232 Si / 1000 Ang^3
#
#
#
# Elastic Constant Matrix: (Units=GPa)
#
#
# Indices 1 2 3 4 5 6 
#
# 1 90.7983 43.1695 -9.0186 0.0000 0.0000 0.0000
# 2 43.1695 91.8052 -1.4594 0.0000 0.0000 0.0000
# 3 -9.0186 -1.4594 37.5134 0.0000 0.0000 0.0000
# 4 0.0000 0.0000 0.0000 111.1464 0.0000 0.0000
# 5 0.0000 0.0000 0.0000 0.0000 18.4584 0.0000
# 6 0.0000 0.0000 0.0000 0.0000 0.0000 38.7858
#
#
#
# Elastic Compliance Matrix: (Units=1/GPa)
#
#
# Indices 1 2 3 4 5 6 
#
# 1 0.014567 -0.006799 0.003238 0.000000 0.000000 0.000000
# 2 -0.006799 0.014072 -0.001087 0.000000 0.000000 0.000000
# 3 0.003238 -0.001087 0.027393 0.000000 0.000000 0.000000
# 4 0.000000 0.000000 0.000000 0.008997 0.000000 0.000000
# 5 0.000000 0.000000 0.000000 0.000000 0.054176 0.000000
# 6 0.000000 0.000000 0.000000 0.000000 0.000000 0.025783
#
#
# Mechanical properties :
#
#
# Convention : Reuss Voigt Hill
#
# Bulk Modulus (GPa) = 21.39631 31.72221 26.55926
# Shear Modulus (GPa) = 29.43546 46.17316 37.80431
#
# Velocity S-wave (km/s) = 3.66687 4.59256 4.15557
# Velocity P-wave (km/s) = 5.26323 6.52784 5.92935
#
# Compressibility (1/GPa) = 0.04673703
#
# Stress axis : x y z
#
# Youngs Moduli (GPa) = 68.64686 71.06206 36.50540
#
# Poissons Ratio (x) = 0.48312 -0.11819
# Poissons Ratio (y) = 0.46670 0.03968
# Poissons Ratio (z) = -0.22225 0.07724
#
# Static dielectric constant tensor:
#      x y z
#    x 1.769550 0.000000 0.000000 
#    y 0.000000 1.815970 0.000000 
#    z 0.000000 0.000000 1.817500 
# 
# From -- ./inp_files/9822.got.cif
#   From: 2010.05.17/outbox.cif.g08.bks.cpg/sg55_5_cif.got.tgz:9822.got - 2010.06.03 13:27:54.
