data_PCOD9426081
_publ_section_title
;
Structure prediction by ZEFSAII (Michael W. Deem and Ramdas Pophale) SiO2 
 PCOD9426081
Probable space group: P B A M
;
_chemical_formula_sum "Si O2"
_cell_formula_units_Z 56
_cell_length_a 14.046891
_cell_length_b 19.890775
_cell_length_c 7.641160
_cell_angle_alpha 90.000000
_cell_angle_beta 90.000000
_cell_angle_gamma 90.000000
_cell_volume 2134.967217
_symmetry_space_group_name_H-M "P B A M"
_symmetry_group_IT_number 55
_symmetry_cell_setting 'orthorhombic'
loop_
_space_group_symop_operation_xyz
x,y,z
-x,-y,z
1/2+x,1/2-y,-z
1/2-x,1/2+y,-z
-x,-y,-z
x,y,-z
1/2-x,1/2+y,z
1/2+x,1/2-y,z
loop_
_atom_site_type_symbol
_atom_site_label
_atom_site_fract_x
_atom_site_fract_y
_atom_site_fract_z
Si Si1 0.891586 0.930389 0.299877
Si Si2 0.209260 0.354698 0.205849
Si Si3 0.432699 0.210154 0.711880
Si Si4 0.793864 0.498973 0.204106
Si Si5 0.531728 0.929941 0.299580
Si Si6 0.707644 0.292184 0.791508
Si Si7 0.432000 0.357604 0.712930
O O1 0.902268 0.951878 0.500000
O O2 0.841793 0.856572 0.292706
O O3 0.996089 0.915121 0.224852
O O4 0.817213 0.981868 0.218656
O O5 0.177887 0.427396 0.276221
O O6 0.179050 0.282180 0.279279
O O7 0.323911 0.360008 0.225326
O O8 0.188336 0.353808 0.000000
O O9 0.436320 0.207592 0.500000
O O10 0.485004 0.143243 0.780222
O O11 0.321863 0.206012 0.765064
O O12 0.468631 0.283293 0.767912
O O13 0.854221 0.441871 0.299138
O O14 0.816892 0.496051 0.000000
O O15 0.499398 0.929413 0.500000
O O16 0.500000 0.000000 0.213754
O O17 0.690100 0.295693 0.000000
O O18 0.431236 0.359610 0.500000
#
# Coordination Sequence:
#
# PCOD9426081 Si02
#       7
#     8   8   8   8   8   8   8
#     4  11  22  36  56  85 117 149 191 237 284 341
#     4   9  21  39  57  81 115 150 190 238 284 338
#     4   9  17  34  56  78 108 142 182 228 279 334
#     4  11  23  39  58  82 115 155 194 234 286 343
#     4  10  21  36  57  85 116 149 187 233 285 341
#     4  10  19  34  57  81 106 144 190 233 283 338
#     4   9  20  36  56  82 110 147 191 237 284 333
#
# _framework density 26.229911000000001
#
# number of rings (size 3 to 8) (size 9 to 14) (size 15 to 20)
#    0.000    2.143    1.429    1.286    0.000    4.857 
#    0.000    4.286    0.000    0.000    0.000    0.000 
#    0.000    0.000    0.000    0.000    0.000    0.000 
#
# Total GULP energy -313230.127844 kJ/mol
# GULP energy per Si atom -5593.395140 kJ/mol
# Density = 2.617021 g / cm^3
# Si number density = 26.229911 Si / 1000 Ang^3
#
#
#
# Elastic Constant Matrix: (Units=GPa)
#
#
# Indices 1 2 3 4 5 6 
#
# 1 72.9942 10.5120 11.0521 0.0000 0.0000 0.0000
# 2 10.5120 149.5194 13.1113 0.0000 0.0000 0.0000
# 3 11.0521 13.1113 88.7910 0.0000 0.0000 0.0000
# 4 0.0000 0.0000 0.0000 13.8722 0.0000 0.0000
# 5 0.0000 0.0000 0.0000 0.0000 27.9725 0.0000
# 6 0.0000 0.0000 0.0000 0.0000 0.0000 55.0187
#
#
#
# Elastic Compliance Matrix: (Units=1/GPa)
#
#
# Indices 1 2 3 4 5 6 
#
# 1 0.014068 -0.000846 -0.001626 0.000000 0.000000 0.000000
# 2 -0.000846 0.006827 -0.000903 0.000000 0.000000 0.000000
# 3 -0.001626 -0.000903 0.011598 0.000000 0.000000 0.000000
# 4 0.000000 0.000000 0.000000 0.072087 0.000000 0.000000
# 5 0.000000 0.000000 0.000000 0.000000 0.035749 0.000000
# 6 0.000000 0.000000 0.000000 0.000000 0.000000 0.018176
#
#
# Mechanical properties :
#
#
# Convention : Reuss Voigt Hill
#
# Bulk Modulus (GPa) = 38.84669 42.29504 40.57086
# Shear Modulus (GPa) = 28.76281 37.81463 33.28872
#
# Velocity S-wave (km/s) = 3.31504 3.80104 3.56633
# Velocity P-wave (km/s) = 5.43091 5.95177 5.69730
#
# Compressibility (1/GPa) = 0.02574222
#
# Stress axis : x y z
#
# Youngs Moduli (GPa) = 71.08416 146.48232 86.22099
#
# Poissons Ratio (x) = 0.12399 0.14020
# Poissons Ratio (y) = 0.06017 0.07783
# Poissons Ratio (z) = 0.11559 0.13223
#
# Static dielectric constant tensor:
#      x y z
#    x 2.152920 0.000000 0.000000 
#    y 0.000000 2.096560 0.000000 
#    z 0.000000 0.000000 1.947930 
# 
# From -- ./inp_files/6143.got.cif
#   From: 2010.05.17/outbox.cif.g08.bks.cpg/sg55_4_cif.got.tgz:6143.got - 2010.06.03 13:27:54.
