data_PCOD9426467
_publ_section_title
;
Structure prediction by ZEFSAII (Michael W. Deem and Ramdas Pophale) SiO2 
 PCOD9426467
Probable space group: P B A M
;
_chemical_formula_sum "Si O2"
_cell_formula_units_Z 40
_cell_length_a 7.756728
_cell_length_b 17.079244
_cell_length_c 13.131607
_cell_angle_alpha 90.000000
_cell_angle_beta 90.000000
_cell_angle_gamma 90.000000
_cell_volume 1739.662822
_symmetry_space_group_name_H-M "P B A M"
_symmetry_group_IT_number 55
_symmetry_cell_setting 'orthorhombic'
loop_
_space_group_symop_operation_xyz
x,y,z
-x,-y,z
1/2+x,1/2-y,-z
1/2-x,1/2+y,-z
-x,-y,-z
x,y,-z
1/2-x,1/2+y,z
1/2+x,1/2-y,z
loop_
_atom_site_type_symbol
_atom_site_label
_atom_site_fract_x
_atom_site_fract_y
_atom_site_fract_z
Si Si1 0.929542 0.915388 0.833729
Si Si2 0.137351 0.296725 0.322457
Si Si3 0.990268 0.135722 0.610730
Si Si4 0.742347 0.691058 0.891334
Si Si5 0.540423 0.910178 0.186690
O O1 0.946692 0.909963 0.710359
O O2 0.730051 0.905478 0.858936
O O3 0.058083 0.850158 0.877745
O O4 0.000000 0.000000 0.866174
O O5 0.286928 0.347107 0.374159
O O6 0.073610 0.222365 0.382776
O O7 0.218195 0.265589 0.214493
O O8 0.987155 0.355778 0.286567
O O9 0.026175 0.100957 0.500000
O O10 0.890873 0.624588 0.885590
O O11 0.749717 0.732134 0.000000
O O12 0.500000 0.000000 0.210492
#
# Coordination Sequence:
#
# PCOD9426467 Si02
#       5
#     8   8   8   8   8
#     4  11  21  39  61  90 125 158 199 257 306 355
#     4   9  21  37  57  88 120 153 202 253 297 358
#     4  11  21  38  64  87 118 160 203 252 309 368
#     4   9  21  38  59  89 121 159 201 240 296 359
#     4  10  19  38  59  84 124 161 194 251 300 350
#
# _framework density 22.992961000000001
#
# number of rings (size 3 to 8) (size 9 to 14) (size 15 to 20)
#    1.200    0.800    2.000    1.800    0.000    2.000 
#    0.000    5.000    0.000    4.200    0.000    0.000 
#    0.000    0.000    0.000    0.000    0.000    0.000 
#
# Total GULP energy -223415.807920 kJ/mol
# GULP energy per Si atom -5585.395198 kJ/mol
# Density = 2.294063 g / cm^3
# Si number density = 22.992961 Si / 1000 Ang^3
#
#
#
# Elastic Constant Matrix: (Units=GPa)
#
#
# Indices 1 2 3 4 5 6 
#
# 1 162.5789 22.8351 -2.3475 0.0000 0.0000 0.0000
# 2 22.8351 65.0898 1.6641 0.0000 0.0000 0.0000
# 3 -2.3475 1.6641 124.4866 0.0000 0.0000 0.0000
# 4 0.0000 0.0000 0.0000 -24.1913 0.0000 0.0000
# 5 0.0000 0.0000 0.0000 0.0000 -58.2883 0.0000
# 6 0.0000 0.0000 0.0000 0.0000 0.0000 30.5267
#
#
#
# Elastic Compliance Matrix: (Units=1/GPa)
#
#
# Indices 1 2 3 4 5 6 
#
# 1 0.006473 -0.002275 0.000152 0.000000 0.000000 0.000000
# 2 -0.002275 0.016168 -0.000259 0.000000 0.000000 0.000000
# 3 0.000152 -0.000259 0.008039 0.000000 0.000000 0.000000
# 4 0.000000 0.000000 0.000000 -0.041337 0.000000 0.000000
# 5 0.000000 0.000000 0.000000 0.000000 -0.017156 0.000000
# 6 0.000000 0.000000 0.000000 0.000000 0.000000 0.032758
#
#
# Mechanical properties :
#
#
# Convention : Reuss Voigt Hill
#
# Bulk Modulus (GPa) = 38.58395 44.05096 41.31745
# Shear Modulus (GPa) = 272.53387 11.60967 142.07177
#
# Velocity S-wave (km/s) = 10.89893 2.24949 7.86914
# Velocity P-wave (km/s) = 13.23629 5.09382 10.02862
#
# Compressibility (1/GPa) = 0.02591751
#
# Stress axis : x y z
#
# Youngs Moduli (GPa) = 154.49877 61.85055 124.38845
#
# Poissons Ratio (x) = 0.14069 -0.01896
# Poissons Ratio (y) = 0.35143 0.03222
# Poissons Ratio (z) = -0.02356 0.01602
#
# Static dielectric constant tensor:
#      x y z
#    x 1.857780 0.000000 0.000000 
#    y 0.000000 1.843880 0.000000 
#    z 0.000000 0.000000 1.895860 
# 
# From -- ./inp_files/11882.got.cif
#   From: 2010.05.17/outbox.cif.g08.bks.cpg/sg55_6_cif.got.tgz:11882.got - 2010.06.03 13:27:54.
