data_PCOD9426326
_publ_section_title
;
Structure prediction by ZEFSAII (Michael W. Deem and Ramdas Pophale) SiO2 
 PCOD9426326
Probable space group: P B A M
;
_chemical_formula_sum "Si O2"
_cell_formula_units_Z 32
_cell_length_a 34.680914
_cell_length_b 5.133945
_cell_length_c 7.629940
_cell_angle_alpha 90.000000
_cell_angle_beta 90.000000
_cell_angle_gamma 90.000000
_cell_volume 1358.510092
_symmetry_space_group_name_H-M "P B A M"
_symmetry_group_IT_number 55
_symmetry_cell_setting 'orthorhombic'
loop_
_space_group_symop_operation_xyz
x,y,z
-x,-y,z
1/2+x,1/2-y,-z
1/2-x,1/2+y,-z
-x,-y,-z
x,y,-z
1/2-x,1/2+y,z
1/2+x,1/2-y,z
loop_
_atom_site_type_symbol
_atom_site_label
_atom_site_fract_x
_atom_site_fract_y
_atom_site_fract_z
Si Si1 0.671886 0.569258 0.694393
Si Si2 0.414059 0.595324 0.789361
Si Si3 0.223216 0.276568 0.500000
Si Si4 0.722736 0.787649 0.000000
Si Si5 0.957900 0.405201 0.785427
O O1 0.670683 0.692350 0.500000
O O2 0.628774 0.494072 0.743990
O O3 0.696460 0.303354 0.663785
O O4 0.694894 0.737362 0.834223
O O5 0.426541 0.880610 0.728569
O O6 0.444542 0.378880 0.726950
O O7 0.416312 0.601310 0.000000
O O8 0.255647 0.048430 0.500000
O O9 0.755039 0.559798 0.000000
O O10 0.000000 0.500000 0.729372
O O11 0.958581 0.399058 0.000000
#
# Coordination Sequence:
#
# PCOD9426326 Si02
#       5
#     8   8   4   4   8
#     4  10  24  43  64  94 127 168 205 258 314 370
#     4  10  19  36  56  87 121 158 203 250 304 366
#     4  10  22  40  60  84 115 156 201 244 296 358
#     4  12  26  44  68  94 125 164 213 262 310 368
#     4   9  18  32  58  88 120 158 203 251 303 363
#
# _framework density 23.555216000000001
#
# number of rings (size 3 to 8) (size 9 to 14) (size 15 to 20)
#    0.750    1.250    1.250    2.250    0.000    7.000 
#    0.000    0.000    0.000    4.500    0.000    0.000 
#    0.000    0.000    0.000    0.000    0.000    0.000 
#
# Total GULP energy -178975.926446 kJ/mol
# GULP energy per Si atom -5592.997701 kJ/mol
# Density = 2.350160 g / cm^3
# Si number density = 23.555216 Si / 1000 Ang^3
#
#
#
# Elastic Constant Matrix: (Units=GPa)
#
#
# Indices 1 2 3 4 5 6 
#
# 1 72.7993 -12.3777 -5.2618 0.0000 0.0000 0.0000
# 2 -12.3777 64.8760 5.2821 0.0000 0.0000 0.0000
# 3 -5.2618 5.2821 83.0824 0.0000 0.0000 0.0000
# 4 0.0000 0.0000 0.0000 7.1886 0.0000 0.0000
# 5 0.0000 0.0000 0.0000 0.0000 12.6711 0.0000
# 6 0.0000 0.0000 0.0000 0.0000 0.0000 14.7431
#
#
#
# Elastic Compliance Matrix: (Units=1/GPa)
#
#
# Indices 1 2 3 4 5 6 
#
# 1 0.014241 0.002657 0.000733 0.000000 0.000000 0.000000
# 2 0.002657 0.015990 -0.000848 0.000000 0.000000 0.000000
# 3 0.000733 -0.000848 0.012137 0.000000 0.000000 0.000000
# 4 0.000000 0.000000 0.000000 0.139110 0.000000 0.000000
# 5 0.000000 0.000000 0.000000 0.000000 0.078920 0.000000
# 6 0.000000 0.000000 0.000000 0.000000 0.000000 0.067828
#
#
# Mechanical properties :
#
#
# Convention : Reuss Voigt Hill
#
# Bulk Modulus (GPa) = 21.07391 21.78255 21.42823
# Shear Modulus (GPa) = 14.75104 22.46155 18.60630
#
# Velocity S-wave (km/s) = 2.50518 3.09134 2.81357
# Velocity P-wave (km/s) = 4.16340 4.69142 4.43527
#
# Compressibility (1/GPa) = 0.04745204
#
# Stress axis : x y z
#
# Youngs Moduli (GPa) = 70.21881 62.53873 82.39545
#
# Poissons Ratio (x) = -0.16619 -0.06039
# Poissons Ratio (y) = -0.18660 0.06990
# Poissons Ratio (z) = -0.05147 0.05305
#
# Static dielectric constant tensor:
#      x y z
#    x 1.850190 0.000000 0.000000 
#    y 0.000000 1.882890 0.000000 
#    z 0.000000 0.000000 1.950470 
# 
# From -- ./inp_files/1375.got.cif
#   From: 2010.05.17/outbox.cif.g08.bks.cpg/sg55_1_cif.got.tgz:1375.got - 2010.06.03 13:27:54.
