data_PCOD9426149
_publ_section_title
;
Structure prediction by ZEFSAII (Michael W. Deem and Ramdas Pophale) SiO2 
 PCOD9426149
Probable space group: P B A M
;
_chemical_formula_sum "Si O2"
_cell_formula_units_Z 48
_cell_length_a 12.533775
_cell_length_b 9.342217
_cell_length_c 18.816412
_cell_angle_alpha 90.000000
_cell_angle_beta 90.000000
_cell_angle_gamma 90.000000
_cell_volume 2203.274757
_symmetry_space_group_name_H-M "P B A M"
_symmetry_group_IT_number 55
_symmetry_cell_setting 'orthorhombic'
loop_
_space_group_symop_operation_xyz
x,y,z
-x,-y,z
1/2+x,1/2-y,-z
1/2-x,1/2+y,-z
-x,-y,-z
x,y,-z
1/2-x,1/2+y,z
1/2+x,1/2-y,z
loop_
_atom_site_type_symbol
_atom_site_label
_atom_site_fract_x
_atom_site_fract_y
_atom_site_fract_z
Si Si1 0.530626 0.784496 0.845681
Si Si2 0.269807 0.994206 0.674582
Si Si3 0.170879 0.434810 0.168014
Si Si4 0.435981 0.850469 0.420611
Si Si5 0.384718 0.450666 0.919508
Si Si6 0.095595 0.790815 0.687631
O O1 0.403708 0.803395 0.856740
O O2 0.589751 0.716657 0.912881
O O3 0.554901 0.711613 0.769241
O O4 0.592771 0.932130 0.837297
O O5 0.304536 0.921242 0.749029
O O6 0.325529 0.905320 0.611899
O O7 0.146878 0.945692 0.671023
O O8 0.316908 0.157007 0.678313
O O9 0.278356 0.468059 0.125710
O O10 0.426600 0.789922 0.500000
O O11 0.500891 0.752271 0.365758
O O12 0.500000 0.000000 0.424466
O O13 0.500000 0.500000 0.889090
O O14 0.373360 0.502058 0.000000
#
# Coordination Sequence:
#
# PCOD9426149 Si02
#       6
#     8   8   8   8   8   8
#     4  10  21  39  64  88 115 159 205 249 299 364
#     4  10  19  34  59  87 114 153 199 247 297 355
#     4  10  21  40  64  87 116 158 207 250 294 367
#     4   9  18  34  56  82 119 162 203 246 298 364
#     4  11  26  42  60  91 126 156 195 253 316 366
#     4  10  19  35  58  89 117 152 203 250 298 360
#
# _framework density 21.785754000000001
#
# number of rings (size 3 to 8) (size 9 to 14) (size 15 to 20)
#    0.000    2.000    3.333    0.000    2.333    2.000 
#    0.000    2.500    0.000    1.000    0.000    0.000 
#    0.000    0.000    0.000    0.000    0.000    0.000 
#
# Total GULP energy -267257.605271 kJ/mol
# GULP energy per Si atom -5567.866776 kJ/mol
# Density = 2.173617 g / cm^3
# Si number density = 21.785754 Si / 1000 Ang^3
#
#
#
# Elastic Constant Matrix: (Units=GPa)
#
#
# Indices 1 2 3 4 5 6 
#
# 1 100.8694 15.4108 42.4814 0.0000 0.0000 0.0000
# 2 15.4108 22.9020 11.9923 0.0000 0.0000 0.0000
# 3 42.4814 11.9923 83.4109 0.0000 0.0000 0.0000
# 4 0.0000 0.0000 0.0000 18.3015 0.0000 0.0000
# 5 0.0000 0.0000 0.0000 0.0000 313.0253 0.0000
# 6 0.0000 0.0000 0.0000 0.0000 0.0000 35.0079
#
#
#
# Elastic Compliance Matrix: (Units=1/GPa)
#
#
# Indices 1 2 3 4 5 6 
#
# 1 0.013307 -0.005846 -0.005937 0.000000 0.000000 0.000000
# 2 -0.005846 0.049787 -0.004181 0.000000 0.000000 0.000000
# 3 -0.005937 -0.004181 0.015614 0.000000 0.000000 0.000000
# 4 0.000000 0.000000 0.000000 0.054640 0.000000 0.000000
# 5 0.000000 0.000000 0.000000 0.000000 0.003195 0.000000
# 6 0.000000 0.000000 0.000000 0.000000 0.000000 0.028565
#
#
# Mechanical properties :
#
#
# Convention : Reuss Voigt Hill
#
# Bulk Modulus (GPa) = 21.37618 38.55012 29.96315
# Shear Modulus (GPa) = 23.51516 82.42012 52.96764
#
# Velocity S-wave (km/s) = 3.28896 6.15745 4.93617
# Velocity P-wave (km/s) = 4.92507 8.26353 6.80228
#
# Compressibility (1/GPa) = 0.04678105
#
# Stress axis : x y z
#
# Youngs Moduli (GPa) = 75.14687 20.08551 64.04647
#
# Poissons Ratio (x) = 0.11741 0.38024
# Poissons Ratio (y) = 0.43928 0.26777
# Poissons Ratio (z) = 0.44614 0.08398
#
# Static dielectric constant tensor:
#      x y z
#    x 1.829550 0.000000 0.000000 
#    y 0.000000 1.908290 0.000000 
#    z 0.000000 0.000000 1.796030 
# 
# From -- ./inp_files/21244.got.cif
#   From: 2010.05.17/outbox.cif.g08.bks.cpg/sg55_11_cif.got.tgz:21244.got - 2010.06.03 13:27:54.
