data_PCOD9426234
_publ_section_title
;
Structure prediction by ZEFSAII (Michael W. Deem and Ramdas Pophale) SiO2 
 PCOD9426234
Probable space group: P B A M
;
_chemical_formula_sum "Si O2"
_cell_formula_units_Z 48
_cell_length_a 5.118995
_cell_length_b 31.720799
_cell_length_c 15.583004
_cell_angle_alpha 90.000000
_cell_angle_beta 90.000000
_cell_angle_gamma 90.000000
_cell_volume 2530.346552
_symmetry_space_group_name_H-M "P B A M"
_symmetry_group_IT_number 55
_symmetry_cell_setting 'orthorhombic'
loop_
_space_group_symop_operation_xyz
x,y,z
-x,-y,z
1/2+x,1/2-y,-z
1/2-x,1/2+y,-z
-x,-y,-z
x,y,-z
1/2-x,1/2+y,z
1/2+x,1/2-y,z
loop_
_atom_site_type_symbol
_atom_site_label
_atom_site_fract_x
_atom_site_fract_y
_atom_site_fract_z
Si Si1 0.837743 0.659680 0.346963
Si Si2 0.750325 0.469764 0.719187
Si Si3 0.182015 0.280236 0.187317
Si Si4 0.804687 0.722882 0.500000
Si Si5 0.346870 0.608614 0.602891
Si Si6 0.249795 0.530617 0.092362
Si Si7 0.413060 0.777444 0.000000
O O1 0.841268 0.683006 0.256279
O O2 0.758568 0.694710 0.416764
O O3 0.619540 0.623630 0.355771
O O4 0.119118 0.641539 0.372890
O O5 0.500000 0.500000 0.715388
O O6 0.735234 0.435438 0.645028
O O7 0.753995 0.447816 0.814188
O O8 0.000000 0.500000 0.711774
O O9 0.451155 0.254342 0.197312
O O10 0.153346 0.298266 0.090651
O O11 0.600317 0.760814 0.500000
O O12 0.372783 0.606384 0.500000
O O13 0.500000 0.500000 0.092475
O O14 0.000000 0.500000 0.092005
O O15 0.250796 0.554118 0.000000
O O16 0.714687 0.762913 0.000000
#
# Coordination Sequence:
#
# PCOD9426234 Si02
#       7
#     8   8   8   4   8   8   4
#     4  12  23  39  57  81 116 154 183 228 291 338
#     4  10  21  37  60  85 106 141 191 234 268 328
#     4  10  19  35  58  86 112 146 191 231 271 328
#     4  12  22  36  58  84 108 142 192 234 262 318
#     4  12  24  41  57  78 115 156 184 230 296 336
#     4   8  14  27  50  79 106 130 164 218 275 318
#     4   8  16  30  54  82 110 142 182 230 276 318
#
# _framework density 18.969732
#
# number of rings (size 3 to 8) (size 9 to 14) (size 15 to 20)
#    0.000    1.667    1.667    4.000    0.000    0.667 
#    0.000    0.000    3.667    0.000    0.000    0.000 
#    0.000    0.000    0.000    0.000    0.000    0.000 
#
# Total GULP energy -267773.703904 kJ/mol
# GULP energy per Si atom -5578.618831 kJ/mol
# Density = 1.892656 g / cm^3
# Si number density = 18.969732 Si / 1000 Ang^3
#
#
#
# Elastic Constant Matrix: (Units=GPa)
#
#
# Indices 1 2 3 4 5 6 
#
# 1 96.7798 -4.5174 -3.1493 0.0000 0.0000 0.0000
# 2 -4.5174 35.8964 37.7321 0.0000 0.0000 0.0000
# 3 -3.1493 37.7321 145.6485 0.0000 0.0000 0.0000
# 4 0.0000 0.0000 0.0000 44.3344 0.0000 0.0000
# 5 0.0000 0.0000 0.0000 0.0000 24.9624 0.0000
# 6 0.0000 0.0000 0.0000 0.0000 0.0000 24.1182
#
#
#
# Elastic Compliance Matrix: (Units=1/GPa)
#
#
# Indices 1 2 3 4 5 6 
#
# 1 0.010396 0.001473 -0.000157 0.000000 0.000000 0.000000
# 2 0.001473 0.038491 -0.009940 0.000000 0.000000 0.000000
# 3 -0.000157 -0.009940 0.009437 0.000000 0.000000 0.000000
# 4 0.000000 0.000000 0.000000 0.022556 0.000000 0.000000
# 5 0.000000 0.000000 0.000000 0.000000 0.040060 0.000000
# 6 0.000000 0.000000 0.000000 0.000000 0.000000 0.041462
#
#
# Mechanical properties :
#
#
# Convention : Reuss Voigt Hill
#
# Bulk Modulus (GPa) = 24.34371 37.60616 30.97494
# Shear Modulus (GPa) = 25.86069 35.23363 30.54716
#
# Velocity S-wave (km/s) = 3.69624 4.31439 4.01722
# Velocity P-wave (km/s) = 5.57468 6.68475 6.15479
#
# Compressibility (1/GPa) = 0.04107837
#
# Stress axis : x y z
#
# Youngs Moduli (GPa) = 96.18714 25.97980 105.96038
#
# Poissons Ratio (x) = -0.03827 0.01662
# Poissons Ratio (y) = -0.14170 1.05323
# Poissons Ratio (z) = 0.01509 0.25823
#
# Static dielectric constant tensor:
#      x y z
#    x 1.631570 0.000000 0.000000 
#    y 0.000000 1.628480 0.000000 
#    z 0.000000 0.000000 1.711360 
# 
# From -- ./inp_files/16682.got.cif
#   From: 2010.05.17/outbox.cif.g08.bks.cpg/sg55_9_cif.got.tgz:16682.got - 2010.06.03 13:27:54.
