data_PCOD9426269
_publ_section_title
;
Structure prediction by ZEFSAII (Michael W. Deem and Ramdas Pophale) SiO2 
 PCOD9426269
Probable space group: P B A M
;
_chemical_formula_sum "Si O2"
_cell_formula_units_Z 40
_cell_length_a 10.301697
_cell_length_b 27.936022
_cell_length_c 7.820834
_cell_angle_alpha 90.000000
_cell_angle_beta 90.000000
_cell_angle_gamma 90.000000
_cell_volume 2250.745570
_symmetry_space_group_name_H-M "P B A M"
_symmetry_group_IT_number 55
_symmetry_cell_setting 'orthorhombic'
loop_
_space_group_symop_operation_xyz
x,y,z
-x,-y,z
1/2+x,1/2-y,-z
1/2-x,1/2+y,-z
-x,-y,-z
x,y,-z
1/2-x,1/2+y,z
1/2+x,1/2-y,z
loop_
_atom_site_type_symbol
_atom_site_label
_atom_site_fract_x
_atom_site_fract_y
_atom_site_fract_z
Si Si1 0.974949 0.864370 0.310009
Si Si2 0.782205 0.627932 0.699164
Si Si3 0.790132 0.702682 0.000000
Si Si4 0.389245 0.535637 0.199617
Si Si5 0.980375 0.792781 0.000000
Si Si6 0.136752 0.477890 0.706688
O O1 0.955697 0.844564 0.500000
O O2 0.893750 0.912810 0.287020
O O3 0.126360 0.879392 0.292793
O O4 0.950301 0.825426 0.165152
O O5 0.814447 0.638700 0.500000
O O6 0.847668 0.577919 0.751237
O O7 0.812400 0.669882 0.832132
O O8 0.636467 0.717192 0.000000
O O9 0.889308 0.746584 0.000000
O O10 0.500000 0.500000 0.269796
O O11 0.253987 0.508667 0.218701
O O12 0.419295 0.544265 0.000000
O O13 0.146574 0.480519 0.500000
O O14 0.000000 0.500000 0.759632
#
# Coordination Sequence:
#
# PCOD9426269 Si02
#       6
#     8   8   4   8   4   8
#     4  10  19  35  60  84 111 147 188 232 276 330
#     4   9  19  36  59  83 110 151 190 220 275 344
#     4  10  22  40  64  78 110 139 184 239 291 332
#     4  11  21  32  56  87 118 150 191 231 269 332
#     4  10  22  42  58  85 106 139 186 238 287 344
#     4  10  21  36  53  81 121 156 188 228 276 336
#
# _framework density 17.771889999999999
#
# number of rings (size 3 to 8) (size 9 to 14) (size 15 to 20)
#    0.000    2.000    3.000    0.600    1.400    2.000 
#    3.600    0.000    0.000    0.000    0.000    0.000 
#    0.000    0.000    0.000    0.000    0.000    0.000 
#
# Total GULP energy -223263.784416 kJ/mol
# GULP energy per Si atom -5581.594610 kJ/mol
# Density = 1.773144 g / cm^3
# Si number density = 17.771890 Si / 1000 Ang^3
#
#
#
# Elastic Constant Matrix: (Units=GPa)
#
#
# Indices 1 2 3 4 5 6 
#
# 1 82.1124 68.6933 36.6831 0.0000 0.0000 0.0000
# 2 68.6933 144.2418 70.0748 0.0000 0.0000 0.0000
# 3 36.6831 70.0748 97.7455 0.0000 0.0000 0.0000
# 4 0.0000 0.0000 0.0000 -11.6869 0.0000 0.0000
# 5 0.0000 0.0000 0.0000 0.0000 32.6090 0.0000
# 6 0.0000 0.0000 0.0000 0.0000 0.0000 36.8529
#
#
#
# Elastic Compliance Matrix: (Units=1/GPa)
#
#
# Indices 1 2 3 4 5 6 
#
# 1 0.020314 -0.009162 -0.001056 0.000000 0.000000 0.000000
# 2 -0.009162 0.014770 -0.007150 0.000000 0.000000 0.000000
# 3 -0.001056 -0.007150 0.015753 0.000000 0.000000 0.000000
# 4 0.000000 0.000000 0.000000 -0.085566 0.000000 0.000000
# 5 0.000000 0.000000 0.000000 0.000000 0.030666 0.000000
# 6 0.000000 0.000000 0.000000 0.000000 0.000000 0.027135
#
#
# Mechanical properties :
#
#
# Convention : Reuss Voigt Hill
#
# Bulk Modulus (GPa) = 62.10493 75.00025 68.55259
# Shear Modulus (GPa) = 79.14581 21.46491 50.30536
#
# Velocity S-wave (km/s) = 6.68064 3.47911 5.32612
# Velocity P-wave (km/s) = 9.72262 7.64410 8.74533
#
# Compressibility (1/GPa) = 0.01610178
#
# Stress axis : x y z
#
# Youngs Moduli (GPa) = 49.22601 67.70682 63.48025
#
# Poissons Ratio (x) = 0.62030 0.06702
# Poissons Ratio (y) = 0.45099 0.45390
# Poissons Ratio (z) = 0.05197 0.48412
#
# Static dielectric constant tensor:
#      x y z
#    x 1.587580 0.000000 0.000000 
#    y 0.000000 1.573330 0.000000 
#    z 0.000000 0.000000 1.631430 
# 
# From -- ./inp_files/2362.got.cif
#   From: 2010.05.17/outbox.cif.g08.bks.cpg/sg55_2_cif.got.tgz:2362.got - 2010.06.03 13:27:54.
