data_PCOD9426975
_publ_section_title
;
Structure prediction by ZEFSAII (Michael W. Deem and Ramdas Pophale) SiO2 
 PCOD9426975
Probable space group: P B A M
;
_chemical_formula_sum "Si O2"
_cell_formula_units_Z 64
_cell_length_a 23.576025
_cell_length_b 15.843028
_cell_length_c 7.565300
_cell_angle_alpha 90.000000
_cell_angle_beta 90.000000
_cell_angle_gamma 90.000000
_cell_volume 2825.757752
_symmetry_space_group_name_H-M "P B A M"
_symmetry_group_IT_number 55
_symmetry_cell_setting 'orthorhombic'
loop_
_space_group_symop_operation_xyz
x,y,z
-x,-y,z
1/2+x,1/2-y,-z
1/2-x,1/2+y,-z
-x,-y,-z
x,y,-z
1/2-x,1/2+y,z
1/2+x,1/2-y,z
loop_
_atom_site_type_symbol
_atom_site_label
_atom_site_fract_x
_atom_site_fract_y
_atom_site_fract_z
Si Si1 0.686811 0.301256 0.785205
Si Si2 0.613410 0.144346 0.206792
Si Si3 0.813471 0.301846 0.792891
Si Si4 0.798794 0.497594 0.712796
Si Si5 0.492715 0.091389 0.300584
Si Si6 0.327909 0.505338 0.705257
Si Si7 0.933462 0.247656 0.296303
Si Si8 0.448914 0.438147 0.717313
O O1 0.644246 0.228684 0.730185
O O2 0.750717 0.279658 0.725910
O O3 0.670043 0.393170 0.717665
O O4 0.687941 0.305267 0.000000
O O5 0.656688 0.066769 0.225757
O O6 0.555816 0.127156 0.307275
O O7 0.599370 0.154357 0.000000
O O8 0.816871 0.403264 0.768674
O O9 0.865498 0.253188 0.706633
O O10 0.816353 0.282586 0.000000
O O11 0.797359 0.497507 0.500000
O O12 0.734596 0.516400 0.779904
O O13 0.469192 0.075489 0.500000
O O14 0.455282 0.164698 0.214242
O O15 0.500000 0.000000 0.213278
O O16 0.326554 0.479666 0.500000
O O17 0.386613 0.468880 0.778578
O O18 0.953055 0.250211 0.500000
O O19 0.955389 0.158975 0.223380
O O20 0.500000 0.500000 0.771733
O O21 0.448522 0.438652 0.500000
#
# Coordination Sequence:
#
# PCOD9426975 Si02
#       8
#     8   8   8   8   8   8   8   8
#     4   9  21  38  55  81 116 151 185 228 283 342
#     4  11  23  37  57  84 115 151 190 232 282 344
#     4  10  20  37  59  83 115 153 189 229 283 345
#     4  10  20  35  56  86 117 147 186 237 287 340
#     4  10  22  39  58  84 116 151 192 239 290 344
#     4   9  19  35  58  84 110 145 190 235 282 336
#     4  10  21  36  59  87 117 153 191 241 293 339
#     4   9  19  35  56  83 114 147 191 241 288 341
#
# _framework density 22.648793000000001
#
# number of rings (size 3 to 8) (size 9 to 14) (size 15 to 20)
#    0.000    2.250    0.000    1.875    3.500    3.750 
#    0.000    0.625    0.000    0.750    0.000    0.000 
#    0.000    0.000    0.000    0.000    0.000    0.000 
#
# Total GULP energy -357544.941801 kJ/mol
# GULP energy per Si atom -5586.639716 kJ/mol
# Density = 2.259724 g / cm^3
# Si number density = 22.648793 Si / 1000 Ang^3
#
#
#
# Elastic Constant Matrix: (Units=GPa)
#
#
# Indices 1 2 3 4 5 6 
#
# 1 84.6921 38.7229 2.3249 0.0000 0.0000 0.0000
# 2 38.7229 80.5287 -1.3280 0.0000 0.0000 0.0000
# 3 2.3249 -1.3280 60.4471 0.0000 0.0000 0.0000
# 4 0.0000 0.0000 0.0000 3.3433 0.0000 0.0000
# 5 0.0000 0.0000 0.0000 0.0000 -0.5840 0.0000
# 6 0.0000 0.0000 0.0000 0.0000 0.0000 32.4995
#
#
#
# Elastic Compliance Matrix: (Units=1/GPa)
#
#
# Indices 1 2 3 4 5 6 
#
# 1 0.015168 -0.007306 -0.000744 0.000000 0.000000 0.000000
# 2 -0.007306 0.015942 0.000631 0.000000 0.000000 0.000000
# 3 -0.000744 0.000631 0.016586 0.000000 0.000000 0.000000
# 4 0.000000 0.000000 0.000000 0.299106 0.000000 0.000000
# 5 0.000000 0.000000 0.000000 0.000000 -1.712464 0.000000
# 6 0.000000 0.000000 0.000000 0.000000 0.000000 0.030770
#
#
# Mechanical properties :
#
#
# Convention : Reuss Voigt Hill
#
# Bulk Modulus (GPa) = 30.43378 33.90083 32.16731
# Shear Modulus (GPa) = -3.81941 19.44832 7.81445
#
# Velocity S-wave (km/s) = -1.30001 2.93352 1.85951
# Velocity P-wave (km/s) = 3.34859 5.14535 4.34095
#
# Compressibility (1/GPa) = 0.03285822
#
# Stress axis : x y z
#
# Youngs Moduli (GPa) = 65.92655 62.72914 60.29231
#
# Poissons Ratio (x) = 0.45831 0.04485
# Poissons Ratio (y) = 0.48167 -0.03806
# Poissons Ratio (z) = 0.04904 -0.03960
#
# Static dielectric constant tensor:
#      x y z
#    x 1.816350 0.000000 0.000000 
#    y 0.000000 1.815430 0.000000 
#    z 0.000000 0.000000 1.892600 
# 
# From -- ./inp_files/9749.got.cif
#   From: 2010.05.17/outbox.cif.g08.bks.cpg/sg55_5_cif.got.tgz:9749.got - 2010.06.03 13:27:54.
