data_PCOD9426432
_publ_section_title
;
Structure prediction by ZEFSAII (Michael W. Deem and Ramdas Pophale) SiO2 
 PCOD9426432
Probable space group: P B A M
;
_chemical_formula_sum "Si O2"
_cell_formula_units_Z 64
_cell_length_a 33.509521
_cell_length_b 10.621921
_cell_length_c 8.952338
_cell_angle_alpha 90.000000
_cell_angle_beta 90.000000
_cell_angle_gamma 90.000000
_cell_volume 3186.454766
_symmetry_space_group_name_H-M "P B A M"
_symmetry_group_IT_number 55
_symmetry_cell_setting 'orthorhombic'
loop_
_space_group_symop_operation_xyz
x,y,z
-x,-y,z
1/2+x,1/2-y,-z
1/2-x,1/2+y,-z
-x,-y,-z
x,y,-z
1/2-x,1/2+y,z
1/2+x,1/2-y,z
loop_
_atom_site_type_symbol
_atom_site_label
_atom_site_fract_x
_atom_site_fract_y
_atom_site_fract_z
Si Si1 0.218140 0.902021 0.818762
Si Si2 0.783717 0.805952 0.181432
Si Si3 0.577384 0.460462 0.329428
Si Si4 0.628892 0.673643 0.821907
Si Si5 0.437017 0.181253 0.323771
Si Si6 0.134183 0.283790 0.329494
Si Si7 0.490828 0.684144 0.173301
Si Si8 0.433493 0.928538 0.171604
O O1 0.250470 0.797141 0.773083
O O2 0.174042 0.855663 0.773305
O O3 0.224849 0.048221 0.772681
O O4 0.218597 0.903794 0.000000
O O5 0.825411 0.760689 0.250868
O O6 0.786507 0.805142 0.000000
O O7 0.572299 0.506600 0.500000
O O8 0.602116 0.555729 0.228020
O O9 0.604748 0.335950 0.336512
O O10 0.536027 0.419685 0.254766
O O11 0.606620 0.788995 0.743045
O O12 0.628188 0.689489 0.000000
O O13 0.436669 0.188782 0.500000
O O14 0.468611 0.279698 0.256101
O O15 0.449048 0.043125 0.269599
O O16 0.141331 0.326467 0.500000
O O17 0.109311 0.384880 0.234603
O O18 0.463326 0.810240 0.177276
O O19 0.498268 0.653696 0.000000
O O20 0.430452 0.969841 0.000000
#
# Coordination Sequence:
#
# PCOD9426432 Si02
#       8
#     8   8   8   8   8   8   8   8
#     4   9  20  36  61  90 120 155 204 256 306 361
#     4  10  19  37  61  89 119 157 202 252 303 362
#     4  10  20  36  59  86 117 153 196 245 300 356
#     4  11  22  39  60  84 115 157 204 249 300 360
#     4  12  25  39  56  84 122 159 196 246 306 362
#     4  10  20  35  58  89 119 153 194 239 295 357
#     4  10  21  38  61  88 116 153 202 250 297 354
#     4  10  21  38  61  87 117 157 201 247 294 353
#
# _framework density 20.085018999999999
#
# number of rings (size 3 to 8) (size 9 to 14) (size 15 to 20)
#    0.000    1.750    1.250    3.375    0.000    5.500 
#    0.000    6.875    0.000    0.000    0.000    0.000 
#    0.000    0.000    0.000    0.000    0.000    0.000 
#
# Total GULP energy -357623.270335 kJ/mol
# GULP energy per Si atom -5587.863599 kJ/mol
# Density = 2.003930 g / cm^3
# Si number density = 20.085019 Si / 1000 Ang^3
#
#
#
# Elastic Constant Matrix: (Units=GPa)
#
#
# Indices 1 2 3 4 5 6 
#
# 1 139.0166 49.9075 55.0338 0.0000 0.0000 0.0000
# 2 49.9075 70.3240 30.7640 0.0000 0.0000 0.0000
# 3 55.0338 30.7640 105.2648 0.0000 0.0000 0.0000
# 4 0.0000 0.0000 0.0000 14.0661 0.0000 0.0000
# 5 0.0000 0.0000 0.0000 0.0000 -5.7294 0.0000
# 6 0.0000 0.0000 0.0000 0.0000 0.0000 26.9376
#
#
#
# Elastic Compliance Matrix: (Units=1/GPa)
#
#
# Indices 1 2 3 4 5 6 
#
# 1 0.010918 -0.006021 -0.003948 0.000000 0.000000 0.000000
# 2 -0.006021 0.019625 -0.002588 0.000000 0.000000 0.000000
# 3 -0.003948 -0.002588 0.012320 0.000000 0.000000 0.000000
# 4 0.000000 0.000000 0.000000 0.071093 0.000000 0.000000
# 5 0.000000 0.000000 0.000000 0.000000 -0.174539 0.000000
# 6 0.000000 0.000000 0.000000 0.000000 0.000000 0.037123
#
#
# Mechanical properties :
#
#
# Convention : Reuss Voigt Hill
#
# Bulk Modulus (GPa) = 56.34049 65.11289 60.72669
# Shear Modulus (GPa) = 660.43371 18.98153 339.70762
#
# Velocity S-wave (km/s) = 18.15304 3.07752 13.01929
# Velocity P-wave (km/s) = 21.62150 6.71693 16.00947
#
# Compressibility (1/GPa) = 0.01774923
#
# Stress axis : x y z
#
# Youngs Moduli (GPa) = 91.59136 50.95580 81.16646
#
# Poissons Ratio (x) = 0.30681 0.32048
# Poissons Ratio (y) = 0.55148 0.21002
# Poissons Ratio (z) = 0.36164 0.13185
#
# Static dielectric constant tensor:
#      x y z
#    x 1.683660 0.000000 0.000000 
#    y 0.000000 1.765930 0.000000 
#    z 0.000000 0.000000 1.678340 
# 
# From -- ./inp_files/4498.got.cif
#   From: 2010.05.17/outbox.cif.g08.bks.cpg/sg55_3_cif.got.tgz:4498.got - 2010.06.03 13:27:54.
