data_PCOD9426462
_publ_section_title
;
Structure prediction by ZEFSAII (Michael W. Deem and Ramdas Pophale) SiO2 
 PCOD9426462
Probable space group: P B A M
;
_chemical_formula_sum "Si O2"
_cell_formula_units_Z 56
_cell_length_a 14.581406
_cell_length_b 11.684597
_cell_length_c 15.858256
_cell_angle_alpha 90.000000
_cell_angle_beta 90.000000
_cell_angle_gamma 90.000000
_cell_volume 2701.895606
_symmetry_space_group_name_H-M "P B A M"
_symmetry_group_IT_number 55
_symmetry_cell_setting 'orthorhombic'
loop_
_space_group_symop_operation_xyz
x,y,z
-x,-y,z
1/2+x,1/2-y,-z
1/2-x,1/2+y,-z
-x,-y,-z
x,y,-z
1/2-x,1/2+y,z
1/2+x,1/2-y,z
loop_
_atom_site_type_symbol
_atom_site_label
_atom_site_fract_x
_atom_site_fract_y
_atom_site_fract_z
Si Si1 0.686986 0.507193 0.591294
Si Si2 0.599811 0.550380 0.225393
Si Si3 0.217624 0.736201 0.625842
Si Si4 0.046181 0.715326 0.716240
Si Si5 0.289531 0.591186 0.097479
Si Si6 0.598316 0.975638 0.843199
Si Si7 0.152419 0.279350 0.776665
O O1 0.637078 0.503452 0.500000
O O2 0.632243 0.512460 0.680208
O O3 0.744174 0.386874 0.593917
O O4 0.736281 0.634177 0.590923
O O5 0.500000 0.500000 0.209048
O O6 0.585693 0.684826 0.225196
O O7 0.669795 0.509888 0.155045
O O8 0.107029 0.725231 0.632265
O O9 0.262503 0.747803 0.718211
O O10 0.070074 0.597741 0.761460
O O11 0.937816 0.737189 0.717697
O O12 0.179190 0.588444 0.107538
O O13 0.337257 0.699730 0.141879
O O14 0.313510 0.581327 0.000000
O O15 0.500000 0.000000 0.887434
O O16 0.641517 0.093018 0.809767
#
# Coordination Sequence:
#
# PCOD9426462 Si02
#       7
#     8   8   8   8   8   8   8
#     4  11  23  38  64  96 128 173 223 272 332 397
#     4  11  21  41  64  92 132 170 214 271 334 394
#     4  11  20  38  65  90 133 169 217 273 332 395
#     4  10  19  37  66  92 122 170 220 263 329 390
#     4  12  25  41  63  93 126 170 220 274 331 394
#     4  10  22  40  64  91 128 171 223 272 329 397
#     4  11  21  40  65  92 124 172 219 268 330 393
#
# _framework density 20.726189000000002
#
# number of rings (size 3 to 8) (size 9 to 14) (size 15 to 20)
#    0.000    1.143    4.286    3.000    0.000    1.429 
#    0.000    2.143    0.000    3.429    0.000    0.000 
#    0.000    0.000    0.000    0.000    0.000    0.000 
#
# Total GULP energy -311741.727326 kJ/mol
# GULP energy per Si atom -5566.816559 kJ/mol
# Density = 2.067902 g / cm^3
# Si number density = 20.726189 Si / 1000 Ang^3
#
#
#
# Elastic Constant Matrix: (Units=GPa)
#
#
# Indices 1 2 3 4 5 6 
#
# 1 113.9363 14.9449 18.7151 0.0000 0.0000 0.0000
# 2 14.9449 124.7516 -21.6929 0.0000 0.0000 0.0000
# 3 18.7151 -21.6929 72.1301 0.0000 0.0000 0.0000
# 4 0.0000 0.0000 0.0000 -5.5804 0.0000 0.0000
# 5 0.0000 0.0000 0.0000 0.0000 1.2652 0.0000
# 6 0.0000 0.0000 0.0000 0.0000 0.0000 27.2089
#
#
#
# Elastic Compliance Matrix: (Units=1/GPa)
#
#
# Indices 1 2 3 4 5 6 
#
# 1 0.009479 -0.001649 -0.002955 0.000000 0.000000 0.000000
# 2 -0.001649 0.008745 0.003058 0.000000 0.000000 0.000000
# 3 -0.002955 0.003058 0.015550 0.000000 0.000000 0.000000
# 4 0.000000 0.000000 0.000000 -0.179198 0.000000 0.000000
# 5 0.000000 0.000000 0.000000 0.000000 0.790398 0.000000
# 6 0.000000 0.000000 0.000000 0.000000 0.000000 0.036753
#
#
# Mechanical properties :
#
#
# Convention : Reuss Voigt Hill
#
# Bulk Modulus (GPa) = 32.59369 37.19468 34.89418
# Shear Modulus (GPa) = 7.19376 24.50212 15.84794
#
# Velocity S-wave (km/s) = 1.86504 3.44202 2.76820
# Velocity P-wave (km/s) = 4.51640 5.81217 5.20477
#
# Compressibility (1/GPa) = 0.03068079
#
# Stress axis : x y z
#
# Youngs Moduli (GPa) = 105.50037 114.34723 64.30717
#
# Poissons Ratio (x) = 0.18861 0.19005
# Poissons Ratio (y) = 0.17402 -0.19666
# Poissons Ratio (z) = 0.31180 -0.34968
#
# Static dielectric constant tensor:
#      x y z
#    x 1.802310 0.000000 0.000000 
#    y 0.000000 1.801620 0.000000 
#    z 0.000000 0.000000 1.730350 
# 
# From -- ./inp_files/18414.got.cif
#   From: 2010.05.17/outbox.cif.g08.bks.cpg/sg55_10_cif.got.tgz:18414.got - 2010.06.03 13:27:54.
