data_PCOD9426257
_publ_section_title
;
Structure prediction by ZEFSAII (Michael W. Deem and Ramdas Pophale) SiO2 
 PCOD9426257
Probable space group: P B A M
;
_chemical_formula_sum "Si O2"
_cell_formula_units_Z 64
_cell_length_a 14.984373
_cell_length_b 25.524931
_cell_length_c 8.670579
_cell_angle_alpha 90.000000
_cell_angle_beta 90.000000
_cell_angle_gamma 90.000000
_cell_volume 3316.280457
_symmetry_space_group_name_H-M "P B A M"
_symmetry_group_IT_number 55
_symmetry_cell_setting 'orthorhombic'
loop_
_space_group_symop_operation_xyz
x,y,z
-x,-y,z
1/2+x,1/2-y,-z
1/2-x,1/2+y,-z
-x,-y,-z
x,y,-z
1/2-x,1/2+y,z
1/2+x,1/2-y,z
loop_
_atom_site_type_symbol
_atom_site_label
_atom_site_fract_x
_atom_site_fract_y
_atom_site_fract_z
Si Si1 0.038840 0.666698 0.683030
Si Si2 0.045198 0.779229 0.183623
Si Si3 0.357696 0.558673 0.186211
Si Si4 0.527096 0.610204 0.682902
Si Si5 0.701779 0.557161 0.814021
Si Si6 0.256407 0.771809 0.185635
Si Si7 0.236806 0.656585 0.813167
Si Si8 0.865230 0.626921 0.813394
O O1 0.044339 0.667053 0.500000
O O2 0.962901 0.627374 0.741706
O O3 0.013215 0.724989 0.743020
O O4 0.135663 0.654061 0.753421
O O5 0.151717 0.781480 0.216987
O O6 0.004770 0.832751 0.247273
O O7 0.032203 0.776576 0.000000
O O8 0.454367 0.568872 0.257361
O O9 0.316140 0.502860 0.229811
O O10 0.294731 0.606900 0.234712
O O11 0.365850 0.559803 0.000000
O O12 0.526507 0.612997 0.500000
O O13 0.623825 0.592384 0.742490
O O14 0.798649 0.579731 0.771984
O O15 0.694076 0.561596 0.000000
O O16 0.276626 0.712770 0.239272
O O17 0.315702 0.819763 0.241806
O O18 0.265866 0.771903 0.000000
O O19 0.233890 0.657478 0.000000
O O20 0.872861 0.628389 0.000000
#
# Coordination Sequence:
#
# PCOD9426257 Si02
#       8
#     8   8   8   8   8   8   8   8
#     4  11  23  37  55  87 124 154 187 236 297 359
#     4  10  19  37  60  83 114 154 195 235 280 338
#     4  10  22  39  62  86 111 151 204 251 288 338
#     4  12  24  36  55  88 125 157 189 233 293 357
#     4  10  21  40  62  85 114 152 202 250 287 335
#     4   8  15  30  55  82 106 139 185 235 282 331
#     4   9  19  38  60  84 111 149 198 244 290 339
#     4  10  19  35  59  85 112 151 199 243 288 339
#
# _framework density 19.298729000000002
#
# number of rings (size 3 to 8) (size 9 to 14) (size 15 to 20)
#    0.000    2.000    1.250    3.750    1.750    3.000 
#    0.000    1.250    0.000    3.750    0.000    0.000 
#    0.000    0.000    0.000    0.000    0.000    0.000 
#
# Total GULP energy -357483.021001 kJ/mol
# GULP energy per Si atom -5585.672203 kJ/mol
# Density = 1.925480 g / cm^3
# Si number density = 19.298729 Si / 1000 Ang^3
#
#
#
# Elastic Constant Matrix: (Units=GPa)
#
#
# Indices 1 2 3 4 5 6 
#
# 1 21.6364 3.8250 -0.8933 0.0000 0.0000 0.0000
# 2 3.8250 68.0128 14.9733 0.0000 0.0000 0.0000
# 3 -0.8933 14.9733 17.2086 0.0000 0.0000 0.0000
# 4 0.0000 0.0000 0.0000 9.6632 0.0000 0.0000
# 5 0.0000 0.0000 0.0000 0.0000 -12.8103 0.0000
# 6 0.0000 0.0000 0.0000 0.0000 0.0000 31.5611
#
#
#
# Elastic Compliance Matrix: (Units=1/GPa)
#
#
# Indices 1 2 3 4 5 6 
#
# 1 0.047159 -0.003947 0.005883 0.000000 0.000000 0.000000
# 2 -0.003947 0.018517 -0.016317 0.000000 0.000000 0.000000
# 3 0.005883 -0.016317 0.072613 0.000000 0.000000 0.000000
# 4 0.000000 0.000000 0.000000 0.103485 0.000000 0.000000
# 5 0.000000 0.000000 0.000000 0.000000 -0.078062 0.000000
# 6 0.000000 0.000000 0.000000 0.000000 0.000000 0.031685
#
#
# Mechanical properties :
#
#
# Convention : Reuss Voigt Hill
#
# Bulk Modulus (GPa) = 9.13023 15.85199 12.49111
# Shear Modulus (GPa) = 19.18136 11.61298 15.39717
#
# Velocity S-wave (km/s) = 3.15607 2.45572 2.82766
# Velocity P-wave (km/s) = 4.24527 4.03393 4.14095
#
# Compressibility (1/GPa) = 0.10952629
#
# Stress axis : x y z
#
# Youngs Moduli (GPa) = 21.20487 54.00336 13.77157
#
# Poissons Ratio (x) = 0.21316 -0.08101
# Poissons Ratio (y) = 0.08370 0.22471
# Poissons Ratio (z) = -0.12474 0.88117
#
# Static dielectric constant tensor:
#      x y z
#    x 1.671160 0.000000 0.000000 
#    y 0.000000 1.685900 0.000000 
#    z 0.000000 0.000000 1.649180 
# 
# From -- ./inp_files/6628.got.cif
#   From: 2010.05.17/outbox.cif.g08.bks.cpg/sg55_4_cif.got.tgz:6628.got - 2010.06.03 13:27:54.
