data_PCOD9426388
_publ_section_title
;
Structure prediction by ZEFSAII (Michael W. Deem and Ramdas Pophale) SiO2 
 PCOD9426388
Probable space group: P B A M
;
_chemical_formula_sum "Si O2"
_cell_formula_units_Z 64
_cell_length_a 27.156985
_cell_length_b 13.229886
_cell_length_c 8.781680
_cell_angle_alpha 90.000000
_cell_angle_beta 90.000000
_cell_angle_gamma 90.000000
_cell_volume 3155.115498
_symmetry_space_group_name_H-M "P B A M"
_symmetry_group_IT_number 55
_symmetry_cell_setting 'orthorhombic'
loop_
_space_group_symop_operation_xyz
x,y,z
-x,-y,z
1/2+x,1/2-y,-z
1/2-x,1/2+y,-z
-x,-y,-z
x,y,-z
1/2-x,1/2+y,z
1/2+x,1/2-y,z
loop_
_atom_site_type_symbol
_atom_site_label
_atom_site_fract_x
_atom_site_fract_y
_atom_site_fract_z
Si Si1 0.450428 0.690025 0.315806
Si Si2 0.284633 0.170266 0.824136
Si Si3 0.370311 0.856128 0.315068
Si Si4 0.618455 0.916011 0.681722
Si Si5 0.701939 0.444455 0.326994
Si Si6 0.405707 0.477620 0.683730
Si Si7 0.757213 0.652729 0.325730
Si Si8 0.056187 0.767680 0.818637
O O1 0.454191 0.694585 0.500000
O O2 0.405219 0.763318 0.269613
O O3 0.440601 0.572626 0.276099
O O4 0.500509 0.728815 0.242538
O O5 0.325896 0.114915 0.725292
O O6 0.281168 0.286751 0.777270
O O7 0.230069 0.132708 0.780097
O O8 0.295570 0.154773 0.000000
O O9 0.369376 0.857386 0.500000
O O10 0.313353 0.843961 0.268848
O O11 0.389270 0.967494 0.267604
O O12 0.612450 0.911747 0.500000
O O13 0.583836 0.831550 0.756223
O O14 0.695657 0.404187 0.500000
O O15 0.648999 0.483962 0.276808
O O16 0.738690 0.538852 0.332584
O O17 0.407567 0.464041 0.500000
O O18 0.418980 0.371451 0.758750
O O19 0.754767 0.692501 0.500000
O O20 0.057483 0.766522 0.000000
#
# Coordination Sequence:
#
# PCOD9426388 Si02
#       8
#     8   8   8   8   8   8   8   8
#     4  10  21  40  65  92 122 158 210 267 317 371
#     4  12  24  36  55  89 130 165 197 241 303 369
#     4   9  19  38  66  95 119 154 210 266 305 358
#     4  11  22  42  67  90 120 162 213 260 308 364
#     4  10  20  37  62  89 117 156 203 249 296 352
#     4  10  21  39  66  96 124 161 212 264 312 369
#     4  10  19  36  61  88 119 160 211 254 295 351
#     4  12  26  42  61  90 126 163 207 259 325 385
#
# _framework density 20.284517999999998
#
# number of rings (size 3 to 8) (size 9 to 14) (size 15 to 20)
#    0.000    1.500    1.250    4.500    0.000    6.500 
#    0.000    5.625    0.000    0.000    0.000    0.000 
#    0.000    0.000    0.000    0.000    0.000    0.000 
#
# Total GULP energy -357585.218435 kJ/mol
# GULP energy per Si atom -5587.269038 kJ/mol
# Density = 2.023835 g / cm^3
# Si number density = 20.284518 Si / 1000 Ang^3
#
#
#
# Elastic Constant Matrix: (Units=GPa)
#
#
# Indices 1 2 3 4 5 6 
#
# 1 67.7417 8.3316 5.4496 0.0000 0.0000 0.0000
# 2 8.3316 96.2093 16.7573 0.0000 0.0000 0.0000
# 3 5.4496 16.7573 41.2855 0.0000 0.0000 0.0000
# 4 0.0000 0.0000 0.0000 -24.6818 0.0000 0.0000
# 5 0.0000 0.0000 0.0000 0.0000 -9.5894 0.0000
# 6 0.0000 0.0000 0.0000 0.0000 0.0000 36.2562
#
#
#
# Elastic Compliance Matrix: (Units=1/GPa)
#
#
# Indices 1 2 3 4 5 6 
#
# 1 0.015014 -0.001028 -0.001565 0.000000 0.000000 0.000000
# 2 -0.001028 0.011255 -0.004433 0.000000 0.000000 0.000000
# 3 -0.001565 -0.004433 0.026227 0.000000 0.000000 0.000000
# 4 0.000000 0.000000 0.000000 -0.040516 0.000000 0.000000
# 5 0.000000 0.000000 0.000000 0.000000 -0.104282 0.000000
# 6 0.000000 0.000000 0.000000 0.000000 0.000000 0.027581
#
#
# Mechanical properties :
#
#
# Convention : Reuss Voigt Hill
#
# Bulk Modulus (GPa) = 26.01019 29.59039 27.80029
# Shear Modulus (GPa) = -132.08475 12.04356 -60.02060
#
# Velocity S-wave (km/s) = -8.07821 2.43930 -5.44551
# Velocity P-wave (km/s) = 8.61158 4.74899 5.07969
#
# Compressibility (1/GPa) = 0.03844647
#
# Stress axis : x y z
#
# Youngs Moduli (GPa) = 66.60345 88.84887 38.12828
#
# Poissons Ratio (x) = 0.09131 0.05966
# Poissons Ratio (y) = 0.06845 0.16901
# Poissons Ratio (z) = 0.10422 0.39384
#
# Static dielectric constant tensor:
#      x y z
#    x 1.708550 0.000000 0.000000 
#    y 0.000000 1.740400 0.000000 
#    z 0.000000 0.000000 1.699230 
# 
# From -- ./inp_files/10772.got.cif
#   From: 2010.05.17/outbox.cif.g08.bks.cpg/sg55_6_cif.got.tgz:10772.got - 2010.06.03 13:27:54.
