data_PCOD9426637
_publ_section_title
;
Structure prediction by ZEFSAII (Michael W. Deem and Ramdas Pophale) SiO2 
 PCOD9426637
Probable space group: P B A M
;
_chemical_formula_sum "Si O2"
_cell_formula_units_Z 64
_cell_length_a 15.983176
_cell_length_b 22.947883
_cell_length_c 7.576835
_cell_angle_alpha 90.000000
_cell_angle_beta 90.000000
_cell_angle_gamma 90.000000
_cell_volume 2779.031941
_symmetry_space_group_name_H-M "P B A M"
_symmetry_group_IT_number 55
_symmetry_cell_setting 'orthorhombic'
loop_
_space_group_symop_operation_xyz
x,y,z
-x,-y,z
1/2+x,1/2-y,-z
1/2-x,1/2+y,-z
-x,-y,-z
x,y,-z
1/2-x,1/2+y,z
1/2+x,1/2-y,z
loop_
_atom_site_type_symbol
_atom_site_label
_atom_site_fract_x
_atom_site_fract_y
_atom_site_fract_z
Si Si1 0.075526 0.376183 0.711614
Si Si2 0.430903 0.454327 0.706884
Si Si3 0.393148 0.323990 0.283391
Si Si4 0.773744 0.967092 0.213563
Si Si5 0.252262 0.658376 0.202487
Si Si6 0.289825 0.780771 0.710845
Si Si7 0.092904 0.500647 0.198756
Si Si8 0.570222 0.802495 0.297260
O O1 0.076445 0.388275 0.500000
O O2 0.134289 0.322261 0.749593
O O3 0.111146 0.432291 0.804970
O O4 0.984709 0.355350 0.775544
O O5 0.500000 0.500000 0.782058
O O6 0.451430 0.447675 0.500000
O O7 0.424848 0.387618 0.777182
O O8 0.340443 0.485902 0.720618
O O9 0.395230 0.324549 0.500000
O O10 0.296655 0.311368 0.230838
O O11 0.437156 0.263303 0.224118
O O12 0.796420 0.900606 0.264153
O O13 0.677257 0.972687 0.277458
O O14 0.773159 0.973511 0.000000
O O15 0.305078 0.716898 0.213885
O O16 0.166062 0.677107 0.294777
O O17 0.228380 0.647718 0.000000
O O18 0.283081 0.774136 0.500000
O O19 0.000000 0.500000 0.284044
O O20 0.083160 0.524328 0.000000
O O21 0.541876 0.797433 0.500000
#
# Coordination Sequence:
#
# PCOD9426637 Si02
#       8
#     8   8   8   8   8   8   8   8
#     4  10  20  33  53  82 110 137 173 218 268 321
#     4  10  21  36  57  83 106 136 182 228 267 314
#     4   8  15  31  51  71 100 134 168 209 258 310
#     4  10  22  38  55  77 109 148 181 217 271 323
#     4  10  20  35  54  76 103 136 178 220 260 314
#     4   9  18  33  53  76 104 136 168 213 272 322
#     4  10  21  37  56  79 112 152 187 222 268 323
#     4   9  18  33  53  76 105 139 171 211 265 318
#
# _framework density 23.029603999999999
#
# number of rings (size 3 to 8) (size 9 to 14) (size 15 to 20)
#    0.000    2.500    0.000    2.625    0.000    6.000 
#    0.000    6.250    0.000    1.500    0.000    0.000 
#    0.000    0.000    0.000    0.000    0.000    0.000 
#
# Total GULP energy -356887.094371 kJ/mol
# GULP energy per Si atom -5576.360850 kJ/mol
# Density = 2.297719 g / cm^3
# Si number density = 23.029604 Si / 1000 Ang^3
#
#
#
# Elastic Constant Matrix: (Units=GPa)
#
#
# Indices 1 2 3 4 5 6 
#
# 1 21.5007 -17.3840 -2.2287 0.0000 0.0000 0.0000
# 2 -17.3840 119.3759 7.2308 0.0000 0.0000 0.0000
# 3 -2.2287 7.2308 42.0334 0.0000 0.0000 0.0000
# 4 0.0000 0.0000 0.0000 -33.0876 0.0000 0.0000
# 5 0.0000 0.0000 0.0000 0.0000 -4.6910 0.0000
# 6 0.0000 0.0000 0.0000 0.0000 0.0000 32.0989
#
#
#
# Elastic Compliance Matrix: (Units=1/GPa)
#
#
# Indices 1 2 3 4 5 6 
#
# 1 0.052810 0.007600 0.001493 0.000000 0.000000 0.000000
# 2 0.007600 0.009559 -0.001241 0.000000 0.000000 0.000000
# 3 0.001493 -0.001241 0.024083 0.000000 0.000000 0.000000
# 4 0.000000 0.000000 0.000000 -0.030223 0.000000 0.000000
# 5 0.000000 0.000000 0.000000 0.000000 -0.213173 0.000000
# 6 0.000000 0.000000 0.000000 0.000000 0.000000 0.031154
#
#
# Mechanical properties :
#
#
# Convention : Reuss Voigt Hill
#
# Bulk Modulus (GPa) = 9.78914 17.57181 13.68048
# Shear Modulus (GPa) = -46.53709 11.88352 -17.32678
#
# Velocity S-wave (km/s) = -4.50015 2.27405 -2.74591
# Velocity P-wave (km/s) = 4.76885 3.81336 2.02487
#
# Compressibility (1/GPa) = 0.10215402
#
# Stress axis : x y z
#
# Youngs Moduli (GPa) = 18.93598 104.61531 41.52252
#
# Poissons Ratio (x) = -0.79507 -0.06198
# Poissons Ratio (y) = -0.14391 0.05155
# Poissons Ratio (z) = -0.02826 0.12987
#
# Static dielectric constant tensor:
#      x y z
#    x 1.877980 0.000000 0.000000 
#    y 0.000000 1.885010 0.000000 
#    z 0.000000 0.000000 1.929990 
# 
# From -- ./inp_files/8053.got.cif
#   From: 2010.05.17/outbox.cif.g08.bks.cpg/sg55_5_cif.got.tgz:8053.got - 2010.06.03 13:27:54.
