data_PCOD9426765
_publ_section_title
;
Structure prediction by ZEFSAII (Michael W. Deem and Ramdas Pophale) SiO2 
 PCOD9426765
Probable space group: P B A M
;
_chemical_formula_sum "Si O2"
_cell_formula_units_Z 48
_cell_length_a 18.230726
_cell_length_b 12.361238
_cell_length_c 9.351595
_cell_angle_alpha 90.000000
_cell_angle_beta 90.000000
_cell_angle_gamma 90.000000
_cell_volume 2107.422547
_symmetry_space_group_name_H-M "P B A M"
_symmetry_group_IT_number 55
_symmetry_cell_setting 'orthorhombic'
loop_
_space_group_symop_operation_xyz
x,y,z
-x,-y,z
1/2+x,1/2-y,-z
1/2-x,1/2+y,-z
-x,-y,-z
x,y,-z
1/2-x,1/2+y,z
1/2+x,1/2-y,z
loop_
_atom_site_type_symbol
_atom_site_label
_atom_site_fract_x
_atom_site_fract_y
_atom_site_fract_z
Si Si1 0.829722 0.649712 0.757000
Si Si2 0.370419 0.613576 0.839499
Si Si3 0.514915 0.122230 0.340201
Si Si4 0.028234 0.831569 0.827947
Si Si5 0.332831 0.290054 0.332499
Si Si6 0.289034 0.081850 0.164890
O O1 0.851173 0.757713 0.843393
O O2 0.897825 0.637830 0.651832
O O3 0.750063 0.668937 0.690156
O O4 0.824913 0.535596 0.836408
O O5 0.453250 0.606578 0.780622
O O6 0.294601 0.569197 0.776160
O O7 0.375058 0.569076 0.000000
O O8 0.483862 0.138361 0.500000
O O9 0.486192 0.209724 0.228301
O O10 0.500000 0.000000 0.294805
O O11 0.105691 0.858193 0.754046
O O12 0.032543 0.836397 0.000000
O O13 0.349627 0.289633 0.500000
O O14 0.329256 0.169506 0.263195
O O15 0.285799 0.122434 0.000000
#
# Coordination Sequence:
#
# PCOD9426765 Si02
#       6
#     8   8   8   8   8   8
#     4  10  20  34  56  84 115 148 184 226 280 340
#     4   8  17  34  54  80 110 140 179 230 286 336
#     4  10  20  34  54  80 110 142 178 226 285 343
#     4  10  20  35  55  77 106 144 188 236 281 329
#     4  11  23  37  55  81 116 154 190 229 277 339
#     4  10  20  36  60  86 112 144 186 237 288 338
#
# _framework density 22.776637000000001
#
# number of rings (size 3 to 8) (size 9 to 14) (size 15 to 20)
#    0.000    2.167    0.000    3.000    0.000    5.667 
#    0.000    1.667    0.000    4.000    0.000    0.000 
#    0.000    0.000    0.000    0.000    0.000    0.000 
#
# Total GULP energy -267764.646029 kJ/mol
# GULP energy per Si atom -5578.430126 kJ/mol
# Density = 2.272480 g / cm^3
# Si number density = 22.776637 Si / 1000 Ang^3
#
#
#
# Elastic Constant Matrix: (Units=GPa)
#
#
# Indices 1 2 3 4 5 6 
#
# 1 175.9584 7.4711 26.1272 0.0000 0.0000 0.0000
# 2 7.4711 62.1891 8.7189 0.0000 0.0000 0.0000
# 3 26.1272 8.7189 86.2748 0.0000 0.0000 0.0000
# 4 0.0000 0.0000 0.0000 9.2602 0.0000 0.0000
# 5 0.0000 0.0000 0.0000 0.0000 20.7052 0.0000
# 6 0.0000 0.0000 0.0000 0.0000 0.0000 37.7281
#
#
#
# Elastic Compliance Matrix: (Units=1/GPa)
#
#
# Indices 1 2 3 4 5 6 
#
# 1 0.005964 -0.000470 -0.001759 0.000000 0.000000 0.000000
# 2 -0.000470 0.016348 -0.001510 0.000000 0.000000 0.000000
# 3 -0.001759 -0.001510 0.012276 0.000000 0.000000 0.000000
# 4 0.000000 0.000000 0.000000 0.107989 0.000000 0.000000
# 5 0.000000 0.000000 0.000000 0.000000 0.048297 0.000000
# 6 0.000000 0.000000 0.000000 0.000000 0.000000 0.026505
#
#
# Mechanical properties :
#
#
# Convention : Reuss Voigt Hill
#
# Bulk Modulus (GPa) = 36.88473 45.45075 41.16774
# Shear Modulus (GPa) = 21.37722 32.34571 26.86147
#
# Velocity S-wave (km/s) = 3.06692 3.77255 3.43788
# Velocity P-wave (km/s) = 5.36382 6.24295 5.82001
#
# Compressibility (1/GPa) = 0.02711149
#
# Stress axis : x y z
#
# Youngs Moduli (GPa) = 167.66555 61.16907 81.45942
#
# Poissons Ratio (x) = 0.02875 0.14326
# Poissons Ratio (y) = 0.07879 0.12299
# Poissons Ratio (z) = 0.29487 0.09235
#
# Static dielectric constant tensor:
#      x y z
#    x 1.917520 0.000000 0.000000 
#    y 0.000000 1.861890 0.000000 
#    z 0.000000 0.000000 1.792530 
# 
# From -- ./inp_files/7435.got.cif
#   From: 2010.05.17/outbox.cif.g08.bks.cpg/sg55_4_cif.got.tgz:7435.got - 2010.06.03 13:27:54.
