data_PCOD9426648
_publ_section_title
;
Structure prediction by ZEFSAII (Michael W. Deem and Ramdas Pophale) SiO2 
 PCOD9426648
Probable space group: P B A M
;
_chemical_formula_sum "Si O2"
_cell_formula_units_Z 64
_cell_length_a 23.520131
_cell_length_b 15.287443
_cell_length_c 9.665519
_cell_angle_alpha 90.000000
_cell_angle_beta 90.000000
_cell_angle_gamma 90.000000
_cell_volume 3475.359741
_symmetry_space_group_name_H-M "P B A M"
_symmetry_group_IT_number 55
_symmetry_cell_setting 'orthorhombic'
loop_
_space_group_symop_operation_xyz
x,y,z
-x,-y,z
1/2+x,1/2-y,-z
1/2-x,1/2+y,-z
-x,-y,-z
x,y,-z
1/2-x,1/2+y,z
1/2+x,1/2-y,z
loop_
_atom_site_type_symbol
_atom_site_label
_atom_site_fract_x
_atom_site_fract_y
_atom_site_fract_z
Si Si1 0.200215 0.702310 0.836878
Si Si2 0.073479 0.761118 0.833283
Si Si3 0.126406 0.344713 0.157543
Si Si4 0.675774 0.492612 0.660287
Si Si5 0.714953 0.002791 0.837222
Si Si6 0.690380 0.284068 0.660448
Si Si7 0.496810 0.095969 0.839684
Si Si8 0.448923 0.432624 0.334026
O O1 0.140848 0.750098 0.809023
O O2 0.195890 0.597499 0.809938
O O3 0.251621 0.735162 0.743043
O O4 0.213473 0.712944 0.000000
O O5 0.044167 0.670975 0.783956
O O6 0.048094 0.843388 0.752513
O O7 0.064519 0.769650 0.000000
O O8 0.164288 0.429868 0.191280
O O9 0.141551 0.269989 0.264884
O O10 0.060470 0.367953 0.159699
O O11 0.141166 0.317600 0.000000
O O12 0.685980 0.516085 0.500000
O O13 0.728227 0.524700 0.752670
O O14 0.677606 0.387240 0.671198
O O15 0.613139 0.526249 0.698119
O O16 0.728186 0.008048 0.000000
O O17 0.695943 0.261288 0.500000
O O18 0.500000 0.000000 0.773752
O O19 0.477162 0.082935 0.000000
O O20 0.500000 0.500000 0.301457
O O21 0.451213 0.416187 0.500000
#
# Coordination Sequence:
#
# PCOD9426648 Si02
#       8
#     8   8   8   8   8   8   8   8
#     4   9  18  35  56  80 112 143 177 223 277 329
#     4  10  21  36  59  89 115 144 188 237 277 326
#     4  10  20  33  54  83 113 143 180 221 270 329
#     4   9  20  38  56  76 104 142 186 226 273 330
#     4   9  18  33  55  82 110 144 177 217 271 329
#     4  10  21  35  54  79 108 143 182 226 274 329
#     4   9  18  35  59  86 116 150 184 222 274 336
#     4  10  23  41  59  77 106 151 194 234 285 340
#
# _framework density 18.415358999999999
#
# number of rings (size 3 to 8) (size 9 to 14) (size 15 to 20)
#    0.000    2.500    0.000    1.125    3.500    5.250 
#    0.000    0.000    0.000    3.000    0.000    0.000 
#    0.000    0.000    0.000    0.000    0.000    0.000 
#
# Total GULP energy -357074.731495 kJ/mol
# GULP energy per Si atom -5579.292680 kJ/mol
# Density = 1.837345 g / cm^3
# Si number density = 18.415359 Si / 1000 Ang^3
#
#
#
# Elastic Constant Matrix: (Units=GPa)
#
#
# Indices 1 2 3 4 5 6 
#
# 1 56.6132 23.6280 18.5774 0.0000 0.0000 0.0000
# 2 23.6280 61.5080 30.8782 0.0000 0.0000 0.0000
# 3 18.5774 30.8782 31.3211 0.0000 0.0000 0.0000
# 4 0.0000 0.0000 0.0000 17.7659 0.0000 0.0000
# 5 0.0000 0.0000 0.0000 0.0000 14.1140 0.0000
# 6 0.0000 0.0000 0.0000 0.0000 0.0000 29.1964
#
#
#
# Elastic Compliance Matrix: (Units=1/GPa)
#
#
# Indices 1 2 3 4 5 6 
#
# 1 0.022379 -0.003827 -0.009500 0.000000 0.000000 0.000000
# 2 -0.003827 0.032844 -0.030109 0.000000 0.000000 0.000000
# 3 -0.009500 -0.030109 0.067245 0.000000 0.000000 0.000000
# 4 0.000000 0.000000 0.000000 0.056288 0.000000 0.000000
# 5 0.000000 0.000000 0.000000 0.000000 0.070852 0.000000
# 6 0.000000 0.000000 0.000000 0.000000 0.000000 0.034251
#
#
# Mechanical properties :
#
#
# Convention : Reuss Voigt Hill
#
# Bulk Modulus (GPa) = 28.09418 32.84548 30.46983
# Shear Modulus (GPa) = 13.06863 17.30584 15.18723
#
# Velocity S-wave (km/s) = 2.66683 3.06886 2.87488
# Velocity P-wave (km/s) = 4.97711 5.51651 5.25374
#
# Compressibility (1/GPa) = 0.03559456
#
# Stress axis : x y z
#
# Youngs Moduli (GPa) = 44.68571 30.44727 14.87091
#
# Poissons Ratio (x) = 0.11653 0.14127
# Poissons Ratio (y) = 0.17103 0.44775
# Poissons Ratio (z) = 0.42451 0.91674
#
# Static dielectric constant tensor:
#      x y z
#    x 1.611450 0.000000 0.000000 
#    y 0.000000 1.649550 0.000000 
#    z 0.000000 0.000000 1.618480 
# 
# From -- ./inp_files/9633.got.cif
#   From: 2010.05.17/outbox.cif.g08.bks.cpg/sg55_5_cif.got.tgz:9633.got - 2010.06.03 13:27:54.
