data_PCOD9426043
_publ_section_title
;
Structure prediction by ZEFSAII (Michael W. Deem and Ramdas Pophale) SiO2 
 PCOD9426043
Probable space group: P B A M
;
_chemical_formula_sum "Si O2"
_cell_formula_units_Z 64
_cell_length_a 19.412537
_cell_length_b 8.089379
_cell_length_c 21.102463
_cell_angle_alpha 90.000000
_cell_angle_beta 90.000000
_cell_angle_gamma 90.000000
_cell_volume 3313.833067
_symmetry_space_group_name_H-M "P B A M"
_symmetry_group_IT_number 55
_symmetry_cell_setting 'orthorhombic'
loop_
_space_group_symop_operation_xyz
x,y,z
-x,-y,z
1/2+x,1/2-y,-z
1/2-x,1/2+y,-z
-x,-y,-z
x,y,-z
1/2-x,1/2+y,z
1/2+x,1/2-y,z
loop_
_atom_site_type_symbol
_atom_site_label
_atom_site_fract_x
_atom_site_fract_y
_atom_site_fract_z
Si Si1 0.896971 0.116191 0.427710
Si Si2 0.146855 0.403761 0.930434
Si Si3 0.789667 0.011372 0.671571
Si Si4 0.779984 0.910163 0.883858
Si Si5 0.646443 0.144051 0.324627
Si Si6 0.919061 0.496103 0.799572
Si Si7 0.180692 0.801308 0.198238
Si Si8 0.459246 0.757776 0.572897
O O1 0.877756 0.155297 0.500000
O O2 0.832398 0.109212 0.381755
O O3 0.960582 0.234598 0.409006
O O4 0.928150 0.929181 0.427446
O O5 0.175216 0.218344 0.922576
O O6 0.214870 0.517851 0.921853
O O7 0.099531 0.440404 0.869935
O O8 0.116437 0.430278 0.000000
O O9 0.708193 0.018416 0.659593
O O10 0.802642 0.105343 0.737376
O O11 0.819379 0.826347 0.674522
O O12 0.744282 0.813630 0.824750
O O13 0.823946 0.061001 0.856416
O O14 0.617582 0.103005 0.255125
O O15 0.585738 0.143056 0.376544
O O16 0.885430 0.314224 0.795072
O O17 0.000000 0.500000 0.789395
O O18 0.454722 0.818081 0.500000
#
# Coordination Sequence:
#
# PCOD9426043 Si02
#       8
#     8   8   8   8   8   8   8   8
#     4   8  16  31  52  79 111 148 191 231 281 345
#     4  10  19  35  60  87 116 148 184 229 281 340
#     4  11  20  33  58  85 111 148 191 242 299 340
#     4   9  18  34  58  88 114 141 183 231 281 332
#     4  11  22  36  57  85 114 148 192 243 293 351
#     4  11  25  40  55  79 114 154 192 239 292 346
#     4  10  19  34  56  79 114 146 181 235 284 334
#     4   8  16  33  54  78 111 150 188 234 283 343
#
# _framework density 19.312982000000002
#
# number of rings (size 3 to 8) (size 9 to 14) (size 15 to 20)
#    0.000    2.250    0.000    5.625    1.750    0.750 
#    0.000    2.500    0.000    3.375    0.000    0.000 
#    0.000    0.000    0.000    0.000    0.000    0.000 
#
# Total GULP energy -357384.931404 kJ/mol
# GULP energy per Si atom -5584.139553 kJ/mol
# Density = 1.926902 g / cm^3
# Si number density = 19.312982 Si / 1000 Ang^3
#
#
#
# Elastic Constant Matrix: (Units=GPa)
#
#
# Indices 1 2 3 4 5 6 
#
# 1 84.6289 18.6654 45.1938 0.0000 0.0000 0.0000
# 2 18.6654 75.2548 19.0611 0.0000 0.0000 0.0000
# 3 45.1938 19.0611 105.2642 0.0000 0.0000 0.0000
# 4 0.0000 0.0000 0.0000 -8.9450 0.0000 0.0000
# 5 0.0000 0.0000 0.0000 0.0000 13.0833 0.0000
# 6 0.0000 0.0000 0.0000 0.0000 0.0000 10.1388
#
#
#
# Elastic Compliance Matrix: (Units=1/GPa)
#
#
# Indices 1 2 3 4 5 6 
#
# 1 0.015700 -0.002292 -0.006325 0.000000 0.000000 0.000000
# 2 -0.002292 0.014262 -0.001598 0.000000 0.000000 0.000000
# 3 -0.006325 -0.001598 0.012505 0.000000 0.000000 0.000000
# 4 0.000000 0.000000 0.000000 -0.111795 0.000000 0.000000
# 5 0.000000 0.000000 0.000000 0.000000 0.076433 0.000000
# 6 0.000000 0.000000 0.000000 0.000000 0.000000 0.098631
#
#
# Mechanical properties :
#
#
# Convention : Reuss Voigt Hill
#
# Bulk Modulus (GPa) = 45.38280 47.88760 46.63520
# Shear Modulus (GPa) = 37.44978 15.00394 26.22686
#
# Velocity S-wave (km/s) = 4.40830 2.79029 3.68909
# Velocity P-wave (km/s) = 7.03281 5.93551 6.50733
#
# Compressibility (1/GPa) = 0.02203478
#
# Stress axis : x y z
#
# Youngs Moduli (GPa) = 63.69539 70.11880 79.96724
#
# Poissons Ratio (x) = 0.16070 0.50583
# Poissons Ratio (y) = 0.14598 0.12783
# Poissons Ratio (z) = 0.40290 0.11208
#
# Static dielectric constant tensor:
#      x y z
#    x 1.652080 0.000000 0.000000 
#    y 0.000000 1.713170 0.000000 
#    z 0.000000 0.000000 1.683570 
# 
# From -- ./inp_files/23079.got.cif
#   From: 2010.05.17/outbox.cif.g08.bks.cpg/sg55_12_cif.got.tgz:23079.got - 2010.06.03 13:27:54.
