data_PCOD9426206
_publ_section_title
;
Structure prediction by ZEFSAII (Michael W. Deem and Ramdas Pophale) SiO2 
 PCOD9426206
Probable space group: P B A M
;
_chemical_formula_sum "Si O2"
_cell_formula_units_Z 56
_cell_length_a 23.060647
_cell_length_b 13.926596
_cell_length_c 9.269935
_cell_angle_alpha 90.000000
_cell_angle_beta 90.000000
_cell_angle_gamma 90.000000
_cell_volume 2977.098158
_symmetry_space_group_name_H-M "P B A M"
_symmetry_group_IT_number 55
_symmetry_cell_setting 'orthorhombic'
loop_
_space_group_symop_operation_xyz
x,y,z
-x,-y,z
1/2+x,1/2-y,-z
1/2-x,1/2+y,-z
-x,-y,-z
x,y,-z
1/2-x,1/2+y,z
1/2+x,1/2-y,z
loop_
_atom_site_type_symbol
_atom_site_label
_atom_site_fract_x
_atom_site_fract_y
_atom_site_fract_z
Si Si1 0.643433 0.711070 0.164786
Si Si2 0.215234 0.613431 0.737666
Si Si3 0.465687 0.202563 0.329098
Si Si4 0.084007 0.313754 0.829948
Si Si5 0.727689 0.569744 0.669582
Si Si6 0.314229 0.755565 0.654750
Si Si7 0.598426 0.992536 0.339618
O O1 0.684074 0.807305 0.162440
O O2 0.584669 0.740335 0.245976
O O3 0.676198 0.630592 0.258914
O O4 0.633810 0.681038 0.000000
O O5 0.253706 0.519446 0.770091
O O6 0.262490 0.679110 0.658031
O O7 0.159653 0.564726 0.660842
O O8 0.465011 0.223194 0.500000
O O9 0.527168 0.219623 0.255439
O O10 0.449181 0.089677 0.312474
O O11 0.139354 0.251175 0.781240
O O12 0.096512 0.422629 0.775418
O O13 0.075178 0.311692 0.000000
O O14 0.716488 0.542547 0.500000
O O15 0.781930 0.642461 0.664673
O O16 0.344729 0.749178 0.500000
O O17 0.589205 0.033633 0.500000
#
# Coordination Sequence:
#
# PCOD9426206 Si02
#       7
#     8   8   8   8   8   8   8
#     4  10  22  37  55  85 119 150 184 229 290 347
#     4  10  20  35  58  85 114 149 190 235 275 329
#     4  10  21  38  59  79 105 146 194 236 276 330
#     4  12  24  35  51  79 116 150 183 227 285 342
#     4  10  19  35  59  83 110 148 193 236 276 330
#     4  10  20  35  56  81 111 148 191 234 277 329
#     4  10  19  35  57  82 108 142 187 232 278 332
#
# _framework density 18.810262999999999
#
# number of rings (size 3 to 8) (size 9 to 14) (size 15 to 20)
#    0.000    1.714    1.429    3.857    0.000   12.000 
#    0.000    0.000    0.000    0.857    0.000    5.000 
#    0.000    0.000    0.000    0.000    0.000    0.000 
#
# Total GULP energy -312080.864555 kJ/mol
# GULP energy per Si atom -5572.872581 kJ/mol
# Density = 1.876745 g / cm^3
# Si number density = 18.810263 Si / 1000 Ang^3
#
#
#
# Elastic Constant Matrix: (Units=GPa)
#
#
# Indices 1 2 3 4 5 6 
#
# 1 91.4231 10.4469 44.1203 0.0000 0.0000 0.0000
# 2 10.4469 45.5338 -2.0312 0.0000 0.0000 0.0000
# 3 44.1203 -2.0312 99.1327 0.0000 0.0000 0.0000
# 4 0.0000 0.0000 0.0000 4.3242 0.0000 0.0000
# 5 0.0000 0.0000 0.0000 0.0000 11.1571 0.0000
# 6 0.0000 0.0000 0.0000 0.0000 0.0000 27.0351
#
#
#
# Elastic Compliance Matrix: (Units=1/GPa)
#
#
# Indices 1 2 3 4 5 6 
#
# 1 0.014502 -0.003619 -0.006529 0.000000 0.000000 0.000000
# 2 -0.003619 0.022885 0.002079 0.000000 0.000000 0.000000
# 3 -0.006529 0.002079 0.013036 0.000000 0.000000 0.000000
# 4 0.000000 0.000000 0.000000 0.231255 0.000000 0.000000
# 5 0.000000 0.000000 0.000000 0.000000 0.089629 0.000000
# 6 0.000000 0.000000 0.000000 0.000000 0.000000 0.036989
#
#
# Mechanical properties :
#
#
# Convention : Reuss Voigt Hill
#
# Bulk Modulus (GPa) = 29.16536 37.90683 33.53610
# Shear Modulus (GPa) = 11.47158 20.74021 16.10590
#
# Velocity S-wave (km/s) = 2.47221 3.32415 2.92931
# Velocity P-wave (km/s) = 4.86701 5.91009 5.41373
#
# Compressibility (1/GPa) = 0.03428725
#
# Stress axis : x y z
#
# Youngs Moduli (GPa) = 68.95462 43.69739 76.71228
#
# Poissons Ratio (x) = 0.15812 0.50082
# Poissons Ratio (y) = 0.24951 -0.15951
# Poissons Ratio (z) = 0.45018 -0.09086
#
# Static dielectric constant tensor:
#      x y z
#    x 1.666630 0.000000 0.000000 
#    y 0.000000 1.671080 0.000000 
#    z 0.000000 0.000000 1.648830 
# 
# From -- ./inp_files/8702.got.cif
#   From: 2010.05.17/outbox.cif.g08.bks.cpg/sg55_5_cif.got.tgz:8702.got - 2010.06.03 13:27:54.
