data_PCOD9426208
_publ_section_title
;
Structure prediction by ZEFSAII (Michael W. Deem and Ramdas Pophale) SiO2 
 PCOD9426208
Probable space group: P B A M
;
_chemical_formula_sum "Si O2"
_cell_formula_units_Z 64
_cell_length_a 28.121618
_cell_length_b 9.151905
_cell_length_c 13.129139
_cell_angle_alpha 90.000000
_cell_angle_beta 90.000000
_cell_angle_gamma 90.000000
_cell_volume 3378.998929
_symmetry_space_group_name_H-M "P B A M"
_symmetry_group_IT_number 55
_symmetry_cell_setting 'orthorhombic'
loop_
_space_group_symop_operation_xyz
x,y,z
-x,-y,z
1/2+x,1/2-y,-z
1/2-x,1/2+y,-z
-x,-y,-z
x,y,-z
1/2-x,1/2+y,z
1/2+x,1/2-y,z
loop_
_atom_site_type_symbol
_atom_site_label
_atom_site_fract_x
_atom_site_fract_y
_atom_site_fract_z
Si Si1 0.216065 0.586461 0.879016
Si Si2 0.407299 0.693164 0.620202
Si Si3 0.494088 0.167501 0.312884
Si Si4 0.325687 0.593962 0.884314
Si Si5 0.356449 0.304998 0.183398
Si Si6 0.900662 0.160506 0.384769
Si Si7 0.637538 0.124209 0.795584
Si Si8 0.561787 0.899321 0.882238
O O1 0.270984 0.594255 0.848936
O O2 0.192219 0.744192 0.862377
O O3 0.182773 0.483129 0.809669
O O4 0.211991 0.547629 0.000000
O O5 0.402773 0.728439 0.500000
O O6 0.458532 0.744408 0.661927
O O7 0.404344 0.516025 0.627633
O O8 0.371161 0.789770 0.689614
O O9 0.450384 0.257002 0.362094
O O10 0.480490 0.149538 0.192913
O O11 0.500000 0.000000 0.351305
O O12 0.356380 0.477130 0.825394
O O13 0.350152 0.749088 0.874802
O O14 0.324476 0.545373 0.000000
O O15 0.364765 0.272878 0.301933
O O16 0.399308 0.230427 0.122918
O O17 0.886125 0.189477 0.500000
O O18 0.591047 0.032427 0.829314
O O19 0.550042 0.928337 0.000000
#
# Coordination Sequence:
#
# PCOD9426208 Si02
#       8
#     8   8   8   8   8   8   8   8
#     4  10  21  36  55  85 122 151 181 228 287 335
#     4  11  23  41  60  82 113 148 190 242 291 330
#     4  11  22  39  59  91 113 145 192 235 276 337
#     4  11  20  33  59  87 113 149 191 231 274 338
#     4  10  19  35  57  82 114 146 191 231 277 337
#     4  10  22  40  62  81 111 151 187 239 295 334
#     4  11  20  37  56  86 114 152 192 232 278 337
#     4  10  21  38  56  80 123 159 181 223 285 341
#
# _framework density 18.940521
#
# number of rings (size 3 to 8) (size 9 to 14) (size 15 to 20)
#    0.000    1.500    2.500    4.500    0.000    4.250 
#    0.000    0.000    0.000    6.000    0.000    0.000 
#    0.000    0.000    0.000    0.000    0.000    0.000 
#
# Total GULP energy -356837.712407 kJ/mol
# GULP energy per Si atom -5575.589256 kJ/mol
# Density = 1.889741 g / cm^3
# Si number density = 18.940521 Si / 1000 Ang^3
#
#
#
# Elastic Constant Matrix: (Units=GPa)
#
#
# Indices 1 2 3 4 5 6 
#
# 1 55.2022 11.3848 34.0328 0.0000 0.0000 0.0000
# 2 11.3848 71.4697 26.5077 0.0000 0.0000 0.0000
# 3 34.0328 26.5077 127.5774 0.0000 0.0000 0.0000
# 4 0.0000 0.0000 0.0000 29.5476 0.0000 0.0000
# 5 0.0000 0.0000 0.0000 0.0000 15.3410 0.0000
# 6 0.0000 0.0000 0.0000 0.0000 0.0000 11.1993
#
#
#
# Elastic Compliance Matrix: (Units=1/GPa)
#
#
# Indices 1 2 3 4 5 6 
#
# 1 0.021814 -0.001427 -0.005523 0.000000 0.000000 0.000000
# 2 -0.001427 0.015254 -0.002789 0.000000 0.000000 0.000000
# 3 -0.005523 -0.002789 0.009891 0.000000 0.000000 0.000000
# 4 0.000000 0.000000 0.000000 0.033844 0.000000 0.000000
# 5 0.000000 0.000000 0.000000 0.000000 0.065185 0.000000
# 6 0.000000 0.000000 0.000000 0.000000 0.000000 0.089291
#
#
# Mechanical properties :
#
#
# Convention : Reuss Voigt Hill
#
# Bulk Modulus (GPa) = 36.38661 44.23333 40.30997
# Shear Modulus (GPa) = 18.94545 23.37252 21.15899
#
# Velocity S-wave (km/s) = 3.16612 3.51664 3.34597
# Velocity P-wave (km/s) = 5.71126 6.31613 6.02129
#
# Compressibility (1/GPa) = 0.02748264
#
# Stress axis : x y z
#
# Youngs Moduli (GPa) = 45.84152 65.55855 101.10095
#
# Poissons Ratio (x) = 0.09352 0.55836
# Poissons Ratio (y) = 0.06539 0.28195
# Poissons Ratio (z) = 0.25317 0.18283
#
# Static dielectric constant tensor:
#      x y z
#    x 1.674920 0.000000 0.000000 
#    y 0.000000 1.685390 0.000000 
#    z 0.000000 0.000000 1.656030 
# 
# From -- ./inp_files/16216.got.cif
#   From: 2010.05.17/outbox.cif.g08.bks.cpg/sg55_9_cif.got.tgz:16216.got - 2010.06.03 13:27:54.
