data_PCOD9426123
_publ_section_title
;
Structure prediction by ZEFSAII (Michael W. Deem and Ramdas Pophale) SiO2 
 PCOD9426123
Probable space group: P B A M
;
_chemical_formula_sum "Si O2"
_cell_formula_units_Z 64
_cell_length_a 24.503517
_cell_length_b 16.059435
_cell_length_c 7.710673
_cell_angle_alpha 90.000000
_cell_angle_beta 90.000000
_cell_angle_gamma 90.000000
_cell_volume 3034.247277
_symmetry_space_group_name_H-M "P B A M"
_symmetry_group_IT_number 55
_symmetry_cell_setting 'orthorhombic'
loop_
_space_group_symop_operation_xyz
x,y,z
-x,-y,z
1/2+x,1/2-y,-z
1/2-x,1/2+y,-z
-x,-y,-z
x,y,-z
1/2-x,1/2+y,z
1/2+x,1/2-y,z
loop_
_atom_site_type_symbol
_atom_site_label
_atom_site_fract_x
_atom_site_fract_y
_atom_site_fract_z
Si Si1 0.554672 0.256055 0.707510
Si Si2 0.749913 0.346832 0.790182
Si Si3 0.930951 0.247635 0.291239
Si Si4 0.365175 0.086149 0.208703
Si Si5 0.753689 0.655341 0.209358
Si Si6 0.129109 0.093209 0.293112
Si Si7 0.137128 0.910509 0.706856
Si Si8 0.626875 0.097377 0.209554
O O1 0.551530 0.266431 0.500000
O O2 0.492918 0.255683 0.774917
O O3 0.591279 0.332482 0.777156
O O4 0.585079 0.169066 0.738890
O O5 0.803426 0.395898 0.729099
O O6 0.753601 0.250774 0.731867
O O7 0.692326 0.384158 0.734995
O O8 0.750567 0.347043 0.000000
O O9 0.932532 0.240883 0.500000
O O10 0.902379 0.335189 0.252062
O O11 0.895092 0.169972 0.223893
O O12 0.385809 0.996221 0.270492
O O13 0.362517 0.081962 0.000000
O O14 0.701440 0.602515 0.263581
O O15 0.812061 0.621440 0.269514
O O16 0.754723 0.655440 0.000000
O O17 0.120154 0.090188 0.500000
O O18 0.118925 0.000347 0.223000
O O19 0.128365 0.911970 0.500000
O O20 0.627817 0.097028 0.000000
#
# Coordination Sequence:
#
# PCOD9426123 Si02
#       8
#     8   8   8   8   8   8   8   8
#     4  10  22  39  57  78 107 144 185 228 271 316
#     4  10  19  34  58  84 111 143 177 218 270 326
#     4  10  22  39  57  78 107 144 185 228 271 316
#     4  10  21  37  57  82 111 143 179 220 270 326
#     4  10  19  34  58  84 111 143 177 218 270 326
#     4  10  21  36  56  83 112 143 180 222 270 323
#     4  10  21  36  56  83 112 143 180 222 270 323
#     4  10  21  37  57  82 111 143 179 220 270 326
#
# _framework density 21.092547
#
# number of rings (size 3 to 8) (size 9 to 14) (size 15 to 20)
#    0.000    2.000    2.500    0.750    0.000    5.000 
#    0.000    5.000    0.000    0.000    0.000    3.500 
#    0.000    0.000    0.000    0.000    0.000    0.000 
#
# Total GULP energy -357533.696254 kJ/mol
# GULP energy per Si atom -5586.464004 kJ/mol
# Density = 2.104454 g / cm^3
# Si number density = 21.092547 Si / 1000 Ang^3
#
#
#
# Elastic Constant Matrix: (Units=GPa)
#
#
# Indices 1 2 3 4 5 6 
#
# 1 112.5034 20.5142 -6.4975 0.0000 0.0000 0.0000
# 2 20.5142 95.5729 -3.4574 0.0000 0.0000 0.0000
# 3 -6.4975 -3.4574 31.3286 0.0000 0.0000 0.0000
# 4 0.0000 0.0000 0.0000 10.6147 0.0000 0.0000
# 5 0.0000 0.0000 0.0000 0.0000 30.4990 0.0000
# 6 0.0000 0.0000 0.0000 0.0000 0.0000 -3.3887
#
#
#
# Elastic Compliance Matrix: (Units=1/GPa)
#
#
# Indices 1 2 3 4 5 6 
#
# 1 0.009342 -0.001943 0.001723 0.000000 0.000000 0.000000
# 2 -0.001943 0.010909 0.000801 0.000000 0.000000 0.000000
# 3 0.001723 0.000801 0.032366 0.000000 0.000000 0.000000
# 4 0.000000 0.000000 0.000000 0.094209 0.000000 0.000000
# 5 0.000000 0.000000 0.000000 0.000000 0.032788 0.000000
# 6 0.000000 0.000000 0.000000 0.000000 0.000000 -0.295096
#
#
# Mechanical properties :
#
#
# Convention : Reuss Voigt Hill
#
# Bulk Modulus (GPa) = 18.59444 28.94706 23.77075
# Shear Modulus (GPa) = -50.64933 22.80137 -13.92398
#
# Velocity S-wave (km/s) = -4.90561 3.29145 -2.57210
# Velocity P-wave (km/s) = 4.82203 5.31022 1.57266
#
# Compressibility (1/GPa) = 0.05377952
#
# Stress axis : x y z
#
# Youngs Moduli (GPa) = 107.03859 91.66539 30.89710
#
# Poissons Ratio (x) = 0.17810 -0.05324
# Poissons Ratio (y) = 0.20797 -0.02475
# Poissons Ratio (z) = -0.18445 -0.07342
#
# Static dielectric constant tensor:
#      x y z
#    x 1.719140 0.000000 0.000000 
#    y 0.000000 1.766160 0.000000 
#    z 0.000000 0.000000 1.795930 
# 
# From -- ./inp_files/9683.got.cif
#   From: 2010.05.17/outbox.cif.g08.bks.cpg/sg55_5_cif.got.tgz:9683.got - 2010.06.03 13:27:54.
