data_PCOD9426009
_publ_section_title
;
Structure prediction by ZEFSAII (Michael W. Deem and Ramdas Pophale) SiO2 
 PCOD9426009
Probable space group: P B A M
;
_chemical_formula_sum "Si O2"
_cell_formula_units_Z 48
_cell_length_a 20.311246
_cell_length_b 15.474729
_cell_length_c 7.999159
_cell_angle_alpha 90.000000
_cell_angle_beta 90.000000
_cell_angle_gamma 90.000000
_cell_volume 2514.223884
_symmetry_space_group_name_H-M "P B A M"
_symmetry_group_IT_number 55
_symmetry_cell_setting 'orthorhombic'
loop_
_space_group_symop_operation_xyz
x,y,z
-x,-y,z
1/2+x,1/2-y,-z
1/2-x,1/2+y,-z
-x,-y,-z
x,y,-z
1/2-x,1/2+y,z
1/2+x,1/2-y,z
loop_
_atom_site_type_symbol
_atom_site_label
_atom_site_fract_x
_atom_site_fract_y
_atom_site_fract_z
Si Si1 0.186168 0.115987 0.201940
Si Si2 0.010991 0.277391 0.198488
Si Si3 0.700843 0.009232 0.802145
Si Si4 0.060939 0.558123 0.304126
Si Si5 0.536078 0.413448 0.700244
Si Si6 0.161855 0.305932 0.795474
O O1 0.241787 0.051524 0.268223
O O2 0.112439 0.087332 0.246945
O O3 0.193458 0.215442 0.259249
O O4 0.190419 0.117854 0.000000
O O5 0.004277 0.175924 0.235902
O O6 0.084969 0.303494 0.255312
O O7 0.959548 0.342495 0.280179
O O8 0.007545 0.290169 0.000000
O O9 0.629439 0.966178 0.780325
O O10 0.695719 0.106706 0.734104
O O11 0.713677 0.017468 0.000000
O O12 0.068120 0.538562 0.500000
O O13 0.000000 0.500000 0.237832
O O14 0.500000 0.500000 0.761246
O O15 0.532934 0.411855 0.500000
O O16 0.161878 0.306937 0.000000
#
# Coordination Sequence:
#
# PCOD9426009 Si02
#       6
#     8   8   8   8   8   8
#     4   9  19  35  55  80 108 142 187 230 272 327
#     4  10  19  34  58  82 107 141 186 232 272 323
#     4  10  19  34  55  77 108 145 184 231 275 323
#     4  11  22  34  52  82 117 147 181 224 276 337
#     4  10  21  38  59  81 112 148 182 226 280 334
#     4   8  15  30  52  75 101 136 176 222 272 316
#
# _framework density 19.091379
#
# number of rings (size 3 to 8) (size 9 to 14) (size 15 to 20)
#    0.000    2.333    1.667    2.500    0.000    2.667 
#    3.000    0.000    0.000    0.000    0.000    0.000 
#    0.000    0.000    0.000    0.000    0.000    0.000 
#
# Total GULP energy -267813.595032 kJ/mol
# GULP energy per Si atom -5579.449896 kJ/mol
# Density = 1.904793 g / cm^3
# Si number density = 19.091379 Si / 1000 Ang^3
#
#
#
# Elastic Constant Matrix: (Units=GPa)
#
#
# Indices 1 2 3 4 5 6 
#
# 1 73.8645 79.2659 -7.3961 0.0000 0.0000 0.0000
# 2 79.2659 169.5413 -2.3628 0.0000 0.0000 0.0000
# 3 -7.3961 -2.3628 13.5991 0.0000 0.0000 0.0000
# 4 0.0000 0.0000 0.0000 7.0021 0.0000 0.0000
# 5 0.0000 0.0000 0.0000 0.0000 -0.8301 0.0000
# 6 0.0000 0.0000 0.0000 0.0000 0.0000 32.5204
#
#
#
# Elastic Compliance Matrix: (Units=1/GPa)
#
#
# Indices 1 2 3 4 5 6 
#
# 1 0.029509 -0.013606 0.013685 0.000000 0.000000 0.000000
# 2 -0.013606 0.012186 -0.005283 0.000000 0.000000 0.000000
# 3 0.013685 -0.005283 0.080059 0.000000 0.000000 0.000000
# 4 0.000000 0.000000 0.000000 0.142815 0.000000 0.000000
# 5 0.000000 0.000000 0.000000 0.000000 -1.204741 0.000000
# 6 0.000000 0.000000 0.000000 0.000000 0.000000 0.030750
#
#
# Mechanical properties :
#
#
# Convention : Reuss Voigt Hill
#
# Bulk Modulus (GPa) = 8.98086 44.00212 26.49149
# Shear Modulus (GPa) = -5.80114 20.23834 7.21860
#
# Velocity S-wave (km/s) = -1.74505 3.25942 1.94661
# Velocity P-wave (km/s) = 0.80875 6.10436 4.35415
#
# Compressibility (1/GPa) = 0.11134786
#
# Stress axis : x y z
#
# Youngs Moduli (GPa) = 33.88750 82.06267 12.49078
#
# Poissons Ratio (x) = 1.11653 -0.17094
# Poissons Ratio (y) = 0.46107 0.06598
# Poissons Ratio (z) = -0.46376 0.43350
#
# Static dielectric constant tensor:
#      x y z
#    x 1.633110 0.000000 0.000000 
#    y 0.000000 1.690510 0.000000 
#    z 0.000000 0.000000 1.667350 
# 
# From -- ./inp_files/5824.got.cif
#   From: 2010.05.17/outbox.cif.g08.bks.cpg/sg55_3_cif.got.tgz:5824.got - 2010.06.03 13:27:54.
