data_PCOD9426754
_publ_section_title
;
Structure prediction by ZEFSAII (Michael W. Deem and Ramdas Pophale) SiO2 
 PCOD9426754
Probable space group: P B A M
;
_chemical_formula_sum "Si O2"
_cell_formula_units_Z 64
_cell_length_a 15.271732
_cell_length_b 22.665624
_cell_length_c 7.505344
_cell_angle_alpha 90.000000
_cell_angle_beta 90.000000
_cell_angle_gamma 90.000000
_cell_volume 2597.924805
_symmetry_space_group_name_H-M "P B A M"
_symmetry_group_IT_number 55
_symmetry_cell_setting 'orthorhombic'
loop_
_space_group_symop_operation_xyz
x,y,z
-x,-y,z
1/2+x,1/2-y,-z
1/2-x,1/2+y,-z
-x,-y,-z
x,y,-z
1/2-x,1/2+y,z
1/2+x,1/2-y,z
loop_
_atom_site_type_symbol
_atom_site_label
_atom_site_fract_x
_atom_site_fract_y
_atom_site_fract_z
Si Si1 0.282947 0.968793 0.282604
Si Si2 0.205445 0.342670 0.295950
Si Si3 0.903569 0.005070 0.300668
Si Si4 0.594902 0.683284 0.783058
Si Si5 0.562455 0.947152 0.790320
Si Si6 0.093321 0.685000 0.792741
Si Si7 0.926271 0.883477 0.792983
Si Si8 0.207823 0.215952 0.714356
O O1 0.278769 0.968733 0.500000
O O2 0.322032 0.905896 0.221107
O O3 0.182759 0.968499 0.215221
O O4 0.340831 0.024164 0.227146
O O5 0.174569 0.343010 0.500000
O O6 0.311308 0.335699 0.291884
O O7 0.181244 0.280402 0.212814
O O8 0.914881 0.029185 0.500000
O O9 0.881702 0.935965 0.311401
O O10 0.000000 0.000000 0.215556
O O11 0.567291 0.749552 0.721300
O O12 0.523416 0.634553 0.734951
O O13 0.601326 0.685055 0.000000
O O14 0.563132 0.879271 0.718758
O O15 0.500000 0.000000 0.715040
O O16 0.541600 0.942418 0.000000
O O17 0.199160 0.691286 0.781527
O O18 0.067586 0.684653 0.000000
O O19 0.867990 0.826896 0.768178
O O20 0.928037 0.899257 0.000000
O O21 0.215895 0.219995 0.500000
#
# Coordination Sequence:
#
# PCOD9426754 Si02
#       8
#     8   8   8   8   8   8   8   8
#     4  10  21  37  57  81 110 144 181 222 270 322
#     4   9  19  36  56  78 104 135 174 219 267 319
#     4  10  21  37  58  83 113 150 187 224 270 327
#     4   9  19  34  53  77 104 137 174 215 263 315
#     4  10  22  38  56  79 106 141 184 226 269 319
#     4   9  18  36  57  75 101 135 174 220 268 316
#     4  11  22  34  51  79 112 142 176 218 265 319
#     4  10  20  34  54  79 105 135 174 219 267 321
#
# _framework density 24.635045000000002
#
# number of rings (size 3 to 8) (size 9 to 14) (size 15 to 20)
#    0.000    2.250    0.000    2.250    0.000    7.500 
#    0.000    1.250    0.000    0.000    0.000    0.000 
#    0.000    0.000    0.000    0.000    0.000    0.000 
#
# Total GULP energy -357208.143533 kJ/mol
# GULP energy per Si atom -5581.377243 kJ/mol
# Density = 2.457898 g / cm^3
# Si number density = 24.635045 Si / 1000 Ang^3
#
#
#
# Elastic Constant Matrix: (Units=GPa)
#
#
# Indices 1 2 3 4 5 6 
#
# 1 25.5117 -20.0522 -3.5325 0.0000 0.0000 0.0000
# 2 -20.0522 132.9636 16.1944 0.0000 0.0000 0.0000
# 3 -3.5325 16.1944 75.7769 0.0000 0.0000 0.0000
# 4 0.0000 0.0000 0.0000 39.0053 0.0000 0.0000
# 5 0.0000 0.0000 0.0000 0.0000 14.3218 0.0000
# 6 0.0000 0.0000 0.0000 0.0000 0.0000 37.3789
#
#
#
# Elastic Compliance Matrix: (Units=1/GPa)
#
#
# Indices 1 2 3 4 5 6 
#
# 1 0.044501 0.006631 0.000657 0.000000 0.000000 0.000000
# 2 0.006631 0.008710 -0.001552 0.000000 0.000000 0.000000
# 3 0.000657 -0.001552 0.013559 0.000000 0.000000 0.000000
# 4 0.000000 0.000000 0.000000 0.025638 0.000000 0.000000
# 5 0.000000 0.000000 0.000000 0.000000 0.069823 0.000000
# 6 0.000000 0.000000 0.000000 0.000000 0.000000 0.026753
#
#
# Mechanical properties :
#
#
# Convention : Reuss Voigt Hill
#
# Bulk Modulus (GPa) = 12.78086 24.38576 18.58331
# Shear Modulus (GPa) = 24.55890 34.25071 29.40480
#
# Velocity S-wave (km/s) = 3.16081 3.73275 3.45862
# Velocity P-wave (km/s) = 4.30352 5.33837 4.84863
#
# Compressibility (1/GPa) = 0.07824197
#
# Stress axis : x y z
#
# Youngs Moduli (GPa) = 22.47152 114.81126 73.75166
#
# Poissons Ratio (x) = -0.76132 -0.04848
# Poissons Ratio (y) = -0.14901 0.11448
# Poissons Ratio (z) = -0.01477 0.17822
#
# Static dielectric constant tensor:
#      x y z
#    x 1.957640 0.000000 0.000000 
#    y 0.000000 2.018600 0.000000 
#    z 0.000000 0.000000 1.964590 
# 
# From -- ./inp_files/8029.got.cif
#   From: 2010.05.17/outbox.cif.g08.bks.cpg/sg55_5_cif.got.tgz:8029.got - 2010.06.03 13:27:54.
