data_PCOD9426287
_publ_section_title
;
Structure prediction by ZEFSAII (Michael W. Deem and Ramdas Pophale) SiO2 
 PCOD9426287
Probable space group: P B A M
;
_chemical_formula_sum "Si O2"
_cell_formula_units_Z 48
_cell_length_a 37.405343
_cell_length_b 9.386217
_cell_length_c 7.452968
_cell_angle_alpha 90.000000
_cell_angle_beta 90.000000
_cell_angle_gamma 90.000000
_cell_volume 2616.697313
_symmetry_space_group_name_H-M "P B A M"
_symmetry_group_IT_number 55
_symmetry_cell_setting 'orthorhombic'
loop_
_space_group_symop_operation_xyz
x,y,z
-x,-y,z
1/2+x,1/2-y,-z
1/2-x,1/2+y,-z
-x,-y,-z
x,y,-z
1/2-x,1/2+y,z
1/2+x,1/2-y,z
loop_
_atom_site_type_symbol
_atom_site_label
_atom_site_fract_x
_atom_site_fract_y
_atom_site_fract_z
Si Si1 0.166251 0.990084 0.000000
Si Si2 0.976216 0.638997 0.702956
Si Si3 0.788547 0.508353 0.286556
Si Si4 0.713697 0.670359 0.286508
Si Si5 0.420650 0.821469 0.000000
Si Si6 0.528944 0.625389 0.295407
Si Si7 0.418199 0.480628 0.000000
Si Si8 0.836234 0.666221 0.000000
O O1 0.184788 0.915390 0.829145
O O2 0.124083 0.958466 0.000000
O O3 0.171085 0.162540 0.000000
O O4 0.966260 0.685902 0.500000
O O5 0.000000 0.500000 0.690304
O O6 0.004566 0.749806 0.782427
O O7 0.941790 0.623377 0.826108
O O8 0.795603 0.517647 0.500000
O O9 0.751553 0.592591 0.250921
O O10 0.785312 0.339549 0.240965
O O11 0.818404 0.588507 0.170665
O O12 0.706787 0.659470 0.500000
O O13 0.424364 0.650238 0.000000
O O14 0.378855 0.855000 0.000000
O O15 0.500000 0.500000 0.302660
O O16 0.539936 0.660500 0.500000
O O17 0.562050 0.584265 0.172796
#
# Coordination Sequence:
#
# PCOD9426287 Si02
#       8
#     4   8   8   8   4   8   4   4
#     4  11  24  38  56  86 125 159 189 235 290 346
#     4  10  21  38  58  83 110 142 189 239 286 336
#     4  10  21  40  65  89 115 151 196 240 284 338
#     4  10  21  40  65  89 116 152 194 240 285 338
#     4  11  22  37  57  81 113 154 188 228 283 339
#     4  10  19  35  61  83 105 143 191 240 283 328
#     4  11  22  36  56  83 115 148 190 234 278 337
#     4  11  24  38  57  87 121 159 195 233 287 346
#
# _framework density 18.343734999999999
#
# number of rings (size 3 to 8) (size 9 to 14) (size 15 to 20)
#    0.000    1.667    1.667    3.000    0.000    3.333 
#    6.000    3.333    0.000    0.000    0.000    0.000 
#    0.000    0.000    0.000    0.000    0.000    0.000 
#
# Total GULP energy -267858.852342 kJ/mol
# GULP energy per Si atom -5580.392757 kJ/mol
# Density = 1.830198 g / cm^3
# Si number density = 18.343735 Si / 1000 Ang^3
#
#
#
# Elastic Constant Matrix: (Units=GPa)
#
#
# Indices 1 2 3 4 5 6 
#
# 1 153.7358 65.8541 82.7896 0.0000 0.0000 0.0000
# 2 65.8541 116.3748 40.1183 0.0000 0.0000 0.0000
# 3 82.7896 40.1183 111.2504 0.0000 0.0000 0.0000
# 4 0.0000 0.0000 0.0000 54.5769 0.0000 0.0000
# 5 0.0000 0.0000 0.0000 0.0000 221.9822 0.0000
# 6 0.0000 0.0000 0.0000 0.0000 0.0000 29.7561
#
#
#
# Elastic Compliance Matrix: (Units=1/GPa)
#
#
# Indices 1 2 3 4 5 6 
#
# 1 0.012593 -0.004449 -0.007767 0.000000 0.000000 0.000000
# 2 -0.004449 0.011384 -0.000795 0.000000 0.000000 0.000000
# 3 -0.007767 -0.000795 0.015055 0.000000 0.000000 0.000000
# 4 0.000000 0.000000 0.000000 0.018323 0.000000 0.000000
# 5 0.000000 0.000000 0.000000 0.000000 0.004505 0.000000
# 6 0.000000 0.000000 0.000000 0.000000 0.000000 0.033607
#
#
# Mechanical properties :
#
#
# Convention : Reuss Voigt Hill
#
# Bulk Modulus (GPa) = 76.85407 84.32054 80.58731
# Shear Modulus (GPa) = 39.73766 74.10297 56.92031
#
# Velocity S-wave (km/s) = 4.65938 6.36275 5.57649
# Velocity P-wave (km/s) = 8.42223 10.00231 9.24609
#
# Compressibility (1/GPa) = 0.01301167
#
# Stress axis : x y z
#
# Youngs Moduli (GPa) = 79.40927 87.84067 66.42100
#
# Poissons Ratio (x) = 0.39076 0.51590
# Poissons Ratio (y) = 0.35325 0.05279
# Poissons Ratio (z) = 0.61679 0.06982
#
# Static dielectric constant tensor:
#      x y z
#    x 1.578860 0.000000 0.000000 
#    y 0.000000 1.600770 0.000000 
#    z 0.000000 0.000000 1.654460 
# 
# From -- ./inp_files/10598.got.cif
#   From: 2010.05.17/outbox.cif.g08.bks.cpg/sg55_6_cif.got.tgz:10598.got - 2010.06.03 13:27:54.
