data_PCOD9426501
_publ_section_title
;
Structure prediction by ZEFSAII (Michael W. Deem and Ramdas Pophale) SiO2 
 PCOD9426501
Probable space group: P B A M
;
_chemical_formula_sum "Si O2"
_cell_formula_units_Z 28
_cell_length_a 10.785267
_cell_length_b 9.221604
_cell_length_c 9.662879
_cell_angle_alpha 90.000000
_cell_angle_beta 90.000000
_cell_angle_gamma 90.000000
_cell_volume 961.045414
_symmetry_space_group_name_H-M "P B A M"
_symmetry_group_IT_number 55
_symmetry_cell_setting 'orthorhombic'
loop_
_space_group_symop_operation_xyz
x,y,z
-x,-y,z
1/2+x,1/2-y,-z
1/2-x,1/2+y,-z
-x,-y,-z
x,y,-z
1/2-x,1/2+y,z
1/2+x,1/2-y,z
loop_
_atom_site_type_symbol
_atom_site_label
_atom_site_fract_x
_atom_site_fract_y
_atom_site_fract_z
Si Si1 0.424125 0.816684 0.500000
Si Si2 0.715389 0.481419 0.500000
Si Si3 0.135784 0.931551 0.199559
Si Si4 0.293156 0.667918 0.000000
Si Si5 0.994337 0.669695 0.188550
O O1 0.321885 0.686316 0.500000
O O2 0.358005 0.973224 0.500000
O O3 0.489247 0.801729 0.647165
O O4 0.663199 0.553475 0.639226
O O5 0.113661 0.767967 0.141798
O O6 0.225299 0.036272 0.117904
O O7 0.000000 0.000000 0.172799
O O8 0.371555 0.765558 0.880693
O O9 0.000000 0.500000 0.162456
#
# Coordination Sequence:
#
# PCOD9426501 Si02
#       5
#     4   4   8   4   8
#     4  12  26  40  60  89 127 161 203 247 299 358
#     4  12  24  41  62  85 123 162 205 247 295 358
#     4  10  19  39  68  86 114 162 202 243 304 358
#     4  10  20  38  67  92 115 158 201 253 303 357
#     4  11  22  38  63  96 123 150 202 258 300 350
#
# _framework density 29.134937999999998
#
# number of rings (size 3 to 8) (size 9 to 14) (size 15 to 20)
#    0.000    1.143    5.714    6.000    4.000    0.000 
#    0.000    1.429    0.000    0.000    0.000    0.000 
#    0.000    0.000    0.000    0.000    0.000    0.000 
#
# Total GULP energy -156111.273989 kJ/mol
# GULP energy per Si atom -5575.402642 kJ/mol
# Density = 2.906863 g / cm^3
# Si number density = 29.134938 Si / 1000 Ang^3
#
#
#
# Elastic Constant Matrix: (Units=GPa)
#
#
# Indices 1 2 3 4 5 6 
#
# 1 74.3612 17.3612 -33.4149 0.0000 0.0000 0.0000
# 2 17.3612 218.9791 44.2395 0.0000 0.0000 0.0000
# 3 -33.4149 44.2395 235.3798 0.0000 0.0000 0.0000
# 4 0.0000 0.0000 0.0000 83.6989 0.0000 0.0000
# 5 0.0000 0.0000 0.0000 0.0000 293.9258 0.0000
# 6 0.0000 0.0000 0.0000 0.0000 0.0000 71.7700
#
#
#
# Elastic Compliance Matrix: (Units=1/GPa)
#
#
# Indices 1 2 3 4 5 6 
#
# 1 0.014933 -0.001676 0.002435 0.000000 0.000000 0.000000
# 2 -0.001676 0.004935 -0.001165 0.000000 0.000000 0.000000
# 3 0.002435 -0.001165 0.004813 0.000000 0.000000 0.000000
# 4 0.000000 0.000000 0.000000 0.011948 0.000000 0.000000
# 5 0.000000 0.000000 0.000000 0.000000 0.003402 0.000000
# 6 0.000000 0.000000 0.000000 0.000000 0.000000 0.013933
#
#
# Mechanical properties :
#
#
# Convention : Reuss Voigt Hill
#
# Bulk Modulus (GPa) = 41.89590 65.01020 53.45305
# Shear Modulus (GPa) = 79.70211 123.24790 101.47500
#
# Velocity S-wave (km/s) = 5.23599 6.51109 5.90804
# Velocity P-wave (km/s) = 7.13900 8.88187 8.05770
#
# Compressibility (1/GPa) = 0.02386868
#
# Stress axis : x y z
#
# Youngs Moduli (GPa) = 66.96445 202.63584 207.76365
#
# Poissons Ratio (x) = 0.33959 -0.50589
# Poissons Ratio (y) = 0.11222 0.24213
# Poissons Ratio (z) = -0.16305 0.23616
#
# Static dielectric constant tensor:
#      x y z
#    x 2.479040 0.000000 0.000000 
#    y 0.000000 2.337840 0.000000 
#    z 0.000000 0.000000 2.087400 
# 
# From -- ./inp_files/8294.got.cif
#   From: 2010.05.17/outbox.cif.g08.bks.cpg/sg55_5_cif.got.tgz:8294.got - 2010.06.03 13:27:54.
