data_PCOD9426979
_publ_section_title
;
Structure prediction by ZEFSAII (Michael W. Deem and Ramdas Pophale) SiO2 
 PCOD9426979
Probable space group: P B A M
;
_chemical_formula_sum "Si O2"
_cell_formula_units_Z 34
_cell_length_a 5.449648
_cell_length_b 13.984081
_cell_length_c 17.679225
_cell_angle_alpha 90.000000
_cell_angle_beta 90.000000
_cell_angle_gamma 90.000000
_cell_volume 1347.304019
_symmetry_space_group_name_H-M "P B A M"
_symmetry_group_IT_number 55
_symmetry_cell_setting 'orthorhombic'
loop_
_space_group_symop_operation_xyz
x,y,z
-x,-y,z
1/2+x,1/2-y,-z
1/2-x,1/2+y,-z
-x,-y,-z
x,y,-z
1/2-x,1/2+y,z
1/2+x,1/2-y,z
loop_
_atom_site_type_symbol
_atom_site_label
_atom_site_fract_x
_atom_site_fract_y
_atom_site_fract_z
Si Si1 0.360993 0.088718 0.872790
Si Si2 0.361070 0.867610 0.664736
Si Si3 0.377056 0.801652 0.000000
Si Si4 0.268394 0.812972 0.500000
Si Si5 0.860803 0.852199 0.722968
Si Si6 0.500000 0.500000 0.000000
O O1 0.227729 0.151036 0.809692
O O2 0.500000 0.000000 0.835219
O O3 0.171840 0.049434 0.934066
O O4 0.564359 0.141823 0.923572
O O5 0.127107 0.899254 0.713839
O O6 0.387947 0.754394 0.688479
O O7 0.288106 0.871952 0.577269
O O8 0.636757 0.903133 0.679012
O O9 0.092838 0.776391 0.000000
O O10 0.509456 0.743812 0.500000
#
# Coordination Sequence:
#
# PCOD9426979 Si02
#       6
#     8   8   4   4   8   2
#     4  11  27  45  68  90 137 178 222 271 340 411
#     4  10  20  35  56  98 129 166 218 271 327 383
#     4  11  28  43  68  98 122 167 216 275 337 389
#     4  12  16  32  54  90 140 179 199 270 340 396
#     4  10  21  35  59  87 127 163 213 270 317 375
#     4  10  24  48  64  86 116 176 224 256 326 420
#
# _framework density 25.235582999999998
#
# number of rings (size 3 to 8) (size 9 to 14) (size 15 to 20)
#    0.000    1.412    4.706    1.412   16.471    0.000 
#    0.000    0.000    0.000    0.000    0.000    9.059 
#    0.000    0.000    0.000    0.000    0.000    0.000 
#
# Total GULP energy -189774.484790 kJ/mol
# GULP energy per Si atom -5581.602494 kJ/mol
# Density = 2.517815 g / cm^3
# Si number density = 25.235583 Si / 1000 Ang^3
#
#
#
# Elastic Constant Matrix: (Units=GPa)
#
#
# Indices 1 2 3 4 5 6 
#
# 1 160.5886 34.2436 -7.1891 0.0000 0.0000 0.0000
# 2 34.2436 37.9761 11.7215 0.0000 0.0000 0.0000
# 3 -7.1891 11.7215 137.4755 0.0000 0.0000 0.0000
# 4 0.0000 0.0000 0.0000 -8.8695 0.0000 0.0000
# 5 0.0000 0.0000 0.0000 0.0000 159.6149 0.0000
# 6 0.0000 0.0000 0.0000 0.0000 0.0000 47.1098
#
#
#
# Elastic Compliance Matrix: (Units=1/GPa)
#
#
# Indices 1 2 3 4 5 6 
#
# 1 0.007852 -0.007402 0.001042 0.000000 0.000000 0.000000
# 2 -0.007402 0.034022 -0.003288 0.000000 0.000000 0.000000
# 3 0.001042 -0.003288 0.007609 0.000000 0.000000 0.000000
# 4 0.000000 0.000000 0.000000 -0.112746 0.000000 0.000000
# 5 0.000000 0.000000 0.000000 0.000000 0.006265 0.000000
# 6 0.000000 0.000000 0.000000 0.000000 0.000000 0.021227
#
#
# Mechanical properties :
#
#
# Convention : Reuss Voigt Hill
#
# Bulk Modulus (GPa) = 33.12739 45.95468 39.54104
# Shear Modulus (GPa) = -779.60985 59.38865 -360.11060
#
# Velocity S-wave (km/s) = -17.59555 4.85642 -11.95865
# Velocity P-wave (km/s) = 19.99122 7.04955 13.22786
#
# Compressibility (1/GPa) = 0.03018650
#
# Stress axis : x y z
#
# Youngs Moduli (GPa) = 127.35469 29.39313 131.42637
#
# Poissons Ratio (x) = 0.21756 -0.13691
# Poissons Ratio (y) = 0.94266 0.43211
# Poissons Ratio (z) = -0.13267 0.09664
#
# Static dielectric constant tensor:
#      x y z
#    x 2.017450 0.000000 0.000000 
#    y 0.000000 2.307150 0.000000 
#    z 0.000000 0.000000 1.892580 
# 
# From -- ./inp_files/20323.got.cif
#   From: 2010.05.17/outbox.cif.g08.bks.cpg/sg55_11_cif.got.tgz:20323.got - 2010.06.03 13:27:54.
