data_PCOD9426162
_publ_section_title
;
Structure prediction by ZEFSAII (Michael W. Deem and Ramdas Pophale) SiO2 
 PCOD9426162
Probable space group: P B A M
;
_chemical_formula_sum "Si O2"
_cell_formula_units_Z 64
_cell_length_a 27.954176
_cell_length_b 11.281534
_cell_length_c 9.461471
_cell_angle_alpha 90.000000
_cell_angle_beta 90.000000
_cell_angle_gamma 90.000000
_cell_volume 2983.826140
_symmetry_space_group_name_H-M "P B A M"
_symmetry_group_IT_number 55
_symmetry_cell_setting 'orthorhombic'
loop_
_space_group_symop_operation_xyz
x,y,z
-x,-y,z
1/2+x,1/2-y,-z
1/2-x,1/2+y,-z
-x,-y,-z
x,y,-z
1/2-x,1/2+y,z
1/2+x,1/2-y,z
loop_
_atom_site_type_symbol
_atom_site_label
_atom_site_fract_x
_atom_site_fract_y
_atom_site_fract_z
Si Si1 0.444677 0.889061 0.159642
Si Si2 0.484145 0.689613 0.660681
Si Si3 0.620120 0.436447 0.661031
Si Si4 0.112621 0.614526 0.839178
Si Si5 0.571693 0.623315 0.840373
Si Si6 0.209434 0.655732 0.668660
Si Si7 0.236277 0.398223 0.669588
Si Si8 0.158410 0.266623 0.159641
O O1 0.476587 0.818434 0.270171
O O2 0.395541 0.814469 0.150026
O O3 0.426370 0.017356 0.206591
O O4 0.465497 0.891941 0.000000
O O5 0.502107 0.694356 0.500000
O O6 0.432408 0.626106 0.657600
O O7 0.521670 0.621899 0.758461
O O8 0.635478 0.458346 0.500000
O O9 0.611065 0.553083 0.751234
O O10 0.655128 0.349343 0.743752
O O11 0.087620 0.741120 0.845774
O O12 0.159394 0.627680 0.744280
O O13 0.126734 0.578933 0.000000
O O14 0.567767 0.575516 0.000000
O O15 0.202659 0.657968 0.500000
O O16 0.243280 0.539385 0.698004
O O17 0.228293 0.788049 0.708392
O O18 0.228862 0.387855 0.500000
O O19 0.189493 0.362330 0.757764
O O20 0.175886 0.245157 0.000000
#
# Coordination Sequence:
#
# PCOD9426162 Si02
#       8
#     8   8   8   8   8   8   8   8
#     4   9  18  35  58  81 110 147 189 235 285 340
#     4  10  21  36  56  83 113 149 195 243 292 345
#     4  10  21  37  57  82 116 154 193 241 291 346
#     4  10  22  40  59  82 114 151 192 240 293 348
#     4  11  23  37  55  81 116 154 194 242 296 350
#     4  10  22  39  61  87 119 157 199 242 296 357
#     4  10  21  38  59  87 120 155 194 242 293 351
#     4  10  19  34  60  88 111 146 193 234 282 343
#
# _framework density 21.448972000000001
#
# number of rings (size 3 to 8) (size 9 to 14) (size 15 to 20)
#    0.000    2.000    1.250    1.875    0.000    7.000 
#    0.000    3.750    0.000    0.000    0.000    0.000 
#    0.000    0.000    0.000    0.000    0.000    0.000 
#
# Total GULP energy -357289.138763 kJ/mol
# GULP energy per Si atom -5582.642793 kJ/mol
# Density = 2.140015 g / cm^3
# Si number density = 21.448972 Si / 1000 Ang^3
#
#
#
# Elastic Constant Matrix: (Units=GPa)
#
#
# Indices 1 2 3 4 5 6 
#
# 1 27.8992 22.9405 21.6441 0.0000 0.0000 0.0000
# 2 22.9405 95.3408 39.6187 0.0000 0.0000 0.0000
# 3 21.6441 39.6187 87.7940 0.0000 0.0000 0.0000
# 4 0.0000 0.0000 0.0000 20.9867 0.0000 0.0000
# 5 0.0000 0.0000 0.0000 0.0000 6.3877 0.0000
# 6 0.0000 0.0000 0.0000 0.0000 0.0000 33.4433
#
#
#
# Elastic Compliance Matrix: (Units=1/GPa)
#
#
# Indices 1 2 3 4 5 6 
#
# 1 0.049205 -0.008368 -0.008355 0.000000 0.000000 0.000000
# 2 -0.008368 0.014333 -0.004405 0.000000 0.000000 0.000000
# 3 -0.008355 -0.004405 0.015438 0.000000 0.000000 0.000000
# 4 0.000000 0.000000 0.000000 0.047649 0.000000 0.000000
# 5 0.000000 0.000000 0.000000 0.000000 0.156551 0.000000
# 6 0.000000 0.000000 0.000000 0.000000 0.000000 0.029901
#
#
# Mechanical properties :
#
#
# Convention : Reuss Voigt Hill
#
# Bulk Modulus (GPa) = 27.23237 42.16006 34.69621
# Shear Modulus (GPa) = 13.60276 20.61892 17.11084
#
# Velocity S-wave (km/s) = 2.52105 3.10385 2.82750
# Velocity P-wave (km/s) = 4.60415 5.70472 5.18372
#
# Compressibility (1/GPa) = 0.03672101
#
# Stress axis : x y z
#
# Youngs Moduli (GPa) = 20.32303 69.77114 64.77621
#
# Poissons Ratio (x) = 0.58383 0.54118
# Poissons Ratio (y) = 0.17006 0.28533
# Poissons Ratio (z) = 0.16979 0.30733
#
# Static dielectric constant tensor:
#      x y z
#    x 1.796320 0.000000 0.000000 
#    y 0.000000 1.821820 0.000000 
#    z 0.000000 0.000000 1.749270 
# 
# From -- ./inp_files/10783.got.cif
#   From: 2010.05.17/outbox.cif.g08.bks.cpg/sg55_6_cif.got.tgz:10783.got - 2010.06.03 13:27:54.
