data_PCOD9426965
_publ_section_title
;
Structure prediction by ZEFSAII (Michael W. Deem and Ramdas Pophale) SiO2 
 PCOD9426965
Probable space group: P B A M
;
_chemical_formula_sum "Si O2"
_cell_formula_units_Z 64
_cell_length_a 12.493857
_cell_length_b 28.636109
_cell_length_c 9.046128
_cell_angle_alpha 90.000000
_cell_angle_beta 90.000000
_cell_angle_gamma 90.000000
_cell_volume 3236.482524
_symmetry_space_group_name_H-M "P B A M"
_symmetry_group_IT_number 55
_symmetry_cell_setting 'orthorhombic'
loop_
_space_group_symop_operation_xyz
x,y,z
-x,-y,z
1/2+x,1/2-y,-z
1/2-x,1/2+y,-z
-x,-y,-z
x,y,-z
1/2-x,1/2+y,z
1/2+x,1/2-y,z
loop_
_atom_site_type_symbol
_atom_site_label
_atom_site_fract_x
_atom_site_fract_y
_atom_site_fract_z
Si Si1 0.454509 0.785513 0.675309
Si Si2 0.873791 0.818802 0.326381
Si Si3 0.840465 0.618084 0.676905
Si Si4 0.638431 0.563738 0.327019
Si Si5 0.848487 0.327533 0.169143
Si Si6 0.962022 0.428847 0.170282
Si Si7 0.264076 0.033495 0.673010
Si Si8 0.073275 0.089570 0.824718
O O1 0.480780 0.789609 0.500000
O O2 0.407763 0.734423 0.701080
O O3 0.374333 0.828595 0.709389
O O4 0.558956 0.793707 0.773040
O O5 0.886887 0.828727 0.500000
O O6 0.751581 0.824079 0.276475
O O7 0.937152 0.857474 0.233458
O O8 0.848389 0.611225 0.500000
O O9 0.719563 0.605005 0.718710
O O10 0.925862 0.583530 0.752787
O O11 0.608174 0.569333 0.500000
O O12 0.709123 0.517046 0.314916
O O13 0.531410 0.562477 0.231838
O O14 0.898698 0.379301 0.173840
O O15 0.816625 0.317836 0.000000
O O16 0.881081 0.463448 0.253575
O O17 0.977427 0.442373 0.000000
O O18 0.273338 0.045764 0.500000
O O19 0.180096 0.068018 0.752227
O O20 0.083310 0.087946 0.000000
#
# Coordination Sequence:
#
# PCOD9426965 Si02
#       8
#     8   8   8   8   8   8   8   8
#     4   9  20  37  59  86 113 150 196 238 289 350
#     4  11  22  37  60  87 115 152 200 248 292 352
#     4   9  19  39  62  84 117 156 197 244 294 353
#     4  10  23  41  61  87 120 159 200 245 299 358
#     4  10  20  35  56  83 116 151 188 239 297 347
#     4  10  20  35  58  87 119 152 194 244 292 347
#     4  11  22  38  62  88 116 156 202 247 297 355
#     4  12  25  40  59  86 119 155 198 249 307 362
#
# _framework density 19.774554999999999
#
# number of rings (size 3 to 8) (size 9 to 14) (size 15 to 20)
#    0.000    1.750    1.250    3.000    0.000    6.500 
#    0.000    5.000    0.000    0.000    0.000    0.000 
#    0.000    0.000    0.000    0.000    0.000    0.000 
#
# Total GULP energy -357640.296524 kJ/mol
# GULP energy per Si atom -5588.129633 kJ/mol
# Density = 1.972955 g / cm^3
# Si number density = 19.774555 Si / 1000 Ang^3
#
#
#
# Elastic Constant Matrix: (Units=GPa)
#
#
# Indices 1 2 3 4 5 6 
#
# 1 44.0926 -1.3738 13.5462 0.0000 0.0000 0.0000
# 2 -1.3738 55.0339 22.5724 0.0000 0.0000 0.0000
# 3 13.5462 22.5724 66.0774 0.0000 0.0000 0.0000
# 4 0.0000 0.0000 0.0000 3.8656 0.0000 0.0000
# 5 0.0000 0.0000 0.0000 0.0000 422.8092 0.0000
# 6 0.0000 0.0000 0.0000 0.0000 0.0000 24.8174
#
#
#
# Elastic Compliance Matrix: (Units=1/GPa)
#
#
# Indices 1 2 3 4 5 6 
#
# 1 0.024658 0.003127 -0.006123 0.000000 0.000000 0.000000
# 2 0.003127 0.021528 -0.007995 0.000000 0.000000 0.000000
# 3 -0.006123 -0.007995 0.019120 0.000000 0.000000 0.000000
# 4 0.000000 0.000000 0.000000 0.258695 0.000000 0.000000
# 5 0.000000 0.000000 0.000000 0.000000 0.002365 0.000000
# 6 0.000000 0.000000 0.000000 0.000000 0.000000 0.040294
#
#
# Mechanical properties :
#
#
# Convention : Reuss Voigt Hill
#
# Bulk Modulus (GPa) = 23.08210 26.07705 24.57957
# Shear Modulus (GPa) = 12.40435 98.99572 55.70004
#
# Velocity S-wave (km/s) = 2.50729 7.08314 5.31307
# Velocity P-wave (km/s) = 4.48107 8.95043 7.07779
#
# Compressibility (1/GPa) = 0.04332362
#
# Stress axis : x y z
#
# Youngs Moduli (GPa) = 40.55451 46.45142 52.30066
#
# Poissons Ratio (x) = -0.14525 0.32025
# Poissons Ratio (y) = -0.12681 0.41815
# Poissons Ratio (z) = 0.24833 0.37138
#
# Static dielectric constant tensor:
#      x y z
#    x 1.675710 0.000000 0.000000 
#    y 0.000000 1.719930 0.000000 
#    z 0.000000 0.000000 1.667300 
# 
# From -- ./inp_files/4509.got.cif
#   From: 2010.05.17/outbox.cif.g08.bks.cpg/sg55_3_cif.got.tgz:4509.got - 2010.06.03 13:27:54.
