data_PCOD9426068
_publ_section_title
;
Structure prediction by ZEFSAII (Michael W. Deem and Ramdas Pophale) SiO2 
 PCOD9426068
Probable space group: P B A M
;
_chemical_formula_sum "Si O2"
_cell_formula_units_Z 64
_cell_length_a 24.770854
_cell_length_b 14.520285
_cell_length_c 7.440490
_cell_angle_alpha 90.000000
_cell_angle_beta 90.000000
_cell_angle_gamma 90.000000
_cell_volume 2676.194400
_symmetry_space_group_name_H-M "P B A M"
_symmetry_group_IT_number 55
_symmetry_cell_setting 'orthorhombic'
loop_
_space_group_symop_operation_xyz
x,y,z
-x,-y,z
1/2+x,1/2-y,-z
1/2-x,1/2+y,-z
-x,-y,-z
x,y,-z
1/2-x,1/2+y,z
1/2+x,1/2-y,z
loop_
_atom_site_type_symbol
_atom_site_label
_atom_site_fract_x
_atom_site_fract_y
_atom_site_fract_z
Si Si1 0.997818 0.396658 0.711688
Si Si2 0.129725 0.065827 0.717522
Si Si3 0.540101 0.572570 0.794146
Si Si4 0.096192 0.270163 0.719962
Si Si5 0.245901 0.579645 0.281084
Si Si6 0.706365 0.718056 0.793911
Si Si7 0.807095 0.600188 0.295574
Si Si8 0.586663 0.753820 0.217519
O O1 0.009596 0.404248 0.500000
O O2 0.042929 0.324956 0.781875
O O3 0.000000 0.500000 0.786944
O O4 0.939201 0.350776 0.733015
O O5 0.127058 0.061794 0.500000
O O6 0.103793 0.163792 0.775851
O O7 0.192224 0.061214 0.769790
O O8 0.097037 0.979610 0.792012
O O9 0.500000 0.500000 0.705390
O O10 0.547173 0.673065 0.714388
O O11 0.521816 0.586202 0.000000
O O12 0.096525 0.266517 0.500000
O O13 0.147933 0.330989 0.780309
O O14 0.244201 0.581325 0.500000
O O15 0.229854 0.679289 0.213207
O O16 0.205762 0.499583 0.215567
O O17 0.749559 0.652091 0.701800
O O18 0.646330 0.728899 0.717013
O O19 0.702625 0.686519 0.000000
O O20 0.825097 0.583216 0.500000
O O21 0.588715 0.750094 0.000000
#
# Coordination Sequence:
#
# PCOD9426068 Si02
#       8
#     8   8   8   8   8   8   8   8
#     4  10  22  38  60  88 113 148 200 247 288 338
#     4  10  19  34  56  84 115 144 182 232 289 345
#     4  10  21  37  58  83 112 148 191 234 281 341
#     4   9  18  35  56  82 117 146 180 242 295 334
#     4  10  21  36  59  86 112 151 195 238 292 351
#     4  11  23  38  57  84 121 157 192 238 290 350
#     4  10  20  37  61  85 115 152 192 242 295 347
#     4  10  23  41  57  80 118 157 190 236 291 343
#
# _framework density 23.914555
#
# number of rings (size 3 to 8) (size 9 to 14) (size 15 to 20)
#    0.000    2.000    1.250    1.875    1.750    3.000 
#    0.000    0.625    0.000    0.000    0.000    0.000 
#    0.000    0.000    0.000    0.000    0.000    0.000 
#
# Total GULP energy -357815.195909 kJ/mol
# GULP energy per Si atom -5590.862436 kJ/mol
# Density = 2.386012 g / cm^3
# Si number density = 23.914555 Si / 1000 Ang^3
#
#
#
# Elastic Constant Matrix: (Units=GPa)
#
#
# Indices 1 2 3 4 5 6 
#
# 1 69.8685 -9.8533 -6.9970 0.0000 0.0000 0.0000
# 2 -9.8533 66.4812 -3.9564 0.0000 0.0000 0.0000
# 3 -6.9970 -3.9564 76.6180 0.0000 0.0000 0.0000
# 4 0.0000 0.0000 0.0000 -11.4102 0.0000 0.0000
# 5 0.0000 0.0000 0.0000 0.0000 15.3625 0.0000
# 6 0.0000 0.0000 0.0000 0.0000 0.0000 39.8732
#
#
#
# Elastic Compliance Matrix: (Units=1/GPa)
#
#
# Indices 1 2 3 4 5 6 
#
# 1 0.014781 0.002278 0.001467 0.000000 0.000000 0.000000
# 2 0.002278 0.015439 0.001005 0.000000 0.000000 0.000000
# 3 0.001467 0.001005 0.013238 0.000000 0.000000 0.000000
# 4 0.000000 0.000000 0.000000 -0.087641 0.000000 0.000000
# 5 0.000000 0.000000 0.000000 0.000000 0.065093 0.000000
# 6 0.000000 0.000000 0.000000 0.000000 0.000000 0.025079
#
#
# Mechanical properties :
#
#
# Convention : Reuss Voigt Hill
#
# Bulk Modulus (GPa) = 18.88240 19.03937 18.96089
# Shear Modulus (GPa) = 92.35094 24.35007 58.35051
#
# Velocity S-wave (km/s) = 6.22100 3.19440 4.94495
# Velocity P-wave (km/s) = 7.71454 4.64589 6.36783
#
# Compressibility (1/GPa) = 0.05295936
#
# Stress axis : x y z
#
# Youngs Moduli (GPa) = 67.65523 64.76978 75.54186
#
# Poissons Ratio (x) = -0.14755 -0.11085
# Poissons Ratio (y) = -0.15412 -0.07594
# Poissons Ratio (z) = -0.09928 -0.06511
#
# Static dielectric constant tensor:
#      x y z
#    x 2.429980 0.000000 0.000000 
#    y 0.000000 1.873730 0.000000 
#    z 0.000000 0.000000 1.887730 
# 
# From -- ./inp_files/9767.got.cif
#   From: 2010.05.17/outbox.cif.g08.bks.cpg/sg55_5_cif.got.tgz:9767.got - 2010.06.03 13:27:54.
