data_PCOD9426391
_publ_section_title
;
Structure prediction by ZEFSAII (Michael W. Deem and Ramdas Pophale) SiO2 
 PCOD9426391
Probable space group: P B A M
;
_chemical_formula_sum "Si O2"
_cell_formula_units_Z 64
_cell_length_a 14.508812
_cell_length_b 25.471427
_cell_length_c 8.011692
_cell_angle_alpha 90.000000
_cell_angle_beta 90.000000
_cell_angle_gamma 90.000000
_cell_volume 2960.802063
_symmetry_space_group_name_H-M "P B A M"
_symmetry_group_IT_number 55
_symmetry_cell_setting 'orthorhombic'
loop_
_space_group_symop_operation_xyz
x,y,z
-x,-y,z
1/2+x,1/2-y,-z
1/2-x,1/2+y,-z
-x,-y,-z
x,y,-z
1/2-x,1/2+y,z
1/2+x,1/2-y,z
loop_
_atom_site_type_symbol
_atom_site_label
_atom_site_fract_x
_atom_site_fract_y
_atom_site_fract_z
Si Si1 0.184181 0.200576 0.200932
Si Si2 0.530418 0.941849 0.201073
Si Si3 0.199192 0.978987 0.193180
Si Si4 0.764618 0.410524 0.795946
Si Si5 0.781455 0.193593 0.800150
Si Si6 0.344135 0.903918 0.305573
Si Si7 0.509848 0.670109 0.300119
Si Si8 0.980290 0.056553 0.308572
O O1 0.225449 0.145068 0.262988
O O2 0.242444 0.250464 0.259755
O O3 0.076945 0.204842 0.248780
O O4 0.189913 0.199426 0.000000
O O5 0.631023 0.923023 0.258980
O O6 0.450297 0.901530 0.252321
O O7 0.500000 0.000000 0.262245
O O8 0.534283 0.944273 0.000000
O O9 0.298778 0.952528 0.206660
O O10 0.203571 0.038957 0.253046
O O11 0.130674 0.943786 0.301284
O O12 0.170859 0.976795 0.000000
O O13 0.764250 0.410496 0.000000
O O14 0.716608 0.147340 0.731270
O O15 0.889049 0.187126 0.757020
O O16 0.773670 0.191040 0.000000
O O17 0.339204 0.916042 0.500000
O O18 0.512644 0.666114 0.500000
O O19 0.489392 0.611178 0.230424
O O20 0.012897 0.054489 0.500000
O O21 0.000000 0.000000 0.227638
#
# Coordination Sequence:
#
# PCOD9426391 Si02
#       8
#     8   8   8   8   8   8   8   8
#     4  10  23  43  66  92 122 160 208 258 305 362
#     4  10  19  36  61  89 125 166 206 250 306 373
#     4  11  20  34  59  88 118 158 204 251 304 364
#     4   9  19  37  61  90 123 159 204 257 309 362
#     4  11  24  43  67  91 119 163 217 264 307 360
#     4  12  24  38  58  88 124 160 204 257 314 371
#     4  11  23  40  64  93 127 164 200 251 313 369
#     4  10  21  36  55  86 127 166 200 244 306 369
#
# _framework density 21.615766000000001
#
# number of rings (size 3 to 8) (size 9 to 14) (size 15 to 20)
#    0.000    1.500    2.500    3.000    0.000    3.000 
#    0.000    3.750    0.000    0.000    0.000    0.000 
#    0.000    0.000    0.000    0.000    0.000    0.000 
#
# Total GULP energy -357594.954705 kJ/mol
# GULP energy per Si atom -5587.421167 kJ/mol
# Density = 2.156657 g / cm^3
# Si number density = 21.615766 Si / 1000 Ang^3
#
#
#
# Elastic Constant Matrix: (Units=GPa)
#
#
# Indices 1 2 3 4 5 6 
#
# 1 112.1420 44.7806 2.1263 0.0000 0.0000 0.0000
# 2 44.7806 124.3328 8.9848 0.0000 0.0000 0.0000
# 3 2.1263 8.9848 44.0503 0.0000 0.0000 0.0000
# 4 0.0000 0.0000 0.0000 8.4367 0.0000 0.0000
# 5 0.0000 0.0000 0.0000 0.0000 -18.2800 0.0000
# 6 0.0000 0.0000 0.0000 0.0000 0.0000 33.8524
#
#
#
# Elastic Compliance Matrix: (Units=1/GPa)
#
#
# Indices 1 2 3 4 5 6 
#
# 1 0.010418 -0.003772 0.000266 0.000000 0.000000 0.000000
# 2 -0.003772 0.009529 -0.001761 0.000000 0.000000 0.000000
# 3 0.000266 -0.001761 0.023048 0.000000 0.000000 0.000000
# 4 0.000000 0.000000 0.000000 0.118530 0.000000 0.000000
# 5 0.000000 0.000000 0.000000 0.000000 -0.054705 0.000000
# 6 0.000000 0.000000 0.000000 0.000000 0.000000 0.029540
#
#
# Mechanical properties :
#
#
# Convention : Reuss Voigt Hill
#
# Bulk Modulus (GPa) = 30.80588 43.58982 37.19785
# Shear Modulus (GPa) = 31.70300 19.77739 25.74020
#
# Velocity S-wave (km/s) = 3.83386 3.02810 3.45455
# Velocity P-wave (km/s) = 5.82069 5.69521 5.75829
#
# Compressibility (1/GPa) = 0.03246134
#
# Stress axis : x y z
#
# Youngs Moduli (GPa) = 95.98511 104.94705 43.38823
#
# Poissons Ratio (x) = 0.39582 -0.01156
# Poissons Ratio (y) = 0.36201 0.07643
# Poissons Ratio (z) = -0.02557 0.18486
#
# Static dielectric constant tensor:
#      x y z
#    x 1.823000 0.000000 0.000000 
#    y 0.000000 1.801720 0.000000 
#    z 0.000000 0.000000 1.765130 
# 
# From -- ./inp_files/6701.got.cif
#   From: 2010.05.17/outbox.cif.g08.bks.cpg/sg55_4_cif.got.tgz:6701.got - 2010.06.03 13:27:54.
