data_PCOD9426866
_publ_section_title
;
Structure prediction by ZEFSAII (Michael W. Deem and Ramdas Pophale) SiO2 
 PCOD9426866
Probable space group: P B A M
;
_chemical_formula_sum "Si O2"
_cell_formula_units_Z 64
_cell_length_a 9.289940
_cell_length_b 24.774338
_cell_length_c 12.633284
_cell_angle_alpha 90.000000
_cell_angle_beta 90.000000
_cell_angle_gamma 90.000000
_cell_volume 2907.577014
_symmetry_space_group_name_H-M "P B A M"
_symmetry_group_IT_number 55
_symmetry_cell_setting 'orthorhombic'
loop_
_space_group_symop_operation_xyz
x,y,z
-x,-y,z
1/2+x,1/2-y,-z
1/2-x,1/2+y,-z
-x,-y,-z
x,y,-z
1/2-x,1/2+y,z
1/2+x,1/2-y,z
loop_
_atom_site_type_symbol
_atom_site_label
_atom_site_fract_x
_atom_site_fract_y
_atom_site_fract_z
Si Si1 0.908822 0.242425 0.375789
Si Si2 0.825240 0.122883 0.125087
Si Si3 0.635944 0.805375 0.881333
Si Si4 0.622411 0.204982 0.747133
Si Si5 0.793427 0.518258 0.788682
Si Si6 0.446713 0.070510 0.114655
Si Si7 0.094196 0.155825 0.251327
Si Si8 0.866208 0.957866 0.624297
O O1 0.885767 0.241215 0.500000
O O2 0.995754 0.297217 0.342691
O O3 0.017661 0.195225 0.336412
O O4 0.758758 0.229488 0.317217
O O5 0.705856 0.157720 0.189296
O O6 0.818238 0.061547 0.167139
O O7 0.979572 0.144520 0.159241
O O8 0.800015 0.126510 0.000000
O O9 0.494995 0.774149 0.836718
O O10 0.587177 0.867493 0.885052
O O11 0.773747 0.813115 0.805476
O O12 0.672186 0.786191 0.000000
O O13 0.809414 0.466986 0.866333
O O14 0.760597 0.493315 0.675644
O O15 0.941579 0.551520 0.797499
O O16 0.512961 0.058297 0.000000
O O17 0.124917 0.098692 0.310664
O O18 0.851110 0.946283 0.500000
O O19 0.000000 0.000000 0.637095
#
# Coordination Sequence:
#
# PCOD9426866 Si02
#       8
#     8   8   8   8   8   8   8   8
#     4  11  25  48  75  99 126 168 224 280 333 394
#     4  11  22  39  64 100 138 175 224 278 334 404
#     4  11  22  40  65  97 136 174 215 266 333 405
#     4  11  24  44  71  99 131 167 214 278 336 401
#     4  11  19  36  60  91 130 179 227 273 321 394
#     4  10  20  34  59  89 127 173 215 267 325 384
#     4  11  23  43  66  98 136 180 224 279 334 403
#     4  11  23  40  60  89 131 179 228 281 335 378
#
# _framework density 22.011455000000002
#
# number of rings (size 3 to 8) (size 9 to 14) (size 15 to 20)
#    0.000    1.125    3.750    3.750    0.000    0.000 
#    0.000   15.625    0.000    0.000    0.000    0.000 
#    0.000    0.000    0.000    0.000    0.000    0.000 
#
# Total GULP energy -356297.404391 kJ/mol
# GULP energy per Si atom -5567.146944 kJ/mol
# Density = 2.196136 g / cm^3
# Si number density = 22.011455 Si / 1000 Ang^3
#
#
#
# Elastic Constant Matrix: (Units=GPa)
#
#
# Indices 1 2 3 4 5 6 
#
# 1 129.5201 39.3314 71.4808 0.0000 0.0000 0.0000
# 2 39.3314 74.3016 67.7219 0.0000 0.0000 0.0000
# 3 71.4808 67.7219 163.4684 0.0000 0.0000 0.0000
# 4 0.0000 0.0000 0.0000 28.0894 0.0000 0.0000
# 5 0.0000 0.0000 0.0000 0.0000 25.6662 0.0000
# 6 0.0000 0.0000 0.0000 0.0000 0.0000 42.4492
#
#
#
# Elastic Compliance Matrix: (Units=1/GPa)
#
#
# Indices 1 2 3 4 5 6 
#
# 1 0.010393 -0.002184 -0.003640 0.000000 0.000000 0.000000
# 2 -0.002184 0.022083 -0.008193 0.000000 0.000000 0.000000
# 3 -0.003640 -0.008193 0.011103 0.000000 0.000000 0.000000
# 4 0.000000 0.000000 0.000000 0.035601 0.000000 0.000000
# 5 0.000000 0.000000 0.000000 0.000000 0.038962 0.000000
# 6 0.000000 0.000000 0.000000 0.000000 0.000000 0.023558
#
#
# Mechanical properties :
#
#
# Convention : Reuss Voigt Hill
#
# Bulk Modulus (GPa) = 64.33160 80.48427 72.40794
# Shear Modulus (GPa) = 28.58543 31.82469 30.20506
#
# Velocity S-wave (km/s) = 3.60760 3.80652 3.70840
# Velocity P-wave (km/s) = 6.82956 7.48088 7.16263
#
# Compressibility (1/GPa) = 0.01554446
#
# Stress axis : x y z
#
# Youngs Moduli (GPa) = 96.22102 45.28453 90.06303
#
# Poissons Ratio (x) = 0.09890 0.32780
# Poissons Ratio (y) = 0.21014 0.73792
# Poissons Ratio (z) = 0.35022 0.37103
#
# Static dielectric constant tensor:
#      x y z
#    x 1.876170 0.000000 0.000000 
#    y 0.000000 1.904360 0.000000 
#    z 0.000000 0.000000 1.837650 
# 
# From -- ./inp_files/12614.got.cif
#   From: 2010.05.17/outbox.cif.g08.bks.cpg/sg55_7_cif.got.tgz:12614.got - 2010.06.03 13:27:54.
