data_PCOD9426452
_publ_section_title
;
Structure prediction by ZEFSAII (Michael W. Deem and Ramdas Pophale) SiO2 
 PCOD9426452
Probable space group: P B A M
;
_chemical_formula_sum "Si O2"
_cell_formula_units_Z 64
_cell_length_a 31.338018
_cell_length_b 12.084673
_cell_length_c 8.239805
_cell_angle_alpha 90.000000
_cell_angle_beta 90.000000
_cell_angle_gamma 90.000000
_cell_volume 3120.494080
_symmetry_space_group_name_H-M "P B A M"
_symmetry_group_IT_number 55
_symmetry_cell_setting 'orthorhombic'
loop_
_space_group_symop_operation_xyz
x,y,z
-x,-y,z
1/2+x,1/2-y,-z
1/2-x,1/2+y,-z
-x,-y,-z
x,y,-z
1/2-x,1/2+y,z
1/2+x,1/2-y,z
loop_
_atom_site_type_symbol
_atom_site_label
_atom_site_fract_x
_atom_site_fract_y
_atom_site_fract_z
Si Si1 0.932941 0.996750 0.304073
Si Si2 0.622291 0.836495 0.690256
Si Si3 0.463964 0.273786 0.812134
Si Si4 0.664591 0.488886 0.303068
Si Si5 0.124967 0.418043 0.188940
Si Si6 0.052540 0.255995 0.310214
Si Si7 0.303753 0.750302 0.302634
Si Si8 0.707254 0.710439 0.301955
O O1 0.937796 0.000737 0.500000
O O2 0.883696 0.019043 0.260026
O O3 0.941938 0.871029 0.251955
O O4 0.960226 0.096537 0.233086
O O5 0.618715 0.807541 0.500000
O O6 0.581458 0.781948 0.774981
O O7 0.667695 0.787543 0.749320
O O8 0.621813 0.967903 0.713536
O O9 0.502654 0.219285 0.712890
O O10 0.474302 0.261897 0.000000
O O11 0.665905 0.486083 0.500000
O O12 0.676763 0.366751 0.247541
O O13 0.696039 0.585735 0.250032
O O14 0.084272 0.339639 0.222608
O O15 0.166741 0.348793 0.239313
O O16 0.126778 0.446017 0.000000
O O17 0.064338 0.257751 0.500000
O O18 0.305029 0.753757 0.500000
O O19 0.254580 0.757173 0.249578
O O20 0.707785 0.713453 0.500000
#
# Coordination Sequence:
#
# PCOD9426452 Si02
#       8
#     8   8   8   8   8   8   8   8
#     4  10  19  37  63  91 124 162 208 256 302 357
#     4  11  23  43  67  90 119 164 217 262 302 361
#     4  12  25  40  61  94 131 163 197 250 319 381
#     4   9  16  32  59  93 125 154 201 261 302 341
#     4  12  26  43  61  89 129 165 200 255 320 379
#     4  11  23  42  67  92 119 162 215 260 300 361
#     4  10  20  37  64  95 123 161 209 258 306 360
#     4   9  19  34  63  97 122 153 208 266 303 344
#
# _framework density 20.509571000000001
#
# number of rings (size 3 to 8) (size 9 to 14) (size 15 to 20)
#    0.000    1.500    2.500    3.375    1.750    3.000 
#    0.000    3.750    0.000    0.000    0.000    0.000 
#    0.000    0.000    0.000    0.000    0.000    0.000 
#
# Total GULP energy -357715.457947 kJ/mol
# GULP energy per Si atom -5589.304030 kJ/mol
# Density = 2.046289 g / cm^3
# Si number density = 20.509571 Si / 1000 Ang^3
#
#
#
# Elastic Constant Matrix: (Units=GPa)
#
#
# Indices 1 2 3 4 5 6 
#
# 1 95.3283 16.2128 -10.8261 0.0000 0.0000 0.0000
# 2 16.2128 80.0202 -12.5436 0.0000 0.0000 0.0000
# 3 -10.8261 -12.5436 20.5640 0.0000 0.0000 0.0000
# 4 0.0000 0.0000 0.0000 -1.8050 0.0000 0.0000
# 5 0.0000 0.0000 0.0000 0.0000 5.0478 0.0000
# 6 0.0000 0.0000 0.0000 0.0000 0.0000 21.4667
#
#
#
# Elastic Compliance Matrix: (Units=1/GPa)
#
#
# Indices 1 2 3 4 5 6 
#
# 1 0.011318 -0.001503 0.005042 0.000000 0.000000 0.000000
# 2 -0.001503 0.014018 0.007759 0.000000 0.000000 0.000000
# 3 0.005042 0.007759 0.056016 0.000000 0.000000 0.000000
# 4 0.000000 0.000000 0.000000 -0.554005 0.000000 0.000000
# 5 0.000000 0.000000 0.000000 0.000000 0.198105 0.000000
# 6 0.000000 0.000000 0.000000 0.000000 0.000000 0.046584
#
#
# Mechanical properties :
#
#
# Convention : Reuss Voigt Hill
#
# Bulk Modulus (GPa) = 9.62013 20.17764 14.89888
# Shear Modulus (GPa) = -23.15764 18.47986 -2.33889
#
# Velocity S-wave (km/s) = -3.36387 3.00498 -1.06905
# Velocity P-wave (km/s) = 3.22286 4.67968 2.39923
#
# Compressibility (1/GPa) = 0.10394873
#
# Stress axis : x y z
#
# Youngs Moduli (GPa) = 88.35289 71.33873 17.85200
#
# Poissons Ratio (x) = 0.10721 -0.09001
# Poissons Ratio (y) = 0.13278 -0.13852
# Poissons Ratio (z) = -0.44547 -0.55354
#
# Static dielectric constant tensor:
#      x y z
#    x 1.722220 0.000000 0.000000 
#    y 0.000000 1.703920 0.000000 
#    z 0.000000 0.000000 1.717020 
# 
# From -- ./inp_files/10718.got.cif
#   From: 2010.05.17/outbox.cif.g08.bks.cpg/sg55_6_cif.got.tgz:10718.got - 2010.06.03 13:27:54.
