data_PCOD9426546
_publ_section_title
;
Structure prediction by ZEFSAII (Michael W. Deem and Ramdas Pophale) SiO2 
 PCOD9426546
Probable space group: P B A M
;
_chemical_formula_sum "Si O2"
_cell_formula_units_Z 48
_cell_length_a 28.412682
_cell_length_b 7.912490
_cell_length_c 9.783318
_cell_angle_alpha 90.000000
_cell_angle_beta 90.000000
_cell_angle_gamma 90.000000
_cell_volume 2199.437245
_symmetry_space_group_name_H-M "P B A M"
_symmetry_group_IT_number 55
_symmetry_cell_setting 'orthorhombic'
loop_
_space_group_symop_operation_xyz
x,y,z
-x,-y,z
1/2+x,1/2-y,-z
1/2-x,1/2+y,-z
-x,-y,-z
x,y,-z
1/2-x,1/2+y,z
1/2+x,1/2-y,z
loop_
_atom_site_type_symbol
_atom_site_label
_atom_site_fract_x
_atom_site_fract_y
_atom_site_fract_z
Si Si1 0.273883 0.072512 0.657141
Si Si2 0.823791 0.064048 0.656645
Si Si3 0.598382 0.420060 0.157478
Si Si4 0.350935 0.946683 0.156488
Si Si5 0.978272 0.773229 0.344423
Si Si6 0.427246 0.093983 0.344863
O O1 0.279605 0.012159 0.500000
O O2 0.218411 0.067700 0.685806
O O3 0.297200 0.256854 0.666134
O O4 0.302563 0.956912 0.761210
O O5 0.839766 0.038357 0.500000
O O6 0.867166 0.040782 0.757503
O O7 0.549749 0.385759 0.237061
O O8 0.625487 0.238382 0.158737
O O9 0.591610 0.470690 0.000000
O O10 0.386557 0.071135 0.235747
O O11 0.344430 0.997635 0.000000
O O12 0.973713 0.837137 0.500000
O O13 0.953308 0.588488 0.345158
O O14 0.032709 0.731649 0.314471
O O15 0.409178 0.122123 0.500000
#
# Coordination Sequence:
#
# PCOD9426546 Si02
#       6
#     8   8   8   8   8   8
#     4  10  21  37  57  78  99 128 168 212 257 304
#     4  10  21  37  57  78  99 128 168 212 257 304
#     4  10  20  32  49  76 108 140 171 205 250 302
#     4  10  20  32  49  76 108 140 171 205 250 302
#     4   8  14  26  46  72 101 134 172 212 251 291
#     4   8  14  26  46  72 101 134 172 212 251 291
#
# _framework density 21.823764000000001
#
# number of rings (size 3 to 8) (size 9 to 14) (size 15 to 20)
#    0.000    2.667    0.000    3.000    0.000    5.333 
#    0.000    3.333    0.000    1.000    0.000    7.000 
#    0.000    0.000    0.000    0.000    0.000    0.000 
#
# Total GULP energy -268317.067167 kJ/mol
# GULP energy per Si atom -5589.938899 kJ/mol
# Density = 2.177409 g / cm^3
# Si number density = 21.823764 Si / 1000 Ang^3
#
#
#
# Elastic Constant Matrix: (Units=GPa)
#
#
# Indices 1 2 3 4 5 6 
#
# 1 69.9524 24.0257 42.2411 0.0000 0.0000 0.0000
# 2 24.0257 70.2643 38.7654 0.0000 0.0000 0.0000
# 3 42.2411 38.7654 88.6362 0.0000 0.0000 0.0000
# 4 0.0000 0.0000 0.0000 8.9340 0.0000 0.0000
# 5 0.0000 0.0000 0.0000 0.0000 -10.2706 0.0000
# 6 0.0000 0.0000 0.0000 0.0000 0.0000 33.8947
#
#
#
# Elastic Compliance Matrix: (Units=1/GPa)
#
#
# Indices 1 2 3 4 5 6 
#
# 1 0.020307 -0.002115 -0.008753 0.000000 0.000000 0.000000
# 2 -0.002115 0.018978 -0.007292 0.000000 0.000000 0.000000
# 3 -0.008753 -0.007292 0.018643 0.000000 0.000000 0.000000
# 4 0.000000 0.000000 0.000000 0.111932 0.000000 0.000000
# 5 0.000000 0.000000 0.000000 0.000000 -0.097365 0.000000
# 6 0.000000 0.000000 0.000000 0.000000 0.000000 0.029503
#
#
# Mechanical properties :
#
#
# Convention : Reuss Voigt Hill
#
# Bulk Modulus (GPa) = 46.27850 48.76859 47.52354
# Shear Modulus (GPa) = 34.35935 14.76635 24.56285
#
# Velocity S-wave (km/s) = 3.97218 2.60401 3.35850
# Velocity P-wave (km/s) = 6.50301 5.60680 6.07147
#
# Compressibility (1/GPa) = 0.02160831
#
# Stress axis : x y z
#
# Youngs Moduli (GPa) = 49.24362 52.69156 53.64001
#
# Poissons Ratio (x) = 0.11142 0.46950
# Poissons Ratio (y) = 0.10413 0.39117
# Poissons Ratio (z) = 0.43102 0.38425
#
# Static dielectric constant tensor:
#      x y z
#    x 1.774790 0.000000 0.000000 
#    y 0.000000 1.853100 0.000000 
#    z 0.000000 0.000000 1.741540 
# 
# From -- ./inp_files/2889.got.cif
#   From: 2010.05.17/outbox.cif.g08.bks.cpg/sg55_2_cif.got.tgz:2889.got - 2010.06.03 13:27:54.
