data_PCOD9426792
_publ_section_title
;
Structure prediction by ZEFSAII (Michael W. Deem and Ramdas Pophale) SiO2 
 PCOD9426792
Probable space group: P B A M
;
_chemical_formula_sum "Si O2"
_cell_formula_units_Z 40
_cell_length_a 13.611854
_cell_length_b 18.995153
_cell_length_c 7.757148
_cell_angle_alpha 90.000000
_cell_angle_beta 90.000000
_cell_angle_gamma 90.000000
_cell_volume 2005.682364
_symmetry_space_group_name_H-M "P B A M"
_symmetry_group_IT_number 55
_symmetry_cell_setting 'orthorhombic'
loop_
_space_group_symop_operation_xyz
x,y,z
-x,-y,z
1/2+x,1/2-y,-z
1/2-x,1/2+y,-z
-x,-y,-z
x,y,-z
1/2-x,1/2+y,z
1/2+x,1/2-y,z
loop_
_atom_site_type_symbol
_atom_site_label
_atom_site_fract_x
_atom_site_fract_y
_atom_site_fract_z
Si Si1 0.396466 0.665341 0.798667
Si Si2 0.900446 0.537053 0.210792
Si Si3 0.311555 0.518700 0.790865
Si Si4 0.112698 0.867698 0.298232
Si Si5 0.826696 0.685703 0.205068
O O1 0.351748 0.593074 0.725191
O O2 0.513710 0.659840 0.787513
O O3 0.358177 0.738802 0.722401
O O4 0.367193 0.665464 0.000000
O O5 0.801314 0.495653 0.260078
O O6 0.885816 0.617462 0.271609
O O7 0.000000 0.500000 0.269472
O O8 0.902175 0.538006 0.000000
O O9 0.373940 0.451262 0.731931
O O10 0.316061 0.517926 0.000000
O O11 0.105055 0.854219 0.500000
O O12 0.212024 0.831339 0.231040
O O13 0.845515 0.687524 0.000000
#
# Coordination Sequence:
#
# PCOD9426792 Si02
#       5
#     8   8   8   8   8
#     4  10  20  34  55  79 102 133 176 225 268 307
#     4   8  14  27  49  75 101 129 163 206 255 305
#     4   9  18  33  53  77 103 133 174 219 261 310
#     4  11  22  35  52  74 106 143 173 209 260 317
#     4   9  19  35  54  77 104 134 173 220 264 309
#
# _framework density 19.943335999999999
#
# number of rings (size 3 to 8) (size 9 to 14) (size 15 to 20)
#    0.000    2.600    0.000    3.600    0.000    5.600 
#    0.000    6.000    0.000    9.600    0.000    0.000 
#    0.000    0.000    0.000    0.000    0.000    0.000 
#
# Total GULP energy -223193.652950 kJ/mol
# GULP energy per Si atom -5579.841324 kJ/mol
# Density = 1.989794 g / cm^3
# Si number density = 19.943336 Si / 1000 Ang^3
#
#
#
# Elastic Constant Matrix: (Units=GPa)
#
#
# Indices 1 2 3 4 5 6 
#
# 1 83.8793 91.8105 -17.2810 0.0000 0.0000 0.0000
# 2 91.8105 182.7367 -8.7627 0.0000 0.0000 0.0000
# 3 -17.2810 -8.7627 21.8688 0.0000 0.0000 0.0000
# 4 0.0000 0.0000 0.0000 -18.3705 0.0000 0.0000
# 5 0.0000 0.0000 0.0000 0.0000 -25.5033 0.0000
# 6 0.0000 0.0000 0.0000 0.0000 0.0000 -1.7760
#
#
#
# Elastic Compliance Matrix: (Units=1/GPa)
#
#
# Indices 1 2 3 4 5 6 
#
# 1 0.033312 -0.015777 0.020001 0.000000 0.000000 0.000000
# 2 -0.015777 0.013052 -0.007238 0.000000 0.000000 0.000000
# 3 0.020001 -0.007238 0.058633 0.000000 0.000000 0.000000
# 4 0.000000 0.000000 0.000000 -0.054435 0.000000 0.000000
# 5 0.000000 0.000000 0.000000 0.000000 -0.039211 0.000000
# 6 0.000000 0.000000 0.000000 0.000000 0.000000 -0.563073
#
#
# Mechanical properties :
#
#
# Convention : Reuss Voigt Hill
#
# Bulk Modulus (GPa) = 10.10411 46.66871 28.38641
# Shear Modulus (GPa) = -9.75219 5.71791 -2.01714
#
# Velocity S-wave (km/s) = -2.21372 1.69508 -1.00679
# Velocity P-wave (km/s) = 1.20693 5.22327 3.59346
#
# Compressibility (1/GPa) = 0.09896959
#
# Stress axis : x y z
#
# Youngs Moduli (GPa) = 30.01938 76.61565 17.05537
#
# Poissons Ratio (x) = 1.20879 -0.34113
# Poissons Ratio (y) = 0.47363 0.12344
# Poissons Ratio (z) = -0.60043 0.55451
#
# Static dielectric constant tensor:
#      x y z
#    x 1.668590 0.000000 0.000000 
#    y 0.000000 1.711410 0.000000 
#    z 0.000000 0.000000 1.721260 
# 
# From -- ./inp_files/3619.got.cif
#   From: 2010.05.17/outbox.cif.g08.bks.cpg/sg55_2_cif.got.tgz:3619.got - 2010.06.03 13:27:54.
