data_PCOD9426763
_publ_section_title
;
Structure prediction by ZEFSAII (Michael W. Deem and Ramdas Pophale) SiO2 
 PCOD9426763
Probable space group: P B A M
;
_chemical_formula_sum "Si O2"
_cell_formula_units_Z 40
_cell_length_a 8.477461
_cell_length_b 24.637326
_cell_length_c 7.337270
_cell_angle_alpha 90.000000
_cell_angle_beta 90.000000
_cell_angle_gamma 90.000000
_cell_volume 1532.476669
_symmetry_space_group_name_H-M "P B A M"
_symmetry_group_IT_number 55
_symmetry_cell_setting 'orthorhombic'
loop_
_space_group_symop_operation_xyz
x,y,z
-x,-y,z
1/2+x,1/2-y,-z
1/2-x,1/2+y,-z
-x,-y,-z
x,y,-z
1/2-x,1/2+y,z
1/2+x,1/2-y,z
loop_
_atom_site_type_symbol
_atom_site_label
_atom_site_fract_x
_atom_site_fract_y
_atom_site_fract_z
Si Si1 0.837465 0.026600 0.277720
Si Si2 0.168683 0.368268 0.279938
Si Si3 0.172395 0.170101 0.778342
Si Si4 0.135157 0.768743 0.209055
Si Si5 0.362717 0.069866 0.290880
O O1 0.837629 0.025278 0.500000
O O2 0.803184 0.088253 0.225157
O O3 0.694780 0.987438 0.215601
O O4 0.000000 0.000000 0.215762
O O5 0.163914 0.364628 0.500000
O O6 0.214716 0.309009 0.213090
O O7 0.006683 0.395402 0.212354
O O8 0.310137 0.211322 0.713963
O O9 0.212644 0.110133 0.712993
O O10 0.009886 0.197119 0.712507
O O11 0.171020 0.168357 0.000000
O O12 0.093128 0.758141 0.000000
O O13 0.408574 0.059437 0.500000
#
# Coordination Sequence:
#
# PCOD9426763 Si02
#       5
#     8   8   8   8   8
#     4   9  17  31  52  77 106 139 172 210 258 307
#     4  10  20  34  54  80 108 138 173 213 257 307
#     4  10  21  37  56  77 103 137 175 215 261 311
#     4  10  21  37  56  77 103 137 175 215 261 311
#     4  10  20  34  54  80 108 138 173 213 257 307
#
# _framework density 26.101538999999999
#
# number of rings (size 3 to 8) (size 9 to 14) (size 15 to 20)
#    0.000    2.200    0.000    3.000    0.000    8.000 
#    0.000    1.000    0.000    6.000    0.000    0.000 
#    0.000    0.000    0.000    0.000    0.000    0.000 
#
# Total GULP energy -223880.248254 kJ/mol
# GULP energy per Si atom -5597.006206 kJ/mol
# Density = 2.604213 g / cm^3
# Si number density = 26.101539 Si / 1000 Ang^3
#
#
#
# Elastic Constant Matrix: (Units=GPa)
#
#
# Indices 1 2 3 4 5 6 
#
# 1 72.8838 -8.0234 -4.3330 0.0000 0.0000 0.0000
# 2 -8.0234 125.6429 -8.1237 0.0000 0.0000 0.0000
# 3 -4.3330 -8.1237 110.8446 0.0000 0.0000 0.0000
# 4 0.0000 0.0000 0.0000 11.1691 0.0000 0.0000
# 5 0.0000 0.0000 0.0000 0.0000 15.3934 0.0000
# 6 0.0000 0.0000 0.0000 0.0000 0.0000 50.2565
#
#
#
# Elastic Compliance Matrix: (Units=1/GPa)
#
#
# Indices 1 2 3 4 5 6 
#
# 1 0.013858 0.000924 0.000609 0.000000 0.000000 0.000000
# 2 0.000924 0.008059 0.000627 0.000000 0.000000 0.000000
# 3 0.000609 0.000627 0.009091 0.000000 0.000000 0.000000
# 4 0.000000 0.000000 0.000000 0.089533 0.000000 0.000000
# 5 0.000000 0.000000 0.000000 0.000000 0.064963 0.000000
# 6 0.000000 0.000000 0.000000 0.000000 0.000000 0.019898
#
#
# Mechanical properties :
#
#
# Convention : Reuss Voigt Hill
#
# Bulk Modulus (GPa) = 28.30479 29.82347 29.06413
# Shear Modulus (GPa) = 23.48990 37.35391 30.42191
#
# Velocity S-wave (km/s) = 3.00316 3.78709 3.41768
# Velocity P-wave (km/s) = 4.78466 5.52933 5.17042
#
# Compressibility (1/GPa) = 0.03532971
#
# Stress axis : x y z
#
# Youngs Moduli (GPa) = 72.15811 124.09080 109.99408
#
# Poissons Ratio (x) = -0.11471 -0.06704
# Poissons Ratio (y) = -0.06670 -0.06894
# Poissons Ratio (z) = -0.04398 -0.07777
#
# Static dielectric constant tensor:
#      x y z
#    x 2.104740 0.000000 0.000000 
#    y 0.000000 1.935410 0.000000 
#    z 0.000000 0.000000 1.997700 
# 
# From -- ./inp_files/2291.got.cif
#   From: 2010.05.17/outbox.cif.g08.bks.cpg/sg55_2_cif.got.tgz:2291.got - 2010.06.03 13:27:54.
