data_PCOD9426542
_publ_section_title
;
Structure prediction by ZEFSAII (Michael W. Deem and Ramdas Pophale) SiO2 
 PCOD9426542
Probable space group: P B A M
;
_chemical_formula_sum "Si O2"
_cell_formula_units_Z 56
_cell_length_a 15.107366
_cell_length_b 22.060476
_cell_length_c 7.552754
_cell_angle_alpha 90.000000
_cell_angle_beta 90.000000
_cell_angle_gamma 90.000000
_cell_volume 2517.149263
_symmetry_space_group_name_H-M "P B A M"
_symmetry_group_IT_number 55
_symmetry_cell_setting 'orthorhombic'
loop_
_space_group_symop_operation_xyz
x,y,z
-x,-y,z
1/2+x,1/2-y,-z
1/2-x,1/2+y,-z
-x,-y,-z
x,y,-z
1/2-x,1/2+y,z
1/2+x,1/2-y,z
loop_
_atom_site_type_symbol
_atom_site_label
_atom_site_fract_x
_atom_site_fract_y
_atom_site_fract_z
Si Si1 0.726281 0.391031 0.782091
Si Si2 0.103945 0.218735 0.213814
Si Si3 0.889413 0.642636 0.785783
Si Si4 0.405641 0.270190 0.293264
Si Si5 0.402834 0.504666 0.796294
Si Si6 0.696683 0.614869 0.707956
Si Si7 0.917626 0.368739 0.797088
O O1 0.677750 0.328840 0.728477
O O2 0.664738 0.446060 0.720754
O O3 0.827222 0.394257 0.717828
O O4 0.730213 0.391016 0.000000
O O5 0.120877 0.287452 0.274348
O O6 0.004506 0.202618 0.273326
O O7 0.103171 0.218686 0.000000
O O8 0.801367 0.607963 0.732606
O O9 0.984928 0.619845 0.719185
O O10 0.893406 0.643259 0.000000
O O11 0.387963 0.258768 0.500000
O O12 0.336393 0.319631 0.223374
O O13 0.406254 0.204593 0.202677
O O14 0.500000 0.500000 0.713533
O O15 0.356641 0.439659 0.793522
O O16 0.416586 0.524782 0.000000
O O17 0.675625 0.613924 0.500000
O O18 0.921473 0.390166 0.000000
#
# Coordination Sequence:
#
# PCOD9426542 Si02
#       7
#     8   8   8   8   8   8   8
#     4   9  17  32  55  80 103 130 169 215 259 304
#     4   9  17  31  54  82 108 135 168 209 260 312
#     4   9  18  32  53  79 103 132 170 211 255 303
#     4  10  20  32  48  75 108 139 171 207 252 305
#     4  10  21  37  58  81 103 131 170 215 259 305
#     4  11  23  36  51  73 105 144 178 211 254 303
#     4   9  18  34  55  78 104 133 167 210 259 307
#
# _framework density 22.247388999999998
#
# number of rings (size 3 to 8) (size 9 to 14) (size 15 to 20)
#    0.000    2.429    0.000    3.429    0.000    7.143 
#    0.000    2.857    0.000    4.286    0.000    0.000 
#    0.000    0.000    0.000    0.000    0.000    0.000 
#
# Total GULP energy -312733.969348 kJ/mol
# GULP energy per Si atom -5584.535167 kJ/mol
# Density = 2.219675 g / cm^3
# Si number density = 22.247389 Si / 1000 Ang^3
#
#
#
# Elastic Constant Matrix: (Units=GPa)
#
#
# Indices 1 2 3 4 5 6 
#
# 1 194.3198 47.7795 -7.1054 0.0000 0.0000 0.0000
# 2 47.7795 27.8427 -5.8502 0.0000 0.0000 0.0000
# 3 -7.1054 -5.8502 57.0169 0.0000 0.0000 0.0000
# 4 0.0000 0.0000 0.0000 -20.4408 0.0000 0.0000
# 5 0.0000 0.0000 0.0000 0.0000 -3.8984 0.0000
# 6 0.0000 0.0000 0.0000 0.0000 0.0000 32.4818
#
#
#
# Elastic Compliance Matrix: (Units=1/GPa)
#
#
# Indices 1 2 3 4 5 6 
#
# 1 0.008915 -0.015397 -0.000469 0.000000 0.000000 0.000000
# 2 -0.015397 0.063299 0.004576 0.000000 0.000000 0.000000
# 3 -0.000469 0.004576 0.017950 0.000000 0.000000 0.000000
# 4 0.000000 0.000000 0.000000 -0.048922 0.000000 0.000000
# 5 0.000000 0.000000 0.000000 0.000000 -0.256518 0.000000
# 6 0.000000 0.000000 0.000000 0.000000 0.000000 0.030786
#
#
# Mechanical properties :
#
#
# Convention : Reuss Voigt Hill
#
# Bulk Modulus (GPa) = 14.79625 38.75858 26.77741
# Shear Modulus (GPa) = -35.87245 17.91889 -8.97678
#
# Velocity S-wave (km/s) = -4.01987 2.84110 -2.01091
# Velocity P-wave (km/s) = 3.85754 5.31243 2.58277
#
# Compressibility (1/GPa) = 0.06758468
#
# Stress axis : x y z
#
# Youngs Moduli (GPa) = 112.17344 15.79801 55.71102
#
# Poissons Ratio (x) = 0.24324 0.02612
# Poissons Ratio (y) = 1.72710 -0.25494
# Poissons Ratio (z) = 0.05259 -0.07229
#
# Static dielectric constant tensor:
#      x y z
#    x 1.836660 0.000000 0.000000 
#    y 0.000000 1.777470 0.000000 
#    z 0.000000 0.000000 1.848380 
# 
# From -- ./inp_files/6041.got.cif
#   From: 2010.05.17/outbox.cif.g08.bks.cpg/sg55_4_cif.got.tgz:6041.got - 2010.06.03 13:27:54.
