data_PCOD9426286
_publ_section_title
;
Structure prediction by ZEFSAII (Michael W. Deem and Ramdas Pophale) SiO2 
 PCOD9426286
Probable space group: P B A M
;
_chemical_formula_sum "Si O2"
_cell_formula_units_Z 24
_cell_length_a 5.171156
_cell_length_b 18.365161
_cell_length_c 12.115870
_cell_angle_alpha 90.000000
_cell_angle_beta 90.000000
_cell_angle_gamma 90.000000
_cell_volume 1150.633421
_symmetry_space_group_name_H-M "P B A M"
_symmetry_group_IT_number 55
_symmetry_cell_setting 'orthorhombic'
loop_
_space_group_symop_operation_xyz
x,y,z
-x,-y,z
1/2+x,1/2-y,-z
1/2-x,1/2+y,-z
-x,-y,-z
x,y,-z
1/2-x,1/2+y,z
1/2+x,1/2-y,z
loop_
_atom_site_type_symbol
_atom_site_label
_atom_site_fract_x
_atom_site_fract_y
_atom_site_fract_z
Si Si1 0.242869 0.138416 0.237859
Si Si2 0.000000 0.500000 0.689125
Si Si3 0.228728 0.705081 0.000000
Si Si4 0.225812 0.353279 0.624829
O O1 0.311686 0.052346 0.241687
O O2 0.489440 0.175110 0.299576
O O3 0.992933 0.153712 0.311196
O O4 0.215098 0.163301 0.113159
O O5 0.160843 0.440283 0.621657
O O6 0.428360 0.772356 0.000000
O O7 0.229296 0.324956 0.500000
#
# Coordination Sequence:
#
# PCOD9426286 Si02
#       4
#     8   4   4   8
#     4  10  22  37  60  93 118 160 198 245 298 355
#     4   8  21  33  60 100 124 155 185 236 304 370
#     4  12  26  47  67  77 111 166 218 260 292 346
#     4  10  19  35  60  96 131 154 182 229 304 375
#
# _framework density 20.858077999999999
#
# number of rings (size 3 to 8) (size 9 to 14) (size 15 to 20)
#    2.000    0.000    0.000    4.500    0.000    2.000 
#    0.000    1.667    0.000   20.000    0.000    0.000 
#    0.000    0.000    0.000    0.000    0.000    0.000 
#
# Total GULP energy -133798.785894 kJ/mol
# GULP energy per Si atom -5574.949412 kJ/mol
# Density = 2.081060 g / cm^3
# Si number density = 20.858078 Si / 1000 Ang^3
#
#
#
# Elastic Constant Matrix: (Units=GPa)
#
#
# Indices 1 2 3 4 5 6 
#
# 1 139.2771 -1.1727 47.5524 0.0000 0.0000 0.0000
# 2 -1.1727 59.0787 15.6289 0.0000 0.0000 0.0000
# 3 47.5524 15.6289 182.8509 0.0000 0.0000 0.0000
# 4 0.0000 0.0000 0.0000 113.9785 0.0000 0.0000
# 5 0.0000 0.0000 0.0000 0.0000 -2.0993 0.0000
# 6 0.0000 0.0000 0.0000 0.0000 0.0000 -5.2724
#
#
#
# Elastic Compliance Matrix: (Units=1/GPa)
#
#
# Indices 1 2 3 4 5 6 
#
# 1 0.007909 0.000717 -0.002118 0.000000 0.000000 0.000000
# 2 0.000717 0.017383 -0.001672 0.000000 0.000000 0.000000
# 3 -0.002118 -0.001672 0.006163 0.000000 0.000000 0.000000
# 4 0.000000 0.000000 0.000000 0.008774 0.000000 0.000000
# 5 0.000000 0.000000 0.000000 0.000000 -0.476349 0.000000
# 6 0.000000 0.000000 0.000000 0.000000 0.000000 -0.189667
#
#
# Mechanical properties :
#
#
# Convention : Reuss Voigt Hill
#
# Bulk Modulus (GPa) = 39.51204 56.13599 47.82402
# Shear Modulus (GPa) = -8.18058 42.60124 17.21033
#
# Velocity S-wave (km/s) = -1.98256 4.52423 2.87560
# Velocity P-wave (km/s) = 3.70725 7.36636 5.83125
#
# Compressibility (1/GPa) = 0.02530874
#
# Stress axis : x y z
#
# Youngs Moduli (GPa) = 126.43557 57.52672 162.26569
#
# Poissons Ratio (x) = -0.04127 0.34371
# Poissons Ratio (y) = -0.09070 0.27137
# Poissons Ratio (z) = 0.26781 0.09621
#
# Static dielectric constant tensor:
#      x y z
#    x 1.751870 0.000000 0.000000 
#    y 0.000000 1.737990 0.000000 
#    z 0.000000 0.000000 1.706490 
# 
# From -- ./inp_files/11035.got.cif
#   From: 2010.05.17/outbox.cif.g08.bks.cpg/sg55_6_cif.got.tgz:11035.got - 2010.06.03 13:27:54.
