data_PCOD9426610
_publ_section_title
;
Structure prediction by ZEFSAII (Michael W. Deem and Ramdas Pophale) SiO2 
 PCOD9426610
Probable space group: P B A M
;
_chemical_formula_sum "Si O2"
_cell_formula_units_Z 56
_cell_length_a 9.191039
_cell_length_b 20.037580
_cell_length_c 14.743216
_cell_angle_alpha 90.000000
_cell_angle_beta 90.000000
_cell_angle_gamma 90.000000
_cell_volume 2715.201761
_symmetry_space_group_name_H-M "P B A M"
_symmetry_group_IT_number 55
_symmetry_cell_setting 'orthorhombic'
loop_
_space_group_symop_operation_xyz
x,y,z
-x,-y,z
1/2+x,1/2-y,-z
1/2-x,1/2+y,-z
-x,-y,-z
x,y,-z
1/2-x,1/2+y,z
1/2+x,1/2-y,z
loop_
_atom_site_type_symbol
_atom_site_label
_atom_site_fract_x
_atom_site_fract_y
_atom_site_fract_z
Si Si1 0.834885 0.026612 0.899056
Si Si2 0.665650 0.970462 0.605729
Si Si3 0.592251 0.712053 0.227355
Si Si4 0.381024 0.099048 0.903165
Si Si5 0.028568 0.640354 0.713373
Si Si6 0.782901 0.091588 0.292283
Si Si7 0.678017 0.270195 0.102556
O O1 0.795203 0.070815 0.813203
O O2 0.725314 0.963906 0.897315
O O3 0.826382 0.057892 0.000000
O O4 0.000000 0.000000 0.888610
O O5 0.697620 0.962920 0.500000
O O6 0.649369 0.900361 0.657374
O O7 0.500000 0.000000 0.614552
O O8 0.776545 0.022401 0.652447
O O9 0.566822 0.782346 0.277205
O O10 0.596597 0.649723 0.295355
O O11 0.469050 0.706874 0.150683
O O12 0.742537 0.719379 0.170610
O O13 0.473466 0.106234 0.813125
O O14 0.283676 0.165929 0.903378
O O15 0.460645 0.094773 0.000000
O O16 0.866781 0.627717 0.677762
O O17 0.653035 0.245412 0.000000
#
# Coordination Sequence:
#
# PCOD9426610 Si02
#       7
#     8   8   8   8   8   8   8
#     4  10  20  33  51  81 115 155 199 237 287 344
#     4   9  19  38  65  89 110 139 186 242 302 364
#     4  11  21  36  54  83 114 158 199 243 289 341
#     4   9  18  32  50  76 114 155 190 235 282 336
#     4  10  20  37  56  84 116 148 193 238 295 351
#     4  11  21  36  59  86 113 152 196 240 291 351
#     4  10  20  34  52  76 116 161 205 240 279 334
#
# _framework density 20.624618000000002
#
# number of rings (size 3 to 8) (size 9 to 14) (size 15 to 20)
#    0.000    2.000    2.857    1.286    0.000    3.429 
#    0.000    2.143    0.000    0.429    0.000    0.000 
#    0.000    0.000    0.000    0.000    0.000    0.000 
#
# Total GULP energy -312456.845779 kJ/mol
# GULP energy per Si atom -5579.586532 kJ/mol
# Density = 2.057768 g / cm^3
# Si number density = 20.624618 Si / 1000 Ang^3
#
#
#
# Elastic Constant Matrix: (Units=GPa)
#
#
# Indices 1 2 3 4 5 6 
#
# 1 47.2761 -6.2981 3.0898 0.0000 0.0000 0.0000
# 2 -6.2981 75.4131 31.0830 0.0000 0.0000 0.0000
# 3 3.0898 31.0830 72.6370 0.0000 0.0000 0.0000
# 4 0.0000 0.0000 0.0000 10.3463 0.0000 0.0000
# 5 0.0000 0.0000 0.0000 0.0000 13.9366 0.0000
# 6 0.0000 0.0000 0.0000 0.0000 0.0000 9.2198
#
#
#
# Elastic Compliance Matrix: (Units=1/GPa)
#
#
# Indices 1 2 3 4 5 6 
#
# 1 0.021640 0.002655 -0.002057 0.000000 0.000000 0.000000
# 2 0.002655 0.016426 -0.007142 0.000000 0.000000 0.000000
# 3 -0.002057 -0.007142 0.016911 0.000000 0.000000 0.000000
# 4 0.000000 0.000000 0.000000 0.096653 0.000000 0.000000
# 5 0.000000 0.000000 0.000000 0.000000 0.071753 0.000000
# 6 0.000000 0.000000 0.000000 0.000000 0.000000 0.108462
#
#
# Mechanical properties :
#
#
# Convention : Reuss Voigt Hill
#
# Bulk Modulus (GPa) = 23.87217 27.89730 25.88474
# Shear Modulus (GPa) = 13.93162 17.86397 15.89780
#
# Velocity S-wave (km/s) = 2.60183 2.94623 2.77937
# Velocity P-wave (km/s) = 4.54156 5.01291 4.78304
#
# Compressibility (1/GPa) = 0.04188978
#
# Stress axis : x y z
#
# Youngs Moduli (GPa) = 46.20978 60.88029 59.13403
#
# Poissons Ratio (x) = -0.16164 0.12162
# Poissons Ratio (y) = -0.12269 0.42233
# Poissons Ratio (z) = 0.09504 0.43480
#
# Static dielectric constant tensor:
#      x y z
#    x 1.782530 0.000000 0.000000 
#    y 0.000000 1.778180 0.000000 
#    z 0.000000 0.000000 1.736130 
# 
# From -- ./inp_files/17656.got.cif
#   From: 2010.05.17/outbox.cif.g08.bks.cpg/sg55_9_cif.got.tgz:17656.got - 2010.06.03 13:27:54.
