data_PCOD9426931
_publ_section_title
;
Structure prediction by ZEFSAII (Michael W. Deem and Ramdas Pophale) SiO2 
 PCOD9426931
Probable space group: P B A M
;
_chemical_formula_sum "Si O2"
_cell_formula_units_Z 64
_cell_length_a 21.962024
_cell_length_b 17.422126
_cell_length_c 7.579725
_cell_angle_alpha 90.000000
_cell_angle_beta 90.000000
_cell_angle_gamma 90.000000
_cell_volume 2900.193410
_symmetry_space_group_name_H-M "P B A M"
_symmetry_group_IT_number 55
_symmetry_cell_setting 'orthorhombic'
loop_
_space_group_symop_operation_xyz
x,y,z
-x,-y,z
1/2+x,1/2-y,-z
1/2-x,1/2+y,-z
-x,-y,-z
x,y,-z
1/2-x,1/2+y,z
1/2+x,1/2-y,z
loop_
_atom_site_type_symbol
_atom_site_label
_atom_site_fract_x
_atom_site_fract_y
_atom_site_fract_z
Si Si1 0.571729 0.495963 0.783691
Si Si2 0.507430 0.086881 0.712915
Si Si3 0.206210 0.563060 0.296610
Si Si4 0.169988 0.125488 0.201380
Si Si5 0.266122 0.777556 0.796876
Si Si6 0.861488 0.152028 0.214427
Si Si7 0.391282 0.185918 0.794744
Si Si8 0.857914 0.591910 0.285507
O O1 0.500000 0.500000 0.731888
O O2 0.612046 0.421750 0.725625
O O3 0.608884 0.572376 0.725340
O O4 0.572204 0.494881 0.000000
O O5 0.506024 0.085645 0.500000
O O6 0.452060 0.138357 0.770320
O O7 0.574000 0.111558 0.770373
O O8 0.500000 0.000000 0.774678
O O9 0.356055 0.905836 0.500000
O O10 0.270631 0.570384 0.200950
O O11 0.165436 0.640018 0.287768
O O12 0.164043 0.493177 0.232535
O O13 0.199341 0.203179 0.283997
O O14 0.153109 0.145516 0.000000
O O15 0.204774 0.817420 0.723214
O O16 0.313465 0.845986 0.791289
O O17 0.251777 0.755537 0.000000
O O18 0.901257 0.226631 0.263111
O O19 0.857873 0.144553 0.000000
O O20 0.376324 0.188433 0.000000
O O21 0.778773 0.451820 0.500000
#
# Coordination Sequence:
#
# PCOD9426931 Si02
#       8
#     8   8   8   8   8   8   8   8
#     4   9  18  33  56  83 112 152 193 231 285 348
#     4  10  20  38  55  73 111 154 189 225 272 335
#     4  11  21  36  57  81 111 150 190 230 284 343
#     4  10  20  36  59  85 112 145 190 240 290 345
#     4  10  20  35  55  83 116 146 181 237 296 338
#     4   9  18  34  53  79 115 145 179 237 291 331
#     4  11  21  34  56  84 113 144 189 239 285 339
#     4  10  22  37  54  78 111 150 188 227 272 337
#
# _framework density 22.067492999999999
#
# number of rings (size 3 to 8) (size 9 to 14) (size 15 to 20)
#    0.000    2.000    2.500    1.500    0.000    4.250 
#    0.000    2.500    0.000    1.125    0.000    0.000 
#    0.000    0.000    0.000    0.000    0.000    0.000 
#
# Total GULP energy -357056.261104 kJ/mol
# GULP energy per Si atom -5579.004080 kJ/mol
# Density = 2.201727 g / cm^3
# Si number density = 22.067493 Si / 1000 Ang^3
#
#
#
# Elastic Constant Matrix: (Units=GPa)
#
#
# Indices 1 2 3 4 5 6 
#
# 1 129.8866 68.6409 3.1907 0.0000 0.0000 0.0000
# 2 68.6409 129.0672 3.7186 0.0000 0.0000 0.0000
# 3 3.1907 3.7186 45.8403 0.0000 0.0000 0.0000
# 4 0.0000 0.0000 0.0000 -0.0080 0.0000 0.0000
# 5 0.0000 0.0000 0.0000 0.0000 -24.9360 0.0000
# 6 0.0000 0.0000 0.0000 0.0000 0.0000 42.3149
#
#
#
# Elastic Compliance Matrix: (Units=1/GPa)
#
#
# Indices 1 2 3 4 5 6 
#
# 1 0.010712 -0.005689 -0.000284 0.000000 0.000000 0.000000
# 2 -0.005689 0.010787 -0.000479 0.000000 0.000000 0.000000
# 3 -0.000284 -0.000479 0.021873 0.000000 0.000000 0.000000
# 4 0.000000 0.000000 0.000000********** 0.000000 0.000000
# 5 0.000000 0.000000 0.000000 0.000000 -0.040103 0.000000
# 6 0.000000 0.000000 0.000000 0.000000 0.000000 0.023632
#
#
# Mechanical properties :
#
#
# Convention : Reuss Voigt Hill
#
# Bulk Modulus (GPa) = 32.82045 50.65493 41.73769
# Shear Modulus (GPa) = -0.04022 18.75712 9.35845
#
# Velocity S-wave (km/s) = -0.13515 2.91862 2.06156
# Velocity P-wave (km/s) = 3.85755 5.86192 4.96200
#
# Compressibility (1/GPa) = 0.03046881
#
# Stress axis : x y z
#
# Youngs Moduli (GPa) = 93.34965 92.70244 45.71743
#
# Poissons Ratio (x) = 0.52738 0.01299
# Poissons Ratio (y) = 0.53106 0.02190
# Poissons Ratio (z) = 0.02652 0.04441
#
# Static dielectric constant tensor:
#      x y z
#    x 1.596920 0.000000 0.000000 
#    y 0.000000 1.819870 0.000000 
#    z 0.000000 0.000000 1.849400 
# 
# From -- ./inp_files/9032.got.cif
#   From: 2010.05.17/outbox.cif.g08.bks.cpg/sg55_5_cif.got.tgz:9032.got - 2010.06.03 13:27:54.
