data_PCOD9426529
_publ_section_title
;
Structure prediction by ZEFSAII (Michael W. Deem and Ramdas Pophale) SiO2 
 PCOD9426529
Probable space group: P B A M
;
_chemical_formula_sum "Si O2"
_cell_formula_units_Z 40
_cell_length_a 33.568755
_cell_length_b 7.182946
_cell_length_c 7.557281
_cell_angle_alpha 90.000000
_cell_angle_beta 90.000000
_cell_angle_gamma 90.000000
_cell_volume 1822.230899
_symmetry_space_group_name_H-M "P B A M"
_symmetry_group_IT_number 55
_symmetry_cell_setting 'orthorhombic'
loop_
_space_group_symop_operation_xyz
x,y,z
-x,-y,z
1/2+x,1/2-y,-z
1/2-x,1/2+y,-z
-x,-y,-z
x,y,-z
1/2-x,1/2+y,z
1/2+x,1/2-y,z
loop_
_atom_site_type_symbol
_atom_site_label
_atom_site_fract_x
_atom_site_fract_y
_atom_site_fract_z
Si Si1 0.193251 0.276604 0.300530
Si Si2 0.137825 0.356434 0.000000
Si Si3 0.547268 0.211676 0.000000
Si Si4 0.781275 0.292000 0.300077
Si Si5 0.428171 0.358054 0.000000
Si Si6 0.663273 0.713193 0.000000
Si Si7 0.512485 0.720022 0.703746
O O1 0.185239 0.211060 0.500000
O O2 0.202118 0.498750 0.309131
O O3 0.235731 0.199028 0.234893
O O4 0.156271 0.253822 0.170216
O O5 0.090597 0.377005 0.000000
O O6 0.155496 0.564011 0.000000
O O7 0.555952 0.432032 0.000000
O O8 0.521477 0.180841 0.177291
O O9 0.779728 0.215730 0.500000
O O10 0.809923 0.176911 0.172175
O O11 0.447650 0.267970 0.176104
O O12 0.380853 0.365935 0.000000
O O13 0.500000 0.500000 0.697119
O O14 0.516417 0.781724 0.500000
#
# Coordination Sequence:
#
# PCOD9426529 Si02
#       7
#     8   4   4   8   4   4   8
#     4   9  18  32  48  66  90 122 158 192 227 268
#     4  10  20  32  46  67  98 127 147 182 235 276
#     4   9  18  31  49  73  93 115 154 191 220 269
#     4   9  18  32  48  66  90 122 158 192 227 268
#     4   9  18  31  49  73  93 115 154 191 220 269
#     4  10  20  32  46  67  98 127 147 182 235 276
#     4   8  15  31  52  70  92 120 148 186 232 268
#
# _framework density 21.951114
#
# number of rings (size 3 to 8) (size 9 to 14) (size 15 to 20)
#    0.000    3.000    0.000    1.800    0.000    3.200 
#    0.000    2.000    0.000    1.200    0.000    0.000 
#    0.000    0.000    0.000    0.000    0.000    0.000 
#
# Total GULP energy -223368.076612 kJ/mol
# GULP energy per Si atom -5584.201915 kJ/mol
# Density = 2.190115 g / cm^3
# Si number density = 21.951114 Si / 1000 Ang^3
#
#
#
# Elastic Constant Matrix: (Units=GPa)
#
#
# Indices 1 2 3 4 5 6 
#
# 1 157.0601 16.2028 94.9973 0.0000 0.0000 0.0000
# 2 16.2028 44.6462 15.9802 0.0000 0.0000 0.0000
# 3 94.9973 15.9802 171.7089 0.0000 0.0000 0.0000
# 4 0.0000 0.0000 0.0000 -2.3724 0.0000 0.0000
# 5 0.0000 0.0000 0.0000 0.0000 26.2611 0.0000
# 6 0.0000 0.0000 0.0000 0.0000 0.0000 31.6673
#
#
#
# Elastic Compliance Matrix: (Units=1/GPa)
#
#
# Indices 1 2 3 4 5 6 
#
# 1 0.009685 -0.001652 -0.005205 0.000000 0.000000 0.000000
# 2 -0.001652 0.023452 -0.001269 0.000000 0.000000 0.000000
# 3 -0.005205 -0.001269 0.008821 0.000000 0.000000 0.000000
# 4 0.000000 0.000000 0.000000 -0.421516 0.000000 0.000000
# 5 0.000000 0.000000 0.000000 0.000000 0.038079 0.000000
# 6 0.000000 0.000000 0.000000 0.000000 0.000000 0.031578
#
#
# Mechanical properties :
#
#
# Convention : Reuss Voigt Hill
#
# Bulk Modulus (GPa) = 38.89826 69.75288 54.32557
# Shear Modulus (GPa) = -17.53895 27.52688 4.99396
#
# Velocity S-wave (km/s) = -2.82973 3.54504 1.50996
# Velocity P-wave (km/s) = 2.66128 6.97150 5.27656
#
# Compressibility (1/GPa) = 0.02570809
#
# Stress axis : x y z
#
# Youngs Moduli (GPa) = 103.24750 42.64033 113.36141
#
# Poissons Ratio (x) = 0.07045 0.59001
# Poissons Ratio (y) = 0.17057 0.14381
# Poissons Ratio (z) = 0.53737 0.05409
#
# Static dielectric constant tensor:
#      x y z
#    x 1.781490 0.000000 0.000000 
#    y 0.000000 1.890760 0.000000 
#    z 0.000000 0.000000 1.802100 
# 
# From -- ./inp_files/10042.got.cif
#   From: 2010.05.17/outbox.cif.g08.bks.cpg/sg55_6_cif.got.tgz:10042.got - 2010.06.03 13:27:54.
