data_PCOD9426882
_publ_section_title
;
Structure prediction by ZEFSAII (Michael W. Deem and Ramdas Pophale) SiO2 
 PCOD9426882
Probable space group: P B A M
;
_chemical_formula_sum "Si O2"
_cell_formula_units_Z 48
_cell_length_a 10.546910
_cell_length_b 30.296220
_cell_length_c 7.641973
_cell_angle_alpha 90.000000
_cell_angle_beta 90.000000
_cell_angle_gamma 90.000000
_cell_volume 2441.851139
_symmetry_space_group_name_H-M "P B A M"
_symmetry_group_IT_number 55
_symmetry_cell_setting 'orthorhombic'
loop_
_space_group_symop_operation_xyz
x,y,z
-x,-y,z
1/2+x,1/2-y,-z
1/2-x,1/2+y,-z
-x,-y,-z
x,y,-z
1/2-x,1/2+y,z
1/2+x,1/2-y,z
loop_
_atom_site_type_symbol
_atom_site_label
_atom_site_fract_x
_atom_site_fract_y
_atom_site_fract_z
Si Si1 0.618193 0.030442 0.285296
Si Si2 0.868923 0.979682 0.710856
Si Si3 0.475550 0.877836 0.300254
Si Si4 0.304538 0.711438 0.710693
Si Si5 0.258346 0.612663 0.202266
Si Si6 0.516241 0.780016 0.284950
O O1 0.616837 0.031507 0.500000
O O2 0.597295 0.080466 0.222092
O O3 0.500000 0.000000 0.232096
O O4 0.747978 0.007807 0.227861
O O5 0.869708 0.982418 0.500000
O O6 0.846431 0.928730 0.756781
O O7 0.000000 0.000000 0.776454
O O8 0.430103 0.873478 0.500000
O O9 0.624869 0.890385 0.303228
O O10 0.471623 0.828651 0.223857
O O11 0.304156 0.713994 0.500000
O O12 0.319247 0.660108 0.758577
O O13 0.162956 0.725684 0.769724
O O14 0.418015 0.742682 0.772952
O O15 0.222930 0.611296 0.000000
O O16 0.517268 0.780669 0.500000
#
# Coordination Sequence:
#
# PCOD9426882 Si02
#       6
#     8   8   8   8   8   8
#     4   9  15  27  52  79 102 127 160 204 251 294
#     4  10  20  35  53  77 104 133 168 208 255 305
#     4   9  16  31  54  77 101 129 166 212 253 293
#     4   9  17  33  53  76 100 129 165 210 257 301
#     4  11  21  33  51  74 101 139 175 204 248 302
#     4   8  15  28  50  75  99 125 161 207 254 294
#
# _framework density 19.657218
#
# number of rings (size 3 to 8) (size 9 to 14) (size 15 to 20)
#    0.000    2.667    1.667    2.500    0.000    0.333 
#    3.000    5.000    0.000    0.000    0.000    0.000 
#    0.000    0.000    0.000    0.000    0.000    0.000 
#
# Total GULP energy -267728.098582 kJ/mol
# GULP energy per Si atom -5577.668720 kJ/mol
# Density = 1.961248 g / cm^3
# Si number density = 19.657218 Si / 1000 Ang^3
#
#
#
# Elastic Constant Matrix: (Units=GPa)
#
#
# Indices 1 2 3 4 5 6 
#
# 1 136.4983 113.2052 4.6026 0.0000 0.0000 0.0000
# 2 113.2052 176.2680 -2.8177 0.0000 0.0000 0.0000
# 3 4.6026 -2.8177 42.0928 0.0000 0.0000 0.0000
# 4 0.0000 0.0000 0.0000 -47.2202 0.0000 0.0000
# 5 0.0000 0.0000 0.0000 0.0000 -13.6343 0.0000
# 6 0.0000 0.0000 0.0000 0.0000 0.0000 37.4633
#
#
#
# Elastic Compliance Matrix: (Units=1/GPa)
#
#
# Indices 1 2 3 4 5 6 
#
# 1 0.015919 -0.010263 -0.002428 0.000000 0.000000 0.000000
# 2 -0.010263 0.012295 0.001945 0.000000 0.000000 0.000000
# 3 -0.002428 0.001945 0.024153 0.000000 0.000000 0.000000
# 4 0.000000 0.000000 0.000000 -0.021177 0.000000 0.000000
# 5 0.000000 0.000000 0.000000 0.000000 -0.073345 0.000000
# 6 0.000000 0.000000 0.000000 0.000000 0.000000 0.026693
#
#
# Mechanical properties :
#
#
# Convention : Reuss Voigt Hill
#
# Bulk Modulus (GPa) = 32.38653 64.98213 48.68433
# Shear Modulus (GPa) = 306.35050 11.31303 158.83177
#
# Velocity S-wave (km/s) = 12.49739 2.40159 8.99867
# Velocity P-wave (km/s) = 14.99192 6.38902 11.52339
#
# Compressibility (1/GPa) = 0.03087703
#
# Stress axis : x y z
#
# Youngs Moduli (GPa) = 62.81628 81.33131 41.40321
#
# Poissons Ratio (x) = 0.83469 0.10051
# Poissons Ratio (y) = 0.64467 -0.08054
# Poissons Ratio (z) = 0.15250 -0.15821
#
# Static dielectric constant tensor:
#      x y z
#    x 1.664240 0.000000 0.000000 
#    y 0.000000 1.685370 0.000000 
#    z 0.000000 0.000000 1.716730 
# 
# From -- ./inp_files/2794.got.cif
#   From: 2010.05.17/outbox.cif.g08.bks.cpg/sg55_2_cif.got.tgz:2794.got - 2010.06.03 13:27:54.
