data_PCOD9426941
_publ_section_title
;
Structure prediction by ZEFSAII (Michael W. Deem and Ramdas Pophale) SiO2 
 PCOD9426941
Probable space group: P B A M
;
_chemical_formula_sum "Si O2"
_cell_formula_units_Z 64
_cell_length_a 26.063584
_cell_length_b 14.500879
_cell_length_c 7.465185
_cell_angle_alpha 90.000000
_cell_angle_beta 90.000000
_cell_angle_gamma 90.000000
_cell_volume 2821.428433
_symmetry_space_group_name_H-M "P B A M"
_symmetry_group_IT_number 55
_symmetry_cell_setting 'orthorhombic'
loop_
_space_group_symop_operation_xyz
x,y,z
-x,-y,z
1/2+x,1/2-y,-z
1/2-x,1/2+y,-z
-x,-y,-z
x,y,-z
1/2-x,1/2+y,z
1/2+x,1/2-y,z
loop_
_atom_site_type_symbol
_atom_site_label
_atom_site_fract_x
_atom_site_fract_y
_atom_site_fract_z
Si Si1 0.243894 0.130817 0.293721
Si Si2 0.367670 0.864537 0.210004
Si Si3 0.367035 0.647884 0.715587
Si Si4 0.944280 0.483584 0.295948
Si Si5 0.645566 0.636989 0.212957
Si Si6 0.243576 0.348259 0.781544
Si Si7 0.645155 0.854709 0.283260
Si Si8 0.556603 0.509331 0.792349
O O1 0.243847 0.100490 0.500000
O O2 0.187937 0.108858 0.214864
O O3 0.243836 0.242951 0.286600
O O4 0.299636 0.108119 0.213535
O O5 0.372302 0.754750 0.233393
O O6 0.310479 0.890468 0.277053
O O7 0.412632 0.921516 0.299541
O O8 0.370338 0.885627 0.000000
O O9 0.365872 0.642994 0.500000
O O10 0.413687 0.587284 0.784385
O O11 0.953963 0.451163 0.500000
O O12 0.903968 0.410750 0.215772
O O13 0.000000 0.500000 0.212122
O O14 0.702532 0.609163 0.279091
O O15 0.640522 0.746514 0.241325
O O16 0.597296 0.581655 0.288622
O O17 0.646372 0.619988 0.000000
O O18 0.243016 0.344759 0.000000
O O19 0.647027 0.863672 0.500000
O O20 0.500000 0.500000 0.712021
O O21 0.549056 0.537459 0.000000
#
# Coordination Sequence:
#
# PCOD9426941 Si02
#       8
#     8   8   8   8   8   8   8   8
#     4   8  15  29  50  77 104 130 164 207 258 314
#     4  10  20  35  56  80 106 136 171 213 262 314
#     4  10  20  35  56  80 106 136 171 213 262 314
#     4  10  22  38  53  74 106 142 180 219 258 303
#     4   9  18  34  55  77 104 136 170 213 263 312
#     4   8  15  29  50  77 104 130 164 207 258 314
#     4   9  18  34  55  77 104 136 170 213 263 312
#     4  10  22  38  53  74 106 142 180 219 258 303
#
# _framework density 22.683546
#
# number of rings (size 3 to 8) (size 9 to 14) (size 15 to 20)
#    0.000    2.750    0.000    0.750    0.000    4.500 
#    0.000    2.500    0.000    0.000    0.000    0.000 
#    0.000    0.000    0.000    0.000    0.000    0.000 
#
# Total GULP energy -357160.319929 kJ/mol
# GULP energy per Si atom -5580.629999 kJ/mol
# Density = 2.263192 g / cm^3
# Si number density = 22.683546 Si / 1000 Ang^3
#
#
#
# Elastic Constant Matrix: (Units=GPa)
#
#
# Indices 1 2 3 4 5 6 
#
# 1 250.2387 62.4088 5.2930 0.0000 0.0000 0.0000
# 2 62.4088 87.6447 -17.7381 0.0000 0.0000 0.0000
# 3 5.2930 -17.7381 81.2794 0.0000 0.0000 0.0000
# 4 0.0000 0.0000 0.0000 11.6644 0.0000 0.0000
# 5 0.0000 0.0000 0.0000 0.0000 5.5845 0.0000
# 6 0.0000 0.0000 0.0000 0.0000 0.0000 34.6245
#
#
#
# Elastic Compliance Matrix: (Units=1/GPa)
#
#
# Indices 1 2 3 4 5 6 
#
# 1 0.004959 -0.003762 -0.001144 0.000000 0.000000 0.000000
# 2 -0.003762 0.014792 0.003473 0.000000 0.000000 0.000000
# 3 -0.001144 0.003473 0.013136 0.000000 0.000000 0.000000
# 4 0.000000 0.000000 0.000000 0.085731 0.000000 0.000000
# 5 0.000000 0.000000 0.000000 0.000000 0.179067 0.000000
# 6 0.000000 0.000000 0.000000 0.000000 0.000000 0.028881
#
#
# Mechanical properties :
#
#
# Convention : Reuss Voigt Hill
#
# Bulk Modulus (GPa) = 33.31181 57.67667 45.49424
# Shear Modulus (GPa) = 14.73023 34.98796 24.85909
#
# Velocity S-wave (km/s) = 2.55106 3.93165 3.31404
# Velocity P-wave (km/s) = 4.83679 6.78913 5.89436
#
# Compressibility (1/GPa) = 0.03001938
#
# Stress axis : x y z
#
# Youngs Moduli (GPa) = 201.66440 67.60525 76.12845
#
# Poissons Ratio (x) = 0.25436 0.08709
# Poissons Ratio (y) = 0.75876 -0.26440
# Poissons Ratio (z) = 0.23071 -0.23480
#
# Static dielectric constant tensor:
#      x y z
#    x 1.886830 0.000000 0.000000 
#    y 0.000000 1.824150 0.000000 
#    z 0.000000 0.000000 1.983970 
# 
# From -- ./inp_files/9714.got.cif
#   From: 2010.05.17/outbox.cif.g08.bks.cpg/sg55_5_cif.got.tgz:9714.got - 2010.06.03 13:27:54.
