data_PCOD9426479
_publ_section_title
;
Structure prediction by ZEFSAII (Michael W. Deem and Ramdas Pophale) SiO2 
 PCOD9426479
Probable space group: P B A M
;
_chemical_formula_sum "Si O2"
_cell_formula_units_Z 64
_cell_length_a 8.443006
_cell_length_b 19.358710
_cell_length_c 19.428121
_cell_angle_alpha 90.000000
_cell_angle_beta 90.000000
_cell_angle_gamma 90.000000
_cell_volume 3175.442927
_symmetry_space_group_name_H-M "P B A M"
_symmetry_group_IT_number 55
_symmetry_cell_setting 'orthorhombic'
loop_
_space_group_symop_operation_xyz
x,y,z
-x,-y,z
1/2+x,1/2-y,-z
1/2-x,1/2+y,-z
-x,-y,-z
x,y,-z
1/2-x,1/2+y,z
1/2+x,1/2-y,z
loop_
_atom_site_type_symbol
_atom_site_label
_atom_site_fract_x
_atom_site_fract_y
_atom_site_fract_z
Si Si1 0.139661 0.317157 0.265317
Si Si2 0.900776 0.433501 0.691960
Si Si3 0.341087 0.952792 0.926533
Si Si4 0.804447 0.840920 0.920042
Si Si5 0.569139 0.712578 0.646473
Si Si6 0.762521 0.837953 0.580515
Si Si7 0.445773 0.802321 0.110905
Si Si8 0.159785 0.034659 0.814965
O O1 0.306832 0.325578 0.303616
O O2 0.137161 0.299849 0.185418
O O3 0.031367 0.383429 0.275216
O O4 0.046399 0.255928 0.303858
O O5 0.817144 0.395552 0.628500
O O6 0.773117 0.446916 0.751728
O O7 0.000000 0.500000 0.670204
O O8 0.377784 0.871737 0.923414
O O9 0.500000 0.000000 0.923886
O O10 0.241697 0.976718 0.862051
O O11 0.261700 0.967420 0.000000
O O12 0.912183 0.772441 0.920828
O O13 0.633337 0.816956 0.890898
O O14 0.862558 0.900195 0.867184
O O15 0.786425 0.864614 0.000000
O O16 0.671194 0.766575 0.600850
O O17 0.447795 0.669185 0.600413
O O18 0.743430 0.850966 0.500000
O O19 0.000000 0.000000 0.788919
#
# Coordination Sequence:
#
# PCOD9426479 Si02
#       8
#     8   8   8   8   8   8   8   8
#     4  10  19  38  63  93 128 171 220 271 322 380
#     4  11  24  44  65  94 127 168 225 277 332 396
#     4  11  22  42  66  86 120 177 227 270 336 411
#     4  12  26  43  62  96 135 172 221 281 350 410
#     4   9  20  35  65 100 134 171 218 265 312 385
#     4  10  21  39  67 101 141 176 210 260 326 398
#     4  12  24  40  65  92 134 170 218 281 345 399
#     4  12  27  45  68  93 126 174 231 293 338 408
#
# _framework density 20.154668999999998
#
# number of rings (size 3 to 8) (size 9 to 14) (size 15 to 20)
#    0.000    1.125    2.500    3.750    5.250    3.250 
#    0.000    0.625    0.000    2.625    0.000    0.000 
#    0.000    0.000    0.000    0.000    0.000    0.000 
#
# Total GULP energy -357605.961884 kJ/mol
# GULP energy per Si atom -5587.593154 kJ/mol
# Density = 2.010880 g / cm^3
# Si number density = 20.154669 Si / 1000 Ang^3
#
#
#
# Elastic Constant Matrix: (Units=GPa)
#
#
# Indices 1 2 3 4 5 6 
#
# 1 81.6513 49.0741 43.1755 0.0000 0.0000 0.0000
# 2 49.0741 94.2605 18.2139 0.0000 0.0000 0.0000
# 3 43.1755 18.2139 102.0138 0.0000 0.0000 0.0000
# 4 0.0000 0.0000 0.0000 -20.6552 0.0000 0.0000
# 5 0.0000 0.0000 0.0000 0.0000 32.7197 0.0000
# 6 0.0000 0.0000 0.0000 0.0000 0.0000 1.9721
#
#
#
# Elastic Compliance Matrix: (Units=1/GPa)
#
#
# Indices 1 2 3 4 5 6 
#
# 1 0.022433 -0.010196 -0.007674 0.000000 0.000000 0.000000
# 2 -0.010196 0.015623 0.001526 0.000000 0.000000 0.000000
# 3 -0.007674 0.001526 0.012778 0.000000 0.000000 0.000000
# 4 0.000000 0.000000 0.000000 -0.048414 0.000000 0.000000
# 5 0.000000 0.000000 0.000000 0.000000 0.030563 0.000000
# 6 0.000000 0.000000 0.000000 0.000000 0.000000 0.507063
#
#
# Mechanical properties :
#
#
# Convention : Reuss Voigt Hill
#
# Bulk Modulus (GPa) = 55.11079 55.42806 55.26942
# Shear Modulus (GPa) = 8.63882 13.97148 11.30515
#
# Velocity S-wave (km/s) = 2.07258 2.63575 2.37094
# Velocity P-wave (km/s) = 5.75593 6.06827 5.91416
#
# Compressibility (1/GPa) = 0.01814527
#
# Stress axis : x y z
#
# Youngs Moduli (GPa) = 44.57655 64.01021 78.25968
#
# Poissons Ratio (x) = 0.65268 0.60056
# Poissons Ratio (y) = 0.45452 -0.11944
# Poissons Ratio (z) = 0.34208 -0.09769
#
# Static dielectric constant tensor:
#      x y z
#    x 1.800120 0.000000 0.000000 
#    y 0.000000 1.721890 0.000000 
#    z 0.000000 0.000000 1.741900 
# 
# From -- ./inp_files/21085.got.cif
#   From: 2010.05.17/outbox.cif.g08.bks.cpg/sg55_11_cif.got.tgz:21085.got - 2010.06.03 13:27:54.
