data_PCOD9426328
_publ_section_title
;
Structure prediction by ZEFSAII (Michael W. Deem and Ramdas Pophale) SiO2 
 PCOD9426328
Probable space group: P B A M
;
_chemical_formula_sum "Si O2"
_cell_formula_units_Z 56
_cell_length_a 19.839941
_cell_length_b 19.449885
_cell_length_c 8.615394
_cell_angle_alpha 90.000000
_cell_angle_beta 90.000000
_cell_angle_gamma 90.000000
_cell_volume 3324.547616
_symmetry_space_group_name_H-M "P B A M"
_symmetry_group_IT_number 55
_symmetry_cell_setting 'orthorhombic'
loop_
_space_group_symop_operation_xyz
x,y,z
-x,-y,z
1/2+x,1/2-y,-z
1/2-x,1/2+y,-z
-x,-y,-z
x,y,-z
1/2-x,1/2+y,z
1/2+x,1/2-y,z
loop_
_atom_site_type_symbol
_atom_site_label
_atom_site_fract_x
_atom_site_fract_y
_atom_site_fract_z
Si Si1 0.273094 0.854254 0.813813
Si Si2 0.377253 0.750731 0.315249
Si Si3 0.950070 0.062503 0.312716
Si Si4 0.834538 0.261345 0.188117
Si Si5 0.298839 0.482894 0.314170
Si Si6 0.777524 0.865053 0.186619
Si Si7 0.020595 0.786753 0.813686
O O1 0.339589 0.818911 0.745300
O O2 0.211279 0.803893 0.765030
O O3 0.254948 0.929461 0.754050
O O4 0.276960 0.853457 0.000000
O O5 0.373154 0.747305 0.500000
O O6 0.335967 0.686329 0.244191
O O7 0.453804 0.744819 0.259973
O O8 0.952503 0.070991 0.500000
O O9 0.873865 0.042420 0.267739
O O10 0.972048 0.133596 0.235121
O O11 0.000000 0.000000 0.271933
O O12 0.792873 0.328794 0.235517
O O13 0.910871 0.251151 0.240544
O O14 0.835810 0.261095 0.000000
O O15 0.295853 0.482002 0.500000
O O16 0.286943 0.559601 0.254233
O O17 0.779626 0.867487 0.000000
O O18 0.016193 0.782489 0.000000
#
# Coordination Sequence:
#
# PCOD9426328 Si02
#       7
#     8   8   8   8   8   8   8
#     4  10  19  36  57  78 104 142 187 227 266 322
#     4  11  22  36  53  79 111 142 178 226 276 325
#     4  10  21  34  48  73 113 150 178 214 264 322
#     4   8  17  33  54  78 103 133 179 227 265 313
#     4  11  21  33  52  81 114 146 179 222 274 323
#     4  10  20  36  56  79 107 143 183 225 268 322
#     4  11  20  34  55  79 105 140 181 222 269 324
#
# _framework density 16.844397000000001
#
# number of rings (size 3 to 8) (size 9 to 14) (size 15 to 20)
#    0.000    1.857    1.429    4.714    0.000    2.000 
#    0.000    2.143    0.000    0.857    0.000    6.000 
#    0.000    0.000    0.000    0.000    0.000    0.000 
#
# Total GULP energy -312673.569811 kJ/mol
# GULP energy per Si atom -5583.456604 kJ/mol
# Density = 1.680606 g / cm^3
# Si number density = 16.844397 Si / 1000 Ang^3
#
#
#
# Elastic Constant Matrix: (Units=GPa)
#
#
# Indices 1 2 3 4 5 6 
#
# 1 119.2526 24.6169 22.1697 0.0000 0.0000 0.0000
# 2 24.6169 25.6814 8.8643 0.0000 0.0000 0.0000
# 3 22.1697 8.8643 48.1175 0.0000 0.0000 0.0000
# 4 0.0000 0.0000 0.0000 23.3711 0.0000 0.0000
# 5 0.0000 0.0000 0.0000 0.0000 20.3709 0.0000
# 6 0.0000 0.0000 0.0000 0.0000 0.0000 24.6157
#
#
#
# Elastic Compliance Matrix: (Units=1/GPa)
#
#
# Indices 1 2 3 4 5 6 
#
# 1 0.010928 -0.009331 -0.003316 0.000000 0.000000 0.000000
# 2 -0.009331 0.049549 -0.004829 0.000000 0.000000 0.000000
# 3 -0.003316 -0.004829 0.023200 0.000000 0.000000 0.000000
# 4 0.000000 0.000000 0.000000 0.042788 0.000000 0.000000
# 5 0.000000 0.000000 0.000000 0.000000 0.049090 0.000000
# 6 0.000000 0.000000 0.000000 0.000000 0.000000 0.040624
#
#
# Mechanical properties :
#
#
# Convention : Reuss Voigt Hill
#
# Bulk Modulus (GPa) = 20.52298 33.81702 27.17000
# Shear Modulus (GPa) = 18.70047 22.83157 20.76602
#
# Velocity S-wave (km/s) = 3.33556 3.68562 3.51496
# Velocity P-wave (km/s) = 5.20048 6.18316 5.71299
#
# Compressibility (1/GPa) = 0.04872587
#
# Stress axis : x y z
#
# Youngs Moduli (GPa) = 91.50702 20.18191 43.10348
#
# Poissons Ratio (x) = 0.18831 0.14294
# Poissons Ratio (y) = 0.85381 0.20815
# Poissons Ratio (z) = 0.30345 0.09746
#
# Static dielectric constant tensor:
#      x y z
#    x 1.570250 0.000000 0.000000 
#    y 0.000000 1.540400 0.000000 
#    z 0.000000 0.000000 1.565570 
# 
# From -- ./inp_files/7795.got.cif
#   From: 2010.05.17/outbox.cif.g08.bks.cpg/sg55_4_cif.got.tgz:7795.got - 2010.06.03 13:27:54.
