data_PCOD9426976
_publ_section_title
;
Structure prediction by ZEFSAII (Michael W. Deem and Ramdas Pophale) SiO2 
 PCOD9426976
Probable space group: P B A M
;
_chemical_formula_sum "Si O2"
_cell_formula_units_Z 48
_cell_length_a 27.574097
_cell_length_b 5.067606
_cell_length_c 17.291631
_cell_angle_alpha 90.000000
_cell_angle_beta 90.000000
_cell_angle_gamma 90.000000
_cell_volume 2416.240168
_symmetry_space_group_name_H-M "P B A M"
_symmetry_group_IT_number 55
_symmetry_cell_setting 'orthorhombic'
loop_
_space_group_symop_operation_xyz
x,y,z
-x,-y,z
1/2+x,1/2-y,-z
1/2-x,1/2+y,-z
-x,-y,-z
x,y,-z
1/2-x,1/2+y,z
1/2+x,1/2-y,z
loop_
_atom_site_type_symbol
_atom_site_label
_atom_site_fract_x
_atom_site_fract_y
_atom_site_fract_z
Si Si1 0.639470 0.788428 0.583755
Si Si2 0.635019 0.993012 0.792337
Si Si3 0.218360 0.447378 0.334591
Si Si4 0.404439 0.499932 0.715678
Si Si5 0.717646 0.917893 0.906944
Si Si6 0.452874 0.819509 0.588967
O O1 0.636883 0.662273 0.500000
O O2 0.686796 0.967015 0.591818
O O3 0.635753 0.568604 0.649951
O O4 0.593449 0.983799 0.594014
O O5 0.680793 0.995925 0.734055
O O6 0.597039 0.767231 0.766097
O O7 0.663737 0.946638 0.871913
O O8 0.609744 0.270592 0.774948
O O9 0.238099 0.154679 0.330634
O O10 0.446256 0.606626 0.657696
O O11 0.746090 0.653747 0.882772
O O12 0.714333 0.921113 0.000000
O O13 0.454616 0.713529 0.500000
O O14 0.500000 0.000000 0.599985
#
# Coordination Sequence:
#
# PCOD9426976 Si02
#       6
#     8   8   8   8   8   8
#     4  10  22  38  54  75 108 143 187 241 285 334
#     4  11  21  35  57  78 112 151 187 227 269 332
#     4  11  21  33  50  72 100 142 186 218 263 313
#     4  11  20  38  55  81 108 143 183 232 284 341
#     4  10  20  35  56  86 120 154 194 236 276 327
#     4  10  21  39  62  84 109 145 189 245 313 364
#
# _framework density 19.865573999999999
#
# number of rings (size 3 to 8) (size 9 to 14) (size 15 to 20)
#    0.000    1.500    3.333    4.500    0.000    1.333 
#    0.000    2.500    0.000    0.000    0.000    0.000 
#    0.000    4.000    0.000    0.000    0.000    0.000 
#
# Total GULP energy -267767.683524 kJ/mol
# GULP energy per Si atom -5578.493407 kJ/mol
# Density = 1.982036 g / cm^3
# Si number density = 19.865574 Si / 1000 Ang^3
#
#
#
# Elastic Constant Matrix: (Units=GPa)
#
#
# Indices 1 2 3 4 5 6 
#
# 1 59.4161 9.2969 0.4350 0.0000 0.0000 0.0000
# 2 9.2969 85.5944 5.3911 0.0000 0.0000 0.0000
# 3 0.4350 5.3911 42.5052 0.0000 0.0000 0.0000
# 4 0.0000 0.0000 0.0000 8.1243 0.0000 0.0000
# 5 0.0000 0.0000 0.0000 0.0000 48.2680 0.0000
# 6 0.0000 0.0000 0.0000 0.0000 0.0000 26.0386
#
#
#
# Elastic Compliance Matrix: (Units=1/GPa)
#
#
# Indices 1 2 3 4 5 6 
#
# 1 0.017122 -0.001864 0.000061 0.000000 0.000000 0.000000
# 2 -0.001864 0.011980 -0.001500 0.000000 0.000000 0.000000
# 3 0.000061 -0.001500 0.023716 0.000000 0.000000 0.000000
# 4 0.000000 0.000000 0.000000 0.123087 0.000000 0.000000
# 5 0.000000 0.000000 0.000000 0.000000 0.020718 0.000000
# 6 0.000000 0.000000 0.000000 0.000000 0.000000 0.038405
#
#
# Mechanical properties :
#
#
# Convention : Reuss Voigt Hill
#
# Bulk Modulus (GPa) = 21.63933 24.19575 22.91754
# Shear Modulus (GPa) = 19.45246 27.97904 23.71575
#
# Velocity S-wave (km/s) = 3.13262 3.75696 3.45891
# Velocity P-wave (km/s) = 4.89907 5.57009 5.24532
#
# Compressibility (1/GPa) = 0.04621216
#
# Stress axis : x y z
#
# Youngs Moduli (GPa) = 58.40581 83.47302 42.16526
#
# Poissons Ratio (x) = 0.15555 -0.00258
# Poissons Ratio (y) = 0.10884 0.06326
# Poissons Ratio (z) = -0.00357 0.12524
#
# Static dielectric constant tensor:
#      x y z
#    x 1.732020 0.000000 0.000000 
#    y 0.000000 1.762290 0.000000 
#    z 0.000000 0.000000 1.760000 
# 
# From -- ./inp_files/22063.got.cif
#   From: 2010.05.17/outbox.cif.g08.bks.cpg/sg55_12_cif.got.tgz:22063.got - 2010.06.03 13:27:54.
