data_PCOD9426372
_publ_section_title
;
Structure prediction by ZEFSAII (Michael W. Deem and Ramdas Pophale) SiO2 
 PCOD9426372
Probable space group: P B A M
;
_chemical_formula_sum "Si O2"
_cell_formula_units_Z 64
_cell_length_a 31.355672
_cell_length_b 12.270034
_cell_length_c 7.583123
_cell_angle_alpha 90.000000
_cell_angle_beta 90.000000
_cell_angle_gamma 90.000000
_cell_volume 2917.494052
_symmetry_space_group_name_H-M "P B A M"
_symmetry_group_IT_number 55
_symmetry_cell_setting 'orthorhombic'
loop_
_space_group_symop_operation_xyz
x,y,z
-x,-y,z
1/2+x,1/2-y,-z
1/2-x,1/2+y,-z
-x,-y,-z
x,y,-z
1/2-x,1/2+y,z
1/2+x,1/2-y,z
loop_
_atom_site_type_symbol
_atom_site_label
_atom_site_fract_x
_atom_site_fract_y
_atom_site_fract_z
Si Si1 0.917657 0.230781 0.209109
Si Si2 0.883436 0.820424 0.794931
Si Si3 0.324982 0.270542 0.298516
Si Si4 0.044070 0.549742 0.711982
Si Si5 0.871333 0.570801 0.293850
Si Si6 0.049257 0.003472 0.784239
Si Si7 0.690192 0.489390 0.285946
Si Si8 0.712872 0.948774 0.716455
O O1 0.873683 0.268153 0.295985
O O2 0.952420 0.322493 0.246783
O O3 0.929758 0.110512 0.272416
O O4 0.910754 0.225675 0.000000
O O5 0.876353 0.700864 0.717686
O O6 0.922591 0.893916 0.722717
O O7 0.841358 0.895262 0.778033
O O8 0.892451 0.802090 0.000000
O O9 0.310020 0.283227 0.500000
O O10 0.324452 0.391384 0.221353
O O11 0.297483 0.173509 0.220418
O O12 0.043943 0.536937 0.500000
O O13 0.086588 0.488767 0.781428
O O14 0.000000 0.500000 0.779981
O O15 0.870542 0.541601 0.500000
O O16 0.825853 0.526970 0.223484
O O17 0.050047 0.005111 0.000000
O O18 0.000000 0.000000 0.730238
O O19 0.687746 0.484894 0.500000
O O20 0.739344 0.478358 0.231610
O O21 0.712768 0.949285 0.500000
#
# Coordination Sequence:
#
# PCOD9426372 Si02
#       8
#     8   8   8   8   8   8   8   8
#     4  11  21  36  61  86 113 149 192 236 282 341
#     4  11  23  39  58  82 118 153 185 234 291 341
#     4  10  19  36  60  84 113 147 188 238 288 332
#     4  10  22  40  61  86 118 152 187 237 293 336
#     4  10  21  39  60  82 114 152 191 234 280 337
#     4   9  20  38  57  79 111 152 190 229 279 333
#     4  10  21  36  61  88 111 147 195 238 280 340
#     4   9  19  36  60  86 111 147 192 237 280 332
#
# _framework density 21.936633
#
# number of rings (size 3 to 8) (size 9 to 14) (size 15 to 20)
#    0.000    2.000    2.500    0.750    3.500    0.750 
#    0.000    1.250    0.000    3.000    0.000    0.000 
#    0.000    0.000    0.000    0.000    0.000    0.000 
#
# Total GULP energy -357434.506012 kJ/mol
# GULP energy per Si atom -5584.914156 kJ/mol
# Density = 2.188670 g / cm^3
# Si number density = 21.936633 Si / 1000 Ang^3
#
#
#
# Elastic Constant Matrix: (Units=GPa)
#
#
# Indices 1 2 3 4 5 6 
#
# 1 106.6118 26.1167 2.4671 0.0000 0.0000 0.0000
# 2 26.1167 98.2903 -10.7720 0.0000 0.0000 0.0000
# 3 2.4671 -10.7720 44.8713 0.0000 0.0000 0.0000
# 4 0.0000 0.0000 0.0000 1.8465 0.0000 0.0000
# 5 0.0000 0.0000 0.0000 0.0000 5.6165 0.0000
# 6 0.0000 0.0000 0.0000 0.0000 0.0000 37.7050
#
#
#
# Elastic Compliance Matrix: (Units=1/GPa)
#
#
# Indices 1 2 3 4 5 6 
#
# 1 0.010099 -0.002818 -0.001232 0.000000 0.000000 0.000000
# 2 -0.002818 0.011235 0.002852 0.000000 0.000000 0.000000
# 3 -0.001232 0.002852 0.023038 0.000000 0.000000 0.000000
# 4 0.000000 0.000000 0.000000 0.541560 0.000000 0.000000
# 5 0.000000 0.000000 0.000000 0.000000 0.178046 0.000000
# 6 0.000000 0.000000 0.000000 0.000000 0.000000 0.026522
#
#
# Mechanical properties :
#
#
# Convention : Reuss Voigt Hill
#
# Bulk Modulus (GPa) = 23.82282 31.71077 27.76680
# Shear Modulus (GPa) = 6.19665 24.49771 15.34718
#
# Velocity S-wave (km/s) = 1.68254 3.34540 2.64789
# Velocity P-wave (km/s) = 3.82857 5.42304 4.69400
#
# Compressibility (1/GPa) = 0.04197656
#
# Stress axis : x y z
#
# Youngs Moduli (GPa) = 99.02225 89.00454 43.40575
#
# Poissons Ratio (x) = 0.25084 0.05347
# Poissons Ratio (y) = 0.27908 -0.12380
# Poissons Ratio (z) = 0.12198 -0.25386
#
# Static dielectric constant tensor:
#      x y z
#    x 1.805790 0.000000 0.000000 
#    y 0.000000 1.776550 0.000000 
#    z 0.000000 0.000000 1.848800 
# 
# From -- ./inp_files/10795.got.cif
#   From: 2010.05.17/outbox.cif.g08.bks.cpg/sg55_6_cif.got.tgz:10795.got - 2010.06.03 13:27:54.
