data_PCOD9426347
_publ_section_title
;
Structure prediction by ZEFSAII (Michael W. Deem and Ramdas Pophale) SiO2 
 PCOD9426347
Probable space group: P B A M
;
_chemical_formula_sum "Si O2"
_cell_formula_units_Z 44
_cell_length_a 4.868711
_cell_length_b 15.522669
_cell_length_c 27.427345
_cell_angle_alpha 90.000000
_cell_angle_beta 90.000000
_cell_angle_gamma 90.000000
_cell_volume 2072.832276
_symmetry_space_group_name_H-M "P B A M"
_symmetry_group_IT_number 55
_symmetry_cell_setting 'orthorhombic'
loop_
_space_group_symop_operation_xyz
x,y,z
-x,-y,z
1/2+x,1/2-y,-z
1/2-x,1/2+y,-z
-x,-y,-z
x,y,-z
1/2-x,1/2+y,z
1/2+x,1/2-y,z
loop_
_atom_site_type_symbol
_atom_site_label
_atom_site_fract_x
_atom_site_fract_y
_atom_site_fract_z
Si Si1 0.690272 0.807872 0.804096
Si Si2 0.752536 0.435284 0.000000
Si Si3 0.481403 0.694171 0.557710
Si Si4 0.753816 0.556160 0.372929
Si Si5 0.446683 0.187289 0.301561
Si Si6 0.885837 0.310239 0.088091
O O1 0.508730 0.719328 0.803180
O O2 0.084837 0.651693 0.753896
O O3 0.639844 0.847398 0.857054
O O4 0.500000 0.500000 0.000000
O O5 0.784566 0.375077 0.952778
O O6 0.000000 0.500000 0.000000
O O7 0.505876 0.677219 0.500000
O O8 0.171969 0.722518 0.568808
O O9 0.599271 0.616382 0.588408
O O10 0.500000 0.500000 0.351371
O O11 0.921977 0.613690 0.334372
O O12 0.000000 0.500000 0.396276
O O13 0.148865 0.230291 0.309389
O O14 0.693761 0.225333 0.083319
#
# Coordination Sequence:
#
# PCOD9426347 Si02
#       6
#     8   4   8   8   8   8
#     4   8  16  30  55  82 100 129 182 233 266 310
#     4  12  24  36  52  82 120 152 182 226 286 342
#     4  10  21  39  61  82 107 147 196 237 277 334
#     4  12  24  36  54  84 119 150 182 229 287 343
#     4  10  19  36  59  80 106 144 187 230 276 332
#     4  10  19  36  59  81 105 143 191 232 272 326
#
# _framework density 21.226997000000001
#
# number of rings (size 3 to 8) (size 9 to 14) (size 15 to 20)
#    0.000    1.818    0.000    4.909    0.000    0.727 
#    0.000    0.909    0.000    2.182    0.000    0.000 
#    0.000    0.000    0.000    0.000    0.000    0.000 
#
# Total GULP energy -245510.756517 kJ/mol
# GULP energy per Si atom -5579.789921 kJ/mol
# Density = 2.117868 g / cm^3
# Si number density = 21.226997 Si / 1000 Ang^3
#
#
#
# Elastic Constant Matrix: (Units=GPa)
#
#
# Indices 1 2 3 4 5 6 
#
# 1 104.0151 5.9408 6.8472 0.0000 0.0000 0.0000
# 2 5.9408 49.2180 33.6390 0.0000 0.0000 0.0000
# 3 6.8472 33.6390 95.7738 0.0000 0.0000 0.0000
# 4 0.0000 0.0000 0.0000 -6.9788 0.0000 0.0000
# 5 0.0000 0.0000 0.0000 0.0000 23.6428 0.0000
# 6 0.0000 0.0000 0.0000 0.0000 0.0000 31.5875
#
#
#
# Elastic Compliance Matrix: (Units=1/GPa)
#
#
# Indices 1 2 3 4 5 6 
#
# 1 0.009691 -0.000916 -0.000371 0.000000 0.000000 0.000000
# 2 -0.000916 0.026823 -0.009355 0.000000 0.000000 0.000000
# 3 -0.000371 -0.009355 0.013754 0.000000 0.000000 0.000000
# 4 0.000000 0.000000 0.000000 -0.143291 0.000000 0.000000
# 5 0.000000 0.000000 0.000000 0.000000 0.042296 0.000000
# 6 0.000000 0.000000 0.000000 0.000000 0.000000 0.031658
#
#
# Mechanical properties :
#
#
# Convention : Reuss Voigt Hill
#
# Bulk Modulus (GPa) = 34.50448 37.98455 36.24451
# Shear Modulus (GPa) = 421.01357 23.15563 222.08460
#
# Velocity S-wave (km/s) = 14.09856 3.30640 10.23967
# Velocity P-wave (km/s) = 16.77248 5.70172 12.52649
#
# Compressibility (1/GPa) = 0.02898174
#
# Stress axis : x y z
#
# Youngs Moduli (GPa) = 103.19133 37.28207 72.70740
#
# Poissons Ratio (x) = 0.03415 0.02698
# Poissons Ratio (y) = 0.09453 0.68021
# Poissons Ratio (z) = 0.03829 0.34879
#
# Static dielectric constant tensor:
#      x y z
#    x 1.742420 0.000000 0.000000 
#    y 0.000000 1.753770 0.000000 
#    z 0.000000 0.000000 1.815090 
# 
# From -- ./inp_files/23784.got.cif
#   From: 2010.05.17/outbox.cif.g08.bks.cpg/sg55_12_cif.got.tgz:23784.got - 2010.06.03 13:27:54.
