data_PCOD9426369
_publ_section_title
;
Structure prediction by ZEFSAII (Michael W. Deem and Ramdas Pophale) SiO2 
 PCOD9426369
Probable space group: P B A M
;
_chemical_formula_sum "Si O2"
_cell_formula_units_Z 40
_cell_length_a 8.740309
_cell_length_b 25.432247
_cell_length_c 8.544390
_cell_angle_alpha 90.000000
_cell_angle_beta 90.000000
_cell_angle_gamma 90.000000
_cell_volume 1899.295690
_symmetry_space_group_name_H-M "P B A M"
_symmetry_group_IT_number 55
_symmetry_cell_setting 'orthorhombic'
loop_
_space_group_symop_operation_xyz
x,y,z
-x,-y,z
1/2+x,1/2-y,-z
1/2-x,1/2+y,-z
-x,-y,-z
x,y,-z
1/2-x,1/2+y,z
1/2+x,1/2-y,z
loop_
_atom_site_type_symbol
_atom_site_label
_atom_site_fract_x
_atom_site_fract_y
_atom_site_fract_z
Si Si1 0.332979 0.023482 0.811762
Si Si2 0.828197 0.677706 0.689320
Si Si3 0.661396 0.380908 0.314179
Si Si4 0.660153 0.578817 0.813536
Si Si5 0.840436 0.280563 0.309290
O O1 0.294468 0.077949 0.728942
O O2 0.500000 0.000000 0.778026
O O3 0.209968 0.979335 0.761034
O O4 0.321979 0.031039 0.000000
O O5 0.827220 0.674574 0.500000
O O6 0.782574 0.621518 0.755502
O O7 0.704972 0.721950 0.738786
O O8 0.993835 0.698870 0.739994
O O9 0.641151 0.378505 0.500000
O O10 0.505271 0.402421 0.242208
O O11 0.713347 0.323127 0.259891
O O12 0.661981 0.577720 0.000000
O O13 0.841396 0.280266 0.500000
#
# Coordination Sequence:
#
# PCOD9426369 Si02
#       5
#     8   8   8   8   8
#     4  10  22  40  59  80 112 151 186 229 286 338
#     4  10  19  36  60  83 110 144 183 225 274 330
#     4  11  22  37  59  86 114 147 189 233 278 331
#     4  11  23  38  56  81 113 148 186 228 279 333
#     4   9  19  35  58  86 113 143 180 228 281 328
#
# _framework density 21.060438000000001
#
# number of rings (size 3 to 8) (size 9 to 14) (size 15 to 20)
#    0.000    1.800    0.000    4.200    0.000    7.600 
#    0.000    6.000    0.000    0.000    0.000    0.000 
#    0.000    0.000    0.000    0.000    0.000    0.000 
#
# Total GULP energy -223648.785865 kJ/mol
# GULP energy per Si atom -5591.219647 kJ/mol
# Density = 2.101250 g / cm^3
# Si number density = 21.060438 Si / 1000 Ang^3
#
#
#
# Elastic Constant Matrix: (Units=GPa)
#
#
# Indices 1 2 3 4 5 6 
#
# 1 46.8040 -25.9543 0.0380 0.0000 0.0000 0.0000
# 2 -25.9543 63.8501 5.3582 0.0000 0.0000 0.0000
# 3 0.0380 5.3582 15.5894 0.0000 0.0000 0.0000
# 4 0.0000 0.0000 0.0000 40.4967 0.0000 0.0000
# 5 0.0000 0.0000 0.0000 0.0000 27.2969 0.0000
# 6 0.0000 0.0000 0.0000 0.0000 0.0000 37.7623
#
#
#
# Elastic Compliance Matrix: (Units=1/GPa)
#
#
# Indices 1 2 3 4 5 6 
#
# 1 0.027832 0.011655 -0.004074 0.000000 0.000000 0.000000
# 2 0.011655 0.021008 -0.007249 0.000000 0.000000 0.000000
# 3 -0.004074 -0.007249 0.066648 0.000000 0.000000 0.000000
# 4 0.000000 0.000000 0.000000 0.024693 0.000000 0.000000
# 5 0.000000 0.000000 0.000000 0.000000 0.036634 0.000000
# 6 0.000000 0.000000 0.000000 0.000000 0.000000 0.026481
#
#
# Mechanical properties :
#
#
# Convention : Reuss Voigt Hill
#
# Bulk Modulus (GPa) = 8.60937 9.45859 9.03398
# Shear Modulus (GPa) = 20.71688 30.89796 25.80742
#
# Velocity S-wave (km/s) = 3.13978 3.83444 3.50437
# Velocity P-wave (km/s) = 4.15224 4.90967 4.54675
#
# Compressibility (1/GPa) = 0.11615255
#
# Stress axis : x y z
#
# Youngs Moduli (GPa) = 35.92946 47.60143 15.00431
#
# Poissons Ratio (x) = -0.55481 0.06113
# Poissons Ratio (y) = -0.41877 0.10877
# Poissons Ratio (z) = 0.14637 0.34506
#
# Static dielectric constant tensor:
#      x y z
#    x 1.771730 0.000000 0.000000 
#    y 0.000000 1.734900 0.000000 
#    z 0.000000 0.000000 1.716160 
# 
# From -- ./inp_files/2287.got.cif
#   From: 2010.05.17/outbox.cif.g08.bks.cpg/sg55_2_cif.got.tgz:2287.got - 2010.06.03 13:27:54.
