data_PCOD9426317
_publ_section_title
;
Structure prediction by ZEFSAII (Michael W. Deem and Ramdas Pophale) SiO2 
 PCOD9426317
Probable space group: P B A M
;
_chemical_formula_sum "Si O2"
_cell_formula_units_Z 64
_cell_length_a 11.878575
_cell_length_b 22.951952
_cell_length_c 13.657725
_cell_angle_alpha 90.000000
_cell_angle_beta 90.000000
_cell_angle_gamma 90.000000
_cell_volume 3723.594113
_symmetry_space_group_name_H-M "P B A M"
_symmetry_group_IT_number 55
_symmetry_cell_setting 'orthorhombic'
loop_
_space_group_symop_operation_xyz
x,y,z
-x,-y,z
1/2+x,1/2-y,-z
1/2-x,1/2+y,-z
-x,-y,-z
x,y,-z
1/2-x,1/2+y,z
1/2+x,1/2-y,z
loop_
_atom_site_type_symbol
_atom_site_label
_atom_site_fract_x
_atom_site_fract_y
_atom_site_fract_z
Si Si1 0.784284 0.182064 0.112648
Si Si2 0.327282 0.540957 0.231279
Si Si3 0.470805 0.327896 0.610899
Si Si4 0.903664 0.457405 0.112530
Si Si5 0.373079 0.226018 0.735576
Si Si6 0.225383 0.135691 0.614260
Si Si7 0.524761 0.166888 0.890937
Si Si8 0.930892 0.086959 0.215861
O O1 0.798553 0.234836 0.189772
O O2 0.657565 0.158100 0.121126
O O3 0.870143 0.130309 0.140473
O O4 0.801357 0.200819 0.000000
O O5 0.214235 0.543960 0.167993
O O6 0.298826 0.573283 0.334004
O O7 0.437952 0.574826 0.190456
O O8 0.367725 0.474096 0.231663
O O9 0.435346 0.337426 0.500000
O O10 0.421099 0.268463 0.652722
O O11 0.606293 0.330164 0.615082
O O12 0.429754 0.378936 0.681694
O O13 0.958171 0.393638 0.111702
O O14 0.000000 0.500000 0.154726
O O15 0.883041 0.476179 0.000000
O O16 0.309183 0.172730 0.683181
O O17 0.474646 0.205031 0.804344
O O18 0.260676 0.130493 0.500000
O O19 0.507811 0.192992 0.000000
#
# Coordination Sequence:
#
# PCOD9426317 Si02
#       8
#     8   8   8   8   8   8   8   8
#     4  10  21  36  54  79 112 146 181 219 265 321
#     4  10  19  36  54  82 108 141 178 226 269 321
#     4   9  19  34  52  77 105 136 179 222 263 320
#     4  10  20  34  54  78 105 142 181 216 260 320
#     4  11  19  34  54  79 107 142 176 223 270 312
#     4  10  20  34  54  79 107 139 178 224 272 319
#     4  10  20  34  52  77 106 141 180 214 260 320
#     4   9  20  34  56  78 108 141 181 219 273 314
#
# _framework density 17.187695000000001
#
# number of rings (size 3 to 8) (size 9 to 14) (size 15 to 20)
#    0.000    2.125    1.250    2.250    0.000    2.500 
#    0.000    3.750    0.000    1.125    0.000    0.000 
#    0.000    0.000    0.000    0.000    0.000    0.000 
#
# Total GULP energy -356669.445455 kJ/mol
# GULP energy per Si atom -5572.960085 kJ/mol
# Density = 1.714857 g / cm^3
# Si number density = 17.187695 Si / 1000 Ang^3
#
#
#
# Elastic Constant Matrix: (Units=GPa)
#
#
# Indices 1 2 3 4 5 6 
#
# 1 102.2805 27.5109 50.1101 0.0000 0.0000 0.0000
# 2 27.5109 36.9408 9.2371 0.0000 0.0000 0.0000
# 3 50.1101 9.2371 80.4771 0.0000 0.0000 0.0000
# 4 0.0000 0.0000 0.0000 10.4097 0.0000 0.0000
# 5 0.0000 0.0000 0.0000 0.0000 37.0454 0.0000
# 6 0.0000 0.0000 0.0000 0.0000 0.0000 27.0760
#
#
#
# Elastic Compliance Matrix: (Units=1/GPa)
#
#
# Indices 1 2 3 4 5 6 
#
# 1 0.017276 -0.010477 -0.009555 0.000000 0.000000 0.000000
# 2 -0.010477 0.034224 0.002595 0.000000 0.000000 0.000000
# 3 -0.009555 0.002595 0.018077 0.000000 0.000000 0.000000
# 4 0.000000 0.000000 0.000000 0.096064 0.000000 0.000000
# 5 0.000000 0.000000 0.000000 0.000000 0.026994 0.000000
# 6 0.000000 0.000000 0.000000 0.000000 0.000000 0.036933
#
#
# Mechanical properties :
#
#
# Convention : Reuss Voigt Hill
#
# Bulk Modulus (GPa) = 28.81437 43.71273 36.26355
# Shear Modulus (GPa) = 18.11535 23.76225 20.93880
#
# Velocity S-wave (km/s) = 3.25002 3.72225 3.49412
# Velocity P-wave (km/s) = 5.55737 6.63033 6.11742
#
# Compressibility (1/GPa) = 0.03470491
#
# Stress axis : x y z
#
# Youngs Moduli (GPa) = 57.88317 29.21946 55.31778
#
# Poissons Ratio (x) = 0.30613 0.52855
# Poissons Ratio (y) = 0.60644 -0.14357
# Poissons Ratio (z) = 0.55306 -0.07584
#
# Static dielectric constant tensor:
#      x y z
#    x 1.577320 0.000000 0.000000 
#    y 0.000000 1.508680 0.000000 
#    z 0.000000 0.000000 1.573730 
# 
# From -- ./inp_files/13571.got.cif
#   From: 2010.05.17/outbox.cif.g08.bks.cpg/sg55_7_cif.got.tgz:13571.got - 2010.06.03 13:27:54.
