data_PCOD9426512
_publ_section_title
;
Structure prediction by ZEFSAII (Michael W. Deem and Ramdas Pophale) SiO2 
 PCOD9426512
Probable space group: P B A M
;
_chemical_formula_sum "Si O2"
_cell_formula_units_Z 56
_cell_length_a 5.421288
_cell_length_b 24.527008
_cell_length_c 20.699445
_cell_angle_alpha 90.000000
_cell_angle_beta 90.000000
_cell_angle_gamma 90.000000
_cell_volume 2752.363268
_symmetry_space_group_name_H-M "P B A M"
_symmetry_group_IT_number 55
_symmetry_cell_setting 'orthorhombic'
loop_
_space_group_symop_operation_xyz
x,y,z
-x,-y,z
1/2+x,1/2-y,-z
1/2-x,1/2+y,-z
-x,-y,-z
x,y,-z
1/2-x,1/2+y,z
1/2+x,1/2-y,z
loop_
_atom_site_type_symbol
_atom_site_label
_atom_site_fract_x
_atom_site_fract_y
_atom_site_fract_z
Si Si1 0.992308 0.059086 0.700192
Si Si2 0.400045 0.810411 0.870690
Si Si3 0.754816 0.672634 0.273742
Si Si4 0.899873 0.813600 0.076441
Si Si5 0.986900 0.779150 0.614782
Si Si6 0.189260 0.449736 0.431343
Si Si7 0.648750 0.870834 0.630128
O O1 0.857962 0.111244 0.732309
O O2 0.852346 0.048887 0.632340
O O3 0.257425 0.081688 0.677954
O O4 0.000000 0.000000 0.733722
O O5 0.344234 0.807324 0.795076
O O6 0.419386 0.749636 0.900741
O O7 0.662687 0.837107 0.886683
O O8 0.163325 0.838012 0.903905
O O9 0.549251 0.710684 0.308329
O O10 0.981339 0.667831 0.324588
O O11 0.861087 0.815187 0.000000
O O12 0.250977 0.756557 0.592083
O O13 0.884292 0.839844 0.600529
O O14 0.324464 0.449616 0.500000
O O15 0.000000 0.500000 0.430605
O O16 0.023218 0.396056 0.423674
#
# Coordination Sequence:
#
# PCOD9426512 Si02
#       7
#     8   8   8   8   8   8   8
#     4  10  20  36  56  79 121 157 186 238 309 363
#     4  10  20  30  50  73 111 146 194 226 266 342
#     4  10  23  33  52  85 113 154 200 239 290 349
#     4  10  20  34  52  76 113 156 188 232 294 340
#     4  11  22  35  56  77 115 149 195 235 286 335
#     4  10  20  35  59  90 116 147 193 244 306 374
#     4  10  21  38  55  82 119 150 195 241 302 355
#
# _framework density 20.346152
#
# number of rings (size 3 to 8) (size 9 to 14) (size 15 to 20)
#    0.000    1.857    2.857    2.143    8.000    0.857 
#    0.000    0.000    0.000    0.857    0.000    0.000 
#    0.000    6.286    0.000    0.000    0.000    0.000 
#
# Total GULP energy -312117.161588 kJ/mol
# GULP energy per Si atom -5573.520743 kJ/mol
# Density = 2.029984 g / cm^3
# Si number density = 20.346152 Si / 1000 Ang^3
#
#
#
# Elastic Constant Matrix: (Units=GPa)
#
#
# Indices 1 2 3 4 5 6 
#
# 1 113.8395 19.8102 -5.4577 0.0000 0.0000 0.0000
# 2 19.8102 63.0734 -8.6855 0.0000 0.0000 0.0000
# 3 -5.4577 -8.6855 52.2114 0.0000 0.0000 0.0000
# 4 0.0000 0.0000 0.0000 24.3162 0.0000 0.0000
# 5 0.0000 0.0000 0.0000 0.0000 -5.3202 0.0000
# 6 0.0000 0.0000 0.0000 0.0000 0.0000 38.5431
#
#
#
# Elastic Compliance Matrix: (Units=1/GPa)
#
#
# Indices 1 2 3 4 5 6 
#
# 1 0.009305 -0.002854 0.000498 0.000000 0.000000 0.000000
# 2 -0.002854 0.017102 0.002547 0.000000 0.000000 0.000000
# 3 0.000498 0.002547 0.019629 0.000000 0.000000 0.000000
# 4 0.000000 0.000000 0.000000 0.041125 0.000000 0.000000
# 5 0.000000 0.000000 0.000000 0.000000 -0.187964 0.000000
# 6 0.000000 0.000000 0.000000 0.000000 0.000000 0.025945
#
#
# Mechanical properties :
#
#
# Convention : Reuss Voigt Hill
#
# Bulk Modulus (GPa) = 21.54427 26.71758 24.13093
# Shear Modulus (GPa) = -83.65595 26.40498 -28.62548
#
# Velocity S-wave (km/s) = -6.41916 3.60639 -3.75497
# Velocity P-wave (km/s) = 6.65800 5.52281 2.62940
#
# Compressibility (1/GPa) = 0.04641605
#
# Stress axis : x y z
#
# Youngs Moduli (GPa) = 107.47143 58.47414 50.94615
#
# Poissons Ratio (x) = 0.16688 -0.02537
# Poissons Ratio (y) = 0.30671 -0.12974
# Poissons Ratio (z) = -0.05351 -0.14891
#
# Static dielectric constant tensor:
#      x y z
#    x 1.859880 0.000000 0.000000 
#    y 0.000000 1.467080 0.000000 
#    z 0.000000 0.000000 1.690580 
# 
# From -- ./inp_files/22430.got.cif
#   From: 2010.05.17/outbox.cif.g08.bks.cpg/sg55_12_cif.got.tgz:22430.got - 2010.06.03 13:27:54.
