data_PCOD9426463
_publ_section_title
;
Structure prediction by ZEFSAII (Michael W. Deem and Ramdas Pophale) SiO2 
 PCOD9426463
Probable space group: P B A M
;
_chemical_formula_sum "Si O2"
_cell_formula_units_Z 58
_cell_length_a 21.950649
_cell_length_b 8.129773
_cell_length_c 14.411158
_cell_angle_alpha 90.000000
_cell_angle_beta 90.000000
_cell_angle_gamma 90.000000
_cell_volume 2571.725815
_symmetry_space_group_name_H-M "P B A M"
_symmetry_group_IT_number 55
_symmetry_cell_setting 'orthorhombic'
loop_
_space_group_symop_operation_xyz
x,y,z
-x,-y,z
1/2+x,1/2-y,-z
1/2-x,1/2+y,-z
-x,-y,-z
x,y,-z
1/2-x,1/2+y,z
1/2+x,1/2-y,z
loop_
_atom_site_type_symbol
_atom_site_label
_atom_site_fract_x
_atom_site_fract_y
_atom_site_fract_z
Si Si1 0.681944 0.085227 0.113344
Si Si2 0.438918 0.449678 0.842740
Si Si3 0.313779 0.301587 0.387678
Si Si4 0.309140 0.551600 0.891632
Si Si5 0.000000 0.000000 0.500000
Si Si6 0.560452 0.892896 0.890059
Si Si7 0.403772 0.604111 0.341330
Si Si8 0.823735 0.581449 0.387729
O O1 0.677420 0.270181 0.147899
O O2 0.746836 0.019477 0.147924
O O3 0.622061 0.985448 0.136931
O O4 0.682271 0.087106 0.000000
O O5 0.500000 0.500000 0.897398
O O6 0.371641 0.453261 0.886708
O O7 0.447238 0.259439 0.822285
O O8 0.434740 0.573223 0.757465
O O9 0.320949 0.305798 0.500000
O O10 0.355584 0.450380 0.349584
O O11 0.243849 0.348591 0.366690
O O12 0.328355 0.112056 0.358105
O O13 0.295310 0.572984 0.000000
O O14 0.953982 0.925171 0.580293
O O15 0.500000 0.000000 0.885340
O O16 0.566030 0.842351 0.000000
O O17 0.371438 0.781388 0.352266
O O18 0.829252 0.579925 0.500000
#
# Coordination Sequence:
#
# PCOD9426463 Si02
#       8
#     8   8   8   8   2   8   8   8
#     4   9  18  36  63  93 125 168 216 258 315 388
#     4  12  26  42  60  91 127 167 219 271 325 383
#     4  10  19  37  68 100 123 158 210 270 333 393
#     4  10  20  38  63  90 127 168 211 267 323 384
#     4  12  24  48  74  80 134 194 212 266 334 404
#     4  10  21  41  68  95 129 175 220 264 320 389
#     4  12  24  46  65  94 132 171 220 270 330 404
#     4  10  19  37  69  99 124 158 210 270 331 396
#
# _framework density 22.552948000000001
#
# number of rings (size 3 to 8) (size 9 to 14) (size 15 to 20)
#    0.000    1.517    3.448    2.069    0.000    4.414 
#    9.931    1.379    0.000    0.000    0.000    0.000 
#    0.000    0.000    0.000    0.000    0.000    0.000 
#
# Total GULP energy -323331.231434 kJ/mol
# GULP energy per Si atom -5574.676404 kJ/mol
# Density = 2.250162 g / cm^3
# Si number density = 22.552948 Si / 1000 Ang^3
#
#
#
# Elastic Constant Matrix: (Units=GPa)
#
#
# Indices 1 2 3 4 5 6 
#
# 1 145.3054 52.6699 2.6760 0.0000 0.0000 0.0000
# 2 52.6699 139.5019 -0.1985 0.0000 0.0000 0.0000
# 3 2.6760 -0.1985 51.9116 0.0000 0.0000 0.0000
# 4 0.0000 0.0000 0.0000 20.0730 0.0000 0.0000
# 5 0.0000 0.0000 0.0000 0.0000 17.9729 0.0000
# 6 0.0000 0.0000 0.0000 0.0000 0.0000 35.2215
#
#
#
# Elastic Compliance Matrix: (Units=1/GPa)
#
#
# Indices 1 2 3 4 5 6 
#
# 1 0.007983 -0.003014 -0.000423 0.000000 0.000000 0.000000
# 2 -0.003014 0.008307 0.000187 0.000000 0.000000 0.000000
# 3 -0.000423 0.000187 0.019286 0.000000 0.000000 0.000000
# 4 0.000000 0.000000 0.000000 0.049818 0.000000 0.000000
# 5 0.000000 0.000000 0.000000 0.000000 0.055639 0.000000
# 6 0.000000 0.000000 0.000000 0.000000 0.000000 0.028392
#
#
# Mechanical properties :
#
#
# Convention : Reuss Voigt Hill
#
# Bulk Modulus (GPa) = 34.39419 49.66818 42.03118
# Shear Modulus (GPa) = 26.93725 33.42494 30.18109
#
# Velocity S-wave (km/s) = 3.45976 3.85394 3.66216
# Velocity P-wave (km/s) = 5.58958 6.47105 6.04640
#
# Compressibility (1/GPa) = 0.02907468
#
# Stress axis : x y z
#
# Youngs Moduli (GPa) = 125.27377 120.38400 51.85098
#
# Poissons Ratio (x) = 0.36289 0.02193
# Poissons Ratio (y) = 0.37763 -0.00970
# Poissons Ratio (z) = 0.05299 -0.02253
#
# Static dielectric constant tensor:
#      x y z
#    x 2.109380 0.000000 0.000000 
#    y 0.000000 1.864420 0.000000 
#    z 0.000000 0.000000 1.871590 
# 
# From -- ./inp_files/21793.got.cif
#   From: 2010.05.17/outbox.cif.g08.bks.cpg/sg55_11_cif.got.tgz:21793.got - 2010.06.03 13:27:54.
