data_PCOD9426960
_publ_section_title
;
Structure prediction by ZEFSAII (Michael W. Deem and Ramdas Pophale) SiO2 
 PCOD9426960
Probable space group: P B A M
;
_chemical_formula_sum "Si O2"
_cell_formula_units_Z 60
_cell_length_a 28.995827
_cell_length_b 5.165886
_cell_length_c 17.789911
_cell_angle_alpha 90.000000
_cell_angle_beta 90.000000
_cell_angle_gamma 90.000000
_cell_volume 2664.735412
_symmetry_space_group_name_H-M "P B A M"
_symmetry_group_IT_number 55
_symmetry_cell_setting 'orthorhombic'
loop_
_space_group_symop_operation_xyz
x,y,z
-x,-y,z
1/2+x,1/2-y,-z
1/2-x,1/2+y,-z
-x,-y,-z
x,y,-z
1/2-x,1/2+y,z
1/2+x,1/2-y,z
loop_
_atom_site_type_symbol
_atom_site_label
_atom_site_fract_x
_atom_site_fract_y
_atom_site_fract_z
Si Si1 0.883665 0.361048 0.199760
Si Si2 0.782382 0.984154 0.000000
Si Si3 0.775251 0.395281 0.409431
Si Si4 0.551646 0.507555 0.124040
Si Si5 0.643455 0.203004 0.081197
Si Si6 0.540346 0.195428 0.268280
Si Si7 0.630533 0.650885 0.645612
Si Si8 0.081230 0.343317 0.412137
O O1 0.846767 0.516355 0.150936
O O2 0.911162 0.559989 0.251444
O O3 0.870279 0.150695 0.262493
O O4 0.920918 0.272903 0.136330
O O5 0.817611 0.924357 0.069568
O O6 0.743763 0.755990 0.000000
O O7 0.779051 0.390824 0.500000
O O8 0.764414 0.689241 0.387516
O O9 0.821133 0.273876 0.376712
O O10 0.500000 0.500000 0.089306
O O11 0.592251 0.327200 0.090909
O O12 0.542674 0.426081 0.210373
O O13 0.644464 0.063902 0.000000
O O14 0.539903 0.244794 0.356503
O O15 0.500000 0.000000 0.247129
O O16 0.620210 0.370137 0.610338
O O17 0.594809 0.860219 0.608832
O O18 0.071784 0.326478 0.500000
#
# Coordination Sequence:
#
# PCOD9426960 Si02
#       8
#     8   4   8   8   8   8   8   8
#     4  10  21  38  63  87 130 170 217 270 324 402
#     4  10  24  48  75  99 137 183 222 272 338 402
#     4  10  20  35  56  82 116 156 200 261 336 400
#     4  11  20  37  66  95 133 185 220 271 341 408
#     4   9  24  41  66 104 133 171 227 281 328 405
#     4  10  20  36  55  86 123 172 225 263 328 397
#     4  11  22  39  60  87 123 167 213 270 331 403
#     4  11  22  36  58  88 121 167 223 277 325 379
#
# _framework density 22.516307000000001
#
# number of rings (size 3 to 8) (size 9 to 14) (size 15 to 20)
#    0.400    1.333    2.667    2.000    1.867    2.133 
#    0.000    2.000    0.000    2.800    0.000    0.000 
#    0.000    0.000    0.000    0.000    0.000    0.000 
#
# Total GULP energy -334101.867645 kJ/mol
# GULP energy per Si atom -5568.364461 kJ/mol
# Density = 2.246506 g / cm^3
# Si number density = 22.516307 Si / 1000 Ang^3
#
#
#
# Elastic Constant Matrix: (Units=GPa)
#
#
# Indices 1 2 3 4 5 6 
#
# 1 41.2626 17.8350 -17.4292 0.0000 0.0000 0.0000
# 2 17.8350 61.4722 26.0921 0.0000 0.0000 0.0000
# 3 -17.4292 26.0921 69.0803 0.0000 0.0000 0.0000
# 4 0.0000 0.0000 0.0000 -134.4659 0.0000 0.0000
# 5 0.0000 0.0000 0.0000 0.0000 20.1519 0.0000
# 6 0.0000 0.0000 0.0000 0.0000 0.0000 38.0676
#
#
#
# Elastic Compliance Matrix: (Units=1/GPa)
#
#
# Indices 1 2 3 4 5 6 
#
# 1 0.039504 -0.018688 0.017026 0.000000 0.000000 0.000000
# 2 -0.018688 0.028214 -0.015372 0.000000 0.000000 0.000000
# 3 0.017026 -0.015372 0.024577 0.000000 0.000000 0.000000
# 4 0.000000 0.000000 0.000000 -0.007437 0.000000 0.000000
# 5 0.000000 0.000000 0.000000 0.000000 0.049623 0.000000
# 6 0.000000 0.000000 0.000000 0.000000 0.000000 0.026269
#
#
# Mechanical properties :
#
#
# Convention : Reuss Voigt Hill
#
# Bulk Modulus (GPa) = 17.17400 24.97900 21.07650
# Shear Modulus (GPa) = 23.33962 -5.56146 8.88908
#
# Velocity S-wave (km/s) = 3.22307 -1.57332 1.98907
# Velocity P-wave (km/s) = 4.63625 2.79596 3.82833
#
# Compressibility (1/GPa) = 0.05822756
#
# Stress axis : x y z
#
# Youngs Moduli (GPa) = 25.31385 35.44340 40.68764
#
# Poissons Ratio (x) = 0.66236 -0.69273
# Poissons Ratio (y) = 0.47306 0.62544
# Poissons Ratio (z) = -0.43098 0.54482
#
# Static dielectric constant tensor:
#      x y z
#    x 1.957610 0.000000 0.000000 
#    y 0.000000 1.918360 0.000000 
#    z 0.000000 0.000000 1.885590 
# 
# From -- ./inp_files/22146.got.cif
#   From: 2010.05.17/outbox.cif.g08.bks.cpg/sg55_12_cif.got.tgz:22146.got - 2010.06.03 13:27:54.
