data_PCOD9426655
_publ_section_title
;
Structure prediction by ZEFSAII (Michael W. Deem and Ramdas Pophale) SiO2 
 PCOD9426655
Probable space group: P B A M
;
_chemical_formula_sum "Si O2"
_cell_formula_units_Z 58
_cell_length_a 24.524520
_cell_length_b 15.352759
_cell_length_c 7.624947
_cell_angle_alpha 90.000000
_cell_angle_beta 90.000000
_cell_angle_gamma 90.000000
_cell_volume 2870.937764
_symmetry_space_group_name_H-M "P B A M"
_symmetry_group_IT_number 55
_symmetry_cell_setting 'orthorhombic'
loop_
_space_group_symop_operation_xyz
x,y,z
-x,-y,z
1/2+x,1/2-y,-z
1/2-x,1/2+y,-z
-x,-y,-z
x,y,-z
1/2-x,1/2+y,z
1/2+x,1/2-y,z
loop_
_atom_site_type_symbol
_atom_site_label
_atom_site_fract_x
_atom_site_fract_y
_atom_site_fract_z
Si Si1 0.610554 0.226434 0.791708
Si Si2 0.800525 0.587066 0.788823
Si Si3 0.891313 0.247160 0.701582
Si Si4 0.681181 0.391067 0.710038
Si Si5 0.176045 0.911943 0.710194
Si Si6 0.497536 0.152155 0.704603
Si Si7 0.000000 0.500000 0.000000
Si Si8 0.804677 0.388782 0.204829
O O1 0.654485 0.154912 0.725821
O O2 0.636405 0.320747 0.760396
O O3 0.552411 0.209117 0.707131
O O4 0.604710 0.213855 0.000000
O O5 0.738905 0.613593 0.743782
O O6 0.810139 0.487871 0.725814
O O7 0.803581 0.584037 0.000000
O O8 0.904340 0.226164 0.500000
O O9 0.865414 0.159979 0.782705
O O10 0.843980 0.319849 0.706394
O O11 0.946076 0.290935 0.770731
O O12 0.685264 0.394112 0.500000
O O13 0.669275 0.489118 0.775443
O O14 0.741085 0.365013 0.778395
O O15 0.169588 0.914106 0.500000
O O16 0.487277 0.124541 0.500000
O O17 0.505154 0.074838 0.843521
O O18 0.819854 0.389423 0.000000
#
# Coordination Sequence:
#
# PCOD9426655 Si02
#       8
#     8   8   8   8   8   8   2   8
#     4  11  22  39  60  86 123 160 204 260 308 363
#     4   9  20  34  53  83 117 154 195 241 305 372
#     4  10  22  39  59  85 117 154 204 254 305 370
#     4  10  20  36  58  84 117 158 202 250 310 371
#     4   9  19  37  58  83 116 154 197 253 308 362
#     4  11  26  44  67  94 124 165 208 252 310 365
#     4  12  26  48  68  90 130 164 206 264 292 368
#     4  10  20  33  55  85 119 155 195 244 309 372
#
# _framework density 20.202459000000001
#
# number of rings (size 3 to 8) (size 9 to 14) (size 15 to 20)
#    0.000    1.931    0.690    2.276    2.897    4.966 
#    0.000    0.690    0.000    4.138    0.000    0.000 
#    0.000    0.000    0.000    0.000    0.000    0.000 
#
# Total GULP energy -323344.501488 kJ/mol
# GULP energy per Si atom -5574.905198 kJ/mol
# Density = 2.015648 g / cm^3
# Si number density = 20.202459 Si / 1000 Ang^3
#
#
#
# Elastic Constant Matrix: (Units=GPa)
#
#
# Indices 1 2 3 4 5 6 
#
# 1 128.4745 94.0669 1.0912 0.0000 0.0000 0.0000
# 2 94.0669 109.3323 5.6869 0.0000 0.0000 0.0000
# 3 1.0912 5.6869 73.0839 0.0000 0.0000 0.0000
# 4 0.0000 0.0000 0.0000 -6.5384 0.0000 0.0000
# 5 0.0000 0.0000 0.0000 0.0000 22.8208 0.0000
# 6 0.0000 0.0000 0.0000 0.0000 0.0000 -22.5527
#
#
#
# Elastic Compliance Matrix: (Units=1/GPa)
#
#
# Indices 1 2 3 4 5 6 
#
# 1 0.021122 -0.018231 0.001103 0.000000 0.000000 0.000000
# 2 -0.018231 0.024918 -0.001667 0.000000 0.000000 0.000000
# 3 0.001103 -0.001667 0.013796 0.000000 0.000000 0.000000
# 4 0.000000 0.000000 0.000000 -0.152944 0.000000 0.000000
# 5 0.000000 0.000000 0.000000 0.000000 0.043820 0.000000
# 6 0.000000 0.000000 0.000000 0.000000 0.000000 -0.044341
#
#
# Mechanical properties :
#
#
# Convention : Reuss Voigt Hill
#
# Bulk Modulus (GPa) = 44.94686 56.95343 50.95014
# Shear Modulus (GPa) = -102.83160 12.74899 -45.04130
#
# Velocity S-wave (km/s) = -7.14220 2.51482 -4.72688
# Velocity P-wave (km/s) = 6.76152 6.05681 2.12523
#
# Compressibility (1/GPa) = 0.02224849
#
# Stress axis : x y z
#
# Youngs Moduli (GPa) = 47.34311 40.13118 72.48409
#
# Poissons Ratio (x) = 0.73161 -0.07996
# Poissons Ratio (y) = 0.86309 0.12081
# Poissons Ratio (z) = -0.05223 0.06689
#
# Static dielectric constant tensor:
#      x y z
#    x 1.689370 0.000000 0.000000 
#    y 0.000000 1.721690 0.000000 
#    z 0.000000 0.000000 1.758360 
# 
# From -- ./inp_files/9585.got.cif
#   From: 2010.05.17/outbox.cif.g08.bks.cpg/sg55_5_cif.got.tgz:9585.got - 2010.06.03 13:27:54.
