data_PCOD9426027
_publ_section_title
;
Structure prediction by ZEFSAII (Michael W. Deem and Ramdas Pophale) SiO2 
 PCOD9426027
Probable space group: P B A M
;
_chemical_formula_sum "Si O2"
_cell_formula_units_Z 56
_cell_length_a 14.741054
_cell_length_b 21.107917
_cell_length_c 9.040093
_cell_angle_alpha 90.000000
_cell_angle_beta 90.000000
_cell_angle_gamma 90.000000
_cell_volume 2812.851554
_symmetry_space_group_name_H-M "P B A M"
_symmetry_group_IT_number 55
_symmetry_cell_setting 'orthorhombic'
loop_
_space_group_symop_operation_xyz
x,y,z
-x,-y,z
1/2+x,1/2-y,-z
1/2-x,1/2+y,-z
-x,-y,-z
x,y,-z
1/2-x,1/2+y,z
1/2+x,1/2-y,z
loop_
_atom_site_type_symbol
_atom_site_label
_atom_site_fract_x
_atom_site_fract_y
_atom_site_fract_z
Si Si1 0.941147 0.642651 0.329471
Si Si2 0.229834 0.397609 0.174793
Si Si3 0.932994 0.440022 0.163178
Si Si4 0.219702 0.031890 0.829457
Si Si5 0.298396 0.254355 0.824306
Si Si6 0.843028 0.843364 0.675536
Si Si7 0.508310 0.265617 0.175418
O O1 0.935166 0.660550 0.500000
O O2 0.857691 0.599177 0.279184
O O3 0.937412 0.703178 0.223778
O O4 0.033241 0.606097 0.290804
O O5 0.294259 0.457644 0.206180
O O6 0.270451 0.327810 0.197231
O O7 0.204149 0.403426 0.000000
O O8 0.828861 0.458868 0.176602
O O9 0.000000 0.500000 0.164917
O O10 0.944564 0.408909 0.000000
O O11 0.177434 0.085262 0.726956
O O12 0.191728 0.043237 0.000000
O O13 0.234302 0.204146 0.741501
O O14 0.404253 0.252543 0.781203
O O15 0.291132 0.240333 0.000000
O O16 0.843044 0.837502 0.500000
O O17 0.939521 0.821549 0.742046
O O18 0.511857 0.275531 0.000000
#
# Coordination Sequence:
#
# PCOD9426027 Si02
#       7
#     8   8   8   8   8   8   8
#     4  12  23  34  54  87 122 158 193 244 314 366
#     4  10  20  39  64  88 116 156 203 252 301 360
#     4  10  19  34  55  82 114 157 203 242 294 360
#     4  10  21  38  61  86 118 161 205 250 304 364
#     4  10  22  41  68  94 118 158 209 261 308 359
#     4  12  25  40  61  92 128 164 200 251 315 371
#     4  11  23  41  64  89 118 158 210 257 301 364
#
# _framework density 19.908622999999999
#
# number of rings (size 3 to 8) (size 9 to 14) (size 15 to 20)
#    0.000    1.286    2.857    3.857    0.000    6.000 
#    0.000    0.714    0.000    4.286    0.000    0.000 
#    0.000    0.000    0.000    0.000    0.000    0.000 
#
# Total GULP energy -312813.624356 kJ/mol
# GULP energy per Si atom -5585.957578 kJ/mol
# Density = 1.986331 g / cm^3
# Si number density = 19.908623 Si / 1000 Ang^3
#
#
#
# Elastic Constant Matrix: (Units=GPa)
#
#
# Indices 1 2 3 4 5 6 
#
# 1 43.8837 3.8151 24.2086 0.0000 0.0000 0.0000
# 2 3.8151 71.0689 21.8932 0.0000 0.0000 0.0000
# 3 24.2086 21.8932 62.3076 0.0000 0.0000 0.0000
# 4 0.0000 0.0000 0.0000 -4.6296 0.0000 0.0000
# 5 0.0000 0.0000 0.0000 0.0000 9.6431 0.0000
# 6 0.0000 0.0000 0.0000 0.0000 0.0000 27.5794
#
#
#
# Elastic Compliance Matrix: (Units=1/GPa)
#
#
# Indices 1 2 3 4 5 6 
#
# 1 0.029299 0.002169 -0.012146 0.000000 0.000000 0.000000
# 2 0.002169 0.015939 -0.006443 0.000000 0.000000 0.000000
# 3 -0.012146 -0.006443 0.023032 0.000000 0.000000 0.000000
# 4 0.000000 0.000000 0.000000 -0.216002 0.000000 0.000000
# 5 0.000000 0.000000 0.000000 0.000000 0.103701 0.000000
# 6 0.000000 0.000000 0.000000 0.000000 0.000000 0.036259
#
#
# Mechanical properties :
#
#
# Convention : Reuss Voigt Hill
#
# Bulk Modulus (GPa) = 28.22436 30.78822 29.50629
# Shear Modulus (GPa) = 135.57604 15.00814 75.29209
#
# Velocity S-wave (km/s) = 8.26117 2.74861 6.15637
# Velocity P-wave (km/s) = 10.25689 5.05683 8.08626
#
# Compressibility (1/GPa) = 0.03543039
#
# Stress axis : x y z
#
# Youngs Moduli (GPa) = 34.13054 62.73798 43.41700
#
# Poissons Ratio (x) = -0.13606 0.52733
# Poissons Ratio (y) = -0.07402 0.27975
# Poissons Ratio (z) = 0.41454 0.40424
#
# Static dielectric constant tensor:
#      x y z
#    x 1.718600 0.000000 0.000000 
#    y 0.000000 1.752820 0.000000 
#    z 0.000000 0.000000 1.672340 
# 
# From -- ./inp_files/6032.got.cif
#   From: 2010.05.17/outbox.cif.g08.bks.cpg/sg55_4_cif.got.tgz:6032.got - 2010.06.03 13:27:54.
