data_PCOD9426187
_publ_section_title
;
Structure prediction by ZEFSAII (Michael W. Deem and Ramdas Pophale) SiO2 
 PCOD9426187
Probable space group: P B A M
;
_chemical_formula_sum "Si O2"
_cell_formula_units_Z 48
_cell_length_a 14.337111
_cell_length_b 13.044917
_cell_length_c 14.152529
_cell_angle_alpha 90.000000
_cell_angle_beta 90.000000
_cell_angle_gamma 90.000000
_cell_volume 2646.896875
_symmetry_space_group_name_H-M "P B A M"
_symmetry_group_IT_number 55
_symmetry_cell_setting 'orthorhombic'
loop_
_space_group_symop_operation_xyz
x,y,z
-x,-y,z
1/2+x,1/2-y,-z
1/2-x,1/2+y,-z
-x,-y,-z
x,y,-z
1/2-x,1/2+y,z
1/2+x,1/2-y,z
loop_
_atom_site_type_symbol
_atom_site_label
_atom_site_fract_x
_atom_site_fract_y
_atom_site_fract_z
Si Si1 0.706544 0.242011 0.388430
Si Si2 0.706283 0.289216 0.889657
Si Si3 0.233726 0.070906 0.728715
Si Si4 0.825540 0.152160 0.232935
Si Si5 0.003014 0.875623 0.890490
Si Si6 0.895121 0.530077 0.388588
O O1 0.720895 0.255903 0.500000
O O2 0.679272 0.346306 0.335328
O O3 0.799872 0.207266 0.331525
O O4 0.633412 0.149168 0.374190
O O5 0.758029 0.375860 0.827842
O O6 0.741456 0.186294 0.837791
O O7 0.597933 0.322268 0.879417
O O8 0.728411 0.287589 0.000000
O O9 0.177540 0.968291 0.747988
O O10 0.324226 0.037145 0.671436
O O11 0.922210 0.173100 0.180604
O O12 0.032438 0.860431 0.000000
O O13 0.000000 0.000000 0.877263
O O14 0.880995 0.509427 0.500000
O O15 0.000000 0.500000 0.364488
#
# Coordination Sequence:
#
# PCOD9426187 Si02
#       6
#     8   8   8   8   8   8
#     4   9  19  36  57  84 116 153 196 240 298 356
#     4  10  21  36  57  87 116 153 198 238 292 356
#     4  10  19  35  55  82 117 152 190 245 295 341
#     4  10  20  36  58  84 116 153 193 248 296 346
#     4  10  19  35  61  85 114 155 198 241 292 355
#     4   9  18  35  60  86 115 156 201 243 296 357
#
# _framework density 18.134443000000001
#
# number of rings (size 3 to 8) (size 9 to 14) (size 15 to 20)
#    0.000    2.333    1.667    1.000    0.000    1.333 
#   18.000    0.000    0.000    2.000    0.000    0.000 
#    0.000    0.000    0.000    0.000    0.000    0.000 
#
# Total GULP energy -267376.687681 kJ/mol
# GULP energy per Si atom -5570.347660 kJ/mol
# Density = 1.809317 g / cm^3
# Si number density = 18.134443 Si / 1000 Ang^3
#
#
#
# Elastic Constant Matrix: (Units=GPa)
#
#
# Indices 1 2 3 4 5 6 
#
# 1 78.2205 23.7367 39.6675 0.0000 0.0000 0.0000
# 2 23.7367 93.5040 45.6759 0.0000 0.0000 0.0000
# 3 39.6675 45.6759 112.4922 0.0000 0.0000 0.0000
# 4 0.0000 0.0000 0.0000 27.3980 0.0000 0.0000
# 5 0.0000 0.0000 0.0000 0.0000 33.3506 0.0000
# 6 0.0000 0.0000 0.0000 0.0000 0.0000 1.9962
#
#
#
# Elastic Compliance Matrix: (Units=1/GPa)
#
#
# Indices 1 2 3 4 5 6 
#
# 1 0.015759 -0.001604 -0.004906 0.000000 0.000000 0.000000
# 2 -0.001604 0.013504 -0.004917 0.000000 0.000000 0.000000
# 3 -0.004906 -0.004917 0.012616 0.000000 0.000000 0.000000
# 4 0.000000 0.000000 0.000000 0.036499 0.000000 0.000000
# 5 0.000000 0.000000 0.000000 0.000000 0.029984 0.000000
# 6 0.000000 0.000000 0.000000 0.000000 0.000000 0.500952
#
#
# Mechanical properties :
#
#
# Convention : Reuss Voigt Hill
#
# Bulk Modulus (GPa) = 52.56379 55.81964 54.19171
# Shear Modulus (GPa) = 7.83072 24.22473 16.02772
#
# Velocity S-wave (km/s) = 2.08027 3.65888 2.97615
# Velocity P-wave (km/s) = 5.90073 6.97837 6.46205
#
# Compressibility (1/GPa) = 0.01902450
#
# Stress axis : x y z
#
# Youngs Moduli (GPa) = 63.45601 74.05151 79.26418
#
# Poissons Ratio (x) = 0.11879 0.38884
# Poissons Ratio (y) = 0.10179 0.38978
# Poissons Ratio (z) = 0.31129 0.36415
#
# Static dielectric constant tensor:
#      x y z
#    x 1.614650 0.000000 0.000000 
#    y 0.000000 1.660710 0.000000 
#    z 0.000000 0.000000 1.628940 
# 
# From -- ./inp_files/18290.got.cif
#   From: 2010.05.17/outbox.cif.g08.bks.cpg/sg55_10_cif.got.tgz:18290.got - 2010.06.03 13:27:54.
