data_PCOD9426259
_publ_section_title
;
Structure prediction by ZEFSAII (Michael W. Deem and Ramdas Pophale) SiO2 
 PCOD9426259
Probable space group: P B A M
;
_chemical_formula_sum "Si O2"
_cell_formula_units_Z 56
_cell_length_a 16.436118
_cell_length_b 19.575390
_cell_length_c 9.425952
_cell_angle_alpha 90.000000
_cell_angle_beta 90.000000
_cell_angle_gamma 90.000000
_cell_volume 3032.738033
_symmetry_space_group_name_H-M "P B A M"
_symmetry_group_IT_number 55
_symmetry_cell_setting 'orthorhombic'
loop_
_space_group_symop_operation_xyz
x,y,z
-x,-y,z
1/2+x,1/2-y,-z
1/2-x,1/2+y,-z
-x,-y,-z
x,y,-z
1/2-x,1/2+y,z
1/2+x,1/2-y,z
loop_
_atom_site_type_symbol
_atom_site_label
_atom_site_fract_x
_atom_site_fract_y
_atom_site_fract_z
Si Si1 0.712600 0.116717 0.835096
Si Si2 0.375454 0.383848 0.340639
Si Si3 0.716088 0.890774 0.666880
Si Si4 0.391660 0.542286 0.656942
Si Si5 0.595174 0.990071 0.170207
Si Si6 0.687835 0.277212 0.166570
Si Si7 0.977446 0.850220 0.166694
O O1 0.789955 0.109442 0.736054
O O2 0.689472 0.195977 0.819869
O O3 0.643392 0.061091 0.801626
O O4 0.735516 0.105136 0.000000
O O5 0.367117 0.357895 0.500000
O O6 0.405678 0.462100 0.345854
O O7 0.439724 0.340226 0.251837
O O8 0.698151 0.880325 0.500000
O O9 0.796194 0.939756 0.675094
O O10 0.642774 0.929747 0.746946
O O11 0.747543 0.820756 0.741484
O O12 0.415145 0.570594 0.500000
O O13 0.439473 0.578010 0.782939
O O14 0.500000 0.000000 0.207618
O O15 0.599412 0.976858 0.000000
O O16 0.596318 0.299943 0.204546
O O17 0.700944 0.294899 0.000000
O O18 0.992774 0.848043 0.000000
#
# Coordination Sequence:
#
# PCOD9426259 Si02
#       7
#     8   8   8   8   8   8   8
#     4  10  21  39  61  82 111 151 195 241 291 343
#     4  11  21  34  53  80 115 147 180 226 284 341
#     4  10  19  35  59  85 114 150 190 235 289 349
#     4   9  18  32  51  77 110 146 177 218 276 331
#     4  10  21  38  61  89 117 151 197 247 297 348
#     4   9  20  39  59  81 112 152 194 241 291 344
#     4  10  20  33  52  80 111 145 188 230 273 333
#
# _framework density 18.465161999999999
#
# number of rings (size 3 to 8) (size 9 to 14) (size 15 to 20)
#    0.000    2.143    1.429    1.714    0.000    4.857 
#    2.571    0.000    0.000    0.000    0.000    0.000 
#    0.000    0.000    0.000    0.000    0.000    0.000 
#
# Total GULP energy -312274.664567 kJ/mol
# GULP energy per Si atom -5576.333296 kJ/mol
# Density = 1.842313 g / cm^3
# Si number density = 18.465162 Si / 1000 Ang^3
#
#
#
# Elastic Constant Matrix: (Units=GPa)
#
#
# Indices 1 2 3 4 5 6 
#
# 1 128.2810 25.9661 72.3460 0.0000 0.0000 0.0000
# 2 25.9661 41.4349 37.8184 0.0000 0.0000 0.0000
# 3 72.3460 37.8184 87.3550 0.0000 0.0000 0.0000
# 4 0.0000 0.0000 0.0000 22.8025 0.0000 0.0000
# 5 0.0000 0.0000 0.0000 0.0000 18.8495 0.0000
# 6 0.0000 0.0000 0.0000 0.0000 0.0000 1.7855
#
#
#
# Elastic Compliance Matrix: (Units=1/GPa)
#
#
# Indices 1 2 3 4 5 6 
#
# 1 0.014876 0.003178 -0.013696 0.000000 0.000000 0.000000
# 2 0.003178 0.040580 -0.020200 0.000000 0.000000 0.000000
# 3 -0.013696 -0.020200 0.031536 0.000000 0.000000 0.000000
# 4 0.000000 0.000000 0.000000 0.043855 0.000000 0.000000
# 5 0.000000 0.000000 0.000000 0.000000 0.053052 0.000000
# 6 0.000000 0.000000 0.000000 0.000000 0.000000 0.560067
#
#
# Mechanical properties :
#
#
# Convention : Reuss Voigt Hill
#
# Bulk Modulus (GPa) = 39.13087 58.81468 48.97278
# Shear Modulus (GPa) = 6.14311 16.75018 11.44664
#
# Velocity S-wave (km/s) = 1.82595 3.01512 2.49249
# Velocity P-wave (km/s) = 5.06786 6.63642 5.90446
#
# Compressibility (1/GPa) = 0.02555527
#
# Stress axis : x y z
#
# Youngs Moduli (GPa) = 67.22117 24.64286 31.70996
#
# Poissons Ratio (x) = -0.07832 0.43431
# Poissons Ratio (y) = -0.21365 0.64055
# Poissons Ratio (z) = 0.92068 0.49779
#
# Static dielectric constant tensor:
#      x y z
#    x 1.650450 0.000000 0.000000 
#    y 0.000000 1.639390 0.000000 
#    z 0.000000 0.000000 1.641020 
# 
# From -- ./inp_files/6015.got.cif
#   From: 2010.05.17/outbox.cif.g08.bks.cpg/sg55_4_cif.got.tgz:6015.got - 2010.06.03 13:27:54.
