data_PCOD9426826
_publ_section_title
;
Structure prediction by ZEFSAII (Michael W. Deem and Ramdas Pophale) SiO2 
 PCOD9426826
Probable space group: P B A M
;
_chemical_formula_sum "Si O2"
_cell_formula_units_Z 40
_cell_length_a 13.869620
_cell_length_b 18.572235
_cell_length_c 8.624479
_cell_angle_alpha 90.000000
_cell_angle_beta 90.000000
_cell_angle_gamma 90.000000
_cell_volume 2221.578183
_symmetry_space_group_name_H-M "P B A M"
_symmetry_group_IT_number 55
_symmetry_cell_setting 'orthorhombic'
loop_
_space_group_symop_operation_xyz
x,y,z
-x,-y,z
1/2+x,1/2-y,-z
1/2-x,1/2+y,-z
-x,-y,-z
x,y,-z
1/2-x,1/2+y,z
1/2+x,1/2-y,z
loop_
_atom_site_type_symbol
_atom_site_label
_atom_site_fract_x
_atom_site_fract_y
_atom_site_fract_z
Si Si1 0.193286 0.024949 0.313640
Si Si2 0.317696 0.813938 0.313771
Si Si3 0.378488 0.375324 0.813907
Si Si4 0.406334 0.667384 0.814153
Si Si5 0.599800 0.033671 0.311558
O O1 0.188414 0.025769 0.500000
O O2 0.151847 0.098408 0.246911
O O3 0.134580 0.955881 0.252138
O O4 0.304724 0.010895 0.267045
O O5 0.313747 0.812919 0.500000
O O6 0.210598 0.828965 0.250192
O O7 0.362355 0.740475 0.252589
O O8 0.380920 0.883713 0.265130
O O9 0.481824 0.343227 0.768532
O O10 0.373199 0.378365 0.000000
O O11 0.401405 0.669064 0.000000
O O12 0.596728 0.033006 0.500000
O O13 0.500000 0.000000 0.254212
#
# Coordination Sequence:
#
# PCOD9426826 Si02
#       5
#     8   8   8   8   8
#     4  10  20  34  56  84 109 140 186 233 275 325
#     4  10  21  36  56  82 110 142 182 230 279 326
#     4  10  21  38  57  77 109 149 183 223 278 335
#     4  11  23  37  55  80 111 147 184 226 280 335
#     4   8  16  33  55  79 107 138 174 219 270 322
#
# _framework density 18.005219
#
# number of rings (size 3 to 8) (size 9 to 14) (size 15 to 20)
#    0.000    2.200    0.000    4.200    0.000    7.200 
#    0.000    2.000    0.000   20.400    0.000    0.000 
#    0.000    0.000    0.000    0.000    0.000    0.000 
#
# Total GULP energy -223330.340366 kJ/mol
# GULP energy per Si atom -5583.258509 kJ/mol
# Density = 1.796424 g / cm^3
# Si number density = 18.005219 Si / 1000 Ang^3
#
#
#
# Elastic Constant Matrix: (Units=GPa)
#
#
# Indices 1 2 3 4 5 6 
#
# 1 154.1744 134.2640 45.9247 0.0000 0.0000 0.0000
# 2 134.2640 159.5781 36.3225 0.0000 0.0000 0.0000
# 3 45.9247 36.3225 43.7493 0.0000 0.0000 0.0000
# 4 0.0000 0.0000 0.0000 27.0390 0.0000 0.0000
# 5 0.0000 0.0000 0.0000 0.0000 27.1685 0.0000
# 6 0.0000 0.0000 0.0000 0.0000 0.0000 22.8598
#
#
#
# Elastic Compliance Matrix: (Units=1/GPa)
#
#
# Indices 1 2 3 4 5 6 
#
# 1 0.028938 -0.021496 -0.012531 0.000000 0.000000 0.000000
# 2 -0.021496 0.023694 0.002893 0.000000 0.000000 0.000000
# 3 -0.012531 0.002893 0.033609 0.000000 0.000000 0.000000
# 4 0.000000 0.000000 0.000000 0.036984 0.000000 0.000000
# 5 0.000000 0.000000 0.000000 0.000000 0.036807 0.000000
# 6 0.000000 0.000000 0.000000 0.000000 0.000000 0.043745
#
#
# Mechanical properties :
#
#
# Convention : Reuss Voigt Hill
#
# Bulk Modulus (GPa) = 41.71057 87.83602 64.77330
# Shear Modulus (GPa) = 18.24575 24.81283 21.52929
#
# Velocity S-wave (km/s) = 3.18678 3.71629 3.46168
# Velocity P-wave (km/s) = 6.06275 8.20390 7.21321
#
# Compressibility (1/GPa) = 0.02397474
#
# Stress axis : x y z
#
# Youngs Moduli (GPa) = 34.55609 42.20497 29.75352
#
# Poissons Ratio (x) = 0.90723 0.37283
# Poissons Ratio (y) = 0.74281 -0.08607
# Poissons Ratio (z) = 0.43301 -0.12209
#
# Static dielectric constant tensor:
#      x y z
#    x 1.612300 0.000000 0.000000 
#    y 0.000000 1.580460 0.000000 
#    z 0.000000 0.000000 1.610340 
# 
# From -- ./inp_files/3611.got.cif
#   From: 2010.05.17/outbox.cif.g08.bks.cpg/sg55_2_cif.got.tgz:3611.got - 2010.06.03 13:27:54.
