data_PCOD9426958
_publ_section_title
;
Structure prediction by ZEFSAII (Michael W. Deem and Ramdas Pophale) SiO2 
 PCOD9426958
Probable space group: P B A M
;
_chemical_formula_sum "Si O2"
_cell_formula_units_Z 64
_cell_length_a 8.921446
_cell_length_b 31.256752
_cell_length_c 13.557151
_cell_angle_alpha 90.000000
_cell_angle_beta 90.000000
_cell_angle_gamma 90.000000
_cell_volume 3780.485105
_symmetry_space_group_name_H-M "P B A M"
_symmetry_group_IT_number 55
_symmetry_cell_setting 'orthorhombic'
loop_
_space_group_symop_operation_xyz
x,y,z
-x,-y,z
1/2+x,1/2-y,-z
1/2-x,1/2+y,-z
-x,-y,-z
x,y,-z
1/2-x,1/2+y,z
1/2+x,1/2-y,z
loop_
_atom_site_type_symbol
_atom_site_label
_atom_site_fract_x
_atom_site_fract_y
_atom_site_fract_z
Si Si1 0.569143 0.631784 0.199279
Si Si2 0.920901 0.456608 0.119672
Si Si3 0.932873 0.292208 0.806650
Si Si4 0.566582 0.688426 0.386804
Si Si5 0.100247 0.275155 0.613873
Si Si6 0.428478 0.546594 0.118412
Si Si7 0.394434 0.709600 0.885448
Si Si8 0.398036 0.872807 0.884151
O O1 0.546411 0.650851 0.308499
O O2 0.509213 0.584545 0.176907
O O3 0.481691 0.665315 0.129656
O O4 0.744122 0.633142 0.173555
O O5 0.746625 0.454354 0.145987
O O6 0.000000 0.500000 0.154599
O O7 0.012805 0.414818 0.150341
O O8 0.924670 0.457253 0.000000
O O9 0.994202 0.296749 0.695362
O O10 0.001499 0.248288 0.849091
O O11 0.998694 0.331653 0.868184
O O12 0.756054 0.290783 0.821292
O O13 0.569680 0.673610 0.500000
O O14 0.438836 0.724776 0.377815
O O15 0.726718 0.712265 0.367107
O O16 0.066082 0.286973 0.500000
O O17 0.500000 0.500000 0.135952
O O18 0.441534 0.555032 0.000000
O O19 0.354969 0.715714 0.000000
O O20 0.362743 0.877833 0.000000
#
# Coordination Sequence:
#
# PCOD9426958 Si02
#       8
#     8   8   8   8   8   8   8   8
#     4  12  22  36  54  80 110 143 187 230 277 332
#     4   9  18  34  54  77 105 141 184 228 268 314
#     4  12  22  37  50  75 105 146 184 224 270 333
#     4  10  21  38  59  81 107 141 186 240 288 332
#     4  10  20  38  58  78 103 138 185 237 285 323
#     4  10  20  35  56  82 114 149 186 227 274 330
#     4  12  24  35  50  72 109 151 185 220 265 327
#     4  11  21  33  51  75 108 146 183 221 270 331
#
# _framework density 16.929044999999999
#
# number of rings (size 3 to 8) (size 9 to 14) (size 15 to 20)
#    0.000    1.250    2.500    5.250    0.000    3.000 
#    0.000    0.000    0.000    0.375    0.000    0.000 
#    0.000    3.500    0.000    0.000    0.000    0.000 
#
# Total GULP energy -357521.371184 kJ/mol
# GULP energy per Si atom -5586.271425 kJ/mol
# Density = 1.689051 g / cm^3
# Si number density = 16.929045 Si / 1000 Ang^3
#
#
#
# Elastic Constant Matrix: (Units=GPa)
#
#
# Indices 1 2 3 4 5 6 
#
# 1 88.5674 37.9474 15.0482 0.0000 0.0000 0.0000
# 2 37.9474 106.2075 23.3562 0.0000 0.0000 0.0000
# 3 15.0482 23.3562 80.0744 0.0000 0.0000 0.0000
# 4 0.0000 0.0000 0.0000 17.4163 0.0000 0.0000
# 5 0.0000 0.0000 0.0000 0.0000 23.9492 0.0000
# 6 0.0000 0.0000 0.0000 0.0000 0.0000 32.9407
#
#
#
# Elastic Compliance Matrix: (Units=1/GPa)
#
#
# Indices 1 2 3 4 5 6 
#
# 1 0.013439 -0.004537 -0.001202 0.000000 0.000000 0.000000
# 2 -0.004537 0.011593 -0.002529 0.000000 0.000000 0.000000
# 3 -0.001202 -0.002529 0.013452 0.000000 0.000000 0.000000
# 4 0.000000 0.000000 0.000000 0.057417 0.000000 0.000000
# 5 0.000000 0.000000 0.000000 0.000000 0.041755 0.000000
# 6 0.000000 0.000000 0.000000 0.000000 0.000000 0.030358
#
#
# Mechanical properties :
#
#
# Convention : Reuss Voigt Hill
#
# Bulk Modulus (GPa) = 45.56345 47.50588 46.53467
# Shear Modulus (GPa) = 26.05984 28.09441 27.07713
#
# Velocity S-wave (km/s) = 3.92772 4.07816 4.00365
# Velocity P-wave (km/s) = 6.89508 7.09210 6.99428
#
# Compressibility (1/GPa) = 0.02194742
#
# Stress axis : x y z
#
# Youngs Moduli (GPa) = 74.40943 86.26047 74.33910
#
# Poissons Ratio (x) = 0.39140 0.08937
# Poissons Ratio (y) = 0.33762 0.18798
# Poissons Ratio (z) = 0.08945 0.21813
#
# Static dielectric constant tensor:
#      x y z
#    x 1.572890 0.000000 0.000000 
#    y 0.000000 1.553560 0.000000 
#    z 0.000000 0.000000 1.581290 
# 
# From -- ./inp_files/12591.got.cif
#   From: 2010.05.17/outbox.cif.g08.bks.cpg/sg55_7_cif.got.tgz:12591.got - 2010.06.03 13:27:54.
