data_PCOD9426804
_publ_section_title
;
Structure prediction by ZEFSAII (Michael W. Deem and Ramdas Pophale) SiO2 
 PCOD9426804
Probable space group: P B A M
;
_chemical_formula_sum "Si O2"
_cell_formula_units_Z 64
_cell_length_a 14.719611
_cell_length_b 25.521468
_cell_length_c 7.584671
_cell_angle_alpha 90.000000
_cell_angle_beta 90.000000
_cell_angle_gamma 90.000000
_cell_volume 2849.303631
_symmetry_space_group_name_H-M "P B A M"
_symmetry_group_IT_number 55
_symmetry_cell_setting 'orthorhombic'
loop_
_space_group_symop_operation_xyz
x,y,z
-x,-y,z
1/2+x,1/2-y,-z
1/2-x,1/2+y,-z
-x,-y,-z
x,y,-z
1/2-x,1/2+y,z
1/2+x,1/2-y,z
loop_
_atom_site_type_symbol
_atom_site_label
_atom_site_fract_x
_atom_site_fract_y
_atom_site_fract_z
Si Si1 0.248272 0.928424 0.292563
Si Si2 0.373982 0.743810 0.207138
Si Si3 0.445387 0.950645 0.293716
Si Si4 0.101352 0.016364 0.214246
Si Si5 0.410785 0.629259 0.201617
Si Si6 0.605770 0.650849 0.714125
Si Si7 0.663368 0.762488 0.711068
Si Si8 0.495286 0.163469 0.793442
O O1 0.262334 0.918124 0.500000
O O2 0.345346 0.942264 0.213816
O O3 0.197873 0.876768 0.223837
O O4 0.176226 0.974943 0.272022
O O5 0.395428 0.686166 0.286110
O O6 0.265350 0.746853 0.223166
O O7 0.431728 0.793265 0.279220
O O8 0.398761 0.741720 0.000000
O O9 0.431252 0.963575 0.500000
O O10 0.494483 0.894409 0.284476
O O11 0.500000 0.000000 0.217192
O O12 0.125586 0.075057 0.278461
O O13 0.099845 0.017699 0.000000
O O14 0.000000 0.000000 0.273415
O O15 0.519418 0.622516 0.204688
O O16 0.377154 0.632670 0.000000
O O17 0.599792 0.647064 0.500000
O O18 0.606293 0.711352 0.765435
O O19 0.668210 0.763667 0.500000
O O20 0.605308 0.812349 0.770511
O O21 0.514081 0.157436 0.000000
#
# Coordination Sequence:
#
# PCOD9426804 Si02
#       8
#     8   8   8   8   8   8   8   8
#     4  10  21  37  59  86 117 155 201 251 299 353
#     4  10  22  39  59  87 122 159 199 247 304 361
#     4  10  23  44  66  88 120 160 205 256 307 360
#     4  10  20  34  55  83 115 153 193 236 292 355
#     4  10  20  36  56  81 117 155 191 239 293 351
#     4  10  20  34  55  84 114 149 193 242 295 349
#     4  11  23  38  61  90 122 160 203 251 303 364
#     4  11  23  41  66  93 123 160 204 255 310 368
#
# _framework density 22.46163
#
# number of rings (size 3 to 8) (size 9 to 14) (size 15 to 20)
#    0.000    1.750    2.500    1.500    0.000    5.500 
#    0.000    2.500    0.000    0.000    0.000    0.000 
#    0.000    0.000    0.000    0.000    0.000    0.000 
#
# Total GULP energy -357378.675715 kJ/mol
# GULP energy per Si atom -5584.041808 kJ/mol
# Density = 2.241051 g / cm^3
# Si number density = 22.461630 Si / 1000 Ang^3
#
#
#
# Elastic Constant Matrix: (Units=GPa)
#
#
# Indices 1 2 3 4 5 6 
#
# 1 64.1401 26.3856 -10.7721 0.0000 0.0000 0.0000
# 2 26.3856 122.8181 -17.4265 0.0000 0.0000 0.0000
# 3 -10.7721 -17.4265 47.4212 0.0000 0.0000 0.0000
# 4 0.0000 0.0000 0.0000 21.0506 0.0000 0.0000
# 5 0.0000 0.0000 0.0000 0.0000 17.3293 0.0000
# 6 0.0000 0.0000 0.0000 0.0000 0.0000 28.7174
#
#
#
# Elastic Compliance Matrix: (Units=1/GPa)
#
#
# Indices 1 2 3 4 5 6 
#
# 1 0.017430 -0.003358 0.002725 0.000000 0.000000 0.000000
# 2 -0.003358 0.009237 0.002632 0.000000 0.000000 0.000000
# 3 0.002725 0.002632 0.022674 0.000000 0.000000 0.000000
# 4 0.000000 0.000000 0.000000 0.047505 0.000000 0.000000
# 5 0.000000 0.000000 0.000000 0.000000 0.057706 0.000000
# 6 0.000000 0.000000 0.000000 0.000000 0.000000 0.034822
#
#
# Mechanical properties :
#
#
# Convention : Reuss Voigt Hill
#
# Bulk Modulus (GPa) = 18.74802 25.63927 22.19365
# Shear Modulus (GPa) = 24.61182 29.16562 26.88872
#
# Velocity S-wave (km/s) = 3.31377 3.60733 3.46366
# Velocity P-wave (km/s) = 4.79648 5.36562 5.08901
#
# Compressibility (1/GPa) = 0.05333897
#
# Stress axis : x y z
#
# Youngs Moduli (GPa) = 57.37262 108.26144 44.10383
#
# Poissons Ratio (x) = 0.36353 -0.12020
# Poissons Ratio (y) = 0.19265 -0.11607
# Poissons Ratio (z) = -0.15636 -0.28490
#
# Static dielectric constant tensor:
#      x y z
#    x 1.845270 0.000000 0.000000 
#    y 0.000000 1.851850 0.000000 
#    z 0.000000 0.000000 1.833660 
# 
# From -- ./inp_files/6482.got.cif
#   From: 2010.05.17/outbox.cif.g08.bks.cpg/sg55_4_cif.got.tgz:6482.got - 2010.06.03 13:27:54.
