data_PCOD9426111
_publ_section_title
;
Structure prediction by ZEFSAII (Michael W. Deem and Ramdas Pophale) SiO2 
 PCOD9426111
Probable space group: P B A M
;
_chemical_formula_sum "Si O2"
_cell_formula_units_Z 64
_cell_length_a 19.944556
_cell_length_b 19.139802
_cell_length_c 7.506097
_cell_angle_alpha 90.000000
_cell_angle_beta 90.000000
_cell_angle_gamma 90.000000
_cell_volume 2865.338834
_symmetry_space_group_name_H-M "P B A M"
_symmetry_group_IT_number 55
_symmetry_cell_setting 'orthorhombic'
loop_
_space_group_symop_operation_xyz
x,y,z
-x,-y,z
1/2+x,1/2-y,-z
1/2-x,1/2+y,-z
-x,-y,-z
x,y,-z
1/2-x,1/2+y,z
1/2+x,1/2-y,z
loop_
_atom_site_type_symbol
_atom_site_label
_atom_site_fract_x
_atom_site_fract_y
_atom_site_fract_z
Si Si1 0.463009 0.066112 0.799431
Si Si2 0.617388 0.257441 0.217406
Si Si3 0.137561 0.833859 0.217548
Si Si4 0.530575 0.777293 0.218196
Si Si5 0.787545 0.633671 0.215276
Si Si6 0.319986 0.026640 0.701712
Si Si7 0.318848 0.597997 0.215033
Si Si8 0.574859 0.518738 0.782406
O O1 0.470250 0.142811 0.718941
O O2 0.384755 0.048269 0.811511
O O3 0.500000 0.000000 0.713556
O O4 0.492645 0.072144 0.000000
O O5 0.539627 0.258238 0.269686
O O6 0.654688 0.186776 0.275139
O O7 0.657544 0.325950 0.276774
O O8 0.618229 0.257641 0.000000
O O9 0.094737 0.767231 0.276791
O O10 0.214590 0.839426 0.275553
O O11 0.099307 0.904637 0.271515
O O12 0.138508 0.832812 0.000000
O O13 0.533159 0.778341 0.000000
O O14 0.799624 0.553790 0.268100
O O15 0.787138 0.634392 0.000000
O O16 0.342000 0.035058 0.500000
O O17 0.255442 0.074531 0.734638
O O18 0.371590 0.539209 0.275738
O O19 0.321124 0.598585 0.000000
O O20 0.500000 0.500000 0.724230
O O21 0.574614 0.518232 0.000000
#
# Coordination Sequence:
#
# PCOD9426111 Si02
#       8
#     8   8   8   8   8   8   8   8
#     4  10  21  38  63  89 115 149 192 245 300 349
#     4   9  18  31  55  87 115 141 179 233 291 347
#     4   9  16  26  45  77 111 141 174 222 279 336
#     4   9  17  30  51  86 120 141 176 234 295 346
#     4  10  19  35  57  81 108 144 190 237 290 345
#     4  12  25  39  56  81 116 157 198 239 282 339
#     4  10  19  34  57  86 116 148 186 234 287 344
#     4   9  15  25  46  78 111 138 172 222 277 329
#
# _framework density 22.335927999999999
#
# number of rings (size 3 to 8) (size 9 to 14) (size 15 to 20)
#    0.000    2.250    1.250    2.625    1.750    5.250 
#    0.000    0.625    0.000    1.125    0.000    0.000 
#    0.000    0.000    0.000    0.000    0.000    0.000 
#
# Total GULP energy -357716.036777 kJ/mol
# GULP energy per Si atom -5589.313075 kJ/mol
# Density = 2.228509 g / cm^3
# Si number density = 22.335928 Si / 1000 Ang^3
#
#
#
# Elastic Constant Matrix: (Units=GPa)
#
#
# Indices 1 2 3 4 5 6 
#
# 1 88.7476 18.1410 -4.8351 0.0000 0.0000 0.0000
# 2 18.1410 119.5853 -0.4913 0.0000 0.0000 0.0000
# 3 -4.8351 -0.4913 65.5794 0.0000 0.0000 0.0000
# 4 0.0000 0.0000 0.0000 -7.1563 0.0000 0.0000
# 5 0.0000 0.0000 0.0000 0.0000 17.9765 0.0000
# 6 0.0000 0.0000 0.0000 0.0000 0.0000 46.3236
#
#
#
# Elastic Compliance Matrix: (Units=1/GPa)
#
#
# Indices 1 2 3 4 5 6 
#
# 1 0.011675 -0.001768 0.000848 0.000000 0.000000 0.000000
# 2 -0.001768 0.008630 -0.000066 0.000000 0.000000 0.000000
# 3 0.000848 -0.000066 0.015311 0.000000 0.000000 0.000000
# 4 0.000000 0.000000 0.000000 -0.139737 0.000000 0.000000
# 5 0.000000 0.000000 0.000000 0.000000 0.055628 0.000000
# 6 0.000000 0.000000 0.000000 0.000000 0.000000 0.021587
#
#
# Mechanical properties :
#
#
# Convention : Reuss Voigt Hill
#
# Bulk Modulus (GPa) = 29.72240 33.28241 31.50240
# Shear Modulus (GPa) = -364.45090 28.83527 -167.80782
#
# Velocity S-wave (km/s) = -12.78758 3.59692 -8.67711
# Velocity P-wave (km/s) = 14.30712 5.67306 9.28736
#
# Compressibility (1/GPa) = 0.03364466
#
# Stress axis : x y z
#
# Youngs Moduli (GPa) = 85.64999 115.87331 65.31386
#
# Poissons Ratio (x) = 0.20483 -0.05536
# Poissons Ratio (y) = 0.15140 0.00429
# Poissons Ratio (z) = -0.07259 0.00761
#
# Static dielectric constant tensor:
#      x y z
#    x 1.769500 0.000000 0.000000 
#    y 0.000000 1.782970 0.000000 
#    z 0.000000 0.000000 1.902090 
# 
# From -- ./inp_files/8969.got.cif
#   From: 2010.05.17/outbox.cif.g08.bks.cpg/sg55_5_cif.got.tgz:8969.got - 2010.06.03 13:27:54.
