data_PCOD9426974
_publ_section_title
;
Structure prediction by ZEFSAII (Michael W. Deem and Ramdas Pophale) SiO2 
 PCOD9426974
Probable space group: P B A M
;
_chemical_formula_sum "Si O2"
_cell_formula_units_Z 32
_cell_length_a 4.963887
_cell_length_b 24.232451
_cell_length_c 11.074250
_cell_angle_alpha 90.000000
_cell_angle_beta 90.000000
_cell_angle_gamma 90.000000
_cell_volume 1332.089954
_symmetry_space_group_name_H-M "P B A M"
_symmetry_group_IT_number 55
_symmetry_cell_setting 'orthorhombic'
loop_
_space_group_symop_operation_xyz
x,y,z
-x,-y,z
1/2+x,1/2-y,-z
1/2-x,1/2+y,-z
-x,-y,-z
x,y,-z
1/2-x,1/2+y,z
1/2+x,1/2-y,z
loop_
_atom_site_type_symbol
_atom_site_label
_atom_site_fract_x
_atom_site_fract_y
_atom_site_fract_z
Si Si1 0.248479 0.043200 0.500000
Si Si2 0.430601 0.287963 0.231268
Si Si3 0.968161 0.782007 0.500000
Si Si4 0.700614 0.398365 0.758085
Si Si5 0.811406 0.550419 0.143458
O O1 0.239153 0.084000 0.382959
O O2 0.500000 0.000000 0.500000
O O3 0.000000 0.000000 0.500000
O O4 0.138872 0.262506 0.208737
O O5 0.439345 0.305351 0.373729
O O6 0.563485 0.343381 0.183998
O O7 0.647065 0.774740 0.500000
O O8 0.483161 0.442803 0.804138
O O9 0.998436 0.399680 0.813819
O O10 0.000000 0.500000 0.187001
O O11 0.791756 0.546934 0.000000
#
# Coordination Sequence:
#
# PCOD9426974 Si02
#       5
#     4   8   4   8   8
#     4  12  25  40  61  96 138 166 194 248 325 396
#     4  10  20  35  56  85 121 160 206 254 297 362
#     4   8  15  28  47  72 107 150 193 234 278 332
#     4  12  23  40  66  94 128 168 206 253 323 383
#     4  11  24  43  67  92 120 161 217 270 309 365
#
# _framework density 24.022403000000001
#
# number of rings (size 3 to 8) (size 9 to 14) (size 15 to 20)
#    0.000    1.250    0.000    7.500    0.000    2.000 
#    0.000    7.500    0.000   15.000    0.000    0.000 
#    0.000    0.000    0.000    0.000    0.000    0.000 
#
# Total GULP energy -178321.294119 kJ/mol
# GULP energy per Si atom -5572.540441 kJ/mol
# Density = 2.396773 g / cm^3
# Si number density = 24.022403 Si / 1000 Ang^3
#
#
#
# Elastic Constant Matrix: (Units=GPa)
#
#
# Indices 1 2 3 4 5 6 
#
# 1 148.3668 -5.5970 14.4949 0.0000 0.0000 0.0000
# 2 -5.5970 78.0756 -5.0072 0.0000 0.0000 0.0000
# 3 14.4949 -5.0072 48.8162 0.0000 0.0000 0.0000
# 4 0.0000 0.0000 0.0000 -6.6156 0.0000 0.0000
# 5 0.0000 0.0000 0.0000 0.0000 26.9377 0.0000
# 6 0.0000 0.0000 0.0000 0.0000 0.0000 24.9226
#
#
#
# Elastic Compliance Matrix: (Units=1/GPa)
#
#
# Indices 1 2 3 4 5 6 
#
# 1 0.006952 0.000368 -0.002026 0.000000 0.000000 0.000000
# 2 0.000368 0.012912 0.001215 0.000000 0.000000 0.000000
# 3 -0.002026 0.001215 0.021211 0.000000 0.000000 0.000000
# 4 0.000000 0.000000 0.000000 -0.151158 0.000000 0.000000
# 5 0.000000 0.000000 0.000000 0.000000 0.037123 0.000000
# 6 0.000000 0.000000 0.000000 0.000000 0.000000 0.040124
#
#
# Mechanical properties :
#
#
# Convention : Reuss Voigt Hill
#
# Bulk Modulus (GPa) = 24.88197 31.44890 28.16543
# Shear Modulus (GPa) = -269.50348 27.14012 -121.18168
#
# Velocity S-wave (km/s) = -10.60339 3.36487 -7.11019
# Velocity P-wave (km/s) = 11.81224 5.31191 7.46031
#
# Compressibility (1/GPa) = 0.04018975
#
# Stress axis : x y z
#
# Youngs Moduli (GPa) = 143.84505 77.44477 47.14458
#
# Poissons Ratio (x) = -0.02853 0.09554
# Poissons Ratio (y) = -0.05299 -0.05728
# Poissons Ratio (z) = 0.29149 -0.09410
#
# Static dielectric constant tensor:
#      x y z
#    x 1.904760 0.000000 0.000000 
#    y 0.000000 2.173650 0.000000 
#    z 0.000000 0.000000 1.982290 
# 
# From -- ./inp_files/11226.got.cif
#   From: 2010.05.17/outbox.cif.g08.bks.cpg/sg55_6_cif.got.tgz:11226.got - 2010.06.03 13:27:54.
