data_PCOD9426853
_publ_section_title
;
Structure prediction by ZEFSAII (Michael W. Deem and Ramdas Pophale) SiO2 
 PCOD9426853
Probable space group: P B A M
;
_chemical_formula_sum "Si O2"
_cell_formula_units_Z 40
_cell_length_a 9.288038
_cell_length_b 10.918334
_cell_length_c 14.302956
_cell_angle_alpha 90.000000
_cell_angle_beta 90.000000
_cell_angle_gamma 90.000000
_cell_volume 1450.461353
_symmetry_space_group_name_H-M "P B A M"
_symmetry_group_IT_number 55
_symmetry_cell_setting 'orthorhombic'
loop_
_space_group_symop_operation_xyz
x,y,z
-x,-y,z
1/2+x,1/2-y,-z
1/2-x,1/2+y,-z
-x,-y,-z
x,y,-z
1/2-x,1/2+y,z
1/2+x,1/2-y,z
loop_
_atom_site_type_symbol
_atom_site_label
_atom_site_fract_x
_atom_site_fract_y
_atom_site_fract_z
Si Si1 0.984198 0.298901 0.100821
Si Si2 0.182421 0.075763 0.900699
Si Si3 0.937358 0.636909 0.500000
Si Si4 0.831685 0.028867 0.500000
Si Si5 0.546897 0.771835 0.698307
Si Si6 0.675004 0.419050 0.299765
O O1 0.814930 0.327283 0.096285
O O2 0.039257 0.159291 0.100404
O O3 0.019088 0.337564 0.208140
O O4 0.039734 0.350890 0.000000
O O5 0.198344 0.014166 0.799779
O O6 0.187081 0.008075 0.000000
O O7 0.763057 0.651883 0.500000
O O8 0.992906 0.689024 0.402999
O O9 0.000000 0.500000 0.500000
O O10 0.786176 0.976824 0.601245
O O11 0.000000 0.000000 0.500000
O O12 0.715291 0.802154 0.704373
O O13 0.487060 0.633763 0.699920
#
# Coordination Sequence:
#
# PCOD9426853 Si02
#       6
#     8   8   4   4   8   8
#     4   8  14  26  46  76 106 131 164 208 254 301
#     4   8  14  26  48  76 105 132 162 207 256 301
#     4  12  23  40  54  72 105 144 174 215 269 313
#     4  12  27  40  54  74 105 142 180 224 267 317
#     4  10  20  34  58  81 107 139 176 217 259 311
#     4  10  20  36  56  83 107 136 178 217 258 312
#
# _framework density 27.577431000000001
#
# number of rings (size 3 to 8) (size 9 to 14) (size 15 to 20)
#    0.000    2.400    2.000    0.600    2.800    0.000 
#    0.000    0.000    0.000    2.400    0.000    0.000 
#    0.000    0.000    0.000    0.000    0.000    0.000 
#
# Total GULP energy -222912.397077 kJ/mol
# GULP energy per Si atom -5572.809927 kJ/mol
# Density = 2.751466 g / cm^3
# Si number density = 27.577431 Si / 1000 Ang^3
#
#
#
# Elastic Constant Matrix: (Units=GPa)
#
#
# Indices 1 2 3 4 5 6 
#
# 1 116.9486 16.3051 49.5715 0.0000 0.0000 0.0000
# 2 16.3051 34.4481 49.6462 0.0000 0.0000 0.0000
# 3 49.5715 49.6462 378.3934 0.0000 0.0000 0.0000
# 4 0.0000 0.0000 0.0000 -8.9791 0.0000 0.0000
# 5 0.0000 0.0000 0.0000 0.0000 7.7381 0.0000
# 6 0.0000 0.0000 0.0000 0.0000 0.0000 50.1207
#
#
#
# Elastic Compliance Matrix: (Units=1/GPa)
#
#
# Indices 1 2 3 4 5 6 
#
# 1 0.009344 -0.003279 -0.000794 0.000000 0.000000 0.000000
# 2 -0.003279 0.036949 -0.004418 0.000000 0.000000 0.000000
# 3 -0.000794 -0.004418 0.003326 0.000000 0.000000 0.000000
# 4 0.000000 0.000000 0.000000 -0.111370 0.000000 0.000000
# 5 0.000000 0.000000 0.000000 0.000000 0.129230 0.000000
# 6 0.000000 0.000000 0.000000 0.000000 0.000000 0.019952
#
#
# Mechanical properties :
#
#
# Convention : Reuss Voigt Hill
#
# Bulk Modulus (GPa) = 30.63944 84.53732 57.58838
# Shear Modulus (GPa) = 43.36796 37.39375 40.38086
#
# Velocity S-wave (km/s) = 3.96989 3.68632 3.83073
# Velocity P-wave (km/s) = 5.66990 6.98854 6.36347
#
# Compressibility (1/GPa) = 0.03263767
#
# Stress axis : x y z
#
# Youngs Moduli (GPa) = 107.01554 27.06469 300.62036
#
# Poissons Ratio (x) = 0.08874 0.23869
# Poissons Ratio (y) = 0.35086 1.32821
# Poissons Ratio (z) = 0.08497 0.11958
#
# Static dielectric constant tensor:
#      x y z
#    x 2.147260 0.000000 0.000000 
#    y 0.000000 2.188340 0.000000 
#    z 0.000000 0.000000 2.145600 
# 
# From -- ./inp_files/17111.got.cif
#   From: 2010.05.17/outbox.cif.g08.bks.cpg/sg55_9_cif.got.tgz:17111.got - 2010.06.03 13:27:54.
