data_PCOD9426817
_publ_section_title
;
Structure prediction by ZEFSAII (Michael W. Deem and Ramdas Pophale) SiO2 
 PCOD9426817
Probable space group: P B A M
;
_chemical_formula_sum "Si O2"
_cell_formula_units_Z 56
_cell_length_a 21.107116
_cell_length_b 13.641429
_cell_length_c 10.430133
_cell_angle_alpha 90.000000
_cell_angle_beta 90.000000
_cell_angle_gamma 90.000000
_cell_volume 3003.160964
_symmetry_space_group_name_H-M "P B A M"
_symmetry_group_IT_number 55
_symmetry_cell_setting 'orthorhombic'
loop_
_space_group_symop_operation_xyz
x,y,z
-x,-y,z
1/2+x,1/2-y,-z
1/2-x,1/2+y,-z
-x,-y,-z
x,y,-z
1/2-x,1/2+y,z
1/2+x,1/2-y,z
loop_
_atom_site_type_symbol
_atom_site_label
_atom_site_fract_x
_atom_site_fract_y
_atom_site_fract_z
Si Si1 0.553284 0.724673 0.652076
Si Si2 0.189478 0.051242 0.764605
Si Si3 0.858610 0.144630 0.136661
Si Si4 0.806345 0.565100 0.347731
Si Si5 0.435038 0.049152 0.344720
Si Si6 0.050773 0.079999 0.651623
Si Si7 0.774849 0.733930 0.854918
O O1 0.566959 0.712700 0.500000
O O2 0.598584 0.659473 0.739597
O O3 0.482116 0.685416 0.673400
O O4 0.564154 0.836663 0.690391
O O5 0.121719 0.071443 0.699595
O O6 0.209747 0.153647 0.825633
O O7 0.173759 0.961782 0.859261
O O8 0.245857 0.006224 0.677139
O O9 0.800892 0.220293 0.145634
O O10 0.892533 0.157273 0.000000
O O11 0.808504 0.590286 0.500000
O O12 0.870773 0.507657 0.310903
O O13 0.799623 0.659973 0.255607
O O14 0.437222 0.047155 0.500000
O O15 0.500000 0.000000 0.297247
O O16 0.053484 0.063718 0.500000
O O17 0.000000 0.000000 0.703914
O O18 0.796733 0.707813 0.000000
#
# Coordination Sequence:
#
# PCOD9426817 Si02
#       7
#     8   8   8   8   8   8   8
#     4  10  20  36  59  84 115 155 194 235 289 355
#     4  11  21  37  60  86 117 156 198 250 291 356
#     4  10  21  38  59  84 114 153 195 239 294 350
#     4  10  22  38  60  91 118 149 200 255 299 350
#     4   9  19  36  59  85 117 153 191 236 294 353
#     4  10  20  34  55  87 122 154 191 239 301 355
#     4  10  23  40  60  86 119 160 200 243 303 361
#
# _framework density 18.647019
#
# number of rings (size 3 to 8) (size 9 to 14) (size 15 to 20)
#    0.000    2.000    1.429    1.714    2.000    4.000 
#    0.000    2.857    0.000    0.857    0.000    0.000 
#    0.000    0.000    0.000    0.000    0.000    0.000 
#
# Total GULP energy -312055.275185 kJ/mol
# GULP energy per Si atom -5572.415628 kJ/mol
# Density = 1.860458 g / cm^3
# Si number density = 18.647019 Si / 1000 Ang^3
#
#
#
# Elastic Constant Matrix: (Units=GPa)
#
#
# Indices 1 2 3 4 5 6 
#
# 1 107.2069 49.1464 41.0764 0.0000 0.0000 0.0000
# 2 49.1464 110.2790 51.3043 0.0000 0.0000 0.0000
# 3 41.0764 51.3043 79.3123 0.0000 0.0000 0.0000
# 4 0.0000 0.0000 0.0000 -9.7563 0.0000 0.0000
# 5 0.0000 0.0000 0.0000 0.0000 -14.2805 0.0000
# 6 0.0000 0.0000 0.0000 0.0000 0.0000 28.6961
#
#
#
# Elastic Compliance Matrix: (Units=1/GPa)
#
#
# Indices 1 2 3 4 5 6 
#
# 1 0.012607 -0.003692 -0.004141 0.000000 0.000000 0.000000
# 2 -0.003692 0.014053 -0.007178 0.000000 0.000000 0.000000
# 3 -0.004141 -0.007178 0.019396 0.000000 0.000000 0.000000
# 4 0.000000 0.000000 0.000000 -0.102498 0.000000 0.000000
# 5 0.000000 0.000000 0.000000 0.000000 -0.070026 0.000000
# 6 0.000000 0.000000 0.000000 0.000000 0.000000 0.034848
#
#
# Mechanical properties :
#
#
# Convention : Reuss Voigt Hill
#
# Bulk Modulus (GPa) = 62.36821 64.42802 63.39812
# Shear Modulus (GPa) = -88.88351 11.28328 -38.80012
#
# Velocity S-wave (km/s) = -6.91157 2.46254 -4.56649
# Velocity P-wave (km/s) = 5.49306 6.53543 2.50381
#
# Compressibility (1/GPa) = 0.01603381
#
# Stress axis : x y z
#
# Youngs Moduli (GPa) = 79.32216 71.16132 51.55606
#
# Poissons Ratio (x) = 0.26271 0.21350
# Poissons Ratio (y) = 0.29284 0.37008
# Poissons Ratio (z) = 0.32848 0.51080
#
# Static dielectric constant tensor:
#      x y z
#    x 1.646700 0.000000 0.000000 
#    y 0.000000 1.671160 0.000000 
#    z 0.000000 0.000000 1.649460 
# 
# From -- ./inp_files/15342.got.cif
#   From: 2010.05.17/outbox.cif.g08.bks.cpg/sg55_8_cif.got.tgz:15342.got - 2010.06.03 13:27:54.
