data_PCOD9426666
_publ_section_title
;
Structure prediction by ZEFSAII (Michael W. Deem and Ramdas Pophale) SiO2 
 PCOD9426666
Probable space group: P B A M
;
_chemical_formula_sum "Si O2"
_cell_formula_units_Z 64
_cell_length_a 24.274508
_cell_length_b 15.955579
_cell_length_c 7.408352
_cell_angle_alpha 90.000000
_cell_angle_beta 90.000000
_cell_angle_gamma 90.000000
_cell_volume 2869.357188
_symmetry_space_group_name_H-M "P B A M"
_symmetry_group_IT_number 55
_symmetry_cell_setting 'orthorhombic'
loop_
_space_group_symop_operation_xyz
x,y,z
-x,-y,z
1/2+x,1/2-y,-z
1/2-x,1/2+y,-z
-x,-y,-z
x,y,-z
1/2-x,1/2+y,z
1/2+x,1/2-y,z
loop_
_atom_site_type_symbol
_atom_site_label
_atom_site_fract_x
_atom_site_fract_y
_atom_site_fract_z
Si Si1 0.192574 0.682931 0.780174
Si Si2 0.075759 0.742296 0.786516
Si Si3 0.125799 0.355191 0.779522
Si Si4 0.662350 0.495914 0.781608
Si Si5 0.714488 0.009334 0.780155
Si Si6 0.685402 0.306616 0.780260
Si Si7 0.504584 0.096125 0.779156
Si Si8 0.457289 0.430194 0.293819
O O1 0.138586 0.732559 0.716767
O O2 0.194928 0.584339 0.728778
O O3 0.252475 0.715316 0.722711
O O4 0.192439 0.685632 0.000000
O O5 0.047528 0.833436 0.769161
O O6 0.040012 0.664095 0.716268
O O7 0.080169 0.728802 0.000000
O O8 0.170201 0.423411 0.719887
O O9 0.144264 0.264132 0.720309
O O10 0.064625 0.374518 0.723005
O O11 0.126483 0.356933 0.000000
O O12 0.722624 0.530052 0.725015
O O13 0.666725 0.398810 0.725958
O O14 0.605479 0.535913 0.717556
O O15 0.660322 0.501390 0.000000
O O16 0.715448 0.008954 0.000000
O O17 0.686170 0.308231 0.000000
O O18 0.500000 0.000000 0.721488
O O19 0.502018 0.095664 0.000000
O O20 0.500000 0.500000 0.212397
O O21 0.474801 0.422145 0.500000
#
# Coordination Sequence:
#
# PCOD9426666 Si02
#       8
#     8   8   8   8   8   8   8   8
#     4   8  14  26  43  71 108 135 160 202 259 311
#     4  10  20  33  57  85 108 138 181 227 262 307
#     4   9  15  22  38  66 106 141 162 193 249 312
#     4   9  18  33  55  80 103 130 173 221 262 309
#     4   8  14  25  45  78 114 141 160 197 258 320
#     4   8  15  25  42  72 107 133 158 205 261 309
#     4   9  17  28  44  75 115 145 167 204 261 314
#     4  11  26  43  55  70 100 143 184 227 280 328
#
# _framework density 22.304646999999999
#
# number of rings (size 3 to 8) (size 9 to 14) (size 15 to 20)
#    0.000    3.000    0.000    2.625    3.500    4.000 
#    0.000    0.000    0.000    3.375    0.000    0.875 
#    0.000    0.000    0.000    0.000    0.000    0.000 
#
# Total GULP energy -357035.540204 kJ/mol
# GULP energy per Si atom -5578.680316 kJ/mol
# Density = 2.225388 g / cm^3
# Si number density = 22.304647 Si / 1000 Ang^3
#
#
#
# Elastic Constant Matrix: (Units=GPa)
#
#
# Indices 1 2 3 4 5 6 
#
# 1 124.4383 75.9644 -1.0261 0.0000 0.0000 0.0000
# 2 75.9644 107.8362 0.0251 0.0000 0.0000 0.0000
# 3 -1.0261 0.0251 65.8762 0.0000 0.0000 0.0000
# 4 0.0000 0.0000 0.0000 6.7968 0.0000 0.0000
# 5 0.0000 0.0000 0.0000 0.0000 28.7976 0.0000
# 6 0.0000 0.0000 0.0000 0.0000 0.0000 38.9775
#
#
#
# Elastic Compliance Matrix: (Units=1/GPa)
#
#
# Indices 1 2 3 4 5 6 
#
# 1 0.014103 -0.009934 0.000223 0.000000 0.000000 0.000000
# 2 -0.009934 0.016272 -0.000161 0.000000 0.000000 0.000000
# 3 0.000223 -0.000161 0.015184 0.000000 0.000000 0.000000
# 4 0.000000 0.000000 0.000000 0.147129 0.000000 0.000000
# 5 0.000000 0.000000 0.000000 0.000000 0.034725 0.000000
# 6 0.000000 0.000000 0.000000 0.000000 0.000000 0.025656
#
#
# Mechanical properties :
#
#
# Convention : Reuss Voigt Hill
#
# Bulk Modulus (GPa) = 38.73905 49.78640 44.26272
# Shear Modulus (GPa) = 17.76730 29.79352 23.78041
#
# Velocity S-wave (km/s) = 2.82543 3.65876 3.26876
# Velocity P-wave (km/s) = 5.29622 6.34179 5.84244
#
# Compressibility (1/GPa) = 0.02581375
#
# Stress axis : x y z
#
# Youngs Moduli (GPa) = 70.90915 61.45661 65.86088
#
# Poissons Ratio (x) = 0.61054 -0.01472
# Poissons Ratio (y) = 0.70445 0.01060
# Poissons Ratio (z) = -0.01584 0.00989
#
# Static dielectric constant tensor:
#      x y z
#    x 1.795430 0.000000 0.000000 
#    y 0.000000 1.785470 0.000000 
#    z 0.000000 0.000000 1.861300 
# 
# From -- ./inp_files/9630.got.cif
#   From: 2010.05.17/outbox.cif.g08.bks.cpg/sg55_5_cif.got.tgz:9630.got - 2010.06.03 13:27:54.
