data_PCOD9426293
_publ_section_title
;
Structure prediction by ZEFSAII (Michael W. Deem and Ramdas Pophale) SiO2 
 PCOD9426293
Probable space group: P B A M
;
_chemical_formula_sum "Si O2"
_cell_formula_units_Z 48
_cell_length_a 8.680935
_cell_length_b 19.310358
_cell_length_c 11.899073
_cell_angle_alpha 90.000000
_cell_angle_beta 90.000000
_cell_angle_gamma 90.000000
_cell_volume 1994.664960
_symmetry_space_group_name_H-M "P B A M"
_symmetry_group_IT_number 55
_symmetry_cell_setting 'orthorhombic'
loop_
_space_group_symop_operation_xyz
x,y,z
-x,-y,z
1/2+x,1/2-y,-z
1/2-x,1/2+y,-z
-x,-y,-z
x,y,-z
1/2-x,1/2+y,z
1/2+x,1/2-y,z
loop_
_atom_site_type_symbol
_atom_site_label
_atom_site_fract_x
_atom_site_fract_y
_atom_site_fract_z
Si Si1 0.501559 0.801606 0.278851
Si Si2 0.930979 0.900814 0.155098
Si Si3 0.011755 0.851339 0.378823
Si Si4 0.737156 0.030096 0.123333
Si Si5 0.279480 0.737747 0.124543
Si Si6 0.154284 0.422520 0.372706
O O1 0.500828 0.729411 0.346607
O O2 0.354731 0.799682 0.194341
O O3 0.647619 0.797142 0.198473
O O4 0.484171 0.867691 0.356791
O O5 0.908232 0.822263 0.117637
O O6 0.925690 0.897796 0.289167
O O7 0.099962 0.928286 0.125108
O O8 0.796311 0.950985 0.117085
O O9 0.943239 0.861483 0.500000
O O10 0.187787 0.877324 0.377516
O O11 0.662820 0.039971 0.248634
O O12 0.660824 0.046413 0.000000
O O13 0.230538 0.756962 0.000000
O O14 0.145803 0.455043 0.500000
#
# Coordination Sequence:
#
# PCOD9426293 Si02
#       6
#     8   8   8   8   8   8
#     4  11  21  38  54  84 117 156 194 238 296 353
#     4   9  19  35  57  88 116 154 199 245 297 349
#     4   9  18  34  56  82 113 149 194 241 291 348
#     4  10  19  35  61  88 119 157 200 248 297 349
#     4  11  22  36  57  85 119 152 194 244 294 354
#     4  10  21  37  57  84 116 153 195 242 293 349
#
# _framework density 24.064191000000001
#
# number of rings (size 3 to 8) (size 9 to 14) (size 15 to 20)
#    0.000    2.000    1.667    3.000    0.000    2.000 
#    0.000    5.000    0.000    3.000    0.000    0.000 
#    0.000    0.000    0.000    0.000    0.000    0.000 
#
# Total GULP energy -267794.764481 kJ/mol
# GULP energy per Si atom -5579.057593 kJ/mol
# Density = 2.400942 g / cm^3
# Si number density = 24.064191 Si / 1000 Ang^3
#
#
#
# Elastic Constant Matrix: (Units=GPa)
#
#
# Indices 1 2 3 4 5 6 
#
# 1 48.7307 -0.6835 21.7285 0.0000 0.0000 0.0000
# 2 -0.6835 44.2765 20.5514 0.0000 0.0000 0.0000
# 3 21.7285 20.5514 238.9434 0.0000 0.0000 0.0000
# 4 0.0000 0.0000 0.0000 11.8804 0.0000 0.0000
# 5 0.0000 0.0000 0.0000 0.0000 10.3644 0.0000
# 6 0.0000 0.0000 0.0000 0.0000 0.0000 32.3409
#
#
#
# Elastic Compliance Matrix: (Units=1/GPa)
#
#
# Indices 1 2 3 4 5 6 
#
# 1 0.021459 0.001288 -0.002062 0.000000 0.000000 0.000000
# 2 0.001288 0.023602 -0.002147 0.000000 0.000000 0.000000
# 3 -0.002062 -0.002147 0.004557 0.000000 0.000000 0.000000
# 4 0.000000 0.000000 0.000000 0.084172 0.000000 0.000000
# 5 0.000000 0.000000 0.000000 0.000000 0.096484 0.000000
# 6 0.000000 0.000000 0.000000 0.000000 0.000000 0.030921
#
#
# Mechanical properties :
#
#
# Convention : Reuss Voigt Hill
#
# Bulk Modulus (GPa) = 22.84362 46.12706 34.48534
# Shear Modulus (GPa) = 17.75387 30.27408 24.01397
#
# Velocity S-wave (km/s) = 2.71914 3.55076 3.16240
# Velocity P-wave (km/s) = 4.40133 6.00170 5.26271
#
# Compressibility (1/GPa) = 0.04377589
#
# Stress axis : x y z
#
# Youngs Moduli (GPa) = 46.60152 42.36954 219.42859
#
# Poissons Ratio (x) = -0.05459 0.45250
# Poissons Ratio (y) = -0.06004 0.47115
# Poissons Ratio (z) = 0.09610 0.09097
#
# Static dielectric constant tensor:
#      x y z
#    x 1.935340 0.000000 0.000000 
#    y 0.000000 1.911350 0.000000 
#    z 0.000000 0.000000 2.007720 
# 
# From -- ./inp_files/12245.got.cif
#   From: 2010.05.17/outbox.cif.g08.bks.cpg/sg55_7_cif.got.tgz:12245.got - 2010.06.03 13:27:54.
