data_PCOD9426456
_publ_section_title
;
Structure prediction by ZEFSAII (Michael W. Deem and Ramdas Pophale) SiO2 
 PCOD9426456
Probable space group: P B A M
;
_chemical_formula_sum "Si O2"
_cell_formula_units_Z 64
_cell_length_a 12.607940
_cell_length_b 29.180753
_cell_length_c 8.134442
_cell_angle_alpha 90.000000
_cell_angle_beta 90.000000
_cell_angle_gamma 90.000000
_cell_volume 2992.735910
_symmetry_space_group_name_H-M "P B A M"
_symmetry_group_IT_number 55
_symmetry_cell_setting 'orthorhombic'
loop_
_space_group_symop_operation_xyz
x,y,z
-x,-y,z
1/2+x,1/2-y,-z
1/2-x,1/2+y,-z
-x,-y,-z
x,y,-z
1/2-x,1/2+y,z
1/2+x,1/2-y,z
loop_
_atom_site_type_symbol
_atom_site_label
_atom_site_fract_x
_atom_site_fract_y
_atom_site_fract_z
Si Si1 0.413632 0.792123 0.800973
Si Si2 0.859482 0.809897 0.201511
Si Si3 0.808717 0.613355 0.690428
Si Si4 0.636574 0.551783 0.190365
Si Si5 0.872347 0.336853 0.199026
Si Si6 0.979881 0.431408 0.195000
Si Si7 0.273652 0.032107 0.690806
Si Si8 0.079974 0.092750 0.802211
O O1 0.385658 0.741265 0.743694
O O2 0.347614 0.835498 0.734999
O O3 0.535324 0.801921 0.756499
O O4 0.404289 0.793809 0.000000
O O5 0.741303 0.821971 0.258475
O O6 0.927516 0.854276 0.252786
O O7 0.862224 0.809015 0.000000
O O8 0.780087 0.611192 0.500000
O O9 0.708438 0.597206 0.795938
O O10 0.906847 0.578101 0.722389
O O11 0.704435 0.513389 0.281613
O O12 0.519217 0.562450 0.257136
O O13 0.627630 0.537114 0.000000
O O14 0.912626 0.386601 0.250429
O O15 0.866324 0.338725 0.000000
O O16 0.891359 0.470182 0.228924
O O17 0.999238 0.429974 0.000000
O O18 0.291480 0.039914 0.500000
O O19 0.194040 0.071242 0.759382
O O20 0.072691 0.092739 0.000000
#
# Coordination Sequence:
#
# PCOD9426456 Si02
#       8
#     8   8   8   8   8   8   8   8
#     4   9  18  32  55  85 114 152 198 240 293 355
#     4   9  16  30  56  87 114 145 198 253 292 336
#     4  11  23  40  59  84 122 158 194 243 309 367
#     4  11  24  41  62  86 117 159 207 251 297 353
#     4   8  14  27  51  80 110 143 183 242 295 330
#     4  10  19  37  64  87 113 149 200 248 289 342
#     4  12  24  38  60  91 124 158 195 240 305 368
#     4  10  21  39  62  88 117 155 207 258 295 342
#
# _framework density 21.385116
#
# number of rings (size 3 to 8) (size 9 to 14) (size 15 to 20)
#    0.000    2.000    1.250    4.125    0.000    4.000 
#    0.000    6.875    0.000    3.000    0.000    0.000 
#    0.000    0.000    0.000    0.000    0.000    0.000 
#
# Total GULP energy -357251.361891 kJ/mol
# GULP energy per Si atom -5582.052530 kJ/mol
# Density = 2.133644 g / cm^3
# Si number density = 21.385116 Si / 1000 Ang^3
#
#
#
# Elastic Constant Matrix: (Units=GPa)
#
#
# Indices 1 2 3 4 5 6 
#
# 1 66.4454 -5.9307 -7.9571 0.0000 0.0000 0.0000
# 2 -5.9307 83.9489 -6.5458 0.0000 0.0000 0.0000
# 3 -7.9571 -6.5458 29.4149 0.0000 0.0000 0.0000
# 4 0.0000 0.0000 0.0000 -5.5475 0.0000 0.0000
# 5 0.0000 0.0000 0.0000 0.0000 -15.0811 0.0000
# 6 0.0000 0.0000 0.0000 0.0000 0.0000 30.5703
#
#
#
# Elastic Compliance Matrix: (Units=1/GPa)
#
#
# Indices 1 2 3 4 5 6 
#
# 1 0.015730 0.001469 0.004582 0.000000 0.000000 0.000000
# 2 0.001469 0.012259 0.003125 0.000000 0.000000 0.000000
# 3 0.004582 0.003125 0.035931 0.000000 0.000000 0.000000
# 4 0.000000 0.000000 0.000000 -0.180261 0.000000 0.000000
# 5 0.000000 0.000000 0.000000 0.000000 -0.066308 0.000000
# 6 0.000000 0.000000 0.000000 0.000000 0.000000 0.032712
#
#
# Mechanical properties :
#
#
# Convention : Reuss Voigt Hill
#
# Bulk Modulus (GPa) = 12.15482 15.43802 13.79642
# Shear Modulus (GPa) = -35.49514 15.33784 -10.07865
#
# Velocity S-wave (km/s) = -4.07849 2.68100 -2.17328
# Velocity P-wave (km/s) = 4.05989 4.10103 0.40972
#
# Compressibility (1/GPa) = 0.08227191
#
# Stress axis : x y z
#
# Youngs Moduli (GPa) = 63.57394 81.56973 27.83091
#
# Poissons Ratio (x) = -0.11979 -0.12752
# Poissons Ratio (y) = -0.09336 -0.08698
# Poissons Ratio (z) = -0.29129 -0.25494
#
# Static dielectric constant tensor:
#      x y z
#    x 1.775000 0.000000 0.000000 
#    y 0.000000 1.824970 0.000000 
#    z 0.000000 0.000000 1.743360 
# 
# From -- ./inp_files/4511.got.cif
#   From: 2010.05.17/outbox.cif.g08.bks.cpg/sg55_3_cif.got.tgz:4511.got - 2010.06.03 13:27:54.
