data_PCOD9426065
_publ_section_title
;
Structure prediction by ZEFSAII (Michael W. Deem and Ramdas Pophale) SiO2 
 PCOD9426065
Probable space group: P B A M
;
_chemical_formula_sum "Si O2"
_cell_formula_units_Z 64
_cell_length_a 25.418161
_cell_length_b 14.550959
_cell_length_c 8.959820
_cell_angle_alpha 90.000000
_cell_angle_beta 90.000000
_cell_angle_gamma 90.000000
_cell_volume 3313.866648
_symmetry_space_group_name_H-M "P B A M"
_symmetry_group_IT_number 55
_symmetry_cell_setting 'orthorhombic'
loop_
_space_group_symop_operation_xyz
x,y,z
-x,-y,z
1/2+x,1/2-y,-z
1/2-x,1/2+y,-z
-x,-y,-z
x,y,-z
1/2-x,1/2+y,z
1/2+x,1/2-y,z
loop_
_atom_site_type_symbol
_atom_site_label
_atom_site_fract_x
_atom_site_fract_y
_atom_site_fract_z
Si Si1 0.598043 0.530764 0.820138
Si Si2 0.456356 0.275754 0.821695
Si Si3 0.221140 0.729987 0.173195
Si Si4 0.121338 0.636451 0.321704
Si Si5 0.170324 0.244398 0.678842
Si Si6 0.940314 0.852165 0.322123
Si Si7 0.215729 0.952360 0.173468
Si Si8 0.824559 0.542651 0.678670
O O1 0.578443 0.633363 0.785603
O O2 0.561913 0.454181 0.745596
O O3 0.658525 0.517854 0.769115
O O4 0.596666 0.520788 0.000000
O O5 0.426801 0.187790 0.755928
O O6 0.513044 0.294308 0.751090
O O7 0.459794 0.269287 0.000000
O O8 0.174668 0.687490 0.270371
O O9 0.278817 0.706386 0.235553
O O10 0.216205 0.840934 0.180858
O O11 0.215282 0.703067 0.000000
O O12 0.115558 0.641944 0.500000
O O13 0.131346 0.530654 0.276156
O O14 0.179894 0.239874 0.500000
O O15 0.116295 0.192895 0.711861
O O16 0.164629 0.352055 0.721696
O O17 0.947109 0.855270 0.500000
O O18 0.267559 0.985017 0.257832
O O19 0.219862 0.978602 0.000000
O O20 0.821213 0.539854 0.500000
#
# Coordination Sequence:
#
# PCOD9426065 Si02
#       8
#     8   8   8   8   8   8   8   8
#     4  10  21  38  57  82 116 154 190 230 284 344
#     4  11  23  42  62  82 114 153 194 237 287 344
#     4  10  19  34  56  83 115 151 189 230 282 339
#     4  11  22  36  58  87 116 148 191 237 285 337
#     4   9  20  40  59  81 116 153 191 237 286 339
#     4  11  24  39  59  86 114 149 196 243 290 341
#     4   9  18  34  54  81 115 150 187 225 275 337
#     4   9  20  37  57  82 115 153 189 231 285 337
#
# _framework density 19.312787
#
# number of rings (size 3 to 8) (size 9 to 14) (size 15 to 20)
#    0.000    2.000    1.250    1.875    1.750    5.500 
#    0.000    0.625    0.000    3.750    0.000    0.000 
#    0.000    0.000    0.000    0.000    0.000    0.000 
#
# Total GULP energy -357567.558262 kJ/mol
# GULP energy per Si atom -5586.993098 kJ/mol
# Density = 1.926883 g / cm^3
# Si number density = 19.312787 Si / 1000 Ang^3
#
#
#
# Elastic Constant Matrix: (Units=GPa)
#
#
# Indices 1 2 3 4 5 6 
#
# 1 68.6585 3.0261 19.5271 0.0000 0.0000 0.0000
# 2 3.0261 37.0315 11.2911 0.0000 0.0000 0.0000
# 3 19.5271 11.2911 24.3086 0.0000 0.0000 0.0000
# 4 0.0000 0.0000 0.0000 20.3580 0.0000 0.0000
# 5 0.0000 0.0000 0.0000 0.0000 28.1780 0.0000
# 6 0.0000 0.0000 0.0000 0.0000 0.0000 31.9879
#
#
#
# Elastic Compliance Matrix: (Units=1/GPa)
#
#
# Indices 1 2 3 4 5 6 
#
# 1 0.019296 0.003669 -0.017205 0.000000 0.000000 0.000000
# 2 0.003669 0.032157 -0.017884 0.000000 0.000000 0.000000
# 3 -0.017205 -0.017884 0.063266 0.000000 0.000000 0.000000
# 4 0.000000 0.000000 0.000000 0.049121 0.000000 0.000000
# 5 0.000000 0.000000 0.000000 0.000000 0.035489 0.000000
# 6 0.000000 0.000000 0.000000 0.000000 0.000000 0.031262
#
#
# Mechanical properties :
#
#
# Convention : Reuss Voigt Hill
#
# Bulk Modulus (GPa) = 19.27562 21.96524 20.62043
# Shear Modulus (GPa) = 16.09147 22.51505 19.30326
#
# Velocity S-wave (km/s) = 2.88966 3.41810 3.16493
# Velocity P-wave (km/s) = 4.59738 5.19384 4.90469
#
# Compressibility (1/GPa) = 0.05187902
#
# Stress axis : x y z
#
# Youngs Moduli (GPa) = 51.82314 31.09721 15.80637
#
# Poissons Ratio (x) = -0.11410 0.27195
# Poissons Ratio (y) = -0.19014 0.28268
# Poissons Ratio (z) = 0.89162 0.55615
#
# Static dielectric constant tensor:
#      x y z
#    x 1.655190 0.000000 0.000000 
#    y 0.000000 1.703110 0.000000 
#    z 0.000000 0.000000 1.643040 
# 
# From -- ./inp_files/9780.got.cif
#   From: 2010.05.17/outbox.cif.g08.bks.cpg/sg55_5_cif.got.tgz:9780.got - 2010.06.03 13:27:54.
