data_PCOD9426025
_publ_section_title
;
Structure prediction by ZEFSAII (Michael W. Deem and Ramdas Pophale) SiO2 
 PCOD9426025
Probable space group: P B A M
;
_chemical_formula_sum "Si O2"
_cell_formula_units_Z 64
_cell_length_a 23.245099
_cell_length_b 6.997049
_cell_length_c 19.364806
_cell_angle_alpha 90.000000
_cell_angle_beta 90.000000
_cell_angle_gamma 90.000000
_cell_volume 3149.629474
_symmetry_space_group_name_H-M "P B A M"
_symmetry_group_IT_number 55
_symmetry_cell_setting 'orthorhombic'
loop_
_space_group_symop_operation_xyz
x,y,z
-x,-y,z
1/2+x,1/2-y,-z
1/2-x,1/2+y,-z
-x,-y,-z
x,y,-z
1/2-x,1/2+y,z
1/2+x,1/2-y,z
loop_
_atom_site_type_symbol
_atom_site_label
_atom_site_fract_x
_atom_site_fract_y
_atom_site_fract_z
Si Si1 0.504042 0.272243 0.922954
Si Si2 0.119771 0.247353 0.839873
Si Si3 0.071444 0.209117 0.306809
Si Si4 0.069640 0.491627 0.422182
Si Si5 0.316489 0.985660 0.919357
Si Si6 0.384957 0.225437 0.151578
Si Si7 0.178562 0.986952 0.080471
Si Si8 0.939175 0.236690 0.300208
O O1 0.500000 0.500000 0.926657
O O2 0.556501 0.234026 0.872520
O O3 0.443265 0.206578 0.893568
O O4 0.515986 0.201301 0.000000
O O5 0.114390 0.243030 0.756832
O O6 0.139815 0.488836 0.849708
O O7 0.170616 0.234459 0.902308
O O8 0.086981 0.303503 0.379662
O O9 0.006895 0.283406 0.288252
O O10 0.064790 0.985590 0.315051
O O11 0.092294 0.505879 0.500000
O O12 0.084055 0.655283 0.367222
O O13 0.000000 0.500000 0.427428
O O14 0.247838 0.986149 0.911135
O O15 0.329883 0.237640 0.906598
O O16 0.333664 0.980208 0.000000
O O17 0.370837 0.483266 0.146502
O O18 0.403314 0.225049 0.231696
O O19 0.159179 0.992093 0.000000
#
# Coordination Sequence:
#
# PCOD9426025 Si02
#       8
#     8   8   8   8   8   8   8   8
#     4  11  20  31  51  75  99 136 184 231 276 329
#     4  12  21  36  55  76 107 142 187 237 284 341
#     4  10  19  34  55  82 114 148 182 226 286 337
#     4   9  19  34  54  82 117 153 184 212 260 344
#     4  11  25  38  50  74 106 148 195 245 298 331
#     4  12  21  36  55  76 107 142 187 237 284 341
#     4  11  22  38  56  72 103 151 197 241 284 330
#     4  10  19  34  55  82 114 148 182 226 286 337
#
# _framework density 20.319851
#
# number of rings (size 3 to 8) (size 9 to 14) (size 15 to 20)
#    0.000    1.250    3.750    3.750    0.000    3.000 
#    0.000    3.750    0.000    0.000    0.000    0.000 
#    0.000   16.000    0.000    0.000    0.000    0.000 
#
# Total GULP energy -356896.128177 kJ/mol
# GULP energy per Si atom -5576.502003 kJ/mol
# Density = 2.027360 g / cm^3
# Si number density = 20.319851 Si / 1000 Ang^3
#
#
#
# Elastic Constant Matrix: (Units=GPa)
#
#
# Indices 1 2 3 4 5 6 
#
# 1 76.0271 11.1218 47.8481 0.0000 0.0000 0.0000
# 2 11.1218 113.2175 32.1332 0.0000 0.0000 0.0000
# 3 47.8481 32.1332 169.8731 0.0000 0.0000 0.0000
# 4 0.0000 0.0000 0.0000 29.7511 0.0000 0.0000
# 5 0.0000 0.0000 0.0000 0.0000 9.7330 0.0000
# 6 0.0000 0.0000 0.0000 0.0000 0.0000 39.6969
#
#
#
# Elastic Compliance Matrix: (Units=1/GPa)
#
#
# Indices 1 2 3 4 5 6 
#
# 1 0.015998 -0.000309 -0.004448 0.000000 0.000000 0.000000
# 2 -0.000309 0.009340 -0.001680 0.000000 0.000000 0.000000
# 3 -0.004448 -0.001680 0.007457 0.000000 0.000000 0.000000
# 4 0.000000 0.000000 0.000000 0.033612 0.000000 0.000000
# 5 0.000000 0.000000 0.000000 0.000000 0.102744 0.000000
# 6 0.000000 0.000000 0.000000 0.000000 0.000000 0.025191
#
#
# Mechanical properties :
#
#
# Convention : Reuss Voigt Hill
#
# Bulk Modulus (GPa) = 50.19658 60.14712 55.17185
# Shear Modulus (GPa) = 23.38040 33.70384 28.54212
#
# Velocity S-wave (km/s) = 3.39576 4.07709 3.75192
# Velocity P-wave (km/s) = 6.33496 7.19917 6.78085
#
# Compressibility (1/GPa) = 0.01992168
#
# Stress axis : x y z
#
# Youngs Moduli (GPa) = 62.50973 107.07066 134.09878
#
# Poissons Ratio (x) = 0.03311 0.59641
# Poissons Ratio (y) = 0.01933 0.22523
# Poissons Ratio (z) = 0.27801 0.17983
#
# Static dielectric constant tensor:
#      x y z
#    x 1.647970 0.000000 0.000000 
#    y 0.000000 2.494020 0.000000 
#    z 0.000000 0.000000 1.642920 
# 
# From -- ./inp_files/19959.got.cif
#   From: 2010.05.17/outbox.cif.g08.bks.cpg/sg55_10_cif.got.tgz:19959.got - 2010.06.03 13:27:54.
