data_PCOD9426223
_publ_section_title
;
Structure prediction by ZEFSAII (Michael W. Deem and Ramdas Pophale) SiO2 
 PCOD9426223
Probable space group: P B A M
;
_chemical_formula_sum "Si O2"
_cell_formula_units_Z 48
_cell_length_a 15.574064
_cell_length_b 11.259987
_cell_length_c 13.458921
_cell_angle_alpha 90.000000
_cell_angle_beta 90.000000
_cell_angle_gamma 90.000000
_cell_volume 2360.206968
_symmetry_space_group_name_H-M "P B A M"
_symmetry_group_IT_number 55
_symmetry_cell_setting 'orthorhombic'
loop_
_space_group_symop_operation_xyz
x,y,z
-x,-y,z
1/2+x,1/2-y,-z
1/2-x,1/2+y,-z
-x,-y,-z
x,y,-z
1/2-x,1/2+y,z
1/2+x,1/2-y,z
loop_
_atom_site_type_symbol
_atom_site_label
_atom_site_fract_x
_atom_site_fract_y
_atom_site_fract_z
Si Si1 0.710794 0.111850 0.389817
Si Si2 0.636814 0.735302 0.295496
Si Si3 0.278865 0.048979 0.194185
Si Si4 0.091362 0.017446 0.798186
Si Si5 0.551633 0.250618 0.307968
Si Si6 0.572459 0.101612 0.110450
O O1 0.713972 0.061039 0.500000
O O2 0.788491 0.204112 0.372397
O O3 0.622663 0.183321 0.371742
O O4 0.720179 0.014267 0.303116
O O5 0.674080 0.827323 0.215425
O O6 0.614408 0.612933 0.240443
O O7 0.545794 0.774376 0.340996
O O8 0.181354 0.062680 0.156615
O O9 0.336830 0.964222 0.126624
O O10 0.071952 0.110162 0.708056
O O11 0.000000 0.000000 0.853331
O O12 0.559513 0.196610 0.196748
O O13 0.500000 0.000000 0.121983
O O14 0.565924 0.152066 0.000000
#
# Coordination Sequence:
#
# PCOD9426223 Si02
#       6
#     8   8   8   8   8   8
#     4  10  22  35  54  84 115 153 199 244 295 355
#     4  10  19  35  58  82 110 158 195 241 296 358
#     4  10  19  37  59  82 115 152 195 248 299 355
#     4   9  19  35  60  83 110 155 194 233 300 361
#     4  10  19  37  60  83 120 153 194 247 304 354
#     4  10  20  35  61  92 119 153 198 247 302 365
#
# _framework density 20.337198000000001
#
# number of rings (size 3 to 8) (size 9 to 14) (size 15 to 20)
#    0.000    2.167    3.333    0.000    0.000    1.333 
#    0.000    1.667    0.000   27.500    0.000    0.000 
#    0.000    0.000    0.000    0.000    0.000    0.000 
#
# Total GULP energy -267568.833518 kJ/mol
# GULP energy per Si atom -5574.350698 kJ/mol
# Density = 2.029091 g / cm^3
# Si number density = 20.337198 Si / 1000 Ang^3
#
#
#
# Elastic Constant Matrix: (Units=GPa)
#
#
# Indices 1 2 3 4 5 6 
#
# 1 176.6369 15.0091 1.7125 0.0000 0.0000 0.0000
# 2 15.0091 66.5239 7.1423 0.0000 0.0000 0.0000
# 3 1.7125 7.1423 64.0337 0.0000 0.0000 0.0000
# 4 0.0000 0.0000 0.0000 2.2123 0.0000 0.0000
# 5 0.0000 0.0000 0.0000 0.0000 -7.3245 0.0000
# 6 0.0000 0.0000 0.0000 0.0000 0.0000 32.3632
#
#
#
# Elastic Compliance Matrix: (Units=1/GPa)
#
#
# Indices 1 2 3 4 5 6 
#
# 1 0.005772 -0.001301 -0.000009 0.000000 0.000000 0.000000
# 2 -0.001301 0.015508 -0.001695 0.000000 0.000000 0.000000
# 3 -0.000009 -0.001695 0.015806 0.000000 0.000000 0.000000
# 4 0.000000 0.000000 0.000000 0.452013 0.000000 0.000000
# 5 0.000000 0.000000 0.000000 0.000000 -0.136528 0.000000
# 6 0.000000 0.000000 0.000000 0.000000 0.000000 0.030899
#
#
# Mechanical properties :
#
#
# Convention : Reuss Voigt Hill
#
# Bulk Modulus (GPa) = 32.18024 39.43581 35.80803
# Shear Modulus (GPa) = 12.50502 24.33890 18.42196
#
# Velocity S-wave (km/s) = 2.48238 3.46319 3.01296
# Velocity P-wave (km/s) = 4.90652 5.95186 5.45429
#
# Compressibility (1/GPa) = 0.03107497
#
# Stress axis : x y z
#
# Youngs Moduli (GPa) = 173.25036 64.48384 63.26683
#
# Poissons Ratio (x) = 0.08391 0.00058
# Poissons Ratio (y) = 0.22545 0.10723
# Poissons Ratio (z) = 0.00160 0.10929
#
# Static dielectric constant tensor:
#      x y z
#    x 1.800840 0.000000 0.000000 
#    y 0.000000 1.739820 0.000000 
#    z 0.000000 0.000000 1.667110 
# 
# From -- ./inp_files/18269.got.cif
#   From: 2010.05.17/outbox.cif.g08.bks.cpg/sg55_10_cif.got.tgz:18269.got - 2010.06.03 13:27:54.
