data_PCOD9426371
_publ_section_title
;
Structure prediction by ZEFSAII (Michael W. Deem and Ramdas Pophale) SiO2 
 PCOD9426371
Probable space group: P B A M
;
_chemical_formula_sum "Si O2"
_cell_formula_units_Z 58
_cell_length_a 15.592198
_cell_length_b 19.161739
_cell_length_c 7.515337
_cell_angle_alpha 90.000000
_cell_angle_beta 90.000000
_cell_angle_gamma 90.000000
_cell_volume 2245.384505
_symmetry_space_group_name_H-M "P B A M"
_symmetry_group_IT_number 55
_symmetry_cell_setting 'orthorhombic'
loop_
_space_group_symop_operation_xyz
x,y,z
-x,-y,z
1/2+x,1/2-y,-z
1/2-x,1/2+y,-z
-x,-y,-z
x,y,-z
1/2-x,1/2+y,z
1/2+x,1/2-y,z
loop_
_atom_site_type_symbol
_atom_site_label
_atom_site_fract_x
_atom_site_fract_y
_atom_site_fract_z
Si Si1 0.056954 0.296361 0.296541
Si Si2 0.620837 0.420400 0.212376
Si Si3 0.812143 0.068632 0.215758
Si Si4 0.384288 0.140706 0.719556
Si Si5 0.720937 0.279713 0.705324
Si Si6 0.870614 0.519312 0.797849
Si Si7 0.043782 0.839659 0.788526
Si Si8 0.000000 0.500000 0.500000
O O1 0.072489 0.317339 0.500000
O O2 0.980900 0.343750 0.215521
O O3 0.002989 0.224072 0.302265
O O4 0.149878 0.274200 0.215470
O O5 0.648674 0.495499 0.280704
O O6 0.673275 0.355226 0.289646
O O7 0.520575 0.404931 0.235824
O O8 0.637803 0.418491 0.000000
O O9 0.712586 0.063456 0.251563
O O10 0.864147 0.135632 0.278449
O O11 0.821920 0.068746 0.000000
O O12 0.387358 0.136806 0.500000
O O13 0.315705 0.200019 0.776170
O O14 0.353543 0.064353 0.781392
O O15 0.732900 0.260016 0.500000
O O16 0.940912 0.533644 0.654485
O O17 0.894414 0.534301 0.000000
O O18 0.046056 0.824082 0.000000
#
# Coordination Sequence:
#
# PCOD9426371 Si02
#       8
#     8   8   8   8   8   8   8   2
#     4   9  19  34  51  78 118 159 204 253 311 375
#     4   9  15  26  48  78 111 147 183 229 293 357
#     4   9  17  31  53  83 115 149 194 243 296 364
#     4  10  19  36  60  83 116 156 206 257 312 370
#     4   9  17  30  51  77 108 149 196 254 307 362
#     4  11  23  41  68  94 120 159 208 263 313 367
#     4   9  17  30  49  77 119 157 187 234 298 364
#     4  12  26  48  64  90 122 152 194 256 318 360
#
# _framework density 25.830765
#
# number of rings (size 3 to 8) (size 9 to 14) (size 15 to 20)
#    0.000    2.483    2.069    0.621    0.000    2.207 
#    1.241    1.379    3.034    3.310    0.000    0.000 
#    0.000    0.000    0.000    0.000    0.000    0.276 
#
# Total GULP energy -323677.397738 kJ/mol
# GULP energy per Si atom -5580.644789 kJ/mol
# Density = 2.577197 g / cm^3
# Si number density = 25.830765 Si / 1000 Ang^3
#
#
#
# Elastic Constant Matrix: (Units=GPa)
#
#
# Indices 1 2 3 4 5 6 
#
# 1 114.7245 56.6130 49.0622 0.0000 0.0000 0.0000
# 2 56.6130 91.5980 5.9698 0.0000 0.0000 0.0000
# 3 49.0622 5.9698 98.6442 0.0000 0.0000 0.0000
# 4 0.0000 0.0000 0.0000 17.2337 0.0000 0.0000
# 5 0.0000 0.0000 0.0000 0.0000 16.5671 0.0000
# 6 0.0000 0.0000 0.0000 0.0000 0.0000 33.0471
#
#
#
# Elastic Compliance Matrix: (Units=1/GPa)
#
#
# Indices 1 2 3 4 5 6 
#
# 1 0.017012 -0.010002 -0.007856 0.000000 0.000000 0.000000
# 2 -0.010002 0.016842 0.003956 0.000000 0.000000 0.000000
# 3 -0.007856 0.003956 0.013805 0.000000 0.000000 0.000000
# 4 0.000000 0.000000 0.000000 0.058026 0.000000 0.000000
# 5 0.000000 0.000000 0.000000 0.000000 0.060360 0.000000
# 6 0.000000 0.000000 0.000000 0.000000 0.000000 0.030260
#
#
# Mechanical properties :
#
#
# Convention : Reuss Voigt Hill
#
# Bulk Modulus (GPa) = 50.36878 58.69517 54.53198
# Shear Modulus (GPa) = 21.67051 26.25768 23.96410
#
# Velocity S-wave (km/s) = 2.89959 3.19176 3.04918
# Velocity P-wave (km/s) = 5.54545 6.02955 5.79256
#
# Compressibility (1/GPa) = 0.01985357
#
# Stress axis : x y z
#
# Youngs Moduli (GPa) = 58.78202 59.37690 72.43601
#
# Poissons Ratio (x) = 0.59391 0.56905
# Poissons Ratio (y) = 0.58796 -0.28653
# Poissons Ratio (z) = 0.46178 -0.23487
#
# Static dielectric constant tensor:
#      x y z
#    x 2.086170 0.000000 0.000000 
#    y 0.000000 2.129870 0.000000 
#    z 0.000000 0.000000 1.942890 
# 
# From -- ./inp_files/6412.got.cif
#   From: 2010.05.17/outbox.cif.g08.bks.cpg/sg55_4_cif.got.tgz:6412.got - 2010.06.03 13:27:54.
