data_PCOD9426496
_publ_section_title
;
Structure prediction by ZEFSAII (Michael W. Deem and Ramdas Pophale) SiO2 
 PCOD9426496
Probable space group: P B A M
;
_chemical_formula_sum "Si O2"
_cell_formula_units_Z 56
_cell_length_a 20.826605
_cell_length_b 8.835870
_cell_length_c 15.468448
_cell_angle_alpha 90.000000
_cell_angle_beta 90.000000
_cell_angle_gamma 90.000000
_cell_volume 2846.521966
_symmetry_space_group_name_H-M "P B A M"
_symmetry_group_IT_number 55
_symmetry_cell_setting 'orthorhombic'
loop_
_space_group_symop_operation_xyz
x,y,z
-x,-y,z
1/2+x,1/2-y,-z
1/2-x,1/2+y,-z
-x,-y,-z
x,y,-z
1/2-x,1/2+y,z
1/2+x,1/2-y,z
loop_
_atom_site_type_symbol
_atom_site_label
_atom_site_fract_x
_atom_site_fract_y
_atom_site_fract_z
Si Si1 0.511804 0.828000 0.864165
Si Si2 0.813524 0.172029 0.279849
Si Si3 0.441453 0.170335 0.334359
Si Si4 0.925708 0.672596 0.599470
Si Si5 0.874633 0.813588 0.903198
Si Si6 0.856357 0.176048 0.908065
Si Si7 0.180591 0.189138 0.278717
O O1 0.528537 0.831768 0.762140
O O2 0.448139 0.733211 0.884709
O O3 0.574373 0.754780 0.905858
O O4 0.500000 0.000000 0.892415
O O5 0.876162 0.234416 0.329146
O O6 0.820904 0.223491 0.179363
O O7 0.746236 0.236831 0.311545
O O8 0.812932 0.991336 0.280433
O O9 0.500625 0.228375 0.391795
O O10 0.426009 0.001141 0.366798
O O11 0.905657 0.678013 0.500000
O O12 0.878597 0.763254 0.661601
O O13 0.834518 0.758379 0.820052
O O14 0.867736 0.995515 0.903532
O O15 0.856874 0.758903 0.000000
O O16 0.824011 0.211890 0.000000
#
# Coordination Sequence:
#
# PCOD9426496 Si02
#       7
#     8   8   8   8   8   8   8
#     4  11  18  30  52  85 120 154 190 247 291 345
#     4  10  23  38  65  83 124 163 200 250 303 351
#     4  10  19  39  62  93 120 155 193 241 299 359
#     4  11  22  41  68  93 121 154 194 247 308 365
#     4  10  20  35  55  80 118 163 202 244 292 350
#     4   9  20  35  52  80 117 161 207 243 291 351
#     4  11  22  42  59  91 119 161 204 248 299 359
#
# _framework density 19.673131999999999
#
# number of rings (size 3 to 8) (size 9 to 14) (size 15 to 20)
#    0.000    1.714    2.857    2.571    0.000    4.571 
#    0.000    5.714    0.000    0.000    0.000    0.000 
#    0.000    0.000    0.000    0.000    0.000    0.000 
#
# Total GULP energy -312592.059124 kJ/mol
# GULP energy per Si atom -5582.001056 kJ/mol
# Density = 1.962835 g / cm^3
# Si number density = 19.673132 Si / 1000 Ang^3
#
#
#
# Elastic Constant Matrix: (Units=GPa)
#
#
# Indices 1 2 3 4 5 6 
#
# 1 90.1326 24.8017 32.0793 0.0000 0.0000 0.0000
# 2 24.8017 25.2776 23.5548 0.0000 0.0000 0.0000
# 3 32.0793 23.5548 99.4185 0.0000 0.0000 0.0000
# 4 0.0000 0.0000 0.0000 5.0610 0.0000 0.0000
# 5 0.0000 0.0000 0.0000 0.0000 3.9975 0.0000
# 6 0.0000 0.0000 0.0000 0.0000 0.0000 26.2950
#
#
#
# Elastic Compliance Matrix: (Units=1/GPa)
#
#
# Indices 1 2 3 4 5 6 
#
# 1 0.015442 -0.013485 -0.001788 0.000000 0.000000 0.000000
# 2 -0.013485 0.062546 -0.010468 0.000000 0.000000 0.000000
# 3 -0.001788 -0.010468 0.013115 0.000000 0.000000 0.000000
# 4 0.000000 0.000000 0.000000 0.197589 0.000000 0.000000
# 5 0.000000 0.000000 0.000000 0.000000 0.250156 0.000000
# 6 0.000000 0.000000 0.000000 0.000000 0.000000 0.038030
#
#
# Mechanical properties :
#
#
# Convention : Reuss Voigt Hill
#
# Bulk Modulus (GPa) = 25.23813 41.74447 33.49130
# Shear Modulus (GPa) = 7.79342 16.03022 11.91182
#
# Velocity S-wave (km/s) = 1.99250 2.85762 2.46333
# Velocity P-wave (km/s) = 4.26028 5.67037 5.01513
#
# Compressibility (1/GPa) = 0.03962259
#
# Stress axis : x y z
#
# Youngs Moduli (GPa) = 64.75957 15.98814 76.24675
#
# Poissons Ratio (x) = 0.21561 0.13630
# Poissons Ratio (y) = 0.87330 0.79811
# Poissons Ratio (z) = 0.11576 0.16736
#
# Static dielectric constant tensor:
#      x y z
#    x 1.663650 0.000000 0.000000 
#    y 0.000000 1.662800 0.000000 
#    z 0.000000 0.000000 1.727060 
# 
# From -- ./inp_files/19749.got.cif
#   From: 2010.05.17/outbox.cif.g08.bks.cpg/sg55_10_cif.got.tgz:19749.got - 2010.06.03 13:27:54.
