data_PCOD9426341
_publ_section_title
;
Structure prediction by ZEFSAII (Michael W. Deem and Ramdas Pophale) SiO2 
 PCOD9426341
Probable space group: P B A M
;
_chemical_formula_sum "Si O2"
_cell_formula_units_Z 44
_cell_length_a 4.784537
_cell_length_b 14.644627
_cell_length_c 27.378153
_cell_angle_alpha 90.000000
_cell_angle_beta 90.000000
_cell_angle_gamma 90.000000
_cell_volume 1918.325846
_symmetry_space_group_name_H-M "P B A M"
_symmetry_group_IT_number 55
_symmetry_cell_setting 'orthorhombic'
loop_
_space_group_symop_operation_xyz
x,y,z
-x,-y,z
1/2+x,1/2-y,-z
1/2-x,1/2+y,-z
-x,-y,-z
x,y,-z
1/2-x,1/2+y,z
1/2+x,1/2-y,z
loop_
_atom_site_type_symbol
_atom_site_label
_atom_site_fract_x
_atom_site_fract_y
_atom_site_fract_z
Si Si1 0.136841 0.313338 0.000000
Si Si2 0.498898 0.814998 0.105546
Si Si3 0.962892 0.188927 0.722496
Si Si4 0.244586 0.437147 0.191064
Si Si5 0.528489 0.811699 0.443442
Si Si6 0.757371 0.561996 0.363192
O O1 0.059312 0.356581 0.051795
O O2 0.456725 0.281363 0.000000
O O3 0.811868 0.777478 0.109395
O O4 0.403568 0.881796 0.147834
O O5 0.784918 0.282586 0.722579
O O6 0.876100 0.131340 0.769615
O O7 0.873640 0.132407 0.675157
O O8 0.500000 0.500000 0.173138
O O9 0.000000 0.500000 0.213469
O O10 0.490741 0.838847 0.500000
O O11 0.845533 0.780398 0.435659
O O12 0.415162 0.885998 0.406566
O O13 0.500000 0.500000 0.380783
O O14 0.000000 0.500000 0.339251
#
# Coordination Sequence:
#
# PCOD9426341 Si02
#       6
#     4   8   8   8   8   8
#     4   8  16  30  54  80 106 140 188 234 264 316
#     4  10  19  36  58  82 109 148 192 228 272 331
#     4  12  24  42  64  84 110 151 195 231 275 340
#     4  12  24  39  57  85 118 146 181 234 289 333
#     4  10  21  39  61  85 116 156 198 234 272 330
#     4  12  24  39  60  89 121 149 184 237 292 336
#
# _framework density 22.936665000000001
#
# number of rings (size 3 to 8) (size 9 to 14) (size 15 to 20)
#    0.000    1.091    0.000    7.636    0.000    0.727 
#    0.000    0.909    0.000    0.000    0.000    0.000 
#    0.000    0.000    0.000    0.000    0.000    0.000 
#
# Total GULP energy -246418.520913 kJ/mol
# GULP energy per Si atom -5600.420930 kJ/mol
# Density = 2.288446 g / cm^3
# Si number density = 22.936665 Si / 1000 Ang^3
#
#
#
# Elastic Constant Matrix: (Units=GPa)
#
#
# Indices 1 2 3 4 5 6 
#
# 1 67.7360 -5.4051 -19.0597 0.0000 0.0000 0.0000
# 2 -5.4051 53.3502 27.1880 0.0000 0.0000 0.0000
# 3 -19.0597 27.1880 92.3113 0.0000 0.0000 0.0000
# 4 0.0000 0.0000 0.0000 103.7732 0.0000 0.0000
# 5 0.0000 0.0000 0.0000 0.0000 37.0042 0.0000
# 6 0.0000 0.0000 0.0000 0.0000 0.0000 10.9242
#
#
#
# Elastic Compliance Matrix: (Units=1/GPa)
#
#
# Indices 1 2 3 4 5 6 
#
# 1 0.015674 -0.000072 0.003257 0.000000 0.000000 0.000000
# 2 -0.000072 0.022055 -0.006511 0.000000 0.000000 0.000000
# 3 0.003257 -0.006511 0.013423 0.000000 0.000000 0.000000
# 4 0.000000 0.000000 0.000000 0.009636 0.000000 0.000000
# 5 0.000000 0.000000 0.000000 0.000000 0.027024 0.000000
# 6 0.000000 0.000000 0.000000 0.000000 0.000000 0.091540
#
#
# Mechanical properties :
#
#
# Convention : Reuss Voigt Hill
#
# Bulk Modulus (GPa) = 22.47119 24.31600 23.39359
# Shear Modulus (GPa) = 24.89597 44.38527 34.64062
#
# Velocity S-wave (km/s) = 3.29815 4.40378 3.89044
# Velocity P-wave (km/s) = 4.93174 6.04004 5.51380
#
# Compressibility (1/GPa) = 0.04450143
#
# Stress axis : x y z
#
# Youngs Moduli (GPa) = 63.79979 45.34196 74.49906
#
# Poissons Ratio (x) = 0.00327 -0.24268
# Poissons Ratio (y) = 0.00460 0.48503
# Poissons Ratio (z) = -0.20783 0.29520
#
# Static dielectric constant tensor:
#      x y z
#    x 1.809250 0.000000 0.000000 
#    y 0.000000 1.851110 0.000000 
#    z 0.000000 0.000000 1.841860 
# 
# From -- ./inp_files/23777.got.cif
#   From: 2010.05.17/outbox.cif.g08.bks.cpg/sg55_12_cif.got.tgz:23777.got - 2010.06.03 13:27:54.
