data_PCOD9426360
_publ_section_title
;
Structure prediction by ZEFSAII (Michael W. Deem and Ramdas Pophale) SiO2 
 PCOD9426360
Probable space group: P B A M
;
_chemical_formula_sum "Si O2"
_cell_formula_units_Z 64
_cell_length_a 15.052260
_cell_length_b 25.202419
_cell_length_c 8.611330
_cell_angle_alpha 90.000000
_cell_angle_beta 90.000000
_cell_angle_gamma 90.000000
_cell_volume 3266.736999
_symmetry_space_group_name_H-M "P B A M"
_symmetry_group_IT_number 55
_symmetry_cell_setting 'orthorhombic'
loop_
_space_group_symop_operation_xyz
x,y,z
-x,-y,z
1/2+x,1/2-y,-z
1/2-x,1/2+y,-z
-x,-y,-z
x,y,-z
1/2-x,1/2+y,z
1/2+x,1/2-y,z
loop_
_atom_site_type_symbol
_atom_site_label
_atom_site_fract_x
_atom_site_fract_y
_atom_site_fract_z
Si Si1 0.256716 0.940663 0.184649
Si Si2 0.367101 0.740650 0.187514
Si Si3 0.452020 0.946051 0.314789
Si Si4 0.098625 0.016973 0.188086
Si Si5 0.454585 0.628938 0.186292
Si Si6 0.641214 0.645331 0.682653
Si Si7 0.667753 0.766585 0.684587
Si Si8 0.494828 0.168246 0.814023
O O1 0.349222 0.949641 0.268006
O O2 0.219589 0.882241 0.222417
O O3 0.179762 0.980815 0.242415
O O4 0.268136 0.946637 0.000000
O O5 0.416731 0.685989 0.230265
O O6 0.268412 0.735385 0.254427
O O7 0.426338 0.791182 0.239777
O O8 0.361303 0.742985 0.000000
O O9 0.461200 0.943185 0.500000
O O10 0.489677 0.891217 0.245614
O O11 0.500000 0.000000 0.259630
O O12 0.108478 0.079265 0.223805
O O13 0.097800 0.011136 0.000000
O O14 0.000000 0.000000 0.241662
O O15 0.548582 0.619777 0.267141
O O16 0.469166 0.628500 0.000000
O O17 0.658091 0.638788 0.500000
O O18 0.632383 0.707382 0.717888
O O19 0.668185 0.775024 0.500000
O O20 0.599688 0.807941 0.760331
O O21 0.497355 0.168025 0.000000
#
# Coordination Sequence:
#
# PCOD9426360 Si02
#       8
#     8   8   8   8   8   8   8   8
#     4  11  22  38  64  93 122 163 216 263 305 365
#     4  10  22  38  60  92 125 160 205 260 315 369
#     4  11  26  47  67  90 125 164 205 257 317 375
#     4   9  17  32  57  87 119 156 196 244 304 359
#     4  10  19  36  59  85 120 159 200 255 312 364
#     4  11  22  36  57  88 123 164 207 252 312 373
#     4  11  24  39  60  89 126 168 207 253 313 380
#     4  11  23  42  69  97 124 160 212 265 313 370
#
# _framework density 19.591415999999999
#
# number of rings (size 3 to 8) (size 9 to 14) (size 15 to 20)
#    0.000    1.500    2.500    2.625    0.000    7.000 
#    0.000    3.125    0.000    0.000    0.000    0.000 
#    0.000    0.000    0.000    0.000    0.000    0.000 
#
# Total GULP energy -357476.655712 kJ/mol
# GULP energy per Si atom -5585.572745 kJ/mol
# Density = 1.954682 g / cm^3
# Si number density = 19.591416 Si / 1000 Ang^3
#
#
#
# Elastic Constant Matrix: (Units=GPa)
#
#
# Indices 1 2 3 4 5 6 
#
# 1 121.6172 67.4690 27.8935 0.0000 0.0000 0.0000
# 2 67.4690 148.8006 42.4698 0.0000 0.0000 0.0000
# 3 27.8935 42.4698 18.8372 0.0000 0.0000 0.0000
# 4 0.0000 0.0000 0.0000 21.4182 0.0000 0.0000
# 5 0.0000 0.0000 0.0000 0.0000 33.4777 0.0000
# 6 0.0000 0.0000 0.0000 0.0000 0.0000 26.3355
#
#
#
# Elastic Compliance Matrix: (Units=1/GPa)
#
#
# Indices 1 2 3 4 5 6 
#
# 1 0.012513 -0.001081 -0.016092 0.000000 0.000000 0.000000
# 2 -0.001081 0.018944 -0.041110 0.000000 0.000000 0.000000
# 3 -0.016092 -0.041110 0.169601 0.000000 0.000000 0.000000
# 4 0.000000 0.000000 0.000000 0.046689 0.000000 0.000000
# 5 0.000000 0.000000 0.000000 0.000000 0.029871 0.000000
# 6 0.000000 0.000000 0.000000 0.000000 0.000000 0.037972
#
#
# Mechanical properties :
#
#
# Convention : Reuss Voigt Hill
#
# Bulk Modulus (GPa) = 11.83550 62.76886 37.30218
# Shear Modulus (GPa) = 10.86205 26.34113 18.60159
#
# Velocity S-wave (km/s) = 2.35719 3.67075 3.08470
# Velocity P-wave (km/s) = 3.66916 7.07633 5.63636
#
# Compressibility (1/GPa) = 0.08449155
#
# Stress axis : x y z
#
# Youngs Moduli (GPa) = 79.91786 52.78796 5.89620
#
# Poissons Ratio (x) = 0.05704 0.09488
# Poissons Ratio (y) = 0.08636 0.24239
# Poissons Ratio (z) = 1.28607 2.17011
#
# Static dielectric constant tensor:
#      x y z
#    x 1.684110 0.000000 0.000000 
#    y 0.000000 1.709830 0.000000 
#    z 0.000000 0.000000 1.664080 
# 
# From -- ./inp_files/6621.got.cif
#   From: 2010.05.17/outbox.cif.g08.bks.cpg/sg55_4_cif.got.tgz:6621.got - 2010.06.03 13:27:54.
