data_PCOD9426983
_publ_section_title
;
Structure prediction by ZEFSAII (Michael W. Deem and Ramdas Pophale) SiO2 
 PCOD9426983
Probable space group: P B A M
;
_chemical_formula_sum "Si O2"
_cell_formula_units_Z 32
_cell_length_a 9.387122
_cell_length_b 19.971444
_cell_length_c 7.907980
_cell_angle_alpha 90.000000
_cell_angle_beta 90.000000
_cell_angle_gamma 90.000000
_cell_volume 1482.543658
_symmetry_space_group_name_H-M "P B A M"
_symmetry_group_IT_number 55
_symmetry_cell_setting 'orthorhombic'
loop_
_space_group_symop_operation_xyz
x,y,z
-x,-y,z
1/2+x,1/2-y,-z
1/2-x,1/2+y,-z
-x,-y,-z
x,y,-z
1/2-x,1/2+y,z
1/2+x,1/2-y,z
loop_
_atom_site_type_symbol
_atom_site_label
_atom_site_fract_x
_atom_site_fract_y
_atom_site_fract_z
Si Si1 0.103637 0.806215 0.296572
Si Si2 0.567630 0.072931 0.000000
Si Si3 0.934084 0.673125 0.704903
Si Si4 0.910155 0.931069 0.687345
Si Si5 0.672428 0.490011 0.000000
O O1 0.099256 0.807754 0.500000
O O2 0.269138 0.810028 0.253506
O O3 0.029313 0.737176 0.247340
O O4 0.011406 0.871335 0.248192
O O5 0.529850 0.112622 0.170391
O O6 0.500000 0.000000 0.000000
O O7 0.737626 0.057222 0.000000
O O8 0.945509 0.660758 0.500000
O O9 0.854120 0.913754 0.500000
O O10 0.796947 0.948474 0.830501
O O11 0.000000 0.000000 0.668019
O O12 0.500000 0.500000 0.000000
#
# Coordination Sequence:
#
# PCOD9426983 Si02
#       5
#     8   4   8   8   4
#     4   9  19  37  63  93 122 159 203 243 301 369
#     4  12  28  43  59  90 124 160 206 248 307 372
#     4  10  22  42  64  89 125 161 198 250 301 356
#     4   9  17  31  55  87 118 148 191 246 293 340
#     4  10  20  35  57  82 109 150 201 242 284 346
#
# _framework density 21.584523999999998
#
# number of rings (size 3 to 8) (size 9 to 14) (size 15 to 20)
#    0.000    2.250    0.000    3.000    0.000    7.500 
#    0.000    2.500    0.000    0.000    0.000    0.000 
#    0.000    0.000    0.000    0.000    0.000    0.000 
#
# Total GULP energy -178492.489307 kJ/mol
# GULP energy per Si atom -5577.890291 kJ/mol
# Density = 2.153540 g / cm^3
# Si number density = 21.584524 Si / 1000 Ang^3
#
#
#
# Elastic Constant Matrix: (Units=GPa)
#
#
# Indices 1 2 3 4 5 6 
#
# 1 51.6235 56.3692 32.6055 0.0000 0.0000 0.0000
# 2 56.3692 167.5316 58.5037 0.0000 0.0000 0.0000
# 3 32.6055 58.5037 125.1242 0.0000 0.0000 0.0000
# 4 0.0000 0.0000 0.0000 43.7334 0.0000 0.0000
# 5 0.0000 0.0000 0.0000 0.0000 11.7731 0.0000
# 6 0.0000 0.0000 0.0000 0.0000 0.0000 43.8872
#
#
#
# Elastic Compliance Matrix: (Units=1/GPa)
#
#
# Indices 1 2 3 4 5 6 
#
# 1 0.032193 -0.009445 -0.003973 0.000000 0.000000 0.000000
# 2 -0.009445 0.009905 -0.002170 0.000000 0.000000 0.000000
# 3 -0.003973 -0.002170 0.010042 0.000000 0.000000 0.000000
# 4 0.000000 0.000000 0.000000 0.022866 0.000000 0.000000
# 5 0.000000 0.000000 0.000000 0.000000 0.084940 0.000000
# 6 0.000000 0.000000 0.000000 0.000000 0.000000 0.022786
#
#
# Mechanical properties :
#
#
# Convention : Reuss Voigt Hill
#
# Bulk Modulus (GPa) = 47.69952 71.02624 59.36288
# Shear Modulus (GPa) = 22.63523 32.99879 27.81701
#
# Velocity S-wave (km/s) = 3.24184 3.91425 3.59381
# Velocity P-wave (km/s) = 6.01329 7.30794 6.69200
#
# Compressibility (1/GPa) = 0.02096457
#
# Stress axis : x y z
#
# Youngs Moduli (GPa) = 31.06235 100.96316 99.58203
#
# Poissons Ratio (x) = 0.95356 0.39565
# Poissons Ratio (y) = 0.29337 0.21608
# Poissons Ratio (z) = 0.12341 0.21908
#
# Static dielectric constant tensor:
#      x y z
#    x 1.846470 0.000000 0.000000 
#    y 0.000000 1.792650 0.000000 
#    z 0.000000 0.000000 1.683350 
# 
# From -- ./inp_files/2072.got.cif
#   From: 2010.05.17/outbox.cif.g08.bks.cpg/sg55_2_cif.got.tgz:2072.got - 2010.06.03 13:27:54.
