data_PCOD9426070
_publ_section_title
;
Structure prediction by ZEFSAII (Michael W. Deem and Ramdas Pophale) SiO2 
 PCOD9426070
Probable space group: P B A M
;
_chemical_formula_sum "Si O2"
_cell_formula_units_Z 48
_cell_length_a 25.567991
_cell_length_b 8.462207
_cell_length_c 10.873458
_cell_angle_alpha 90.000000
_cell_angle_beta 90.000000
_cell_angle_gamma 90.000000
_cell_volume 2352.599123
_symmetry_space_group_name_H-M "P B A M"
_symmetry_group_IT_number 55
_symmetry_cell_setting 'orthorhombic'
loop_
_space_group_symop_operation_xyz
x,y,z
-x,-y,z
1/2+x,1/2-y,-z
1/2-x,1/2+y,-z
-x,-y,-z
x,y,-z
1/2-x,1/2+y,z
1/2+x,1/2-y,z
loop_
_atom_site_type_symbol
_atom_site_label
_atom_site_fract_x
_atom_site_fract_y
_atom_site_fract_z
Si Si1 0.606853 0.700744 0.363463
Si Si2 0.745562 0.659518 0.139605
Si Si3 0.011529 0.314901 0.366822
Si Si4 0.859149 0.996256 0.133202
Si Si5 0.414177 0.834422 0.134268
Si Si6 0.828320 0.445750 0.770633
O O1 0.618043 0.637634 0.500000
O O2 0.545307 0.736917 0.355476
O O3 0.619031 0.585306 0.251281
O O4 0.643043 0.856992 0.342306
O O5 0.702750 0.518807 0.138098
O O6 0.708680 0.809799 0.170475
O O7 0.789868 0.598603 0.234188
O O8 0.766889 0.672715 0.000000
O O9 0.034879 0.264342 0.500000
O O10 0.047277 0.300072 0.247342
O O11 0.000000 0.500000 0.374379
O O12 0.876357 0.816567 0.133709
O O13 0.876448 0.065302 0.000000
O O14 0.378296 0.988916 0.154138
O O15 0.440404 0.843807 0.000000
#
# Coordination Sequence:
#
# PCOD9426070 Si02
#       6
#     8   8   8   8   8   8
#     4  10  22  42  64  86 117 158 204 249 296 350
#     4  10  19  34  56  84 118 156 192 231 285 353
#     4  10  21  40  61  84 116 159 205 245 292 358
#     4   9  21  39  60  90 127 159 196 244 296 354
#     4  11  22  36  58  92 125 155 195 247 300 349
#     4  11  21  36  59  88 118 156 196 242 291 349
#
# _framework density 20.402965999999999
#
# number of rings (size 3 to 8) (size 9 to 14) (size 15 to 20)
#    0.000    1.833    1.667    2.500    0.000    5.000 
#    0.000    6.667    0.000    4.000    0.000    0.000 
#    0.000    0.000    0.000    0.000    0.000    0.000 
#
# Total GULP energy -267322.388008 kJ/mol
# GULP energy per Si atom -5569.216417 kJ/mol
# Density = 2.035653 g / cm^3
# Si number density = 20.402966 Si / 1000 Ang^3
#
#
#
# Elastic Constant Matrix: (Units=GPa)
#
#
# Indices 1 2 3 4 5 6 
#
# 1 78.0444 23.7785 58.7584 0.0000 0.0000 0.0000
# 2 23.7785 44.6988 43.8358 0.0000 0.0000 0.0000
# 3 58.7584 43.8358 160.8754 0.0000 0.0000 0.0000
# 4 0.0000 0.0000 0.0000 22.1049 0.0000 0.0000
# 5 0.0000 0.0000 0.0000 0.0000 76.8781 0.0000
# 6 0.0000 0.0000 0.0000 0.0000 0.0000 30.2091
#
#
#
# Elastic Compliance Matrix: (Units=1/GPa)
#
#
# Indices 1 2 3 4 5 6 
#
# 1 0.018268 -0.004332 -0.005492 0.000000 0.000000 0.000000
# 2 -0.004332 0.031558 -0.007017 0.000000 0.000000 0.000000
# 3 -0.005492 -0.007017 0.010134 0.000000 0.000000 0.000000
# 4 0.000000 0.000000 0.000000 0.045239 0.000000 0.000000
# 5 0.000000 0.000000 0.000000 0.000000 0.013008 0.000000
# 6 0.000000 0.000000 0.000000 0.000000 0.000000 0.033103
#
#
# Mechanical properties :
#
#
# Convention : Reuss Voigt Hill
#
# Bulk Modulus (GPa) = 38.05454 59.59599 48.82527
# Shear Modulus (GPa) = 25.80660 36.32149 31.06404
#
# Velocity S-wave (km/s) = 3.56033 4.22383 3.90619
# Velocity P-wave (km/s) = 5.96600 7.28426 6.65784
#
# Compressibility (1/GPa) = 0.02627807
#
# Stress axis : x y z
#
# Youngs Moduli (GPa) = 54.74120 31.68786 98.68072
#
# Poissons Ratio (x) = 0.13728 0.54192
# Poissons Ratio (y) = 0.23716 0.69241
# Poissons Ratio (z) = 0.30062 0.22234
#
# Static dielectric constant tensor:
#      x y z
#    x 2.002760 0.000000 0.000000 
#    y 0.000000 1.835590 0.000000 
#    z 0.000000 0.000000 1.756730 
# 
# From -- ./inp_files/15617.got.cif
#   From: 2010.05.17/outbox.cif.g08.bks.cpg/sg55_8_cif.got.tgz:15617.got - 2010.06.03 13:27:54.
