data_PCOD9426332
_publ_section_title
;
Structure prediction by ZEFSAII (Michael W. Deem and Ramdas Pophale) SiO2 
 PCOD9426332
Probable space group: P B A M
;
_chemical_formula_sum "Si O2"
_cell_formula_units_Z 64
_cell_length_a 14.320807
_cell_length_b 14.194972
_cell_length_c 18.175259
_cell_angle_alpha 90.000000
_cell_angle_beta 90.000000
_cell_angle_gamma 90.000000
_cell_volume 3694.729434
_symmetry_space_group_name_H-M "P B A M"
_symmetry_group_IT_number 55
_symmetry_cell_setting 'orthorhombic'
loop_
_space_group_symop_operation_xyz
x,y,z
-x,-y,z
1/2+x,1/2-y,-z
1/2-x,1/2+y,-z
-x,-y,-z
x,y,-z
1/2-x,1/2+y,z
1/2+x,1/2-y,z
loop_
_atom_site_type_symbol
_atom_site_label
_atom_site_fract_x
_atom_site_fract_y
_atom_site_fract_z
Si Si1 0.137275 0.697024 0.685579
Si Si2 0.259068 0.418047 0.856854
Si Si3 0.887622 0.744902 0.832909
Si Si4 0.078042 0.332891 0.675634
Si Si5 0.212649 0.491095 0.301594
Si Si6 0.395388 0.255557 0.853345
Si Si7 0.745200 0.378871 0.916643
Si Si8 0.251919 0.341978 0.413771
O O1 0.196242 0.601114 0.691647
O O2 0.131241 0.741192 0.767213
O O3 0.182743 0.768524 0.628420
O O4 0.031113 0.673687 0.662920
O O5 0.172175 0.345236 0.860385
O O6 0.262010 0.458020 0.773259
O O7 0.349611 0.355212 0.875012
O O8 0.247282 0.509700 0.906211
O O9 0.893388 0.733536 0.744406
O O10 0.830753 0.834846 0.861071
O O11 0.993803 0.748168 0.860531
O O12 0.111826 0.437499 0.699930
O O13 0.145177 0.312566 0.606763
O O14 0.261523 0.442273 0.371696
O O15 0.341813 0.173186 0.896564
O O16 0.718772 0.355195 0.000000
O O17 0.267525 0.346630 0.500000
#
# Coordination Sequence:
#
# PCOD9426332 Si02
#       8
#     8   8   8   8   8   8   8   8
#     4  11  17  34  62  80 104 146 186 222 278 321
#     4  10  19  36  57  81 113 146 184 230 272 331
#     4   9  20  38  59  82 110 147 191 228 274 331
#     4   8  19  34  54  84 108 139 182 229 266 324
#     4   9  18  33  55  80 111 138 180 226 266 325
#     4  10  20  37  61  84 107 146 192 231 276 334
#     4  11  23  37  57  84 114 148 182 231 287 332
#     4  10  21  34  50  83 117 143 179 226 277 327
#
# _framework density 17.321973
#
# number of rings (size 3 to 8) (size 9 to 14) (size 15 to 20)
#    0.750    1.500    2.500    1.125    0.000    4.500 
#    0.000    1.875    0.000    0.750    0.000    1.750 
#    0.000    0.000    0.000    0.000    0.000    0.000 
#
# Total GULP energy -356482.099036 kJ/mol
# GULP energy per Si atom -5570.032797 kJ/mol
# Density = 1.728255 g / cm^3
# Si number density = 17.321973 Si / 1000 Ang^3
#
#
#
# Elastic Constant Matrix: (Units=GPa)
#
#
# Indices 1 2 3 4 5 6 
#
# 1 59.3353 30.2546 10.3270 0.0000 0.0000 0.0000
# 2 30.2546 64.2972 12.2464 0.0000 0.0000 0.0000
# 3 10.3270 12.2464 46.4919 0.0000 0.0000 0.0000
# 4 0.0000 0.0000 0.0000 18.1285 0.0000 0.0000
# 5 0.0000 0.0000 0.0000 0.0000 6.8332 0.0000
# 6 0.0000 0.0000 0.0000 0.0000 0.0000 12.5778
#
#
#
# Elastic Compliance Matrix: (Units=1/GPa)
#
#
# Indices 1 2 3 4 5 6 
#
# 1 0.022408 -0.010103 -0.002316 0.000000 0.000000 0.000000
# 2 -0.010103 0.020929 -0.003269 0.000000 0.000000 0.000000
# 3 -0.002316 -0.003269 0.022885 0.000000 0.000000 0.000000
# 4 0.000000 0.000000 0.000000 0.055162 0.000000 0.000000
# 5 0.000000 0.000000 0.000000 0.000000 0.146344 0.000000
# 6 0.000000 0.000000 0.000000 0.000000 0.000000 0.079505
#
#
# Mechanical properties :
#
#
# Convention : Reuss Voigt Hill
#
# Bulk Modulus (GPa) = 28.69762 30.64227 29.66995
# Shear Modulus (GPa) = 12.81318 15.32766 14.07042
#
# Velocity S-wave (km/s) = 2.72271 2.97790 2.85316
# Velocity P-wave (km/s) = 5.14658 5.43618 5.29336
#
# Compressibility (1/GPa) = 0.03484609
#
# Stress axis : x y z
#
# Youngs Moduli (GPa) = 44.62739 47.78034 43.69740
#
# Poissons Ratio (x) = 0.48271 0.10121
# Poissons Ratio (y) = 0.45086 0.14284
# Poissons Ratio (z) = 0.10337 0.15619
#
# Static dielectric constant tensor:
#      x y z
#    x 1.587040 0.000000 0.000000 
#    y 0.000000 1.580870 0.000000 
#    z 0.000000 0.000000 1.582690 
# 
# From -- ./inp_files/21685.got.cif
#   From: 2010.05.17/outbox.cif.g08.bks.cpg/sg55_11_cif.got.tgz:21685.got - 2010.06.03 13:27:54.
