data_PCOD9426052
_publ_section_title
;
Structure prediction by ZEFSAII (Michael W. Deem and Ramdas Pophale) SiO2 
 PCOD9426052
Probable space group: P B A M
;
_chemical_formula_sum "Si O2"
_cell_formula_units_Z 48
_cell_length_a 9.162221
_cell_length_b 31.660662
_cell_length_c 7.749029
_cell_angle_alpha 90.000000
_cell_angle_beta 90.000000
_cell_angle_gamma 90.000000
_cell_volume 2247.853693
_symmetry_space_group_name_H-M "P B A M"
_symmetry_group_IT_number 55
_symmetry_cell_setting 'orthorhombic'
loop_
_space_group_symop_operation_xyz
x,y,z
-x,-y,z
1/2+x,1/2-y,-z
1/2-x,1/2+y,-z
-x,-y,-z
x,y,-z
1/2-x,1/2+y,z
1/2+x,1/2-y,z
loop_
_atom_site_type_symbol
_atom_site_label
_atom_site_fract_x
_atom_site_fract_y
_atom_site_fract_z
Si Si1 0.418834 0.457226 0.788840
Si Si2 0.608743 0.206583 0.196477
Si Si3 0.583775 0.372605 0.791487
Si Si4 0.564855 0.715079 0.305563
Si Si5 0.918864 0.372225 0.211385
Si Si6 0.582105 0.042419 0.789128
O O1 0.500000 0.500000 0.734330
O O2 0.503928 0.415276 0.731869
O O3 0.250385 0.456751 0.733826
O O4 0.419350 0.457083 0.000000
O O5 0.509762 0.248276 0.195339
O O6 0.761191 0.214845 0.288520
O O7 0.513727 0.167894 0.268648
O O8 0.649230 0.195154 0.000000
O O9 0.496356 0.330914 0.740020
O O10 0.751222 0.370261 0.731152
O O11 0.586645 0.374107 0.000000
O O12 0.522075 0.725305 0.500000
O O13 0.995884 0.415671 0.264346
O O14 0.916524 0.371272 0.000000
O O15 0.500000 0.000000 0.732924
O O16 0.582192 0.042193 0.000000
#
# Coordination Sequence:
#
# PCOD9426052 Si02
#       6
#     8   8   8   8   8   8
#     4   9  16  26  45  76 111 146 187 237 287 335
#     4  11  22  39  61  83 110 147 191 234 282 342
#     4  10  19  34  56  81 111 148 191 235 284 344
#     4  12  25  40  58  84 116 147 185 235 291 345
#     4   9  18  31  51  79 107 140 183 229 274 328
#     4   9  15  24  40  68 109 147 177 219 278 334
#
# _framework density 21.353705000000001
#
# number of rings (size 3 to 8) (size 9 to 14) (size 15 to 20)
#    0.000    2.000    0.000    5.000    0.000    8.000 
#    0.000    0.833    0.000    0.500    0.000    0.000 
#    0.000    8.000    0.000    0.000    0.000    0.000 
#
# Total GULP energy -268359.827379 kJ/mol
# GULP energy per Si atom -5590.829737 kJ/mol
# Density = 2.130510 g / cm^3
# Si number density = 21.353705 Si / 1000 Ang^3
#
#
#
# Elastic Constant Matrix: (Units=GPa)
#
#
# Indices 1 2 3 4 5 6 
#
# 1 190.4171 96.7851 0.7069 0.0000 0.0000 0.0000
# 2 96.7851 181.4896 -2.7784 0.0000 0.0000 0.0000
# 3 0.7069 -2.7784 37.1154 0.0000 0.0000 0.0000
# 4 0.0000 0.0000 0.0000 -27.0736 0.0000 0.0000
# 5 0.0000 0.0000 0.0000 0.0000 37.4260 0.0000
# 6 0.0000 0.0000 0.0000 0.0000 0.0000 44.4536
#
#
#
# Elastic Compliance Matrix: (Units=1/GPa)
#
#
# Indices 1 2 3 4 5 6 
#
# 1 0.007211 -0.003852 -0.000426 0.000000 0.000000 0.000000
# 2 -0.003852 0.007574 0.000640 0.000000 0.000000 0.000000
# 3 -0.000426 0.000640 0.026999 0.000000 0.000000 0.000000
# 4 0.000000 0.000000 0.000000 -0.036936 0.000000 0.000000
# 5 0.000000 0.000000 0.000000 0.000000 0.026719 0.000000
# 6 0.000000 0.000000 0.000000 0.000000 0.000000 0.022495
#
#
# Mechanical properties :
#
#
# Convention : Reuss Voigt Hill
#
# Bulk Modulus (GPa) = 28.97770 66.49437 47.73603
# Shear Modulus (GPa) = 68.64298 31.91509 50.27904
#
# Velocity S-wave (km/s) = 5.67587 3.87019 4.85767
# Velocity P-wave (km/s) = 7.52022 7.15390 7.33935
#
# Compressibility (1/GPa) = 0.03450930
#
# Stress axis : x y z
#
# Youngs Moduli (GPa) = 138.67413 132.03038 37.03836
#
# Poissons Ratio (x) = 0.50859 0.01577
# Poissons Ratio (y) = 0.53419 -0.02372
# Poissons Ratio (z) = 0.05903 -0.08455
#
# Static dielectric constant tensor:
#      x y z
#    x 1.714440 0.000000 0.000000 
#    y 0.000000 1.721950 0.000000 
#    z 0.000000 0.000000 1.783700 
# 
# From -- ./inp_files/2770.got.cif
#   From: 2010.05.17/outbox.cif.g08.bks.cpg/sg55_2_cif.got.tgz:2770.got - 2010.06.03 13:27:54.
