data_PCOD9426777
_publ_section_title
;
Structure prediction by ZEFSAII (Michael W. Deem and Ramdas Pophale) SiO2 
 PCOD9426777
Probable space group: P B A M
;
_chemical_formula_sum "Si O2"
_cell_formula_units_Z 56
_cell_length_a 18.115772
_cell_length_b 10.837579
_cell_length_c 13.848502
_cell_angle_alpha 90.000000
_cell_angle_beta 90.000000
_cell_angle_gamma 90.000000
_cell_volume 2718.891772
_symmetry_space_group_name_H-M "P B A M"
_symmetry_group_IT_number 55
_symmetry_cell_setting 'orthorhombic'
loop_
_space_group_symop_operation_xyz
x,y,z
-x,-y,z
1/2+x,1/2-y,-z
1/2-x,1/2+y,-z
-x,-y,-z
x,y,-z
1/2-x,1/2+y,z
1/2+x,1/2-y,z
loop_
_atom_site_type_symbol
_atom_site_label
_atom_site_fract_x
_atom_site_fract_y
_atom_site_fract_z
Si Si1 0.940626 0.399611 0.615194
Si Si2 0.151776 0.121655 0.239150
Si Si3 0.372951 0.184828 0.104335
Si Si4 0.811750 0.469055 0.264056
Si Si5 0.287768 0.816419 0.110327
Si Si6 0.478805 0.645664 0.384309
Si Si7 0.578718 0.561812 0.892877
O O1 0.946141 0.397549 0.500000
O O2 0.860313 0.457205 0.640523
O O3 0.000000 0.500000 0.652863
O O4 0.963137 0.256492 0.642324
O O5 0.235081 0.104323 0.276799
O O6 0.156057 0.211270 0.146208
O O7 0.094449 0.165149 0.319782
O O8 0.125860 0.992618 0.193494
O O9 0.370019 0.094534 0.191688
O O10 0.293332 0.254329 0.106127
O O11 0.431172 0.292722 0.115949
O O12 0.381354 0.125144 0.000000
O O13 0.790789 0.588079 0.199622
O O14 0.302284 0.860559 0.000000
O O15 0.500000 0.500000 0.367281
O O16 0.465164 0.655515 0.500000
O O17 0.500000 0.500000 0.889902
O O18 0.612663 0.540072 0.000000
#
# Coordination Sequence:
#
# PCOD9426777 Si02
#       7
#     8   8   8   8   8   8   8
#     4  10  23  44  65  86 120 163 201 243 308 377
#     4  11  22  35  60  88 119 152 198 248 306 348
#     4   9  19  34  53  80 116 153 192 237 288 344
#     4  11  22  35  60  89 113 154 206 242 295 350
#     4  10  20  36  56  83 120 159 197 240 290 352
#     4  10  23  42  65  90 118 155 197 251 315 367
#     4  10  20  34  54  81 114 156 198 238 289 350
#
# _framework density 20.596627000000002
#
# number of rings (size 3 to 8) (size 9 to 14) (size 15 to 20)
#    0.000    1.857    1.429    2.143    4.000    1.714 
#    0.000    0.000    0.000    7.714    0.000    0.000 
#    0.000    0.000    0.000    0.000    0.000    0.000 
#
# Total GULP energy -311739.896065 kJ/mol
# GULP energy per Si atom -5566.783858 kJ/mol
# Density = 2.054975 g / cm^3
# Si number density = 20.596627 Si / 1000 Ang^3
#
#
#
# Elastic Constant Matrix: (Units=GPa)
#
#
# Indices 1 2 3 4 5 6 
#
# 1 57.9156 -9.1378 16.9178 0.0000 0.0000 0.0000
# 2 -9.1378 40.1206 4.9285 0.0000 0.0000 0.0000
# 3 16.9178 4.9285 44.7853 0.0000 0.0000 0.0000
# 4 0.0000 0.0000 0.0000 23.8291 0.0000 0.0000
# 5 0.0000 0.0000 0.0000 0.0000 -32.7426 0.0000
# 6 0.0000 0.0000 0.0000 0.0000 0.0000 22.4227
#
#
#
# Elastic Compliance Matrix: (Units=1/GPa)
#
#
# Indices 1 2 3 4 5 6 
#
# 1 0.020632 0.005734 -0.008425 0.000000 0.000000 0.000000
# 2 0.005734 0.026860 -0.005122 0.000000 0.000000 0.000000
# 3 -0.008425 -0.005122 0.026075 0.000000 0.000000 0.000000
# 4 0.000000 0.000000 0.000000 0.041966 0.000000 0.000000
# 5 0.000000 0.000000 0.000000 0.000000 -0.030541 0.000000
# 6 0.000000 0.000000 0.000000 0.000000 0.000000 0.044598
#
#
# Mechanical properties :
#
#
# Convention : Reuss Voigt Hill
#
# Bulk Modulus (GPa) = 17.25872 18.69316 17.97594
# Shear Modulus (GPa) = 30.38982 11.37602 20.88292
#
# Velocity S-wave (km/s) = 3.84536 2.35271 3.18763
# Velocity P-wave (km/s) = 5.30220 4.05905 4.72171
#
# Compressibility (1/GPa) = 0.05794173
#
# Stress axis : x y z
#
# Youngs Moduli (GPa) = 48.46780 37.22999 38.35098
#
# Poissons Ratio (x) = -0.21348 0.32310
# Poissons Ratio (y) = -0.27792 0.19643
# Poissons Ratio (z) = 0.40834 0.19069
#
# Static dielectric constant tensor:
#      x y z
#    x 1.739310 0.000000 0.000000 
#    y 0.000000 1.846250 0.000000 
#    z 0.000000 0.000000 1.819410 
# 
# From -- ./inp_files/18941.got.cif
#   From: 2010.05.17/outbox.cif.g08.bks.cpg/sg55_10_cif.got.tgz:18941.got - 2010.06.03 13:27:54.
