data_PCOD9426246
_publ_section_title
;
Structure prediction by ZEFSAII (Michael W. Deem and Ramdas Pophale) SiO2 
 PCOD9426246
Probable space group: P B A M
;
_chemical_formula_sum "Si O2"
_cell_formula_units_Z 64
_cell_length_a 24.022832
_cell_length_b 15.826321
_cell_length_c 8.885344
_cell_angle_alpha 90.000000
_cell_angle_beta 90.000000
_cell_angle_gamma 90.000000
_cell_volume 3378.146041
_symmetry_space_group_name_H-M "P B A M"
_symmetry_group_IT_number 55
_symmetry_cell_setting 'orthorhombic'
loop_
_space_group_symop_operation_xyz
x,y,z
-x,-y,z
1/2+x,1/2-y,-z
1/2-x,1/2+y,-z
-x,-y,-z
x,y,-z
1/2-x,1/2+y,z
1/2+x,1/2-y,z
loop_
_atom_site_type_symbol
_atom_site_label
_atom_site_fract_x
_atom_site_fract_y
_atom_site_fract_z
Si Si1 0.547196 0.205781 0.179739
Si Si2 0.577227 0.565718 0.317353
Si Si3 0.774818 0.483502 0.321678
Si Si4 0.694247 0.635594 0.682028
Si Si5 0.804675 0.311929 0.820434
Si Si6 0.402333 0.960419 0.322425
Si Si7 0.070722 0.634111 0.180892
Si Si8 0.953293 0.881040 0.318446
O O1 0.580173 0.125585 0.242660
O O2 0.482410 0.189884 0.223691
O O3 0.566923 0.294315 0.247448
O O4 0.550594 0.207714 0.000000
O O5 0.577256 0.566969 0.500000
O O6 0.631071 0.616609 0.266497
O O7 0.578727 0.466780 0.274248
O O8 0.517700 0.603215 0.271170
O O9 0.767206 0.468185 0.500000
O O10 0.731507 0.555260 0.273877
O O11 0.772122 0.394269 0.237461
O O12 0.836934 0.520247 0.299761
O O13 0.695289 0.641221 0.500000
O O14 0.714271 0.723921 0.749373
O O15 0.869651 0.326985 0.774299
O O16 0.802327 0.307648 0.000000
O O17 0.413325 0.954552 0.500000
O O18 0.433481 0.041634 0.253845
O O19 0.929146 0.375259 0.000000
O O20 0.951792 0.874810 0.500000
#
# Coordination Sequence:
#
# PCOD9426246 Si02
#       8
#     8   8   8   8   8   8   8   8
#     4  11  21  32  48  74 106 140 172 204 255 319
#     4   8  16  32  55  79 102 132 169 214 260 301
#     4   9  20  38  56  76 104 139 180 225 266 309
#     4  10  19  35  59  82 103 135 180 222 262 309
#     4  10  20  35  56  81 108 138 172 217 269 316
#     4  10  20  34  51  72  99 133 175 220 263 304
#     4   9  19  34  51  73 104 138 171 209 258 314
#     4   9  17  32  52  76 107 136 167 208 255 307
#
# _framework density 18.945304
#
# number of rings (size 3 to 8) (size 9 to 14) (size 15 to 20)
#    0.000    2.500    0.000    3.000    0.000    4.000 
#    2.250    1.875    0.000    0.000    0.000    0.000 
#    0.000    0.000    0.000    0.000    0.000    0.000 
#
# Total GULP energy -357185.747096 kJ/mol
# GULP energy per Si atom -5581.027298 kJ/mol
# Density = 1.890218 g / cm^3
# Si number density = 18.945304 Si / 1000 Ang^3
#
#
#
# Elastic Constant Matrix: (Units=GPa)
#
#
# Indices 1 2 3 4 5 6 
#
# 1 19.3462 23.0977 14.1670 0.0000 0.0000 0.0000
# 2 23.0977 158.3880 35.2374 0.0000 0.0000 0.0000
# 3 14.1670 35.2374 16.4779 0.0000 0.0000 0.0000
# 4 0.0000 0.0000 0.000022904.1055 0.0000 0.0000
# 5 0.0000 0.0000 0.0000 0.0000 16.3754 0.0000
# 6 0.0000 0.0000 0.0000 0.0000 0.0000 21.6817
#
#
#
# Elastic Compliance Matrix: (Units=1/GPa)
#
#
# Indices 1 2 3 4 5 6 
#
# 1 0.152860 0.013251 -0.159760 0.000000 0.000000 0.000000
# 2 0.013251 0.013192 -0.039603 0.000000 0.000000 0.000000
# 3 -0.159760 -0.039603 0.282734 0.000000 0.000000 0.000000
# 4 0.000000 0.000000 0.000000 0.000044 0.000000 0.000000
# 5 0.000000 0.000000 0.000000 0.000000 0.061067 0.000000
# 6 0.000000 0.000000 0.000000 0.000000 0.000000 0.046122
#
#
# Mechanical properties :
#
#
# Convention : Reuss Voigt Hill
#
# Bulk Modulus (GPa) = 13.06154 37.69070 25.37612
# Shear Modulus (GPa) = 5.24239 4596.54653 2300.89446
#
# Velocity S-wave (km/s) = 1.66527 49.31011 34.88739
# Velocity P-wave (km/s) = 3.25681 57.11322 40.45075
#
# Compressibility (1/GPa) = 0.07656067
#
# Stress axis : x y z
#
# Youngs Moduli (GPa) = 6.54194 75.80359 3.53690
#
# Poissons Ratio (x) = -1.00448 0.56506
# Poissons Ratio (y) = -0.08669 0.14007
# Poissons Ratio (z) = 1.04514 3.00208
#
# Static dielectric constant tensor:
#      x y z
#    x 1.673260 0.000000 0.000000 
#    y 0.000000 1.637270 0.000000 
#    z 0.000000 0.000000 1.632420 
# 
# From -- ./inp_files/9655.got.cif
#   From: 2010.05.17/outbox.cif.g08.bks.cpg/sg55_5_cif.got.tgz:9655.got - 2010.06.03 13:27:54.
