data_PCOD9426156
_publ_section_title
;
Structure prediction by ZEFSAII (Michael W. Deem and Ramdas Pophale) SiO2 
 PCOD9426156
Probable space group: P B A M
;
_chemical_formula_sum "Si O2"
_cell_formula_units_Z 48
_cell_length_a 12.441610
_cell_length_b 13.052449
_cell_length_c 13.328759
_cell_angle_alpha 90.000000
_cell_angle_beta 90.000000
_cell_angle_gamma 90.000000
_cell_volume 2164.503558
_symmetry_space_group_name_H-M "P B A M"
_symmetry_group_IT_number 55
_symmetry_cell_setting 'orthorhombic'
loop_
_space_group_symop_operation_xyz
x,y,z
-x,-y,z
1/2+x,1/2-y,-z
1/2-x,1/2+y,-z
-x,-y,-z
x,y,-z
1/2-x,1/2+y,z
1/2+x,1/2-y,z
loop_
_atom_site_type_symbol
_atom_site_label
_atom_site_fract_x
_atom_site_fract_y
_atom_site_fract_z
Si Si1 0.128027 0.844274 0.275723
Si Si2 0.919714 0.597284 0.113946
Si Si3 0.827225 0.012117 0.885560
Si Si4 0.316123 0.969350 0.385565
Si Si5 0.750089 0.347720 0.255573
Si Si6 0.935299 0.718337 0.682007
O O1 0.097541 0.921872 0.187642
O O2 0.212407 0.906504 0.343962
O O3 0.182467 0.748342 0.219693
O O4 0.037251 0.788346 0.339464
O O5 0.794974 0.560093 0.119535
O O6 0.937514 0.679511 0.201778
O O7 0.000000 0.500000 0.129101
O O8 0.938788 0.634641 0.000000
O O9 0.811024 0.902515 0.834394
O O10 0.860798 0.009659 0.000000
O O11 0.303122 0.999945 0.500000
O O12 0.412616 0.887440 0.375379
O O13 0.320904 0.068237 0.314027
O O14 0.664660 0.295610 0.329989
#
# Coordination Sequence:
#
# PCOD9426156 Si02
#       6
#     8   8   8   8   8   8
#     4  10  22  39  61  88 122 158 199 252 306 364
#     4  10  19  34  59  90 122 156 199 242 285 348
#     4  10  20  36  56  86 124 163 201 242 296 350
#     4  10  23  42  60  86 117 152 203 259 311 367
#     4  10  20  39  59  86 117 163 194 256 301 358
#     4  11  22  38  64  89 121 159 204 243 311 365
#
# _framework density 22.175985000000001
#
# number of rings (size 3 to 8) (size 9 to 14) (size 15 to 20)
#    0.000    1.833    5.000    1.000    0.000    8.000 
#    0.000    2.500    0.000    0.000    0.000    0.000 
#    0.000    0.000    0.000    0.000    0.000    0.000 
#
# Total GULP energy -267918.110820 kJ/mol
# GULP energy per Si atom -5581.627309 kJ/mol
# Density = 2.212551 g / cm^3
# Si number density = 22.175985 Si / 1000 Ang^3
#
#
#
# Elastic Constant Matrix: (Units=GPa)
#
#
# Indices 1 2 3 4 5 6 
#
# 1 36.6013 22.9394 -13.6301 0.0000 0.0000 0.0000
# 2 22.9394 66.9274 6.9538 0.0000 0.0000 0.0000
# 3 -13.6301 6.9538 99.8734 0.0000 0.0000 0.0000
# 4 0.0000 0.0000 0.0000 5.6685 0.0000 0.0000
# 5 0.0000 0.0000 0.0000 0.0000 6.8924 0.0000
# 6 0.0000 0.0000 0.0000 0.0000 0.0000 26.4319
#
#
#
# Elastic Compliance Matrix: (Units=1/GPa)
#
#
# Indices 1 2 3 4 5 6 
#
# 1 0.038237 -0.013747 0.006176 0.000000 0.000000 0.000000
# 2 -0.013747 0.019993 -0.003268 0.000000 0.000000 0.000000
# 3 0.006176 -0.003268 0.011083 0.000000 0.000000 0.000000
# 4 0.000000 0.000000 0.000000 0.176414 0.000000 0.000000
# 5 0.000000 0.000000 0.000000 0.000000 0.145088 0.000000
# 6 0.000000 0.000000 0.000000 0.000000 0.000000 0.037833
#
#
# Mechanical properties :
#
#
# Convention : Reuss Voigt Hill
#
# Bulk Modulus (GPa) = 20.99380 26.21425 23.60403
# Shear Modulus (GPa) = 10.72486 20.27447 15.49967
#
# Velocity S-wave (km/s) = 2.20153 3.02694 2.64661
# Velocity P-wave (km/s) = 3.99372 4.90542 4.47286
#
# Compressibility (1/GPa) = 0.04763311
#
# Stress axis : x y z
#
# Youngs Moduli (GPa) = 26.15253 50.01733 90.22801
#
# Poissons Ratio (x) = 0.68761 -0.55721
# Poissons Ratio (y) = 0.35953 0.29488
# Poissons Ratio (z) = -0.16151 0.16347
#
# Static dielectric constant tensor:
#      x y z
#    x 1.938800 0.000000 0.000000 
#    y 0.000000 1.793250 0.000000 
#    z 0.000000 0.000000 1.774780 
# 
# From -- ./inp_files/18254.got.cif
#   From: 2010.05.17/outbox.cif.g08.bks.cpg/sg55_10_cif.got.tgz:18254.got - 2010.06.03 13:27:54.
