data_PCOD9426627
_publ_section_title
;
Structure prediction by ZEFSAII (Michael W. Deem and Ramdas Pophale) SiO2 
 PCOD9426627
Probable space group: P B A M
;
_chemical_formula_sum "Si O2"
_cell_formula_units_Z 64
_cell_length_a 23.058294
_cell_length_b 16.778154
_cell_length_c 7.526037
_cell_angle_alpha 90.000000
_cell_angle_beta 90.000000
_cell_angle_gamma 90.000000
_cell_volume 2911.640138
_symmetry_space_group_name_H-M "P B A M"
_symmetry_group_IT_number 55
_symmetry_cell_setting 'orthorhombic'
loop_
_space_group_symop_operation_xyz
x,y,z
-x,-y,z
1/2+x,1/2-y,-z
1/2-x,1/2+y,-z
-x,-y,-z
x,y,-z
1/2-x,1/2+y,z
1/2+x,1/2-y,z
loop_
_atom_site_type_symbol
_atom_site_label
_atom_site_fract_x
_atom_site_fract_y
_atom_site_fract_z
Si Si1 0.369384 0.373091 0.700798
Si Si2 0.743736 0.691235 0.715050
Si Si3 0.179420 0.464319 0.207266
Si Si4 0.957693 0.745320 0.798143
Si Si5 0.548040 0.066228 0.217846
Si Si6 0.505053 0.589222 0.200843
Si Si7 0.162240 0.194002 0.288928
Si Si8 0.703106 0.475800 0.788911
O O1 0.386085 0.350302 0.500000
O O2 0.322152 0.312897 0.779515
O O3 0.427175 0.390948 0.804685
O O4 0.330809 0.452721 0.697304
O O5 0.740736 0.686054 0.500000
O O6 0.785725 0.619292 0.774897
O O7 0.776245 0.770702 0.766949
O O8 0.113851 0.455833 0.279517
O O9 0.229655 0.524978 0.275572
O O10 0.171265 0.483012 0.000000
O O11 0.968250 0.656739 0.722870
O O12 0.888648 0.756826 0.800797
O O13 0.978022 0.830147 0.715592
O O14 0.981359 0.745355 0.000000
O O15 0.500000 0.000000 0.267264
O O16 0.549464 0.069625 0.000000
O O17 0.500000 0.500000 0.281820
O O18 0.480047 0.582335 0.000000
O O19 0.155251 0.204524 0.500000
O O20 0.165400 0.102032 0.244057
O O21 0.704358 0.491734 0.000000
#
# Coordination Sequence:
#
# PCOD9426627 Si02
#       8
#     8   8   8   8   8   8   8   8
#     4  10  20  36  56  77 105 144 182 217 269 329
#     4   9  19  34  53  76 105 139 174 218 271 322
#     4   9  17  32  54  78 103 135 177 223 273 323
#     4  10  20  35  57  82 109 148 190 231 281 329
#     4   9  17  32  55  80 107 140 184 236 281 326
#     4  10  21  36  53  79 115 149 182 228 279 331
#     4  11  21  34  54  80 109 141 180 223 271 329
#     4  10  20  33  52  81 111 139 175 224 275 328
#
# _framework density 21.980737999999999
#
# number of rings (size 3 to 8) (size 9 to 14) (size 15 to 20)
#    0.000    2.250    1.250    1.875    0.000    3.250 
#    2.250    0.000    0.000    1.500    0.000    0.000 
#    0.000    0.000    0.000    0.000    0.000    0.000 
#
# Total GULP energy -356639.891812 kJ/mol
# GULP energy per Si atom -5572.498310 kJ/mol
# Density = 2.193071 g / cm^3
# Si number density = 21.980738 Si / 1000 Ang^3
#
#
#
# Elastic Constant Matrix: (Units=GPa)
#
#
# Indices 1 2 3 4 5 6 
#
# 1 94.9199 24.0721 4.5469 0.0000 0.0000 0.0000
# 2 24.0721 99.4559 -0.8711 0.0000 0.0000 0.0000
# 3 4.5469 -0.8711 63.5169 0.0000 0.0000 0.0000
# 4 0.0000 0.0000 0.0000 0.1508 0.0000 0.0000
# 5 0.0000 0.0000 0.0000 0.0000 0.9864 0.0000
# 6 0.0000 0.0000 0.0000 0.0000 0.0000 35.2816
#
#
#
# Elastic Compliance Matrix: (Units=1/GPa)
#
#
# Indices 1 2 3 4 5 6 
#
# 1 0.011269 -0.002735 -0.000844 0.000000 0.000000 0.000000
# 2 -0.002735 0.010720 0.000343 0.000000 0.000000 0.000000
# 3 -0.000844 0.000343 0.015809 0.000000 0.000000 0.000000
# 4 0.000000 0.000000 0.000000 6.633296 0.000000 0.000000
# 5 0.000000 0.000000 0.000000 0.000000 1.013744 0.000000
# 6 0.000000 0.000000 0.000000 0.000000 0.000000 0.028343
#
#
# Mechanical properties :
#
#
# Convention : Reuss Voigt Hill
#
# Bulk Modulus (GPa) = 31.92327 34.82093 33.37210
# Shear Modulus (GPa) = 0.64682 22.62674 11.63678
#
# Velocity S-wave (km/s) = 0.54305 3.21189 2.30338
# Velocity P-wave (km/s) = 3.86627 5.44343 4.72117
#
# Compressibility (1/GPa) = 0.03132511
#
# Stress axis : x y z
#
# Youngs Moduli (GPa) = 88.73708 93.28634 63.25516
#
# Poissons Ratio (x) = 0.25514 0.05340
# Poissons Ratio (y) = 0.24269 -0.02168
# Poissons Ratio (z) = 0.07491 -0.03198
#
# Static dielectric constant tensor:
#      x y z
#    x 1.834940 0.000000 0.000000 
#    y 0.000000 1.817640 0.000000 
#    z 0.000000 0.000000 2.045700 
# 
# From -- ./inp_files/8966.got.cif
#   From: 2010.05.17/outbox.cif.g08.bks.cpg/sg55_5_cif.got.tgz:8966.got - 2010.06.03 13:27:54.
