data_PCOD9426486
_publ_section_title
;
Structure prediction by ZEFSAII (Michael W. Deem and Ramdas Pophale) SiO2 
 PCOD9426486
Probable space group: P B A M
;
_chemical_formula_sum "Si O2"
_cell_formula_units_Z 34
_cell_length_a 20.352589
_cell_length_b 9.622380
_cell_length_c 7.575302
_cell_angle_alpha 90.000000
_cell_angle_beta 90.000000
_cell_angle_gamma 90.000000
_cell_volume 1483.549760
_symmetry_space_group_name_H-M "P B A M"
_symmetry_group_IT_number 55
_symmetry_cell_setting 'orthorhombic'
loop_
_space_group_symop_operation_xyz
x,y,z
-x,-y,z
1/2+x,1/2-y,-z
1/2-x,1/2+y,-z
-x,-y,-z
x,y,-z
1/2-x,1/2+y,z
1/2+x,1/2-y,z
loop_
_atom_site_type_symbol
_atom_site_label
_atom_site_fract_x
_atom_site_fract_y
_atom_site_fract_z
Si Si1 0.942580 0.841439 0.192955
Si Si2 0.191336 0.661432 0.715132
Si Si3 0.500000 0.500000 0.500000
Si Si4 0.573808 0.034307 0.286545
Si Si5 0.682176 0.519277 0.284655
O O1 0.911493 0.690179 0.225478
O O2 0.992940 0.880039 0.346083
O O3 0.883927 0.951971 0.212078
O O4 0.972744 0.845129 0.000000
O O5 0.190870 0.662760 0.500000
O O6 0.127044 0.577562 0.774267
O O7 0.191877 0.821584 0.770441
O O8 0.255937 0.575305 0.765995
O O9 0.575184 0.034232 0.500000
O O10 0.500000 0.000000 0.228662
O O11 0.675170 0.516013 0.500000
#
# Coordination Sequence:
#
# PCOD9426486 Si02
#       5
#     8   8   2   8   8
#     4  12  26  43  69 100 133 177 226 275 336 402
#     4   9  19  34  65  99 131 185 228 273 337 400
#     4  12  26  48  70  94 140 176 218 280 332 402
#     4  10  21  39  66  98 139 184 226 273 338 400
#     4  10  19  38  65  95 136 176 231 281 334 395
#
# _framework density 22.918002999999999
#
# number of rings (size 3 to 8) (size 9 to 14) (size 15 to 20)
#    0.000    1.647    2.353    1.765    3.294    4.235 
#    0.000    5.882    0.000    0.000    0.000    0.000 
#    0.000    0.000    0.000    0.000    0.000    0.000 
#
# Total GULP energy -189798.068725 kJ/mol
# GULP energy per Si atom -5582.296139 kJ/mol
# Density = 2.286584 g / cm^3
# Si number density = 22.918003 Si / 1000 Ang^3
#
#
#
# Elastic Constant Matrix: (Units=GPa)
#
#
# Indices 1 2 3 4 5 6 
#
# 1 76.5218 45.6536 21.1152 0.0000 0.0000 0.0000
# 2 45.6536 196.3285 19.8403 0.0000 0.0000 0.0000
# 3 21.1152 19.8403 116.6178 0.0000 0.0000 0.0000
# 4 0.0000 0.0000 0.0000 -28.4707 0.0000 0.0000
# 5 0.0000 0.0000 0.0000 0.0000 2.7917 0.0000
# 6 0.0000 0.0000 0.0000 0.0000 0.0000 48.2182
#
#
#
# Elastic Compliance Matrix: (Units=1/GPa)
#
#
# Indices 1 2 3 4 5 6 
#
# 1 0.015741 -0.003431 -0.002266 0.000000 0.000000 0.000000
# 2 -0.003431 0.005931 -0.000388 0.000000 0.000000 0.000000
# 3 -0.002266 -0.000388 0.009051 0.000000 0.000000 0.000000
# 4 0.000000 0.000000 0.000000 -0.035124 0.000000 0.000000
# 5 0.000000 0.000000 0.000000 0.000000 0.358202 0.000000
# 6 0.000000 0.000000 0.000000 0.000000 0.000000 0.020739
#
#
# Mechanical properties :
#
#
# Convention : Reuss Voigt Hill
#
# Bulk Modulus (GPa) = 53.90239 62.52069 58.21154
# Shear Modulus (GPa) = 12.72608 24.69845 18.71227
#
# Velocity S-wave (km/s) = 2.35901 3.28638 2.86052
# Velocity P-wave (km/s) = 5.56692 6.46063 6.03036
#
# Compressibility (1/GPa) = 0.01855205
#
# Stress axis : x y z
#
# Youngs Moduli (GPa) = 63.52983 168.61774 110.48109
#
# Poissons Ratio (x) = 0.57857 0.25038
# Poissons Ratio (y) = 0.21799 0.04283
# Poissons Ratio (z) = 0.14398 0.06537
#
# Static dielectric constant tensor:
#      x y z
#    x 1.859400 0.000000 0.000000 
#    y 0.000000 1.831840 0.000000 
#    z 0.000000 0.000000 1.805120 
# 
# From -- ./inp_files/2114.got.cif
#   From: 2010.05.17/outbox.cif.g08.bks.cpg/sg55_2_cif.got.tgz:2114.got - 2010.06.03 13:27:54.
