data_PCOD9426233
_publ_section_title
;
Structure prediction by ZEFSAII (Michael W. Deem and Ramdas Pophale) SiO2 
 PCOD9426233
Probable space group: P B A M
;
_chemical_formula_sum "Si O2"
_cell_formula_units_Z 48
_cell_length_a 14.179844
_cell_length_b 14.872950
_cell_length_c 11.048491
_cell_angle_alpha 90.000000
_cell_angle_beta 90.000000
_cell_angle_gamma 90.000000
_cell_volume 2330.083782
_symmetry_space_group_name_H-M "P B A M"
_symmetry_group_IT_number 55
_symmetry_cell_setting 'orthorhombic'
loop_
_space_group_symop_operation_xyz
x,y,z
-x,-y,z
1/2+x,1/2-y,-z
1/2-x,1/2+y,-z
-x,-y,-z
x,y,-z
1/2-x,1/2+y,z
1/2+x,1/2-y,z
loop_
_atom_site_type_symbol
_atom_site_label
_atom_site_fract_x
_atom_site_fract_y
_atom_site_fract_z
Si Si1 0.861305 0.012296 0.866996
Si Si2 0.712907 0.825465 0.636964
Si Si3 0.416654 0.606263 0.636696
Si Si4 0.074246 0.802365 0.770234
Si Si5 0.349888 0.013258 0.787932
Si Si6 0.975953 0.631071 0.135230
O O1 0.903046 0.960339 0.750604
O O2 0.748562 0.002225 0.854749
O O3 0.891734 0.115490 0.851978
O O4 0.890144 0.977802 0.000000
O O5 0.686348 0.804985 0.500000
O O6 0.825745 0.828724 0.646823
O O7 0.663032 0.754804 0.724176
O O8 0.676307 0.925618 0.672325
O O9 0.412363 0.567363 0.500000
O O10 0.514382 0.656755 0.659309
O O11 0.003834 0.732365 0.834413
O O12 0.426572 0.074360 0.857779
O O13 0.403719 0.918484 0.774115
O O14 0.936465 0.624134 0.000000
#
# Coordination Sequence:
#
# PCOD9426233 Si02
#       6
#     8   8   8   8   8   8
#     4  11  23  39  61  90 123 160 203 247 295 357
#     4   9  20  40  61  86 119 153 201 250 294 353
#     4  10  23  43  63  85 119 164 204 244 301 360
#     4  11  23  35  60  90 123 154 198 246 303 355
#     4   9  19  37  60  84 115 158 200 242 298 354
#     4  10  19  35  58  85 119 156 196 247 302 357
#
# _framework density 20.600118999999999
#
# number of rings (size 3 to 8) (size 9 to 14) (size 15 to 20)
#    0.000    2.000    0.000    3.500    2.333    4.000 
#    0.000    8.333    0.000    0.000    0.000    0.000 
#    0.000    0.000    0.000    0.000    0.000    0.000 
#
# Total GULP energy -267719.217397 kJ/mol
# GULP energy per Si atom -5577.483696 kJ/mol
# Density = 2.055323 g / cm^3
# Si number density = 20.600119 Si / 1000 Ang^3
#
#
#
# Elastic Constant Matrix: (Units=GPa)
#
#
# Indices 1 2 3 4 5 6 
#
# 1 94.2719 14.4428 16.8952 0.0000 0.0000 0.0000
# 2 14.4428 73.5497 28.3155 0.0000 0.0000 0.0000
# 3 16.8952 28.3155 97.2064 0.0000 0.0000 0.0000
# 4 0.0000 0.0000 0.0000 14.9776 0.0000 0.0000
# 5 0.0000 0.0000 0.0000 0.0000 13.5139 0.0000
# 6 0.0000 0.0000 0.0000 0.0000 0.0000 33.3182
#
#
#
# Elastic Compliance Matrix: (Units=1/GPa)
#
#
# Indices 1 2 3 4 5 6 
#
# 1 0.011118 -0.001621 -0.001460 0.000000 0.000000 0.000000
# 2 -0.001621 0.015550 -0.004248 0.000000 0.000000 0.000000
# 3 -0.001460 -0.004248 0.011779 0.000000 0.000000 0.000000
# 4 0.000000 0.000000 0.000000 0.066767 0.000000 0.000000
# 5 0.000000 0.000000 0.000000 0.000000 0.073998 0.000000
# 6 0.000000 0.000000 0.000000 0.000000 0.000000 0.030014
#
#
# Mechanical properties :
#
#
# Convention : Reuss Voigt Hill
#
# Bulk Modulus (GPa) = 42.03781 42.70391 42.37086
# Shear Modulus (GPa) = 21.56922 26.05355 23.81139
#
# Velocity S-wave (km/s) = 3.23932 3.56016 3.40352
# Velocity P-wave (km/s) = 5.86871 6.13796 6.00485
#
# Compressibility (1/GPa) = 0.02378811
#
# Stress axis : x y z
#
# Youngs Moduli (GPa) = 89.94712 64.30906 84.90025
#
# Poissons Ratio (x) = 0.10425 0.12397
# Poissons Ratio (y) = 0.14581 0.36064
# Poissons Ratio (z) = 0.13134 0.27317
#
# Static dielectric constant tensor:
#      x y z
#    x 1.734650 0.000000 0.000000 
#    y 0.000000 1.757520 0.000000 
#    z 0.000000 0.000000 1.728050 
# 
# From -- ./inp_files/14146.got.cif
#   From: 2010.05.17/outbox.cif.g08.bks.cpg/sg55_8_cif.got.tgz:14146.got - 2010.06.03 13:27:54.
