data_PCOD9426889
_publ_section_title
;
Structure prediction by ZEFSAII (Michael W. Deem and Ramdas Pophale) SiO2 
 PCOD9426889
Probable space group: P B A M
;
_chemical_formula_sum "Si O2"
_cell_formula_units_Z 64
_cell_length_a 18.890514
_cell_length_b 21.705587
_cell_length_c 8.530899
_cell_angle_alpha 90.000000
_cell_angle_beta 90.000000
_cell_angle_gamma 90.000000
_cell_volume 3497.921916
_symmetry_space_group_name_H-M "P B A M"
_symmetry_group_IT_number 55
_symmetry_cell_setting 'orthorhombic'
loop_
_space_group_symop_operation_xyz
x,y,z
-x,-y,z
1/2+x,1/2-y,-z
1/2-x,1/2+y,-z
-x,-y,-z
x,y,-z
1/2-x,1/2+y,z
1/2+x,1/2-y,z
loop_
_atom_site_type_symbol
_atom_site_label
_atom_site_fract_x
_atom_site_fract_y
_atom_site_fract_z
Si Si1 0.415105 0.122318 0.689489
Si Si2 0.831124 0.499677 0.308351
Si Si3 0.574642 0.749668 0.187268
Si Si4 0.830971 0.999174 0.687073
Si Si5 0.580240 0.117945 0.308935
Si Si6 0.916167 0.882859 0.186734
Si Si7 0.081218 0.886223 0.188248
Si Si8 0.415341 0.747496 0.685698
O O1 0.413437 0.126626 0.500000
O O2 0.369642 0.063464 0.738757
O O3 0.389038 0.187248 0.759505
O O4 0.497527 0.112936 0.736873
O O5 0.832009 0.500595 0.500000
O O6 0.750025 0.501503 0.256050
O O7 0.874697 0.559645 0.255365
O O8 0.607891 0.683125 0.225111
O O9 0.499026 0.749638 0.274590
O O10 0.562286 0.750861 0.000000
O O11 0.829725 0.996548 0.500000
O O12 0.870364 0.938530 0.748110
O O13 0.873362 0.059743 0.738405
O O14 0.580654 0.117953 0.500000
O O15 0.610085 0.184928 0.259449
O O16 0.888827 0.815475 0.237734
O O17 0.998550 0.889681 0.238660
O O18 0.916561 0.885432 0.000000
O O19 0.082413 0.893378 0.000000
O O20 0.405114 0.743073 0.500000
#
# Coordination Sequence:
#
# PCOD9426889 Si02
#       8
#     8   8   8   8   8   8   8   8
#     4   9  16  29  53  78  98 127 168 208 242 286
#     4   9  18  32  48  72 104 132 163 204 250 293
#     4   9  17  30  49  74 104 131 158 200 252 297
#     4  11  22  33  49  73 100 130 164 206 248 291
#     4   8  14  27  51  78 100 126 160 201 246 289
#     4  10  20  35  54  73  98 131 163 201 250 299
#     4   9  19  35  53  71  94 128 163 198 245 297
#     4   9  16  28  51  80 102 123 161 207 247 291
#
# _framework density 18.296576999999999
#
# number of rings (size 3 to 8) (size 9 to 14) (size 15 to 20)
#    0.000    2.750    0.000    3.750    0.000    6.000 
#    0.000    2.500    0.000   20.250    0.000    0.000 
#    0.000    0.000    0.000    0.000    0.000    0.000 
#
# Total GULP energy -356657.050486 kJ/mol
# GULP energy per Si atom -5572.766414 kJ/mol
# Density = 1.825493 g / cm^3
# Si number density = 18.296577 Si / 1000 Ang^3
#
#
#
# Elastic Constant Matrix: (Units=GPa)
#
#
# Indices 1 2 3 4 5 6 
#
# 1 71.3913 73.1664 19.8659 0.0000 0.0000 0.0000
# 2 73.1664 194.1874 30.3061 0.0000 0.0000 0.0000
# 3 19.8659 30.3061 19.3874 0.0000 0.0000 0.0000
# 4 0.0000 0.0000 0.0000 -11.4175 0.0000 0.0000
# 5 0.0000 0.0000 0.0000 0.0000 -5.8658 0.0000
# 6 0.0000 0.0000 0.0000 0.0000 0.0000 -3.4380
#
#
#
# Elastic Compliance Matrix: (Units=1/GPa)
#
#
# Indices 1 2 3 4 5 6 
#
# 1 0.025670 -0.007363 -0.014794 0.000000 0.000000 0.000000
# 2 -0.007363 0.008924 -0.006404 0.000000 0.000000 0.000000
# 3 -0.014794 -0.006404 0.076749 0.000000 0.000000 0.000000
# 4 0.000000 0.000000 0.000000 -0.087585 0.000000 0.000000
# 5 0.000000 0.000000 0.000000 0.000000 -0.170481 0.000000
# 6 0.000000 0.000000 0.000000 0.000000 0.000000 -0.290869
#
#
# Mechanical properties :
#
#
# Convention : Reuss Voigt Hill
#
# Bulk Modulus (GPa) = 18.44293 59.07144 38.75719
# Shear Modulus (GPa) = -13.79706 6.63093 -3.58307
#
# Velocity S-wave (km/s) = -2.74903 1.90578 -1.40092
# Velocity P-wave (km/s) = 0.16019 6.09904 4.31416
#
# Compressibility (1/GPa) = 0.05422131
#
# Stress axis : x y z
#
# Youngs Moduli (GPa) = 38.95556 112.06364 13.02942
#
# Poissons Ratio (x) = 0.82516 0.19275
# Poissons Ratio (y) = 0.28684 0.08344
# Poissons Ratio (z) = 0.57629 0.71766
#
# Static dielectric constant tensor:
#      x y z
#    x 1.604820 0.000000 0.000000 
#    y 0.000000 1.656780 0.000000 
#    z 0.000000 0.000000 1.626320 
# 
# From -- ./inp_files/7936.got.cif
#   From: 2010.05.17/outbox.cif.g08.bks.cpg/sg55_4_cif.got.tgz:7936.got - 2010.06.03 13:27:54.
