data_PCOD9426314
_publ_section_title
;
Structure prediction by ZEFSAII (Michael W. Deem and Ramdas Pophale) SiO2 
 PCOD9426314
Probable space group: P B A M
;
_chemical_formula_sum "Si O2"
_cell_formula_units_Z 32
_cell_length_a 11.063351
_cell_length_b 12.407788
_cell_length_c 11.231396
_cell_angle_alpha 90.000000
_cell_angle_beta 90.000000
_cell_angle_gamma 90.000000
_cell_volume 1541.752977
_symmetry_space_group_name_H-M "P B A M"
_symmetry_group_IT_number 55
_symmetry_cell_setting 'orthorhombic'
loop_
_space_group_symop_operation_xyz
x,y,z
-x,-y,z
1/2+x,1/2-y,-z
1/2-x,1/2+y,-z
-x,-y,-z
x,y,-z
1/2-x,1/2+y,z
1/2+x,1/2-y,z
loop_
_atom_site_type_symbol
_atom_site_label
_atom_site_fract_x
_atom_site_fract_y
_atom_site_fract_z
Si Si1 0.486440 0.723417 0.500000
Si Si2 0.950018 0.841968 0.242008
Si Si3 0.252812 0.367503 0.500000
Si Si4 0.805406 0.037074 0.236959
Si Si5 0.437413 0.893310 0.137337
O O1 0.453714 0.657252 0.616047
O O2 0.636334 0.723608 0.500000
O O3 0.385750 0.820642 0.500000
O O4 0.958367 0.719571 0.201132
O O5 0.070969 0.902585 0.204722
O O6 0.831779 0.911206 0.211618
O O7 0.272345 0.433499 0.624338
O O8 0.702620 0.081896 0.153011
O O9 0.500000 0.000000 0.190762
O O10 0.474394 0.883468 0.000000
#
# Coordination Sequence:
#
# PCOD9426314 Si02
#       5
#     4   8   4   8   8
#     4  10  19  35  66  95 132 169 207 260 320 387
#     4  10  22  42  66  94 128 170 211 260 326 395
#     4  10  19  37  64 101 132 170 214 260 323 396
#     4  10  22  41  67  93 129 170 211 261 324 392
#     4  11  26  43  63  92 126 166 220 277 318 369
#
# _framework density 20.755593999999999
#
# number of rings (size 3 to 8) (size 9 to 14) (size 15 to 20)
#    0.000    1.750    2.500    0.750    3.500    5.000 
#    0.000    5.000    0.000    0.000    0.000    0.000 
#    0.000    0.000    0.000    0.000    0.000    0.000 
#
# Total GULP energy -178212.202875 kJ/mol
# GULP energy per Si atom -5569.131340 kJ/mol
# Density = 2.070835 g / cm^3
# Si number density = 20.755594 Si / 1000 Ang^3
#
#
#
# Elastic Constant Matrix: (Units=GPa)
#
#
# Indices 1 2 3 4 5 6 
#
# 1 58.8424 37.2807 -0.2718 0.0000 0.0000 0.0000
# 2 37.2807 126.6232 11.6987 0.0000 0.0000 0.0000
# 3 -0.2718 11.6987 10.9652 0.0000 0.0000 0.0000
# 4 0.0000 0.0000 0.0000 14.2880 0.0000 0.0000
# 5 0.0000 0.0000 0.0000 0.0000 15.9169 0.0000
# 6 0.0000 0.0000 0.0000 0.0000 0.0000 27.1378
#
#
#
# Elastic Compliance Matrix: (Units=1/GPa)
#
#
# Indices 1 2 3 4 5 6 
#
# 1 0.021520 -0.007083 0.008091 0.000000 0.000000 0.000000
# 2 -0.007083 0.011093 -0.012010 0.000000 0.000000 0.000000
# 3 0.008091 -0.012010 0.104211 0.000000 0.000000 0.000000
# 4 0.000000 0.000000 0.000000 0.069989 0.000000 0.000000
# 5 0.000000 0.000000 0.000000 0.000000 0.062826 0.000000
# 6 0.000000 0.000000 0.000000 0.000000 0.000000 0.036849
#
#
# Mechanical properties :
#
#
# Convention : Reuss Voigt Hill
#
# Bulk Modulus (GPa) = 8.70945 32.64959 20.67952
# Shear Modulus (GPa) = 13.63264 21.31673 17.47469
#
# Velocity S-wave (km/s) = 2.56563 3.20822 2.90474
# Velocity P-wave (km/s) = 3.60304 5.43030 4.60815
#
# Compressibility (1/GPa) = 0.11481778
#
# Stress axis : x y z
#
# Youngs Moduli (GPa) = 46.46904 90.15048 9.59588
#
# Poissons Ratio (x) = 0.63857 -0.07764
# Poissons Ratio (y) = 0.32916 0.11525
# Poissons Ratio (z) = -0.37596 1.08272
#
# Static dielectric constant tensor:
#      x y z
#    x 1.786670 0.000000 0.000000 
#    y 0.000000 1.765140 0.000000 
#    z 0.000000 0.000000 1.734040 
# 
# From -- ./inp_files/12783.got.cif
#   From: 2010.05.17/outbox.cif.g08.bks.cpg/sg55_7_cif.got.tgz:12783.got - 2010.06.03 13:27:54.
