data_PCOD9426820
_publ_section_title
;
Structure prediction by ZEFSAII (Michael W. Deem and Ramdas Pophale) SiO2 
 PCOD9426820
Probable space group: P B A M
;
_chemical_formula_sum "Si O2"
_cell_formula_units_Z 40
_cell_length_a 17.779134
_cell_length_b 9.956930
_cell_length_c 13.175129
_cell_angle_alpha 90.000000
_cell_angle_beta 90.000000
_cell_angle_gamma 90.000000
_cell_volume 2332.335020
_symmetry_space_group_name_H-M "P B A M"
_symmetry_group_IT_number 55
_symmetry_cell_setting 'orthorhombic'
loop_
_space_group_symop_operation_xyz
x,y,z
-x,-y,z
1/2+x,1/2-y,-z
1/2-x,1/2+y,-z
-x,-y,-z
x,y,-z
1/2-x,1/2+y,z
1/2+x,1/2-y,z
loop_
_atom_site_type_symbol
_atom_site_label
_atom_site_fract_x
_atom_site_fract_y
_atom_site_fract_z
Si Si1 0.661497 0.192724 0.275417
Si Si2 0.928324 0.098385 0.117867
Si Si3 0.971445 0.651245 0.117576
Si Si4 0.338083 0.820139 0.500000
Si Si5 0.203685 0.019431 0.500000
Si Si6 0.805057 0.001506 0.723578
O O1 0.597912 0.177818 0.191301
O O2 0.624827 0.182510 0.388826
O O3 0.699170 0.340151 0.264859
O O4 0.726113 0.079678 0.266278
O O5 0.863506 0.056556 0.194642
O O6 0.960758 0.246088 0.138994
O O7 0.903547 0.090591 0.000000
O O8 0.000000 0.000000 0.129243
O O9 0.000000 0.500000 0.127828
O O10 0.949071 0.675029 0.000000
O O11 0.284203 0.948441 0.500000
O O12 0.290734 0.680714 0.500000
O O13 0.167168 0.977244 0.606842
#
# Coordination Sequence:
#
# PCOD9426820 Si02
#       6
#     8   8   8   4   4   8
#     4  10  20  35  56  81 107 137 177 218 257 311
#     4  10  20  37  56  74 104 142 173 211 265 315
#     4  10  22  39  56  75 106 143 176 216 267 316
#     4   8  16  32  52  74 106 139 167 209 263 307
#     4   8  16  32  50  75 106 137 169 210 261 309
#     4  10  20  34  56  81 106 138 177 217 259 310
#
# _framework density 17.150195
#
# number of rings (size 3 to 8) (size 9 to 14) (size 15 to 20)
#    0.000    2.400    2.000    0.000    2.800    0.800 
#    0.000    2.000    0.000    0.000    0.000    0.000 
#    0.000    0.000    0.000    0.000    0.000    0.000 
#
# Total GULP energy -222724.094452 kJ/mol
# GULP energy per Si atom -5568.102361 kJ/mol
# Density = 1.711116 g / cm^3
# Si number density = 17.150195 Si / 1000 Ang^3
#
#
#
# Elastic Constant Matrix: (Units=GPa)
#
#
# Indices 1 2 3 4 5 6 
#
# 1 38.1467 6.6837 46.3258 0.0000 0.0000 0.0000
# 2 6.6837 61.8959 23.2908 0.0000 0.0000 0.0000
# 3 46.3258 23.2908 98.2271 0.0000 0.0000 0.0000
# 4 0.0000 0.0000 0.0000 10.7834 0.0000 0.0000
# 5 0.0000 0.0000 0.0000 0.0000 -83.9950 0.0000
# 6 0.0000 0.0000 0.0000 0.0000 0.0000 18.0854
#
#
#
# Elastic Compliance Matrix: (Units=1/GPa)
#
#
# Indices 1 2 3 4 5 6 
#
# 1 0.062615 0.004777 -0.030663 0.000000 0.000000 0.000000
# 2 0.004777 0.018103 -0.006545 0.000000 0.000000 0.000000
# 3 -0.030663 -0.006545 0.026194 0.000000 0.000000 0.000000
# 4 0.000000 0.000000 0.000000 0.092735 0.000000 0.000000
# 5 0.000000 0.000000 0.000000 0.000000 -0.011905 0.000000
# 6 0.000000 0.000000 0.000000 0.000000 0.000000 0.055293
#
#
# Mechanical properties :
#
#
# Convention : Reuss Voigt Hill
#
# Bulk Modulus (GPa) = 23.78177 38.98559 31.38368
# Shear Modulus (GPa) = 15.53206 -2.89392 6.31907
#
# Velocity S-wave (km/s) = 3.01267 -1.30041 1.92160
# Velocity P-wave (km/s) = 5.09886 4.53061 4.82311
#
# Compressibility (1/GPa) = 0.04204901
#
# Stress axis : x y z
#
# Youngs Moduli (GPa) = 15.97051 55.23861 38.17690
#
# Poissons Ratio (x) = -0.26387 1.17063
# Poissons Ratio (y) = -0.07629 0.24988
# Poissons Ratio (z) = 0.48971 0.36156
#
# Static dielectric constant tensor:
#      x y z
#    x 1.522230 0.000000 0.000000 
#    y 0.000000 1.601640 0.000000 
#    z 0.000000 0.000000 1.616990 
# 
# From -- ./inp_files/11893.got.cif
#   From: 2010.05.17/outbox.cif.g08.bks.cpg/sg55_6_cif.got.tgz:11893.got - 2010.06.03 13:27:54.
