data_PCOD9426118
_publ_section_title
;
Structure prediction by ZEFSAII (Michael W. Deem and Ramdas Pophale) SiO2 
 PCOD9426118
Probable space group: P B A M
;
_chemical_formula_sum "Si O2"
_cell_formula_units_Z 64
_cell_length_a 30.430148
_cell_length_b 11.303398
_cell_length_c 9.854399
_cell_angle_alpha 90.000000
_cell_angle_beta 90.000000
_cell_angle_gamma 90.000000
_cell_volume 3389.559227
_symmetry_space_group_name_H-M "P B A M"
_symmetry_group_IT_number 55
_symmetry_cell_setting 'orthorhombic'
loop_
_space_group_symop_operation_xyz
x,y,z
-x,-y,z
1/2+x,1/2-y,-z
1/2-x,1/2+y,-z
-x,-y,-z
x,y,-z
1/2-x,1/2+y,z
1/2+x,1/2-y,z
loop_
_atom_site_type_symbol
_atom_site_label
_atom_site_fract_x
_atom_site_fract_y
_atom_site_fract_z
Si Si1 0.565569 0.454967 0.654560
Si Si2 0.151510 0.212981 0.651862
Si Si3 0.494294 0.760668 0.342993
Si Si4 0.428514 0.142773 0.155615
Si Si5 0.782315 0.107097 0.164602
Si Si6 0.409126 0.930843 0.652867
Si Si7 0.767679 0.846131 0.836066
Si Si8 0.617774 0.616692 0.844203
O O1 0.559718 0.497692 0.500000
O O2 0.608544 0.370013 0.655796
O O3 0.524767 0.369826 0.688899
O O4 0.579562 0.556249 0.757093
O O5 0.170962 0.200914 0.500000
O O6 0.132376 0.344633 0.667596
O O7 0.185598 0.180476 0.767273
O O8 0.509698 0.761142 0.500000
O O9 0.530422 0.806791 0.240048
O O10 0.452702 0.849484 0.337675
O O11 0.391623 0.244116 0.155408
O O12 0.411399 0.028508 0.232923
O O13 0.440845 0.118077 0.000000
O O14 0.762595 0.234299 0.207532
O O15 0.833106 0.094677 0.209652
O O16 0.757330 0.984030 0.201445
O O17 0.783234 0.111111 0.000000
O O18 0.408765 0.982076 0.500000
O O19 0.770343 0.842907 0.000000
O O20 0.615455 0.573413 0.000000
#
# Coordination Sequence:
#
# PCOD9426118 Si02
#       8
#     8   8   8   8   8   8   8   8
#     4   9  18  34  57  80 101 135 183 225 263 320
#     4   9  18  34  56  82 107 133 174 223 268 316
#     4   9  19  36  56  77 104 141 183 226 272 325
#     4  11  23  34  49  78 112 142 179 230 277 318
#     4   9  19  35  56  81 108 142 184 224 268 329
#     4   9  19  36  56  76 105 145 182 219 267 327
#     4  10  19  34  58  83 107 142 184 223 269 329
#     4  10  21  37  53  74 109 145 177 222 276 322
#
# _framework density 18.881509999999999
#
# number of rings (size 3 to 8) (size 9 to 14) (size 15 to 20)
#    0.000    2.500    1.250    2.250    0.000    5.500 
#    0.000    8.750    0.000    0.000    0.000    0.000 
#    0.000    0.000    0.000    0.000    0.000    0.000 
#
# Total GULP energy -356813.278180 kJ/mol
# GULP energy per Si atom -5575.207472 kJ/mol
# Density = 1.883853 g / cm^3
# Si number density = 18.881510 Si / 1000 Ang^3
#
#
#
# Elastic Constant Matrix: (Units=GPa)
#
#
# Indices 1 2 3 4 5 6 
#
# 1 24.6766 5.4403 8.9969 0.0000 0.0000 0.0000
# 2 5.4403 91.5779 39.5605 0.0000 0.0000 0.0000
# 3 8.9969 39.5605 56.4109 0.0000 0.0000 0.0000
# 4 0.0000 0.0000 0.0000 20.0653 0.0000 0.0000
# 5 0.0000 0.0000 0.0000 0.0000 18.5238 0.0000
# 6 0.0000 0.0000 0.0000 0.0000 0.0000 19.7923
#
#
#
# Elastic Compliance Matrix: (Units=1/GPa)
#
#
# Indices 1 2 3 4 5 6 
#
# 1 0.043048 0.000586 -0.007277 0.000000 0.000000 0.000000
# 2 0.000586 0.015674 -0.011085 0.000000 0.000000 0.000000
# 3 -0.007277 -0.011085 0.026662 0.000000 0.000000 0.000000
# 4 0.000000 0.000000 0.000000 0.049837 0.000000 0.000000
# 5 0.000000 0.000000 0.000000 0.000000 0.053985 0.000000
# 6 0.000000 0.000000 0.000000 0.000000 0.000000 0.050525
#
#
# Mechanical properties :
#
#
# Convention : Reuss Voigt Hill
#
# Bulk Modulus (GPa) = 20.06762 31.18454 25.62608
# Shear Modulus (GPa) = 17.12964 19.58746 18.35855
#
# Velocity S-wave (km/s) = 3.01527 3.22435 3.12156
# Velocity P-wave (km/s) = 4.77219 5.51486 5.15691
#
# Compressibility (1/GPa) = 0.04983152
#
# Stress axis : x y z
#
# Youngs Moduli (GPa) = 23.22988 63.80193 37.50716
#
# Poissons Ratio (x) = -0.03740 0.27293
# Poissons Ratio (y) = -0.01362 0.41577
# Poissons Ratio (z) = 0.16904 0.70726
#
# Static dielectric constant tensor:
#      x y z
#    x 1.650730 0.000000 0.000000 
#    y 0.000000 1.694220 0.000000 
#    z 0.000000 0.000000 1.629140 
# 
# From -- ./inp_files/10746.got.cif
#   From: 2010.05.17/outbox.cif.g08.bks.cpg/sg55_6_cif.got.tgz:10746.got - 2010.06.03 13:27:54.
