data_PCOD9426400
_publ_section_title
;
Structure prediction by ZEFSAII (Michael W. Deem and Ramdas Pophale) SiO2 
 PCOD9426400
Probable space group: P B A M
;
_chemical_formula_sum "Si O2"
_cell_formula_units_Z 64
_cell_length_a 11.207677
_cell_length_b 33.431062
_cell_length_c 9.031710
_cell_angle_alpha 90.000000
_cell_angle_beta 90.000000
_cell_angle_gamma 90.000000
_cell_volume 3384.042149
_symmetry_space_group_name_H-M "P B A M"
_symmetry_group_IT_number 55
_symmetry_cell_setting 'orthorhombic'
loop_
_space_group_symop_operation_xyz
x,y,z
-x,-y,z
1/2+x,1/2-y,-z
1/2-x,1/2+y,-z
-x,-y,-z
x,y,-z
1/2-x,1/2+y,z
1/2+x,1/2-y,z
loop_
_atom_site_type_symbol
_atom_site_label
_atom_site_fract_x
_atom_site_fract_y
_atom_site_fract_z
Si Si1 0.357014 0.340950 0.677305
Si Si2 0.767596 0.729586 0.170201
Si Si3 0.657282 0.103846 0.825397
Si Si4 0.631140 0.017812 0.321142
Si Si5 0.762144 0.310715 0.326128
Si Si6 0.895481 0.883016 0.320394
Si Si7 0.005472 0.676232 0.166613
Si Si8 0.881523 0.974827 0.319556
O O1 0.348737 0.338890 0.500000
O O2 0.329496 0.297401 0.744363
O O3 0.259290 0.371523 0.740954
O O4 0.483794 0.359735 0.719179
O O5 0.789314 0.772309 0.243260
O O6 0.888527 0.703769 0.173703
O O7 0.730593 0.734200 0.000000
O O8 0.642114 0.060802 0.754459
O O9 0.539109 0.130988 0.811332
O O10 0.685885 0.101654 0.000000
O O11 0.633953 0.021692 0.500000
O O12 0.500000 0.000000 0.282914
O O13 0.751513 0.993063 0.278644
O O14 0.738614 0.306899 0.500000
O O15 0.709833 0.353244 0.273778
O O16 0.901133 0.311050 0.288478
O O17 0.892176 0.885520 0.500000
O O18 0.890743 0.928738 0.267640
O O19 0.056105 0.680112 0.000000
O O20 0.884278 0.974987 0.500000
O O21 0.000000 0.000000 0.272568
#
# Coordination Sequence:
#
# PCOD9426400 Si02
#       8
#     8   8   8   8   8   8   8   8
#     4  10  19  36  62  89 113 145 194 242 285 339
#     4  10  22  40  59  82 115 154 194 235 288 350
#     4  10  21  38  59  83 116 155 193 234 293 352
#     4  10  21  34  57  89 115 148 199 248 291 348
#     4  11  23  36  57  86 117 150 190 244 294 340
#     4   9  20  35  55  87 120 147 184 238 296 346
#     4   9  21  40  58  79 110 152 194 233 283 348
#     4   9  17  33  57  84 117 153 186 233 299 358
#
# _framework density 18.912295
#
# number of rings (size 3 to 8) (size 9 to 14) (size 15 to 20)
#    0.000    2.250    0.000    3.000    3.500    5.250 
#    0.000    1.875    0.000    4.125    0.000    0.000 
#    0.000    0.000    0.000    0.000    0.000    0.000 
#
# Total GULP energy -356968.254340 kJ/mol
# GULP energy per Si atom -5577.628974 kJ/mol
# Density = 1.886925 g / cm^3
# Si number density = 18.912295 Si / 1000 Ang^3
#
#
#
# Elastic Constant Matrix: (Units=GPa)
#
#
# Indices 1 2 3 4 5 6 
#
# 1 74.3251 42.4899 21.8146 0.0000 0.0000 0.0000
# 2 42.4899 145.1106 33.9828 0.0000 0.0000 0.0000
# 3 21.8146 33.9828 46.4345 0.0000 0.0000 0.0000
# 4 0.0000 0.0000 0.0000 20.7757 0.0000 0.0000
# 5 0.0000 0.0000 0.0000 0.0000 17.3908 0.0000
# 6 0.0000 0.0000 0.0000 0.0000 0.0000 19.1921
#
#
#
# Elastic Compliance Matrix: (Units=1/GPa)
#
#
# Indices 1 2 3 4 5 6 
#
# 1 0.017175 -0.003789 -0.005296 0.000000 0.000000 0.000000
# 2 -0.003789 0.009152 -0.004918 0.000000 0.000000 0.000000
# 3 -0.005296 -0.004918 0.027623 0.000000 0.000000 0.000000
# 4 0.000000 0.000000 0.000000 0.048133 0.000000 0.000000
# 5 0.000000 0.000000 0.000000 0.000000 0.057502 0.000000
# 6 0.000000 0.000000 0.000000 0.000000 0.000000 0.052105
#
#
# Mechanical properties :
#
#
# Convention : Reuss Voigt Hill
#
# Bulk Modulus (GPa) = 38.54363 51.38275 44.96319
# Shear Modulus (GPa) = 20.13343 22.64393 21.38868
#
# Velocity S-wave (km/s) = 3.26631 3.46397 3.36659
# Velocity P-wave (km/s) = 5.88638 6.57471 6.24004
#
# Compressibility (1/GPa) = 0.02594462
#
# Stress axis : x y z
#
# Youngs Moduli (GPa) = 58.22540 109.26030 36.20170
#
# Poissons Ratio (x) = 0.41396 0.19172
# Poissons Ratio (y) = 0.22060 0.17805
# Poissons Ratio (z) = 0.30835 0.53737
#
# Static dielectric constant tensor:
#      x y z
#    x 1.669290 0.000000 0.000000 
#    y 0.000000 1.647870 0.000000 
#    z 0.000000 0.000000 1.567490 
# 
# From -- ./inp_files/4693.got.cif
#   From: 2010.05.17/outbox.cif.g08.bks.cpg/sg55_3_cif.got.tgz:4693.got - 2010.06.03 13:27:54.
