data_PCOD9426231
_publ_section_title
;
Structure prediction by ZEFSAII (Michael W. Deem and Ramdas Pophale) SiO2 
 PCOD9426231
Probable space group: P B A M
;
_chemical_formula_sum "Si O2"
_cell_formula_units_Z 64
_cell_length_a 14.386915
_cell_length_b 25.058555
_cell_length_c 8.262202
_cell_angle_alpha 90.000000
_cell_angle_beta 90.000000
_cell_angle_gamma 90.000000
_cell_volume 2978.650239
_symmetry_space_group_name_H-M "P B A M"
_symmetry_group_IT_number 55
_symmetry_cell_setting 'orthorhombic'
loop_
_space_group_symop_operation_xyz
x,y,z
-x,-y,z
1/2+x,1/2-y,-z
1/2-x,1/2+y,-z
-x,-y,-z
x,y,-z
1/2-x,1/2+y,z
1/2+x,1/2-y,z
loop_
_atom_site_type_symbol
_atom_site_label
_atom_site_fract_x
_atom_site_fract_y
_atom_site_fract_z
Si Si1 0.772984 0.267066 0.691116
Si Si2 0.927793 0.544512 0.305047
Si Si3 0.908186 0.835325 0.305167
Si Si4 0.218400 0.965112 0.188607
Si Si5 0.760489 0.149018 0.808757
Si Si6 0.542810 0.752931 0.184592
Si Si7 0.573996 0.457007 0.309936
Si Si8 0.062439 0.341353 0.317519
O O1 0.759166 0.258819 0.500000
O O2 0.686284 0.303252 0.749563
O O3 0.790519 0.209291 0.774371
O O4 0.876921 0.287536 0.725669
O O5 0.912407 0.542187 0.500000
O O6 0.828832 0.537290 0.219230
O O7 0.977080 0.601341 0.272872
O O8 0.000000 0.500000 0.255990
O O9 0.900775 0.837181 0.500000
O O10 0.999172 0.800505 0.261371
O O11 0.917969 0.896418 0.244116
O O12 0.181794 0.904758 0.228959
O O13 0.170544 0.011455 0.289951
O O14 0.199780 0.975207 0.000000
O O15 0.671288 0.146242 0.694244
O O16 0.737821 0.144353 0.000000
O O17 0.457373 0.794192 0.196263
O O18 0.567196 0.743046 0.000000
O O19 0.500000 0.500000 0.239065
O O20 0.550958 0.450850 0.500000
O O21 0.039628 0.324565 0.500000
#
# Coordination Sequence:
#
# PCOD9426231 Si02
#       8
#     8   8   8   8   8   8   8   8
#     4  11  23  39  63  89 121 163 205 254 310 374
#     4   9  19  36  60  88 118 158 206 255 304 362
#     4  10  23  44  66  93 127 164 213 264 313 375
#     4  10  22  38  58  87 123 160 200 253 310 373
#     4  10  20  36  58  87 120 152 197 251 309 366
#     4  12  25  39  60  90 126 164 204 256 316 380
#     4  10  23  43  66  92 122 164 214 263 312 370
#     4  10  19  35  58  84 117 157 200 246 303 365
#
# _framework density 21.486242000000001
#
# number of rings (size 3 to 8) (size 9 to 14) (size 15 to 20)
#    0.000    1.750    1.250    2.625    1.750    4.500 
#    0.000    5.000    0.000    0.000    0.000    0.000 
#    0.000    0.000    0.000    0.000    0.000    0.000 
#
# Total GULP energy -356500.119816 kJ/mol
# GULP energy per Si atom -5570.314372 kJ/mol
# Density = 2.143734 g / cm^3
# Si number density = 21.486242 Si / 1000 Ang^3
#
#
#
# Elastic Constant Matrix: (Units=GPa)
#
#
# Indices 1 2 3 4 5 6 
#
# 1 66.1080 37.0407 6.4687 0.0000 0.0000 0.0000
# 2 37.0407 123.6299 28.3655 0.0000 0.0000 0.0000
# 3 6.4687 28.3655 31.2663 0.0000 0.0000 0.0000
# 4 0.0000 0.0000 0.0000 5.3401 0.0000 0.0000
# 5 0.0000 0.0000 0.0000 0.0000 20.3560 0.0000
# 6 0.0000 0.0000 0.0000 0.0000 0.0000 28.0067
#
#
#
# Elastic Compliance Matrix: (Units=1/GPa)
#
#
# Indices 1 2 3 4 5 6 
#
# 1 0.018234 -0.005806 0.001495 0.000000 0.000000 0.000000
# 2 -0.005806 0.012064 -0.009743 0.000000 0.000000 0.000000
# 3 0.001495 -0.009743 0.040513 0.000000 0.000000 0.000000
# 4 0.000000 0.000000 0.000000 0.187262 0.000000 0.000000
# 5 0.000000 0.000000 0.000000 0.000000 0.049126 0.000000
# 6 0.000000 0.000000 0.000000 0.000000 0.000000 0.035706
#
#
# Mechanical properties :
#
#
# Convention : Reuss Voigt Hill
#
# Bulk Modulus (GPa) = 23.41810 40.52823 31.97316
# Shear Modulus (GPa) = 12.97869 20.68251 16.83060
#
# Velocity S-wave (km/s) = 2.46040 3.10593 2.80182
# Velocity P-wave (km/s) = 4.35824 5.63612 5.03786
#
# Compressibility (1/GPa) = 0.04270202
#
# Stress axis : x y z
#
# Youngs Moduli (GPa) = 54.84384 82.89367 24.68329
#
# Poissons Ratio (x) = 0.48128 -0.03690
# Poissons Ratio (y) = 0.31842 0.24049
# Poissons Ratio (z) = -0.08199 0.80765
#
# Static dielectric constant tensor:
#      x y z
#    x 1.976940 0.000000 0.000000 
#    y 0.000000 1.976840 0.000000 
#    z 0.000000 0.000000 1.734830 
# 
# From -- ./inp_files/6633.got.cif
#   From: 2010.05.17/outbox.cif.g08.bks.cpg/sg55_4_cif.got.tgz:6633.got - 2010.06.03 13:27:54.
