data_PCOD9426892
_publ_section_title
;
Structure prediction by ZEFSAII (Michael W. Deem and Ramdas Pophale) SiO2 
 PCOD9426892
Probable space group: P B A M
;
_chemical_formula_sum "Si O2"
_cell_formula_units_Z 56
_cell_length_a 16.328288
_cell_length_b 14.436196
_cell_length_c 12.658577
_cell_angle_alpha 90.000000
_cell_angle_beta 90.000000
_cell_angle_gamma 90.000000
_cell_volume 2983.859085
_symmetry_space_group_name_H-M "P B A M"
_symmetry_group_IT_number 55
_symmetry_cell_setting 'orthorhombic'
loop_
_space_group_symop_operation_xyz
x,y,z
-x,-y,z
1/2+x,1/2-y,-z
1/2-x,1/2+y,-z
-x,-y,-z
x,y,-z
1/2-x,1/2+y,z
1/2+x,1/2-y,z
loop_
_atom_site_type_symbol
_atom_site_label
_atom_site_fract_x
_atom_site_fract_y
_atom_site_fract_z
Si Si1 0.199817 0.272028 0.878330
Si Si2 0.117168 0.440667 0.619783
Si Si3 0.289391 0.406667 0.281712
Si Si4 0.425879 0.063624 0.815981
Si Si5 0.468673 0.394860 0.625501
Si Si6 0.534682 0.219515 0.252253
Si Si7 0.743163 0.443037 0.115383
O O1 0.259958 0.328862 0.801778
O O2 0.108451 0.280370 0.831835
O O3 0.222511 0.164465 0.874758
O O4 0.203886 0.304085 0.000000
O O5 0.100914 0.464757 0.500000
O O6 0.213004 0.419561 0.639253
O O7 0.093167 0.522048 0.699931
O O8 0.066574 0.350781 0.657068
O O9 0.373476 0.388348 0.341254
O O10 0.295262 0.498761 0.210079
O O11 0.457523 0.168099 0.802187
O O12 0.341634 0.049666 0.876908
O O13 0.500000 0.000000 0.858719
O O14 0.500000 0.500000 0.644493
O O15 0.478691 0.375883 0.500000
O O16 0.515036 0.318277 0.696469
O O17 0.715348 0.476083 0.000000
#
# Coordination Sequence:
#
# PCOD9426892 Si02
#       7
#     8   8   8   8   8   8   8
#     4  10  21  37  57  79 105 140 179 220 266 317
#     4   9  18  33  54  79 105 134 170 213 265 321
#     4  10  20  36  56  77 105 140 179 219 262 315
#     4   9  19  32  51  80 106 130 163 212 269 320
#     4  11  23  37  54  77 108 146 184 222 263 308
#     4  10  20  35  54  78 108 138 173 219 267 315
#     4  10  20  35  54  75 102 136 173 214 261 313
#
# _framework density 18.767641999999999
#
# number of rings (size 3 to 8) (size 9 to 14) (size 15 to 20)
#    0.000    2.143    0.000    3.857    0.000    4.000 
#    0.000    1.429    0.000   13.286    0.000    0.000 
#    0.000    0.000    0.000    0.000    0.000    0.000 
#
# Total GULP energy -312560.988970 kJ/mol
# GULP energy per Si atom -5581.446232 kJ/mol
# Density = 1.872493 g / cm^3
# Si number density = 18.767642 Si / 1000 Ang^3
#
#
#
# Elastic Constant Matrix: (Units=GPa)
#
#
# Indices 1 2 3 4 5 6 
#
# 1 45.5658 -3.7711 -6.0484 0.0000 0.0000 0.0000
# 2 -3.7711 74.5990 13.0654 0.0000 0.0000 0.0000
# 3 -6.0484 13.0654 56.6703 0.0000 0.0000 0.0000
# 4 0.0000 0.0000 0.0000 -11.9063 0.0000 0.0000
# 5 0.0000 0.0000 0.0000 0.0000 9.8379 0.0000
# 6 0.0000 0.0000 0.0000 0.0000 0.0000 23.1405
#
#
#
# Elastic Compliance Matrix: (Units=1/GPa)
#
#
# Indices 1 2 3 4 5 6 
#
# 1 0.022301 0.000740 0.002209 0.000000 0.000000 0.000000
# 2 0.000740 0.013994 -0.003147 0.000000 0.000000 0.000000
# 3 0.002209 -0.003147 0.018607 0.000000 0.000000 0.000000
# 4 0.000000 0.000000 0.000000 -0.083989 0.000000 0.000000
# 5 0.000000 0.000000 0.000000 0.000000 0.101648 0.000000
# 6 0.000000 0.000000 0.000000 0.000000 0.000000 0.043214
#
#
# Mechanical properties :
#
#
# Convention : Reuss Voigt Hill
#
# Bulk Modulus (GPa) = 18.34625 20.36965 19.35795
# Shear Modulus (GPa) = 37.21939 15.78703 26.50321
#
# Velocity S-wave (km/s) = 4.45811 2.90346 3.76197
# Velocity P-wave (km/s) = 6.02464 4.70290 5.40433
#
# Compressibility (1/GPa) = 0.05450704
#
# Stress axis : x y z
#
# Youngs Moduli (GPa) = 44.84137 71.46102 53.74226
#
# Poissons Ratio (x) = -0.05291 -0.11874
# Poissons Ratio (y) = -0.03320 0.16914
# Poissons Ratio (z) = -0.09907 0.22490
#
# Static dielectric constant tensor:
#      x y z
#    x 1.651420 0.000000 0.000000 
#    y 0.000000 1.647480 0.000000 
#    z 0.000000 0.000000 1.627140 
# 
# From -- ./inp_files/14217.got.cif
#   From: 2010.05.17/outbox.cif.g08.bks.cpg/sg55_8_cif.got.tgz:14217.got - 2010.06.03 13:27:54.
