data_PCOD9426874
_publ_section_title
;
Structure prediction by ZEFSAII (Michael W. Deem and Ramdas Pophale) SiO2 
 PCOD9426874
Probable space group: P B A M
;
_chemical_formula_sum "Si O2"
_cell_formula_units_Z 48
_cell_length_a 28.417959
_cell_length_b 7.787228
_cell_length_c 8.873367
_cell_angle_alpha 90.000000
_cell_angle_beta 90.000000
_cell_angle_gamma 90.000000
_cell_volume 1963.650615
_symmetry_space_group_name_H-M "P B A M"
_symmetry_group_IT_number 55
_symmetry_cell_setting 'orthorhombic'
loop_
_space_group_symop_operation_xyz
x,y,z
-x,-y,z
1/2+x,1/2-y,-z
1/2-x,1/2+y,-z
-x,-y,-z
x,y,-z
1/2-x,1/2+y,z
1/2+x,1/2-y,z
loop_
_atom_site_type_symbol
_atom_site_label
_atom_site_fract_x
_atom_site_fract_y
_atom_site_fract_z
Si Si1 0.512799 0.776188 0.321885
Si Si2 0.737471 0.842022 0.821084
Si Si3 0.927182 0.922643 0.325496
Si Si4 0.152426 0.889959 0.169672
Si Si5 0.905032 0.473567 0.174076
Si Si6 0.180810 0.348458 0.321960
O O1 0.508262 0.813644 0.500000
O O2 0.543346 0.600495 0.313502
O O3 0.462162 0.719242 0.254557
O O4 0.545156 0.919509 0.245438
O O5 0.705485 0.669985 0.800838
O O6 0.711212 0.980737 0.718439
O O7 0.789774 0.794150 0.769663
O O8 0.734694 0.886766 0.000000
O O9 0.923460 0.877642 0.500000
O O10 0.876085 0.976953 0.269827
O O11 0.124191 0.707569 0.175338
O O12 0.149206 0.955293 0.000000
O O13 0.871597 0.604258 0.265169
O O14 0.909195 0.526147 0.000000
O O15 0.181507 0.315984 0.500000
#
# Coordination Sequence:
#
# PCOD9426874 Si02
#       6
#     8   8   8   8   8   8
#     4   8  13  21  32  50  76 108 143 179 218 265
#     4  10  20  35  51  69  95 127 159 195 238 284
#     4   8  13  20  32  50  76 108 141 177 220 265
#     4   8  15  25  38  56  80 111 147 182 221 269
#     4   9  16  26  39  57  82 115 149 184 227 274
#     4  11  21  33  50  72  95 123 159 199 238 281
#
# _framework density 24.444268999999998
#
# number of rings (size 3 to 8) (size 9 to 14) (size 15 to 20)
#    0.000    3.000    0.000    4.500    0.000    5.333 
#    0.000    3.333    0.000    0.000    0.000    0.000 
#    0.000    1.333    0.000   14.000    0.000   18.667 
#
# Total GULP energy -268432.572805 kJ/mol
# GULP energy per Si atom -5592.345267 kJ/mol
# Density = 2.438863 g / cm^3
# Si number density = 24.444269 Si / 1000 Ang^3
#
#
#
# Elastic Constant Matrix: (Units=GPa)
#
#
# Indices 1 2 3 4 5 6 
#
# 1 180.2453 3.7873 27.9858 0.0000 0.0000 0.0000
# 2 3.7873 85.2872 2.6683 0.0000 0.0000 0.0000
# 3 27.9858 2.6683 71.0002 0.0000 0.0000 0.0000
# 4 0.0000 0.0000 0.0000 13.9305 0.0000 0.0000
# 5 0.0000 0.0000 0.0000 0.0000 30.8308 0.0000
# 6 0.0000 0.0000 0.0000 0.0000 0.0000 53.1447
#
#
#
# Elastic Compliance Matrix: (Units=1/GPa)
#
#
# Indices 1 2 3 4 5 6 
#
# 1 0.005913 -0.000190 -0.002323 0.000000 0.000000 0.000000
# 2 -0.000190 0.011745 -0.000367 0.000000 0.000000 0.000000
# 3 -0.002323 -0.000367 0.015014 0.000000 0.000000 0.000000
# 4 0.000000 0.000000 0.000000 0.071785 0.000000 0.000000
# 5 0.000000 0.000000 0.000000 0.000000 0.032435 0.000000
# 6 0.000000 0.000000 0.000000 0.000000 0.000000 0.018817
#
#
# Mechanical properties :
#
#
# Convention : Reuss Voigt Hill
#
# Bulk Modulus (GPa) = 37.15812 45.04617 41.10214
# Shear Modulus (GPa) = 29.33606 39.72063 34.52835
#
# Velocity S-wave (km/s) = 3.46803 4.03544 3.76245
# Velocity P-wave (km/s) = 5.59200 6.33886 5.97711
#
# Compressibility (1/GPa) = 0.02691202
#
# Stress axis : x y z
#
# Youngs Moduli (GPa) = 169.12641 85.14267 66.60422
#
# Poissons Ratio (x) = 0.01617 0.15475
# Poissons Ratio (y) = 0.03211 0.02441
# Poissons Ratio (z) = 0.39296 0.03121
#
# Static dielectric constant tensor:
#      x y z
#    x 2.022880 0.000000 0.000000 
#    y 0.000000 2.019660 0.000000 
#    z 0.000000 0.000000 1.817930 
# 
# From -- ./inp_files/4371.got.cif
#   From: 2010.05.17/outbox.cif.g08.bks.cpg/sg55_3_cif.got.tgz:4371.got - 2010.06.03 13:27:54.
