data_PCOD9426398
_publ_section_title
;
Structure prediction by ZEFSAII (Michael W. Deem and Ramdas Pophale) SiO2 
 PCOD9426398
Probable space group: P B A M
;
_chemical_formula_sum "Si O2"
_cell_formula_units_Z 52
_cell_length_a 10.861323
_cell_length_b 24.229416
_cell_length_c 7.697894
_cell_angle_alpha 90.000000
_cell_angle_beta 90.000000
_cell_angle_gamma 90.000000
_cell_volume 2025.804830
_symmetry_space_group_name_H-M "P B A M"
_symmetry_group_IT_number 55
_symmetry_cell_setting 'orthorhombic'
loop_
_space_group_symop_operation_xyz
x,y,z
-x,-y,z
1/2+x,1/2-y,-z
1/2-x,1/2+y,-z
-x,-y,-z
x,y,-z
1/2-x,1/2+y,z
1/2+x,1/2-y,z
loop_
_atom_site_type_symbol
_atom_site_label
_atom_site_fract_x
_atom_site_fract_y
_atom_site_fract_z
Si Si1 0.257771 0.860705 0.302417
Si Si2 0.241465 0.566939 0.711260
Si Si3 0.116107 0.962818 0.711919
Si Si4 0.633043 0.803072 0.500000
Si Si5 0.619903 0.332235 0.308000
Si Si6 0.550683 0.219697 0.814174
Si Si7 0.474700 0.938775 0.797674
O O1 0.229851 0.843642 0.500000
O O2 0.148704 0.900466 0.231739
O O3 0.313300 0.808119 0.205185
O O4 0.374351 0.902887 0.300052
O O5 0.234727 0.571181 0.500000
O O6 0.272258 0.504298 0.759441
O O7 0.352708 0.607138 0.763635
O O8 0.111514 0.585966 0.783239
O O9 0.110728 0.959923 0.500000
O O10 0.000000 0.000000 0.766997
O O11 0.743579 0.809813 0.646659
O O12 0.528323 0.797694 0.650726
O O13 0.558416 0.337246 0.500000
O O14 0.556259 0.285881 0.196861
O O15 0.501616 0.201219 0.000000
O O16 0.500000 0.000000 0.724721
O O17 0.439328 0.942301 0.000000
#
# Coordination Sequence:
#
# PCOD9426398 Si02
#       7
#     8   8   8   4   8   8   8
#     4  11  21  37  62  91 128 165 211 266 326 385
#     4  10  19  36  62  88 117 159 205 257 314 381
#     4   9  19  36  57  89 121 164 216 257 308 380
#     4  10  20  44  66  95 132 169 212 268 334 380
#     4   9  21  40  62  90 127 163 212 268 321 384
#     4  12  24  42  67  96 131 171 218 268 324 392
#     4  11  22  34  55  91 129 160 200 260 321 381
#
# _framework density 25.668810000000001
#
# number of rings (size 3 to 8) (size 9 to 14) (size 15 to 20)
#    0.462    1.231    3.077    1.846    0.000    1.846 
#    2.769    0.000    0.000    4.154    0.000    0.000 
#    0.000    0.000    0.000    0.000    0.000    0.000 
#
# Total GULP energy -289581.527455 kJ/mol
# GULP energy per Si atom -5568.875528 kJ/mol
# Density = 2.561039 g / cm^3
# Si number density = 25.668810 Si / 1000 Ang^3
#
#
#
# Elastic Constant Matrix: (Units=GPa)
#
#
# Indices 1 2 3 4 5 6 
#
# 1 76.2408 -18.1169 11.3565 0.0000 0.0000 0.0000
# 2 -18.1169 94.5386 5.5298 0.0000 0.0000 0.0000
# 3 11.3565 5.5298 108.8837 0.0000 0.0000 0.0000
# 4 0.0000 0.0000 0.0000 -9.1094 0.0000 0.0000
# 5 0.0000 0.0000 0.0000 0.0000 -29.9294 0.0000
# 6 0.0000 0.0000 0.0000 0.0000 0.0000 12.5236
#
#
#
# Elastic Compliance Matrix: (Units=1/GPa)
#
#
# Indices 1 2 3 4 5 6 
#
# 1 0.014016 0.002780 -0.001603 0.000000 0.000000 0.000000
# 2 0.002780 0.011160 -0.000857 0.000000 0.000000 0.000000
# 3 -0.001603 -0.000857 0.009395 0.000000 0.000000 0.000000
# 4 0.000000 0.000000 0.000000 -0.109777 0.000000 0.000000
# 5 0.000000 0.000000 0.000000 0.000000 -0.033412 0.000000
# 6 0.000000 0.000000 0.000000 0.000000 0.000000 0.079849
#
#
# Mechanical properties :
#
#
# Convention : Reuss Voigt Hill
#
# Bulk Modulus (GPa) = 28.40035 30.80020 29.60027
# Shear Modulus (GPa) = -282.94078 13.42321 -134.75879
#
# Velocity S-wave (km/s) = -10.51032 2.28927 -7.25348
# Velocity P-wave (km/s) = 11.67051 4.36036 7.65467
#
# Compressibility (1/GPa) = 0.03521083
#
# Stress axis : x y z
#
# Youngs Moduli (GPa) = 71.34886 89.60184 106.44175
#
# Poissons Ratio (x) = -0.24906 0.17062
# Poissons Ratio (y) = -0.19833 0.09119
# Poissons Ratio (z) = 0.11437 0.07676
#
# Static dielectric constant tensor:
#      x y z
#    x 2.061530 0.000000 0.000000 
#    y 0.000000 2.122420 0.000000 
#    z 0.000000 0.000000 1.971180 
# 
# From -- ./inp_files/4253.got.cif
#   From: 2010.05.17/outbox.cif.g08.bks.cpg/sg55_3_cif.got.tgz:4253.got - 2010.06.03 13:27:54.
