data_PCOD9426002
_publ_section_title
;
Structure prediction by ZEFSAII (Michael W. Deem and Ramdas Pophale) SiO2 
 PCOD9426002
Probable space group: P B A M
;
_chemical_formula_sum "Si O2"
_cell_formula_units_Z 36
_cell_length_a 16.296566
_cell_length_b 7.242395
_cell_length_c 14.071481
_cell_angle_alpha 90.000000
_cell_angle_beta 90.000000
_cell_angle_gamma 90.000000
_cell_volume 1660.802982
_symmetry_space_group_name_H-M "P B A M"
_symmetry_group_IT_number 55
_symmetry_cell_setting 'orthorhombic'
loop_
_space_group_symop_operation_xyz
x,y,z
-x,-y,z
1/2+x,1/2-y,-z
1/2-x,1/2+y,-z
-x,-y,-z
x,y,-z
1/2-x,1/2+y,z
1/2+x,1/2-y,z
loop_
_atom_site_type_symbol
_atom_site_label
_atom_site_fract_x
_atom_site_fract_y
_atom_site_fract_z
Si Si1 0.667243 0.883891 0.295992
Si Si2 0.096400 0.000195 0.500000
Si Si3 0.402359 0.061531 0.500000
Si Si4 0.920219 0.373890 0.102509
Si Si5 0.856650 0.947669 0.300345
Si Si6 0.500000 0.500000 0.167634
O O1 0.638330 0.982191 0.395028
O O2 0.627176 0.942642 0.196251
O O3 0.641325 0.670298 0.302109
O O4 0.764658 0.889148 0.279371
O O5 0.114937 0.782975 0.500000
O O6 0.126964 0.104834 0.408242
O O7 0.000000 0.000000 0.500000
O O8 0.500000 0.000000 0.500000
O O9 0.000000 0.500000 0.098233
O O10 0.876034 0.390828 0.000000
O O11 0.950849 0.160963 0.113509
O O12 0.931883 0.896311 0.232748
#
# Coordination Sequence:
#
# PCOD9426002 Si02
#       6
#     8   4   4   8   8   4
#     4  10  22  37  57  89 121 151 205 246 307 360
#     4  10  19  34  54  84 118 158 202 233 297 364
#     4  10  21  36  56  87 119 158 200 248 299 368
#     4  10  22  41  64  89 119 157 203 251 303 365
#     4  10  21  36  58  86 120 159 196 253 301 365
#     4  10  21  39  64  88 118 161 202 246 311 362
#
# _framework density 21.676259999999999
#
# number of rings (size 3 to 8) (size 9 to 14) (size 15 to 20)
#    0.000    2.000    1.111    1.667    3.111    1.778 
#    0.000    5.556    0.000    0.000    0.000    0.000 
#    0.000    0.000    0.000    0.000    0.000    0.000 
#
# Total GULP energy -200576.293730 kJ/mol
# GULP energy per Si atom -5571.563715 kJ/mol
# Density = 2.162692 g / cm^3
# Si number density = 21.676260 Si / 1000 Ang^3
#
#
#
# Elastic Constant Matrix: (Units=GPa)
#
#
# Indices 1 2 3 4 5 6 
#
# 1 110.9159 -20.2149 69.9553 0.0000 0.0000 0.0000
# 2 -20.2149 56.0817 3.2856 0.0000 0.0000 0.0000
# 3 69.9553 3.2856 188.5434 0.0000 0.0000 0.0000
# 4 0.0000 0.0000 0.0000 -3.7747 0.0000 0.0000
# 5 0.0000 0.0000 0.0000 0.0000 24.8443 0.0000
# 6 0.0000 0.0000 0.0000 0.0000 0.0000 25.6157
#
#
#
# Elastic Compliance Matrix: (Units=1/GPa)
#
#
# Indices 1 2 3 4 5 6 
#
# 1 0.013028 0.004984 -0.004920 0.000000 0.000000 0.000000
# 2 0.004984 0.019756 -0.002194 0.000000 0.000000 0.000000
# 3 -0.004920 -0.002194 0.007168 0.000000 0.000000 0.000000
# 4 0.000000 0.000000 0.000000 -0.264925 0.000000 0.000000
# 5 0.000000 0.000000 0.000000 0.000000 0.040251 0.000000
# 6 0.000000 0.000000 0.000000 0.000000 0.000000 0.039039
#
#
# Mechanical properties :
#
#
# Convention : Reuss Voigt Hill
#
# Bulk Modulus (GPa) = 28.01770 51.28811 39.65290
# Shear Modulus (GPa) = -38.60200 29.50473 -4.54864
#
# Velocity S-wave (km/s) = -4.22458 3.69338 -1.45017
# Velocity P-wave (km/s) = 3.29280 6.47306 3.94068
#
# Compressibility (1/GPa) = 0.03569173
#
# Stress axis : x y z
#
# Youngs Moduli (GPa) = 76.76012 50.61698 139.51490
#
# Poissons Ratio (x) = -0.25228 0.68648
# Poissons Ratio (y) = -0.38258 0.30603
# Poissons Ratio (z) = 0.37770 0.11103
#
# Static dielectric constant tensor:
#      x y z
#    x 1.750390 0.000000 0.000000 
#    y 0.000000 1.829710 0.000000 
#    z 0.000000 0.000000 1.877430 
# 
# From -- ./inp_files/17013.got.cif
#   From: 2010.05.17/outbox.cif.g08.bks.cpg/sg55_9_cif.got.tgz:17013.got - 2010.06.03 13:27:54.
