data_PCOD9426786
_publ_section_title
;
Structure prediction by ZEFSAII (Michael W. Deem and Ramdas Pophale) SiO2 
 PCOD9426786
Probable space group: P B A M
;
_chemical_formula_sum "Si O2"
_cell_formula_units_Z 56
_cell_length_a 21.425083
_cell_length_b 14.837736
_cell_length_c 8.652969
_cell_angle_alpha 90.000000
_cell_angle_beta 90.000000
_cell_angle_gamma 90.000000
_cell_volume 2750.776468
_symmetry_space_group_name_H-M "P B A M"
_symmetry_group_IT_number 55
_symmetry_cell_setting 'orthorhombic'
loop_
_space_group_symop_operation_xyz
x,y,z
-x,-y,z
1/2+x,1/2-y,-z
1/2-x,1/2+y,-z
-x,-y,-z
x,y,-z
1/2-x,1/2+y,z
1/2+x,1/2-y,z
loop_
_atom_site_type_symbol
_atom_site_label
_atom_site_fract_x
_atom_site_fract_y
_atom_site_fract_z
Si Si1 0.970134 0.226612 0.679930
Si Si2 0.604605 0.233356 0.314891
Si Si3 0.231802 0.000114 0.678855
Si Si4 0.454716 0.083833 0.821505
Si Si5 0.852181 0.557318 0.822675
Si Si6 0.264281 0.696946 0.184752
Si Si7 0.342758 0.341195 0.183739
O O1 0.963142 0.204126 0.500000
O O2 0.961735 0.333648 0.707533
O O3 0.913557 0.182138 0.771928
O O4 0.042401 0.210005 0.726612
O O5 0.603175 0.220557 0.500000
O O6 0.602355 0.137767 0.226980
O O7 0.670652 0.273750 0.263217
O O8 0.222711 0.021082 0.500000
O O9 0.242664 0.092431 0.770997
O O10 0.294283 0.942451 0.708445
O O11 0.177664 0.935487 0.741042
O O12 0.500000 0.000000 0.790422
O O13 0.386928 0.037929 0.813909
O O14 0.465171 0.113776 0.000000
O O15 0.831709 0.571874 0.000000
O O16 0.205928 0.761141 0.232925
O O17 0.270085 0.705609 0.000000
O O18 0.337014 0.348511 0.000000
#
# Coordination Sequence:
#
# PCOD9426786 Si02
#       7
#     8   8   8   8   8   8   8
#     4  11  24  39  59  90 129 167 208 261 322 379
#     4  11  23  39  61  91 126 165 208 257 315 375
#     4  12  25  41  65  94 128 163 207 266 322 378
#     4  10  20  34  54  83 120 163 207 249 302 371
#     4  11  21  36  59  87 122 163 208 255 308 374
#     4  11  24  43  68  95 126 167 216 265 315 379
#     4  11  24  43  67  94 127 168 215 263 315 379
#
# _framework density 20.357887999999999
#
# number of rings (size 3 to 8) (size 9 to 14) (size 15 to 20)
#    0.000    1.000    2.857    4.286    0.000    8.286 
#    0.000    0.714    0.000    4.286    0.000    0.000 
#    0.000    0.000    0.000    0.000    0.000    0.000 
#
# Total GULP energy -312885.765188 kJ/mol
# GULP energy per Si atom -5587.245807 kJ/mol
# Density = 2.031155 g / cm^3
# Si number density = 20.357888 Si / 1000 Ang^3
#
#
#
# Elastic Constant Matrix: (Units=GPa)
#
#
# Indices 1 2 3 4 5 6 
#
# 1 85.0797 2.8115 10.7023 0.0000 0.0000 0.0000
# 2 2.8115 40.2744 -0.2500 0.0000 0.0000 0.0000
# 3 10.7023 -0.2500 45.2544 0.0000 0.0000 0.0000
# 4 0.0000 0.0000 0.0000 19.2819 0.0000 0.0000
# 5 0.0000 0.0000 0.0000 0.0000 29.7307 0.0000
# 6 0.0000 0.0000 0.0000 0.0000 0.0000 26.3226
#
#
#
# Elastic Compliance Matrix: (Units=1/GPa)
#
#
# Indices 1 2 3 4 5 6 
#
# 1 0.012144 -0.000866 -0.002877 0.000000 0.000000 0.000000
# 2 -0.000866 0.024892 0.000342 0.000000 0.000000 0.000000
# 3 -0.002877 0.000342 0.022780 0.000000 0.000000 0.000000
# 4 0.000000 0.000000 0.000000 0.051862 0.000000 0.000000
# 5 0.000000 0.000000 0.000000 0.000000 0.033635 0.000000
# 6 0.000000 0.000000 0.000000 0.000000 0.000000 0.037990
#
#
# Mechanical properties :
#
#
# Convention : Reuss Voigt Hill
#
# Bulk Modulus (GPa) = 18.86239 21.90400 20.38320
# Shear Modulus (GPa) = 24.06443 25.55669 24.81056
#
# Velocity S-wave (km/s) = 3.44185 3.54696 3.49480
# Velocity P-wave (km/s) = 5.00806 5.24952 5.13021
#
# Compressibility (1/GPa) = 0.05301555
#
# Stress axis : x y z
#
# Youngs Moduli (GPa) = 82.34405 40.17324 43.89911
#
# Poissons Ratio (x) = 0.03477 0.12629
# Poissons Ratio (y) = 0.07128 -0.01502
# Poissons Ratio (z) = 0.23689 -0.01375
#
# Static dielectric constant tensor:
#      x y z
#    x 1.791310 0.000000 0.000000 
#    y 0.000000 1.727880 0.000000 
#    z 0.000000 0.000000 1.684090 
# 
# From -- ./inp_files/8801.got.cif
#   From: 2010.05.17/outbox.cif.g08.bks.cpg/sg55_5_cif.got.tgz:8801.got - 2010.06.03 13:27:54.
