data_PCOD9426424
_publ_section_title
;
Structure prediction by ZEFSAII (Michael W. Deem and Ramdas Pophale) SiO2 
 PCOD9426424
Probable space group: P B A M
;
_chemical_formula_sum "Si O2"
_cell_formula_units_Z 56
_cell_length_a 10.860628
_cell_length_b 19.046993
_cell_length_c 13.717198
_cell_angle_alpha 90.000000
_cell_angle_beta 90.000000
_cell_angle_gamma 90.000000
_cell_volume 2837.571203
_symmetry_space_group_name_H-M "P B A M"
_symmetry_group_IT_number 55
_symmetry_cell_setting 'orthorhombic'
loop_
_space_group_symop_operation_xyz
x,y,z
-x,-y,z
1/2+x,1/2-y,-z
1/2-x,1/2+y,-z
-x,-y,-z
x,y,-z
1/2-x,1/2+y,z
1/2+x,1/2-y,z
loop_
_atom_site_type_symbol
_atom_site_label
_atom_site_fract_x
_atom_site_fract_y
_atom_site_fract_z
Si Si1 0.389117 0.555741 0.394211
Si Si2 0.853847 0.785367 0.781959
Si Si3 0.572024 0.644543 0.275532
Si Si4 0.270524 0.972963 0.744691
Si Si5 0.845261 0.276850 0.384020
Si Si6 0.462511 0.856135 0.753598
Si Si7 0.813652 0.397231 0.885168
O O1 0.500000 0.500000 0.404515
O O2 0.364217 0.586892 0.500000
O O3 0.450837 0.607168 0.318031
O O4 0.271898 0.517256 0.349568
O O5 0.776683 0.793807 0.679399
O O6 0.861475 0.700866 0.788943
O O7 0.779912 0.834678 0.855568
O O8 0.999926 0.803346 0.795775
O O9 0.662836 0.584852 0.238981
O O10 0.628457 0.694697 0.358644
O O11 0.392206 0.927607 0.727090
O O12 0.279573 0.029954 0.830424
O O13 0.836408 0.286630 0.500000
O O14 0.957049 0.321978 0.334975
O O15 0.556718 0.873959 0.839370
O O16 0.817737 0.406992 0.000000
#
# Coordination Sequence:
#
# PCOD9426424 Si02
#       7
#     8   8   8   8   8   8   8
#     4   9  18  31  54  86 122 163 200 239 296 362
#     4  10  21  42  64  92 128 164 209 267 322 371
#     4  10  19  37  60  89 127 167 205 258 308 372
#     4  11  21  40  63  91 130 166 209 261 321 375
#     4  10  21  37  63  96 131 173 215 254 305 378
#     4  10  23  41  64  93 128 170 209 264 320 377
#     4  11  25  45  69  93 120 164 217 269 330 395
#
# _framework density 19.735188000000001
#
# number of rings (size 3 to 8) (size 9 to 14) (size 15 to 20)
#    0.000    1.857    2.857    0.857    0.000    5.714 
#    0.000    1.429    0.000    2.571    0.000    0.000 
#    0.000    0.000    0.000    0.000    0.000    0.000 
#
# Total GULP energy -311817.727796 kJ/mol
# GULP energy per Si atom -5568.173711 kJ/mol
# Density = 1.969027 g / cm^3
# Si number density = 19.735188 Si / 1000 Ang^3
#
#
#
# Elastic Constant Matrix: (Units=GPa)
#
#
# Indices 1 2 3 4 5 6 
#
# 1 82.6930 45.3389 33.9621 0.0000 0.0000 0.0000
# 2 45.3389 104.9581 40.5823 0.0000 0.0000 0.0000
# 3 33.9621 40.5823 105.2899 0.0000 0.0000 0.0000
# 4 0.0000 0.0000 0.0000 19.5755 0.0000 0.0000
# 5 0.0000 0.0000 0.0000 0.0000 12.8784 0.0000
# 6 0.0000 0.0000 0.0000 0.0000 0.0000 57.2374
#
#
#
# Elastic Compliance Matrix: (Units=1/GPa)
#
#
# Indices 1 2 3 4 5 6 
#
# 1 0.016640 -0.006008 -0.003052 0.000000 0.000000 0.000000
# 2 -0.006008 0.013366 -0.003214 0.000000 0.000000 0.000000
# 3 -0.003052 -0.003214 0.011721 0.000000 0.000000 0.000000
# 4 0.000000 0.000000 0.000000 0.051084 0.000000 0.000000
# 5 0.000000 0.000000 0.000000 0.000000 0.077650 0.000000
# 6 0.000000 0.000000 0.000000 0.000000 0.000000 0.017471
#
#
# Mechanical properties :
#
#
# Convention : Reuss Voigt Hill
#
# Bulk Modulus (GPa) = 58.20877 59.18972 58.69925
# Shear Modulus (GPa) = 22.91423 29.47545 26.19484
#
# Velocity S-wave (km/s) = 3.41117 3.86884 3.64719
# Velocity P-wave (km/s) = 6.71369 7.07208 6.89521
#
# Compressibility (1/GPa) = 0.01717954
#
# Stress axis : x y z
#
# Youngs Moduli (GPa) = 60.09448 74.81947 85.32028
#
# Poissons Ratio (x) = 0.44953 0.26038
# Poissons Ratio (y) = 0.36106 0.27418
# Poissons Ratio (z) = 0.18339 0.24043
#
# Static dielectric constant tensor:
#      x y z
#    x 1.829480 0.000000 0.000000 
#    y 0.000000 2.425500 0.000000 
#    z 0.000000 0.000000 1.685160 
# 
# From -- ./inp_files/13359.got.cif
#   From: 2010.05.17/outbox.cif.g08.bks.cpg/sg55_7_cif.got.tgz:13359.got - 2010.06.03 13:27:54.
