data_PCOD9426678
_publ_section_title
;
Structure prediction by ZEFSAII (Michael W. Deem and Ramdas Pophale) SiO2 
 PCOD9426678
Probable space group: P B A M
;
_chemical_formula_sum "Si O2"
_cell_formula_units_Z 56
_cell_length_a 15.680643
_cell_length_b 15.672868
_cell_length_c 13.130623
_cell_angle_alpha 90.000000
_cell_angle_beta 90.000000
_cell_angle_gamma 90.000000
_cell_volume 3226.990416
_symmetry_space_group_name_H-M "P B A M"
_symmetry_group_IT_number 55
_symmetry_cell_setting 'orthorhombic'
loop_
_space_group_symop_operation_xyz
x,y,z
-x,-y,z
1/2+x,1/2-y,-z
1/2-x,1/2+y,-z
-x,-y,-z
x,y,-z
1/2-x,1/2+y,z
1/2+x,1/2-y,z
loop_
_atom_site_type_symbol
_atom_site_label
_atom_site_fract_x
_atom_site_fract_y
_atom_site_fract_z
Si Si1 0.714085 0.019676 0.270243
Si Si2 0.857899 0.989161 0.888175
Si Si3 0.692127 0.201269 0.622371
Si Si4 0.569464 0.073840 0.114346
Si Si5 0.990854 0.715350 0.728963
Si Si6 0.335370 0.156865 0.622134
Si Si7 0.506463 0.642247 0.888249
O O1 0.686560 0.937101 0.334965
O O2 0.799465 0.997546 0.209555
O O3 0.717623 0.107547 0.334689
O O4 0.646766 0.037973 0.180580
O O5 0.922767 0.068543 0.887540
O O6 0.915345 0.904637 0.883897
O O7 0.813710 0.989926 0.000000
O O8 0.688740 0.198104 0.500000
O O9 0.597423 0.222450 0.665547
O O10 0.762412 0.273316 0.651895
O O11 0.529484 0.149033 0.180811
O O12 0.500000 0.000000 0.107144
O O13 0.594376 0.100367 0.000000
O O14 0.015257 0.800220 0.789692
O O15 0.071748 0.684422 0.663801
O O16 0.337555 0.153997 0.500000
O O17 0.513113 0.685966 0.000000
#
# Coordination Sequence:
#
# PCOD9426678 Si02
#       7
#     8   8   8   8   8   8   8
#     4  11  20  36  57  78 106 146 177 217 267 321
#     4   9  18  33  54  81 111 141 175 216 262 317
#     4  10  23  38  55  80 108 138 182 232 271 314
#     4  10  20  34  50  77 109 136 169 209 253 308
#     4  11  20  36  57  78 106 146 177 217 267 321
#     4  11  23  38  56  80 105 138 184 229 270 317
#     4   9  18  33  54  81 111 141 175 216 262 317
#
# _framework density 17.353629999999999
#
# number of rings (size 3 to 8) (size 9 to 14) (size 15 to 20)
#    0.000    1.857    1.429    4.286    0.000    0.000 
#    0.000    2.143    0.000    6.857    0.000   12.000 
#    0.000    0.000    0.000    0.000    0.000    0.000 
#
# Total GULP energy -312198.897262 kJ/mol
# GULP energy per Si atom -5574.980308 kJ/mol
# Density = 1.731413 g / cm^3
# Si number density = 17.353630 Si / 1000 Ang^3
#
#
#
# Elastic Constant Matrix: (Units=GPa)
#
#
# Indices 1 2 3 4 5 6 
#
# 1 76.9335 32.0623 44.7040 0.0000 0.0000 0.0000
# 2 32.0623 72.1940 42.8299 0.0000 0.0000 0.0000
# 3 44.7040 42.8299 111.4965 0.0000 0.0000 0.0000
# 4 0.0000 0.0000 0.0000 24.5485 0.0000 0.0000
# 5 0.0000 0.0000 0.0000 0.0000 25.5560 0.0000
# 6 0.0000 0.0000 0.0000 0.0000 0.0000 14.0866
#
#
#
# Elastic Compliance Matrix: (Units=1/GPa)
#
#
# Indices 1 2 3 4 5 6 
#
# 1 0.018171 -0.004854 -0.005421 0.000000 0.000000 0.000000
# 2 -0.004854 0.019237 -0.005443 0.000000 0.000000 0.000000
# 3 -0.005421 -0.005443 0.013233 0.000000 0.000000 0.000000
# 4 0.000000 0.000000 0.000000 0.040736 0.000000 0.000000
# 5 0.000000 0.000000 0.000000 0.000000 0.039130 0.000000
# 6 0.000000 0.000000 0.000000 0.000000 0.000000 0.070989
#
#
# Mechanical properties :
#
#
# Convention : Reuss Voigt Hill
#
# Bulk Modulus (GPa) = 52.07105 55.53513 53.80309
# Shear Modulus (GPa) = 20.89129 22.24007 21.56568
#
# Velocity S-wave (km/s) = 3.47343 3.58380 3.52905
# Velocity P-wave (km/s) = 6.79391 7.01401 6.90484
#
# Compressibility (1/GPa) = 0.01920453
#
# Stress axis : x y z
#
# Youngs Moduli (GPa) = 55.03218 51.98432 75.56627
#
# Poissons Ratio (x) = 0.25233 0.40965
# Poissons Ratio (y) = 0.26712 0.41133
# Poissons Ratio (z) = 0.29833 0.28297
#
# Static dielectric constant tensor:
#      x y z
#    x 1.602350 0.000000 0.000000 
#    y 0.000000 1.610070 0.000000 
#    z 0.000000 0.000000 1.583610 
# 
# From -- ./inp_files/14231.got.cif
#   From: 2010.05.17/outbox.cif.g08.bks.cpg/sg55_8_cif.got.tgz:14231.got - 2010.06.03 13:27:54.
