data_PCOD9426430
_publ_section_title
;
Structure prediction by ZEFSAII (Michael W. Deem and Ramdas Pophale) SiO2 
 PCOD9426430
Probable space group: P B A M
;
_chemical_formula_sum "Si O2"
_cell_formula_units_Z 64
_cell_length_a 33.740879
_cell_length_b 10.773610
_cell_length_c 8.883212
_cell_angle_alpha 90.000000
_cell_angle_beta 90.000000
_cell_angle_gamma 90.000000
_cell_volume 3229.145912
_symmetry_space_group_name_H-M "P B A M"
_symmetry_group_IT_number 55
_symmetry_cell_setting 'orthorhombic'
loop_
_space_group_symop_operation_xyz
x,y,z
-x,-y,z
1/2+x,1/2-y,-z
1/2-x,1/2+y,-z
-x,-y,-z
x,y,-z
1/2-x,1/2+y,z
1/2+x,1/2-y,z
loop_
_atom_site_type_symbol
_atom_site_label
_atom_site_fract_x
_atom_site_fract_y
_atom_site_fract_z
Si Si1 0.579950 0.464739 0.672141
Si Si2 0.134454 0.280972 0.671848
Si Si3 0.488625 0.704132 0.319137
Si Si4 0.431165 0.180080 0.321572
Si Si5 0.779868 0.081454 0.182996
Si Si6 0.435165 0.918935 0.821241
Si Si7 0.782411 0.794906 0.817402
Si Si8 0.632507 0.665266 0.822614
O O1 0.578567 0.516635 0.500000
O O2 0.606528 0.340397 0.665510
O O3 0.536575 0.417984 0.719685
O O4 0.603031 0.552665 0.784902
O O5 0.141360 0.322311 0.500000
O O6 0.108468 0.380201 0.762589
O O7 0.175105 0.243132 0.751302
O O8 0.484412 0.715776 0.500000
O O9 0.535006 0.717278 0.285069
O O10 0.465972 0.818907 0.243281
O O11 0.430327 0.162854 0.500000
O O12 0.388407 0.221338 0.261829
O O13 0.444244 0.053832 0.243121
O O14 0.748766 0.187904 0.229473
O O15 0.823855 0.125044 0.230035
O O16 0.772477 0.937731 0.229614
O O17 0.779540 0.079866 0.000000
O O18 0.436333 0.917934 0.000000
O O19 0.784238 0.794791 0.000000
O O20 0.634130 0.690325 0.000000
#
# Coordination Sequence:
#
# PCOD9426430 Si02
#       8
#     8   8   8   8   8   8   8   8
#     4   9  18  35  58  81 108 148 194 237 288 350
#     4  10  20  36  59  87 115 150 194 237 287 351
#     4   9  20  38  59  83 114 154 198 242 294 352
#     4  11  23  39  57  80 116 159 197 241 297 355
#     4   9  20  36  59  87 120 155 198 247 306 365
#     4  11  22  36  58  87 118 153 194 244 294 349
#     4  10  19  37  61  87 116 156 199 246 300 361
#     4  11  22  37  56  83 116 152 196 247 298 351
#
# _framework density 19.819482000000001
#
# number of rings (size 3 to 8) (size 9 to 14) (size 15 to 20)
#    0.000    2.000    1.250    3.375    0.000    6.000 
#    0.000    6.875    0.000    0.000    0.000    0.000 
#    0.000    0.000    0.000    0.000    0.000    0.000 
#
# Total GULP energy -357279.973372 kJ/mol
# GULP energy per Si atom -5582.499584 kJ/mol
# Density = 1.977437 g / cm^3
# Si number density = 19.819482 Si / 1000 Ang^3
#
#
#
# Elastic Constant Matrix: (Units=GPa)
#
#
# Indices 1 2 3 4 5 6 
#
# 1 141.8678 58.4553 28.3027 0.0000 0.0000 0.0000
# 2 58.4553 60.0728 10.3479 0.0000 0.0000 0.0000
# 3 28.3027 10.3479 16.5341 0.0000 0.0000 0.0000
# 4 0.0000 0.0000 0.0000 34.2466 0.0000 0.0000
# 5 0.0000 0.0000 0.0000 0.0000 32.3048 0.0000
# 6 0.0000 0.0000 0.0000 0.0000 0.0000 29.0794
#
#
#
# Elastic Compliance Matrix: (Units=1/GPa)
#
#
# Indices 1 2 3 4 5 6 
#
# 1 0.016013 -0.012172 -0.019792 0.000000 0.000000 0.000000
# 2 -0.012172 0.027911 0.003368 0.000000 0.000000 0.000000
# 3 -0.019792 0.003368 0.092253 0.000000 0.000000 0.000000
# 4 0.000000 0.000000 0.000000 0.029200 0.000000 0.000000
# 5 0.000000 0.000000 0.000000 0.000000 0.030955 0.000000
# 6 0.000000 0.000000 0.000000 0.000000 0.000000 0.034389
#
#
# Mechanical properties :
#
#
# Convention : Reuss Voigt Hill
#
# Bulk Modulus (GPa) = 12.66077 45.85406 29.25741
# Shear Modulus (GPa) = 15.91131 27.21742 21.56436
#
# Velocity S-wave (km/s) = 2.83647 3.70978 3.30212
# Velocity P-wave (km/s) = 4.13876 6.44485 5.41596
#
# Compressibility (1/GPa) = 0.07898417
#
# Stress axis : x y z
#
# Youngs Moduli (GPa) = 62.44938 35.82824 10.83973
#
# Poissons Ratio (x) = 0.43612 0.21455
# Poissons Ratio (y) = 0.76016 -0.03651
# Poissons Ratio (z) = 1.23603 -0.12069
#
# Static dielectric constant tensor:
#      x y z
#    x 1.689460 0.000000 0.000000 
#    y 0.000000 1.734310 0.000000 
#    z 0.000000 0.000000 1.661790 
# 
# From -- ./inp_files/10747.got.cif
#   From: 2010.05.17/outbox.cif.g08.bks.cpg/sg55_6_cif.got.tgz:10747.got - 2010.06.03 13:27:54.
