data_PCOD9426856
_publ_section_title
;
Structure prediction by ZEFSAII (Michael W. Deem and Ramdas Pophale) SiO2 
 PCOD9426856
Probable space group: P B A M
;
_chemical_formula_sum "Si O2"
_cell_formula_units_Z 56
_cell_length_a 21.922107
_cell_length_b 14.895710
_cell_length_c 7.465964
_cell_angle_alpha 90.000000
_cell_angle_beta 90.000000
_cell_angle_gamma 90.000000
_cell_volume 2437.975816
_symmetry_space_group_name_H-M "P B A M"
_symmetry_group_IT_number 55
_symmetry_cell_setting 'orthorhombic'
loop_
_space_group_symop_operation_xyz
x,y,z
-x,-y,z
1/2+x,1/2-y,-z
1/2-x,1/2+y,-z
-x,-y,-z
x,y,-z
1/2-x,1/2+y,z
1/2+x,1/2-y,z
loop_
_atom_site_type_symbol
_atom_site_label
_atom_site_fract_x
_atom_site_fract_y
_atom_site_fract_z
Si Si1 0.678288 0.595224 0.292777
Si Si2 0.983506 0.273682 0.216733
Si Si3 0.407174 0.903087 0.781032
Si Si4 0.878677 0.399763 0.781755
Si Si5 0.706522 0.210804 0.792240
Si Si6 0.042551 0.922413 0.291951
Si Si7 0.237990 0.095761 0.781913
O O1 0.673549 0.621441 0.500000
O O2 0.727173 0.664569 0.213420
O O3 0.610241 0.591850 0.213011
O O4 0.706099 0.495317 0.278684
O O5 0.919105 0.315832 0.276420
O O6 0.990769 0.172908 0.282531
O O7 0.036724 0.341164 0.274016
O O8 0.984229 0.270825 0.000000
O O9 0.344213 0.856930 0.718713
O O10 0.409189 0.006465 0.724993
O O11 0.407462 0.905763 0.000000
O O12 0.808623 0.400734 0.725344
O O13 0.878529 0.398055 0.000000
O O14 0.707838 0.311402 0.717733
O O15 0.689964 0.221814 0.000000
O O16 0.053122 0.947628 0.500000
O O17 0.000000 0.000000 0.212622
O O18 0.237304 0.094152 0.000000
#
# Coordination Sequence:
#
# PCOD9426856 Si02
#       7
#     8   8   8   8   8   8   8
#     4  11  23  39  59  83 112 150 193 236 282 339
#     4  10  20  34  59  90 112 142 192 237 275 330
#     4   9  17  31  54  86 119 146 179 230 283 333
#     4   9  16  31  54  84 118 148 175 218 285 341
#     4  10  20  36  59  87 118 150 188 236 290 341
#     4  10  24  44  59  75 110 156 191 229 290 345
#     4  10  20  34  58  85 113 149 186 231 288 340
#
# _framework density 22.969873
#
# number of rings (size 3 to 8) (size 9 to 14) (size 15 to 20)
#    0.000    2.143    1.429    1.714    2.000    4.857 
#    0.000    1.429    0.000    0.857    0.000    0.000 
#    0.000    0.000    0.000    0.000    0.000    0.000 
#
# Total GULP energy -313018.800843 kJ/mol
# GULP energy per Si atom -5589.621444 kJ/mol
# Density = 2.291759 g / cm^3
# Si number density = 22.969873 Si / 1000 Ang^3
#
#
#
# Elastic Constant Matrix: (Units=GPa)
#
#
# Indices 1 2 3 4 5 6 
#
# 1 51.2244 -5.5859 -2.3214 0.0000 0.0000 0.0000
# 2 -5.5859 111.6008 -12.7387 0.0000 0.0000 0.0000
# 3 -2.3214 -12.7387 62.8926 0.0000 0.0000 0.0000
# 4 0.0000 0.0000 0.0000 28.0258 0.0000 0.0000
# 5 0.0000 0.0000 0.0000 0.0000 11.4077 0.0000
# 6 0.0000 0.0000 0.0000 0.0000 0.0000 34.2189
#
#
#
# Elastic Compliance Matrix: (Units=1/GPa)
#
#
# Indices 1 2 3 4 5 6 
#
# 1 0.019684 0.001093 0.000948 0.000000 0.000000 0.000000
# 2 0.001093 0.009233 0.001911 0.000000 0.000000 0.000000
# 3 0.000948 0.001911 0.016322 0.000000 0.000000 0.000000
# 4 0.000000 0.000000 0.000000 0.035681 0.000000 0.000000
# 5 0.000000 0.000000 0.000000 0.000000 0.087660 0.000000
# 6 0.000000 0.000000 0.000000 0.000000 0.000000 0.029224
#
#
# Mechanical properties :
#
#
# Convention : Reuss Voigt Hill
#
# Bulk Modulus (GPa) = 18.81695 20.49176 19.65435
# Shear Modulus (GPa) = 24.08298 31.15472 27.61885
#
# Velocity S-wave (km/s) = 3.24151 3.68683 3.47132
# Velocity P-wave (km/s) = 4.71377 5.20232 4.96406
#
# Compressibility (1/GPa) = 0.05314359
#
# Stress axis : x y z
#
# Youngs Moduli (GPa) = 50.80228 108.30343 61.26663
#
# Poissons Ratio (x) = -0.11842 -0.05808
# Poissons Ratio (y) = -0.05555 -0.11705
# Poissons Ratio (z) = -0.04816 -0.20692
#
# Static dielectric constant tensor:
#      x y z
#    x 1.846500 0.000000 0.000000 
#    y 0.000000 1.807220 0.000000 
#    z 0.000000 0.000000 1.886440 
# 
# From -- ./inp_files/8808.got.cif
#   From: 2010.05.17/outbox.cif.g08.bks.cpg/sg55_5_cif.got.tgz:8808.got - 2010.06.03 13:27:54.
