data_PCOD9426007
_publ_section_title
;
Structure prediction by ZEFSAII (Michael W. Deem and Ramdas Pophale) SiO2 
 PCOD9426007
Probable space group: P B A M
;
_chemical_formula_sum "Si O2"
_cell_formula_units_Z 40
_cell_length_a 8.135360
_cell_length_b 24.441542
_cell_length_c 7.470847
_cell_angle_alpha 90.000000
_cell_angle_beta 90.000000
_cell_angle_gamma 90.000000
_cell_volume 1485.508769
_symmetry_space_group_name_H-M "P B A M"
_symmetry_group_IT_number 55
_symmetry_cell_setting 'orthorhombic'
loop_
_space_group_symop_operation_xyz
x,y,z
-x,-y,z
1/2+x,1/2-y,-z
1/2-x,1/2+y,-z
-x,-y,-z
x,y,-z
1/2-x,1/2+y,z
1/2+x,1/2-y,z
loop_
_atom_site_type_symbol
_atom_site_label
_atom_site_fract_x
_atom_site_fract_y
_atom_site_fract_z
Si Si1 0.350963 0.232132 0.791815
Si Si2 0.539755 0.333526 0.778646
Si Si3 0.550430 0.131722 0.708475
Si Si4 0.837445 0.466772 0.783923
Si Si5 0.629785 0.562830 0.794332
O O1 0.395757 0.291723 0.721544
O O2 0.507983 0.191728 0.779230
O O3 0.201811 0.197470 0.713608
O O4 0.313500 0.239878 0.000000
O O5 0.501846 0.394816 0.715841
O O6 0.544049 0.335720 0.000000
O O7 0.585889 0.134573 0.500000
O O8 0.386036 0.094608 0.735554
O O9 0.701428 0.099134 0.796387
O O10 0.685444 0.503989 0.718694
O O11 0.000000 0.500000 0.725029
O O12 0.829200 0.468206 0.000000
O O13 0.580769 0.554067 0.000000
#
# Coordination Sequence:
#
# PCOD9426007 Si02
#       5
#     8   8   8   8   8
#     4  10  19  34  55  77 101 130 167 210 256 303
#     4   9  18  33  57  82 100 126 166 212 259 307
#     4  11  21  32  49  75 106 140 175 208 247 296
#     4   8  15  29  51  76 102 133 169 210 251 295
#     4   9  17  33  56  81 105 130 167 212 257 304
#
# _framework density 26.926804000000001
#
# number of rings (size 3 to 8) (size 9 to 14) (size 15 to 20)
#    0.000    2.600    0.000    4.200    0.000    6.800 
#    0.000    6.000    0.000    6.000    0.000    0.000 
#    0.000    0.000    0.000    0.000    0.000    0.000 
#
# Total GULP energy -223716.468978 kJ/mol
# GULP energy per Si atom -5592.911724 kJ/mol
# Density = 2.686552 g / cm^3
# Si number density = 26.926804 Si / 1000 Ang^3
#
#
#
# Elastic Constant Matrix: (Units=GPa)
#
#
# Indices 1 2 3 4 5 6 
#
# 1 109.9548 29.7439 -3.0281 0.0000 0.0000 0.0000
# 2 29.7439 192.4905 3.6713 0.0000 0.0000 0.0000
# 3 -3.0281 3.6713 96.8701 0.0000 0.0000 0.0000
# 4 0.0000 0.0000 0.0000 88.7935 0.0000 0.0000
# 5 0.0000 0.0000 0.0000 0.0000 -28.2828 0.0000
# 6 0.0000 0.0000 0.0000 0.0000 0.0000 50.8305
#
#
#
# Elastic Compliance Matrix: (Units=1/GPa)
#
#
# Indices 1 2 3 4 5 6 
#
# 1 0.009503 -0.001475 0.000353 0.000000 0.000000 0.000000
# 2 -0.001475 0.005428 -0.000252 0.000000 0.000000 0.000000
# 3 0.000353 -0.000252 0.010344 0.000000 0.000000 0.000000
# 4 0.000000 0.000000 0.000000 0.011262 0.000000 0.000000
# 5 0.000000 0.000000 0.000000 0.000000 -0.035357 0.000000
# 6 0.000000 0.000000 0.000000 0.000000 0.000000 0.019673
#
#
# Mechanical properties :
#
#
# Convention : Reuss Voigt Hill
#
# Bulk Modulus (GPa) = 44.39157 51.12108 47.75633
# Shear Modulus (GPa) = 160.71924 46.86346 103.79135
#
# Velocity S-wave (km/s) = 7.73415 4.17634 6.21526
# Velocity P-wave (km/s) = 9.81213 6.50247 8.32346
#
# Compressibility (1/GPa) = 0.02252680
#
# Stress axis : x y z
#
# Youngs Moduli (GPa) = 105.22523 184.23613 96.67741
#
# Poissons Ratio (x) = 0.27179 -0.03413
# Poissons Ratio (y) = 0.15523 0.02435
# Poissons Ratio (z) = -0.03714 0.04640
#
# Static dielectric constant tensor:
#      x y z
#    x 2.203460 0.000000 0.000000 
#    y 0.000000 2.064190 0.000000 
#    z 0.000000 0.000000 2.008020 
# 
# From -- ./inp_files/2301.got.cif
#   From: 2010.05.17/outbox.cif.g08.bks.cpg/sg55_2_cif.got.tgz:2301.got - 2010.06.03 13:27:54.
