data_PCOD9426851
_publ_section_title
;
Structure prediction by ZEFSAII (Michael W. Deem and Ramdas Pophale) SiO2 
 PCOD9426851
Probable space group: P B A M
;
_chemical_formula_sum "Si O2"
_cell_formula_units_Z 64
_cell_length_a 22.321715
_cell_length_b 8.613770
_cell_length_c 16.447712
_cell_angle_alpha 90.000000
_cell_angle_beta 90.000000
_cell_angle_gamma 90.000000
_cell_volume 3162.469335
_symmetry_space_group_name_H-M "P B A M"
_symmetry_group_IT_number 55
_symmetry_cell_setting 'orthorhombic'
loop_
_space_group_symop_operation_xyz
x,y,z
-x,-y,z
1/2+x,1/2-y,-z
1/2-x,1/2+y,-z
-x,-y,-z
x,y,-z
1/2-x,1/2+y,z
1/2+x,1/2-y,z
loop_
_atom_site_type_symbol
_atom_site_label
_atom_site_fract_x
_atom_site_fract_y
_atom_site_fract_z
Si Si1 0.772219 0.710060 0.181702
Si Si2 0.952035 0.734095 0.094770
Si Si3 0.705278 0.919204 0.914690
Si Si4 0.664069 0.261762 0.596602
Si Si5 0.290752 0.085957 0.404651
Si Si6 0.644269 0.726636 0.728250
Si Si7 0.081062 0.624354 0.131509
Si Si8 0.887141 0.874603 0.251711
O O1 0.793335 0.539016 0.159651
O O2 0.758848 0.801995 0.099035
O O3 0.708517 0.708416 0.226125
O O4 0.822531 0.806446 0.226205
O O5 0.929695 0.556485 0.110462
O O6 0.927264 0.831178 0.172429
O O7 0.023769 0.720219 0.103479
O O8 0.937157 0.777213 0.000000
O O9 0.642432 0.830666 0.912531
O O10 0.710502 0.001851 0.000000
O O11 0.649176 0.268575 0.500000
O O12 0.720358 0.379285 0.610973
O O13 0.609251 0.296986 0.658132
O O14 0.691427 0.091038 0.614619
O O15 0.299014 0.111454 0.500000
O O16 0.334477 0.200102 0.355976
O O17 0.598578 0.841377 0.775243
O O18 0.614766 0.557671 0.732328
#
# Coordination Sequence:
#
# PCOD9426851 Si02
#       8
#     8   8   8   8   8   8   8   8
#     4  11  22  34  51  82 114 152 192 237 298 360
#     4  11  23  42  65  87 113 157 217 265 302 353
#     4  11  21  36  55  77 113 152 197 246 296 357
#     4  10  21  35  58  91 125 162 202 245 302 368
#     4  10  20  34  57  89 124 159 197 244 299 373
#     4  11  23  38  57  87 123 162 200 243 309 369
#     4  10  22  39  62  84 112 155 205 257 302 350
#     4  12  23  37  60  84 122 162 200 250 305 357
#
# _framework density 20.237349999999999
#
# number of rings (size 3 to 8) (size 9 to 14) (size 15 to 20)
#    0.000    1.250    3.750    3.375    1.750    2.500 
#    0.000    2.500    0.000    0.750    0.000    5.250 
#    0.000    0.000    0.000    0.000    0.000    0.000 
#
# Total GULP energy -356757.976341 kJ/mol
# GULP energy per Si atom -5574.343380 kJ/mol
# Density = 2.019129 g / cm^3
# Si number density = 20.237350 Si / 1000 Ang^3
#
#
#
# Elastic Constant Matrix: (Units=GPa)
#
#
# Indices 1 2 3 4 5 6 
#
# 1 38.6073 6.7741 26.0479 0.0000 0.0000 0.0000
# 2 6.7741 57.5838 30.6000 0.0000 0.0000 0.0000
# 3 26.0479 30.6000 107.8875 0.0000 0.0000 0.0000
# 4 0.0000 0.0000 0.0000 23.5828 0.0000 0.0000
# 5 0.0000 0.0000 0.0000 0.0000 29.9668 0.0000
# 6 0.0000 0.0000 0.0000 0.0000 0.0000 17.2027
#
#
#
# Elastic Compliance Matrix: (Units=1/GPa)
#
#
# Indices 1 2 3 4 5 6 
#
# 1 0.030949 0.000388 -0.007582 0.000000 0.000000 0.000000
# 2 0.000388 0.020453 -0.005895 0.000000 0.000000 0.000000
# 3 -0.007582 -0.005895 0.012772 0.000000 0.000000 0.000000
# 4 0.000000 0.000000 0.000000 0.042404 0.000000 0.000000
# 5 0.000000 0.000000 0.000000 0.000000 0.033370 0.000000
# 6 0.000000 0.000000 0.000000 0.000000 0.000000 0.058130
#
#
# Mechanical properties :
#
#
# Convention : Reuss Voigt Hill
#
# Bulk Modulus (GPa) = 26.31847 36.76921 31.54384
# Shear Modulus (GPa) = 21.10406 23.52758 22.31582
#
# Velocity S-wave (km/s) = 3.23279 3.41336 3.32430
# Velocity P-wave (km/s) = 5.19304 5.80889 5.50958
#
# Compressibility (1/GPa) = 0.03799613
#
# Stress axis : x y z
#
# Youngs Moduli (GPa) = 32.31071 48.89312 78.29916
#
# Poissons Ratio (x) = -0.01899 0.59370
# Poissons Ratio (y) = -0.01255 0.46156
# Poissons Ratio (z) = 0.24500 0.28821
#
# Static dielectric constant tensor:
#      x y z
#    x 1.708930 0.000000 0.000000 
#    y 0.000000 1.740170 0.000000 
#    z 0.000000 0.000000 1.833420 
# 
# From -- ./inp_files/22034.got.cif
#   From: 2010.05.17/outbox.cif.g08.bks.cpg/sg55_12_cif.got.tgz:22034.got - 2010.06.03 13:27:54.
