data_PCOD9426894
_publ_section_title
;
Structure prediction by ZEFSAII (Michael W. Deem and Ramdas Pophale) SiO2 
 PCOD9426894
Probable space group: P B A M
;
_chemical_formula_sum "Si O2"
_cell_formula_units_Z 64
_cell_length_a 19.435824
_cell_length_b 23.412944
_cell_length_c 8.793718
_cell_angle_alpha 90.000000
_cell_angle_beta 90.000000
_cell_angle_gamma 90.000000
_cell_volume 4001.580135
_symmetry_space_group_name_H-M "P B A M"
_symmetry_group_IT_number 55
_symmetry_cell_setting 'orthorhombic'
loop_
_space_group_symop_operation_xyz
x,y,z
-x,-y,z
1/2+x,1/2-y,-z
1/2-x,1/2+y,-z
-x,-y,-z
x,y,-z
1/2-x,1/2+y,z
1/2+x,1/2-y,z
loop_
_atom_site_type_symbol
_atom_site_label
_atom_site_fract_x
_atom_site_fract_y
_atom_site_fract_z
Si Si1 0.635559 0.219733 0.181378
Si Si2 0.148896 0.938839 0.819181
Si Si3 0.007491 0.748050 0.681404
Si Si4 0.652508 0.767704 0.818008
Si Si5 0.503672 0.625074 0.180678
Si Si6 0.128452 0.063174 0.319648
Si Si7 0.765163 0.160647 0.318323
Si Si8 0.285459 0.661230 0.179886
O O1 0.560032 0.217857 0.251639
O O2 0.689735 0.176613 0.256505
O O3 0.666300 0.283472 0.209209
O O4 0.634105 0.211549 0.000000
O O5 0.075411 0.907621 0.794807
O O6 0.206468 0.899087 0.743410
O O7 0.145362 0.001304 0.747256
O O8 0.160033 0.942523 0.000000
O O9 0.007226 0.746149 0.500000
O O10 0.078012 0.722552 0.747592
O O11 0.005023 0.813880 0.737242
O O12 0.684662 0.709998 0.747723
O O13 0.708205 0.817326 0.788104
O O14 0.647623 0.759960 0.000000
O O15 0.441008 0.587508 0.243173
O O16 0.494619 0.634562 0.000000
O O17 0.119422 0.060257 0.500000
O O18 0.187565 0.108455 0.275922
O O19 0.766599 0.162328 0.500000
O O20 0.291046 0.647989 0.000000
#
# Coordination Sequence:
#
# PCOD9426894 Si02
#       8
#     8   8   8   8   8   8   8   8
#     4  10  20  35  55  75 104 141 176 211 261 323
#     4  11  23  38  55  72 101 144 187 218 259 316
#     4  12  22  32  52  81 109 138 174 220 266 309
#     4  10  20  35  54  75 103 140 176 212 263 321
#     4  11  22  36  52  71 103 144 184 217 254 311
#     4  12  24  35  52  76 106 138 179 226 268 305
#     4  11  21  34  53  78 106 133 174 225 267 304
#     4   9  19  35  54  73  99 137 179 215 256 312
#
# _framework density 15.993682
#
# number of rings (size 3 to 8) (size 9 to 14) (size 15 to 20)
#    0.000    1.250    2.500    6.000    0.000    5.500 
#    0.000    0.000    0.000    0.000    0.000    0.875 
#    0.000    7.000    0.000    0.000    0.000    0.000 
#
# Total GULP energy -357706.175498 kJ/mol
# GULP energy per Si atom -5589.158992 kJ/mol
# Density = 1.595728 g / cm^3
# Si number density = 15.993682 Si / 1000 Ang^3
#
#
#
# Elastic Constant Matrix: (Units=GPa)
#
#
# Indices 1 2 3 4 5 6 
#
# 1 122.2335 30.6525 62.5810 0.0000 0.0000 0.0000
# 2 30.6525 49.5920 42.8935 0.0000 0.0000 0.0000
# 3 62.5810 42.8935 111.1685 0.0000 0.0000 0.0000
# 4 0.0000 0.0000 0.0000 40.4947 0.0000 0.0000
# 5 0.0000 0.0000 0.0000 0.0000 19.1443 0.0000
# 6 0.0000 0.0000 0.0000 0.0000 0.0000 15.4955
#
#
#
# Elastic Compliance Matrix: (Units=1/GPa)
#
#
# Indices 1 2 3 4 5 6 
#
# 1 0.011665 -0.002297 -0.005681 0.000000 0.000000 0.000000
# 2 -0.002297 0.030717 -0.010559 0.000000 0.000000 0.000000
# 3 -0.005681 -0.010559 0.016267 0.000000 0.000000 0.000000
# 4 0.000000 0.000000 0.000000 0.024695 0.000000 0.000000
# 5 0.000000 0.000000 0.000000 0.000000 0.052235 0.000000
# 6 0.000000 0.000000 0.000000 0.000000 0.000000 0.064535
#
#
# Mechanical properties :
#
#
# Convention : Reuss Voigt Hill
#
# Bulk Modulus (GPa) = 46.34629 61.69422 54.02025
# Shear Modulus (GPa) = 20.46002 24.81804 22.63903
#
# Velocity S-wave (km/s) = 3.58055 3.94349 3.76639
# Velocity P-wave (km/s) = 6.79224 7.70666 7.26386
#
# Compressibility (1/GPa) = 0.02157670
#
# Stress axis : x y z
#
# Youngs Moduli (GPa) = 85.72330 32.55532 61.47316
#
# Poissons Ratio (x) = 0.07478 0.34921
# Poissons Ratio (y) = 0.19690 0.64909
# Poissons Ratio (z) = 0.48696 0.34375
#
# Static dielectric constant tensor:
#      x y z
#    x 1.538570 0.000000 0.000000 
#    y 0.000000 1.506330 0.000000 
#    z 0.000000 0.000000 1.527500 
# 
# From -- ./inp_files/7955.got.cif
#   From: 2010.05.17/outbox.cif.g08.bks.cpg/sg55_4_cif.got.tgz:7955.got - 2010.06.03 13:27:54.
