data_PCOD9426028
_publ_section_title
;
Structure prediction by ZEFSAII (Michael W. Deem and Ramdas Pophale) SiO2 
 PCOD9426028
Probable space group: P B A M
;
_chemical_formula_sum "Si O2"
_cell_formula_units_Z 44
_cell_length_a 9.047714
_cell_length_b 26.323821
_cell_length_c 7.429381
_cell_angle_alpha 90.000000
_cell_angle_beta 90.000000
_cell_angle_gamma 90.000000
_cell_volume 1769.458673
_symmetry_space_group_name_H-M "P B A M"
_symmetry_group_IT_number 55
_symmetry_cell_setting 'orthorhombic'
loop_
_space_group_symop_operation_xyz
x,y,z
-x,-y,z
1/2+x,1/2-y,-z
1/2-x,1/2+y,-z
-x,-y,-z
x,y,-z
1/2-x,1/2+y,z
1/2+x,1/2-y,z
loop_
_atom_site_type_symbol
_atom_site_label
_atom_site_fract_x
_atom_site_fract_y
_atom_site_fract_z
Si Si1 0.669608 0.928974 0.000000
Si Si2 0.395604 0.453550 0.780426
Si Si3 0.717565 0.771791 0.706781
Si Si4 0.068773 0.434123 0.708259
Si Si5 0.088775 0.317199 0.280313
Si Si6 0.915017 0.863673 0.197360
O O1 0.559132 0.949355 0.842381
O O2 0.780445 0.902416 0.847037
O O3 0.500000 0.500000 0.723921
O O4 0.227789 0.460275 0.724152
O O5 0.460661 0.399346 0.717113
O O6 0.399478 0.453146 0.000000
O O7 0.681078 0.760541 0.500000
O O8 0.569179 0.795752 0.785931
O O9 0.783144 0.720175 0.784981
O O10 0.845679 0.814584 0.710647
O O11 0.021464 0.435194 0.500000
O O12 0.100614 0.375620 0.768746
O O13 0.089202 0.315956 0.500000
O O14 0.969188 0.846055 0.000000
#
# Coordination Sequence:
#
# PCOD9426028 Si02
#       6
#     4   8   8   8   8   8
#     4  10  20  40  63  90 124 158 208 258 313 386
#     4  10  22  42  65  92 122 165 216 263 327 389
#     4  10  19  34  55  82 121 164 211 257 311 377
#     4  11  22  40  66  91 126 169 210 263 319 376
#     4   9  19  33  53  84 118 160 208 253 309 372
#     4   9  20  38  58  86 121 161 205 260 314 373
#
# _framework density 24.866363
#
# number of rings (size 3 to 8) (size 9 to 14) (size 15 to 20)
#    0.545    1.636    2.727    0.000    2.545    1.091 
#    1.636    1.818    0.000    1.091    0.000    0.000 
#    0.000    0.000    0.000    0.000    0.000    0.000 
#
# Total GULP energy -244972.881842 kJ/mol
# GULP energy per Si atom -5567.565496 kJ/mol
# Density = 2.480977 g / cm^3
# Si number density = 24.866363 Si / 1000 Ang^3
#
#
#
# Elastic Constant Matrix: (Units=GPa)
#
#
# Indices 1 2 3 4 5 6 
#
# 1 71.6321 45.8298 11.4481 0.0000 0.0000 0.0000
# 2 45.8298 106.6219 0.7109 0.0000 0.0000 0.0000
# 3 11.4481 0.7109 98.9486 0.0000 0.0000 0.0000
# 4 0.0000 0.0000 0.0000 -12.9426 0.0000 0.0000
# 5 0.0000 0.0000 0.0000 0.0000 8.9342 0.0000
# 6 0.0000 0.0000 0.0000 0.0000 0.0000 42.1919
#
#
#
# Elastic Compliance Matrix: (Units=1/GPa)
#
#
# Indices 1 2 3 4 5 6 
#
# 1 0.019732 -0.008467 -0.002222 0.000000 0.000000 0.000000
# 2 -0.008467 0.013012 0.000886 0.000000 0.000000 0.000000
# 3 -0.002222 0.000886 0.010357 0.000000 0.000000 0.000000
# 4 0.000000 0.000000 0.000000 -0.077264 0.000000 0.000000
# 5 0.000000 0.000000 0.000000 0.000000 0.111930 0.000000
# 6 0.000000 0.000000 0.000000 0.000000 0.000000 0.023701
#
#
# Mechanical properties :
#
#
# Convention : Reuss Voigt Hill
#
# Bulk Modulus (GPa) = 42.56053 43.68670 43.12362
# Shear Modulus (GPa) = 38.78781 22.25093 30.51937
#
# Velocity S-wave (km/s) = 3.95378 2.99460 3.50714
# Velocity P-wave (km/s) = 6.16409 5.43724 5.81204
#
# Compressibility (1/GPa) = 0.02349595
#
# Stress axis : x y z
#
# Youngs Moduli (GPa) = 50.67799 76.84985 96.55316
#
# Poissons Ratio (x) = 0.65068 0.21456
# Poissons Ratio (y) = 0.42908 -0.08556
# Poissons Ratio (z) = 0.11261 -0.06810
#
# Static dielectric constant tensor:
#      x y z
#    x 1.954740 0.000000 0.000000 
#    y 0.000000 2.014960 0.000000 
#    z 0.000000 0.000000 1.972840 
# 
# From -- ./inp_files/2694.got.cif
#   From: 2010.05.17/outbox.cif.g08.bks.cpg/sg55_2_cif.got.tgz:2694.got - 2010.06.03 13:27:54.
