data_PCOD9426795
_publ_section_title
;
Structure prediction by ZEFSAII (Michael W. Deem and Ramdas Pophale) SiO2 
 PCOD9426795
Probable space group: P B A M
;
_chemical_formula_sum "Si O2"
_cell_formula_units_Z 64
_cell_length_a 7.955220
_cell_length_b 23.605434
_cell_length_c 14.144534
_cell_angle_alpha 90.000000
_cell_angle_beta 90.000000
_cell_angle_gamma 90.000000
_cell_volume 2656.151412
_symmetry_space_group_name_H-M "P B A M"
_symmetry_group_IT_number 55
_symmetry_cell_setting 'orthorhombic'
loop_
_space_group_symop_operation_xyz
x,y,z
-x,-y,z
1/2+x,1/2-y,-z
1/2-x,1/2+y,-z
-x,-y,-z
x,y,-z
1/2-x,1/2+y,z
1/2+x,1/2-y,z
loop_
_atom_site_type_symbol
_atom_site_label
_atom_site_fract_x
_atom_site_fract_y
_atom_site_fract_z
Si Si1 0.992210 0.877380 0.807634
Si Si2 0.021375 0.616744 0.394131
Si Si3 0.185916 0.970580 0.892281
Si Si4 0.319053 0.736205 0.194903
Si Si5 0.993454 0.330192 0.110000
Si Si6 0.119518 0.867789 0.603843
Si Si7 0.970598 0.742381 0.394212
Si Si8 0.135435 0.565510 0.797375
O O1 0.136078 0.906585 0.868275
O O2 0.962753 0.811191 0.823601
O O3 0.031999 0.890686 0.697745
O O4 0.811862 0.905065 0.826889
O O5 0.066075 0.597813 0.500000
O O6 0.072551 0.683130 0.384296
O O7 0.096635 0.578360 0.311910
O O8 0.818467 0.620833 0.386871
O O9 0.320220 0.001080 0.824010
O O10 0.242470 0.978026 0.000000
O O11 0.000000 0.000000 0.883043
O O12 0.148629 0.703580 0.170240
O O13 0.345590 0.791956 0.132827
O O14 0.850060 0.746238 0.303418
O O15 0.993966 0.394907 0.144982
O O16 0.951988 0.328731 0.000000
O O17 0.933827 0.110233 0.500000
O O18 0.070330 0.801402 0.604540
O O19 0.892048 0.737878 0.500000
#
# Coordination Sequence:
#
# PCOD9426795 Si02
#       8
#     8   8   8   8   8   8   8   8
#     4   9  20  34  57  81 106 140 182 231 276 322
#     4  10  20  34  55  81 113 149 184 222 273 336
#     4   9  18  36  61  83 104 139 190 241 283 325
#     4  10  21  34  52  79 111 142 176 220 270 331
#     4  11  22  35  51  76 109 146 179 218 272 330
#     4   9  19  34  53  79 112 149 182 218 271 331
#     4   9  18  31  51  78 108 143 183 221 261 318
#     4  10  20  36  56  82 109 140 186 234 278 326
#
# _framework density 24.095011
#
# number of rings (size 3 to 8) (size 9 to 14) (size 15 to 20)
#    0.000    2.375    1.250    0.750    3.500    5.000 
#    0.000    5.625    0.000    6.000    0.000    0.000 
#    0.000    0.000    0.000    0.000    0.000    0.000 
#
# Total GULP energy -357728.095580 kJ/mol
# GULP energy per Si atom -5589.501493 kJ/mol
# Density = 2.404017 g / cm^3
# Si number density = 24.095011 Si / 1000 Ang^3
#
#
#
# Elastic Constant Matrix: (Units=GPa)
#
#
# Indices 1 2 3 4 5 6 
#
# 1 53.9390 2.4962 1.4936 0.0000 0.0000 0.0000
# 2 2.4962 83.0323 14.8843 0.0000 0.0000 0.0000
# 3 1.4936 14.8843 94.0931 0.0000 0.0000 0.0000
# 4 0.0000 0.0000 0.0000 20.1347 0.0000 0.0000
# 5 0.0000 0.0000 0.0000 0.0000 17.0191 0.0000
# 6 0.0000 0.0000 0.0000 0.0000 0.0000 31.1921
#
#
#
# Elastic Compliance Matrix: (Units=1/GPa)
#
#
# Indices 1 2 3 4 5 6 
#
# 1 0.018569 -0.000520 -0.000212 0.000000 0.000000 0.000000
# 2 -0.000520 0.012410 -0.001955 0.000000 0.000000 0.000000
# 3 -0.000212 -0.001955 0.010940 0.000000 0.000000 0.000000
# 4 0.000000 0.000000 0.000000 0.049666 0.000000 0.000000
# 5 0.000000 0.000000 0.000000 0.000000 0.058757 0.000000
# 6 0.000000 0.000000 0.000000 0.000000 0.000000 0.032059
#
#
# Mechanical properties :
#
#
# Convention : Reuss Voigt Hill
#
# Bulk Modulus (GPa) = 27.36391 29.86809 28.61600
# Shear Modulus (GPa) = 25.00524 27.81520 26.41022
#
# Velocity S-wave (km/s) = 3.22495 3.40133 3.31431
# Velocity P-wave (km/s) = 5.02478 5.27714 5.15251
#
# Compressibility (1/GPa) = 0.03654448
#
# Stress axis : x y z
#
# Youngs Moduli (GPa) = 53.85201 80.58309 91.40463
#
# Poissons Ratio (x) = 0.04192 0.01942
# Poissons Ratio (y) = 0.02801 0.17868
# Poissons Ratio (z) = 0.01144 0.15752
#
# Static dielectric constant tensor:
#      x y z
#    x 2.002370 0.000000 0.000000 
#    y 0.000000 1.929010 0.000000 
#    z 0.000000 0.000000 1.882160 
# 
# From -- ./inp_files/17814.got.cif
#   From: 2010.05.17/outbox.cif.g08.bks.cpg/sg55_9_cif.got.tgz:17814.got - 2010.06.03 13:27:54.
