data_PCOD9426181
_publ_section_title
;
Structure prediction by ZEFSAII (Michael W. Deem and Ramdas Pophale) SiO2 
 PCOD9426181
Probable space group: P B A M
;
_chemical_formula_sum "Si O2"
_cell_formula_units_Z 64
_cell_length_a 11.332129
_cell_length_b 29.787147
_cell_length_c 7.436338
_cell_angle_alpha 90.000000
_cell_angle_beta 90.000000
_cell_angle_gamma 90.000000
_cell_volume 2510.149220
_symmetry_space_group_name_H-M "P B A M"
_symmetry_group_IT_number 55
_symmetry_cell_setting 'orthorhombic'
loop_
_space_group_symop_operation_xyz
x,y,z
-x,-y,z
1/2+x,1/2-y,-z
1/2-x,1/2+y,-z
-x,-y,-z
x,y,-z
1/2-x,1/2+y,z
1/2+x,1/2-y,z
loop_
_atom_site_type_symbol
_atom_site_label
_atom_site_fract_x
_atom_site_fract_y
_atom_site_fract_z
Si Si1 0.647181 0.638773 0.707448
Si Si2 0.518390 0.772520 0.291277
Si Si3 0.517473 0.951050 0.792652
Si Si4 0.258263 0.949246 0.717433
Si Si5 0.886549 0.969285 0.282703
Si Si6 0.386841 0.635584 0.794875
Si Si7 0.740737 0.228170 0.721529
Si Si8 0.869908 0.362249 0.780999
O O1 0.681239 0.635627 0.500000
O O2 0.666050 0.588664 0.779435
O O3 0.509683 0.651292 0.712912
O O4 0.729513 0.677468 0.782522
O O5 0.518169 0.759014 0.500000
O O6 0.642836 0.754761 0.215633
O O7 0.390549 0.758495 0.217161
O O8 0.533966 0.826242 0.278658
O O9 0.384046 0.933158 0.784972
O O10 0.599578 0.912361 0.715556
O O11 0.500000 0.000000 0.706234
O O12 0.552965 0.957721 0.000000
O O13 0.258142 0.951712 0.500000
O O14 0.222394 0.999269 0.776182
O O15 0.887923 0.964753 0.500000
O O16 0.885308 0.918973 0.211111
O O17 0.000000 0.000000 0.236236
O O18 0.261461 0.650640 0.716423
O O19 0.390421 0.650220 0.000000
O O20 0.738312 0.229676 0.500000
O O21 0.869047 0.363301 0.000000
#
# Coordination Sequence:
#
# PCOD9426181 Si02
#       8
#     8   8   8   8   8   8   8   8
#     4  10  20  37  58  83 118 154 189 240 302 350
#     4  10  21  40  66  95 121 154 199 245 297 361
#     4  10  21  38  58  79 111 155 198 240 291 350
#     4  10  20  34  56  83 113 146 188 240 292 349
#     4  10  19  35  54  79 116 155 194 241 300 354
#     4  11  23  37  56  84 117 156 205 248 289 349
#     4   9  20  37  63  95 122 148 192 246 296 355
#     4  10  23  41  58  83 121 160 199 245 298 355
#
# _framework density 25.496493000000001
#
# number of rings (size 3 to 8) (size 9 to 14) (size 15 to 20)
#    0.000    2.000    1.250    1.875    1.750    5.000 
#    0.000    1.875    0.000    0.000    0.000    0.000 
#    0.000    0.000    0.000    0.000    0.000    0.000 
#
# Total GULP energy -357765.456766 kJ/mol
# GULP energy per Si atom -5590.085262 kJ/mol
# Density = 2.543846 g / cm^3
# Si number density = 25.496493 Si / 1000 Ang^3
#
#
#
# Elastic Constant Matrix: (Units=GPa)
#
#
# Indices 1 2 3 4 5 6 
#
# 1 168.9635 34.4625 -0.7621 0.0000 0.0000 0.0000
# 2 34.4625 81.2655 1.1071 0.0000 0.0000 0.0000
# 3 -0.7621 1.1071 86.0148 0.0000 0.0000 0.0000
# 4 0.0000 0.0000 0.0000 8.6431 0.0000 0.0000
# 5 0.0000 0.0000 0.0000 0.0000 8.1374 0.0000
# 6 0.0000 0.0000 0.0000 0.0000 0.0000 46.6440
#
#
#
# Elastic Compliance Matrix: (Units=1/GPa)
#
#
# Indices 1 2 3 4 5 6 
#
# 1 0.006480 -0.002749 0.000093 0.000000 0.000000 0.000000
# 2 -0.002749 0.013474 -0.000198 0.000000 0.000000 0.000000
# 3 0.000093 -0.000198 0.011629 0.000000 0.000000 0.000000
# 4 0.000000 0.000000 0.000000 0.115699 0.000000 0.000000
# 5 0.000000 0.000000 0.000000 0.000000 0.122889 0.000000
# 6 0.000000 0.000000 0.000000 0.000000 0.000000 0.021439
#
#
# Mechanical properties :
#
#
# Convention : Reuss Voigt Hill
#
# Bulk Modulus (GPa) = 38.64797 45.09542 41.87169
# Shear Modulus (GPa) = 16.34289 32.78064 24.56177
#
# Velocity S-wave (km/s) = 2.53452 3.58955 3.10714
# Velocity P-wave (km/s) = 4.87402 5.90805 5.41577
#
# Compressibility (1/GPa) = 0.02587458
#
# Stress axis : x y z
#
# Youngs Moduli (GPa) = 154.33122 74.21779 85.98984
#
# Poissons Ratio (x) = 0.20403 -0.00798
# Poissons Ratio (y) = 0.42427 0.01701
# Poissons Ratio (z) = -0.01432 0.01468
#
# Static dielectric constant tensor:
#      x y z
#    x 2.037330 0.000000 0.000000 
#    y 0.000000 2.021900 0.000000 
#    z 0.000000 0.000000 1.954340 
# 
# From -- ./inp_files/4476.got.cif
#   From: 2010.05.17/outbox.cif.g08.bks.cpg/sg55_3_cif.got.tgz:4476.got - 2010.06.03 13:27:54.
