data_PCOD9426720
_publ_section_title
;
Structure prediction by ZEFSAII (Michael W. Deem and Ramdas Pophale) SiO2 
 PCOD9426720
Probable space group: P B A M
;
_chemical_formula_sum "Si O2"
_cell_formula_units_Z 64
_cell_length_a 22.259081
_cell_length_b 15.739972
_cell_length_c 10.056671
_cell_angle_alpha 90.000000
_cell_angle_beta 90.000000
_cell_angle_gamma 90.000000
_cell_volume 3523.428216
_symmetry_space_group_name_H-M "P B A M"
_symmetry_group_IT_number 55
_symmetry_cell_setting 'orthorhombic'
loop_
_space_group_symop_operation_xyz
x,y,z
-x,-y,z
1/2+x,1/2-y,-z
1/2-x,1/2+y,-z
-x,-y,-z
x,y,-z
1/2-x,1/2+y,z
1/2+x,1/2-y,z
loop_
_atom_site_type_symbol
_atom_site_label
_atom_site_fract_x
_atom_site_fract_y
_atom_site_fract_z
Si Si1 0.660897 0.730629 0.848752
Si Si2 0.705895 0.583883 0.657263
Si Si3 0.993523 0.901607 0.651978
Si Si4 0.474416 0.248399 0.156491
Si Si5 0.352264 0.594418 0.644180
Si Si6 0.817687 0.590763 0.155893
Si Si7 0.043088 0.422572 0.161335
Si Si8 0.710769 0.291338 0.854781
O O1 0.674630 0.661006 0.736434
O O2 0.596336 0.773608 0.834819
O O3 0.717358 0.793179 0.842744
O O4 0.663053 0.692511 0.000000
O O5 0.717468 0.601963 0.500000
O O6 0.661121 0.504447 0.664676
O O7 0.766605 0.561199 0.740216
O O8 0.018166 0.893416 0.500000
O O9 0.922403 0.887415 0.646016
O O10 0.018172 0.832143 0.753851
O O11 0.000000 0.000000 0.693293
O O12 0.515312 0.168952 0.201378
O O13 0.487896 0.265659 0.000000
O O14 0.327090 0.616702 0.500000
O O15 0.319848 0.650908 0.749501
O O16 0.886282 0.569041 0.195648
O O17 0.809655 0.693317 0.157450
O O18 0.807672 0.564627 0.000000
O O19 0.000000 0.500000 0.206442
O O20 0.041345 0.422664 0.000000
O O21 0.692757 0.321378 0.000000
#
# Coordination Sequence:
#
# PCOD9426720 Si02
#       8
#     8   8   8   8   8   8   8   8
#     4   9  19  35  53  76 104 132 168 212 258 307
#     4  10  20  34  53  75 101 135 172 210 255 309
#     4  10  21  37  55  76 107 145 179 211 257 319
#     4  10  20  35  56  81 108 138 176 220 260 305
#     4  10  21  34  49  74 104 133 170 212 253 304
#     4   9  18  34  54  76 102 132 171 215 259 307
#     4   9  18  33  55  81 107 139 178 218 263 316
#     4   9  18  32  51  75 102 132 166 209 258 306
#
# _framework density 18.164128999999999
#
# number of rings (size 3 to 8) (size 9 to 14) (size 15 to 20)
#    0.000    2.500    0.000    2.625    0.000    7.250 
#    0.000    3.125    0.000    1.500    0.000    0.000 
#    0.000    0.000    0.000    0.000    0.000    0.000 
#
# Total GULP energy -356622.744546 kJ/mol
# GULP energy per Si atom -5572.230384 kJ/mol
# Density = 1.812279 g / cm^3
# Si number density = 18.164129 Si / 1000 Ang^3
#
#
#
# Elastic Constant Matrix: (Units=GPa)
#
#
# Indices 1 2 3 4 5 6 
#
# 1 58.2705 -11.2374 4.9736 0.0000 0.0000 0.0000
# 2 -11.2374 22.1109 11.2149 0.0000 0.0000 0.0000
# 3 4.9736 11.2149 56.7191 0.0000 0.0000 0.0000
# 4 0.0000 0.0000 0.0000 27.7212 0.0000 0.0000
# 5 0.0000 0.0000 0.0000 0.0000 6.2409 0.0000
# 6 0.0000 0.0000 0.0000 0.0000 0.0000 12.4891
#
#
#
# Elastic Compliance Matrix: (Units=1/GPa)
#
#
# Indices 1 2 3 4 5 6 
#
# 1 0.019870 0.012206 -0.004156 0.000000 0.000000 0.000000
# 2 0.012206 0.057767 -0.012492 0.000000 0.000000 0.000000
# 3 -0.004156 -0.012492 0.020465 0.000000 0.000000 0.000000
# 4 0.000000 0.000000 0.000000 0.036074 0.000000 0.000000
# 5 0.000000 0.000000 0.000000 0.000000 0.160234 0.000000
# 6 0.000000 0.000000 0.000000 0.000000 0.000000 0.080070
#
#
# Mechanical properties :
#
#
# Convention : Reuss Voigt Hill
#
# Bulk Modulus (GPa) = 11.20848 16.33363 13.77105
# Shear Modulus (GPa) = 12.10356 18.10019 15.10187
#
# Velocity S-wave (km/s) = 2.58416 3.16013 2.88655
# Velocity P-wave (km/s) = 3.88432 4.72515 4.32521
#
# Compressibility (1/GPa) = 0.08921820
#
# Stress axis : x y z
#
# Youngs Moduli (GPa) = 50.32694 17.31106 48.86331
#
# Poissons Ratio (x) = -0.21131 0.20307
# Poissons Ratio (y) = -0.61431 0.61042
# Poissons Ratio (z) = 0.20915 0.21626
#
# Static dielectric constant tensor:
#      x y z
#    x 1.640530 0.000000 0.000000 
#    y 0.000000 1.619420 0.000000 
#    z 0.000000 0.000000 1.773390 
# 
# From -- ./inp_files/8961.got.cif
#   From: 2010.05.17/outbox.cif.g08.bks.cpg/sg55_5_cif.got.tgz:8961.got - 2010.06.03 13:27:54.
