data_PCOD9426705
_publ_section_title
;
Structure prediction by ZEFSAII (Michael W. Deem and Ramdas Pophale) SiO2 
 PCOD9426705
Probable space group: P B A M
;
_chemical_formula_sum "Si O2"
_cell_formula_units_Z 64
_cell_length_a 16.234798
_cell_length_b 22.746301
_cell_length_c 8.838429
_cell_angle_alpha 90.000000
_cell_angle_beta 90.000000
_cell_angle_gamma 90.000000
_cell_volume 3263.869220
_symmetry_space_group_name_H-M "P B A M"
_symmetry_group_IT_number 55
_symmetry_cell_setting 'orthorhombic'
loop_
_space_group_symop_operation_xyz
x,y,z
-x,-y,z
1/2+x,1/2-y,-z
1/2-x,1/2+y,-z
-x,-y,-z
x,y,-z
1/2-x,1/2+y,z
1/2+x,1/2-y,z
loop_
_atom_site_type_symbol
_atom_site_label
_atom_site_fract_x
_atom_site_fract_y
_atom_site_fract_z
Si Si1 0.263771 0.966292 0.316927
Si Si2 0.252248 0.337236 0.319186
Si Si3 0.907008 0.994323 0.173040
Si Si4 0.579818 0.700838 0.823198
Si Si5 0.577241 0.958535 0.682876
Si Si6 0.102669 0.667688 0.820265
Si Si7 0.904979 0.855713 0.832862
Si Si8 0.229830 0.208785 0.676034
O O1 0.262785 0.968077 0.500000
O O2 0.282360 0.899405 0.264227
O O3 0.171700 0.979964 0.259005
O O4 0.335998 0.011143 0.267838
O O5 0.246214 0.339444 0.500000
O O6 0.346890 0.327735 0.271407
O O7 0.213034 0.275465 0.269903
O O8 0.892925 0.924865 0.165759
O O9 0.909119 0.018597 0.000000
O O10 0.000000 0.000000 0.237049
O O11 0.562692 0.768863 0.777856
O O12 0.499270 0.661678 0.811614
O O13 0.605584 0.702712 0.000000
O O14 0.577831 0.956043 0.500000
O O15 0.571124 0.892024 0.743708
O O16 0.500000 0.000000 0.727465
O O17 0.196974 0.678948 0.769814
O O18 0.096500 0.660588 0.000000
O O19 0.851184 0.827989 0.702517
O O20 0.879686 0.832632 0.000000
O O21 0.254490 0.210027 0.500000
#
# Coordination Sequence:
#
# PCOD9426705 Si02
#       8
#     8   8   8   8   8   8   8   8
#     4  10  21  37  56  79 109 144 182 224 269 318
#     4   9  19  35  53  75 103 135 174 218 263 314
#     4  10  21  36  55  80 110 145 181 216 261 322
#     4   9  19  35  55  78 105 138 173 215 267 321
#     4  10  22  39  58  80 109 147 188 230 277 328
#     4  10  20  36  57  79 105 138 179 225 272 321
#     4  10  20  34  52  77 108 137 171 215 262 315
#     4  10  20  34  54  79 106 137 174 217 266 321
#
# _framework density 19.608628
#
# number of rings (size 3 to 8) (size 9 to 14) (size 15 to 20)
#    0.000    2.250    0.000    2.250    0.000    7.500 
#    0.000    1.250    0.000    0.000    0.000    0.000 
#    0.000    0.000    0.000    0.000    0.000    0.000 
#
# Total GULP energy -356822.572856 kJ/mol
# GULP energy per Si atom -5575.352701 kJ/mol
# Density = 1.956400 g / cm^3
# Si number density = 19.608628 Si / 1000 Ang^3
#
#
#
# Elastic Constant Matrix: (Units=GPa)
#
#
# Indices 1 2 3 4 5 6 
#
# 1 27.0677 -4.0635 1.6003 0.0000 0.0000 0.0000
# 2 -4.0635 82.0707 8.1256 0.0000 0.0000 0.0000
# 3 1.6003 8.1256 4.2199 0.0000 0.0000 0.0000
# 4 0.0000 0.0000 0.0000 31.8583 0.0000 0.0000
# 5 0.0000 0.0000 0.0000 0.0000 23.5435 0.0000
# 6 0.0000 0.0000 0.0000 0.0000 0.0000 20.5676
#
#
#
# Elastic Compliance Matrix: (Units=1/GPa)
#
#
# Indices 1 2 3 4 5 6 
#
# 1 0.038922 0.004187 -0.022823 0.000000 0.000000 0.000000
# 2 0.004187 0.015505 -0.031444 0.000000 0.000000 0.000000
# 3 -0.022823 -0.031444 0.306177 0.000000 0.000000 0.000000
# 4 0.000000 0.000000 0.000000 0.031389 0.000000 0.000000
# 5 0.000000 0.000000 0.000000 0.000000 0.042475 0.000000
# 6 0.000000 0.000000 0.000000 0.000000 0.000000 0.048620
#
#
# Mechanical properties :
#
#
# Convention : Reuss Voigt Hill
#
# Bulk Modulus (GPa) = 3.83958 13.85367 8.84662
# Shear Modulus (GPa) = 7.46199 22.37361 14.91780
#
# Velocity S-wave (km/s) = 1.95288 3.38155 2.76121
# Velocity P-wave (km/s) = 2.65468 4.72513 3.83238
#
# Compressibility (1/GPa) = 0.26044501
#
# Stress axis : x y z
#
# Youngs Moduli (GPa) = 25.69218 64.49510 3.26609
#
# Poissons Ratio (x) = -0.27003 0.07454
# Poissons Ratio (y) = -0.10757 0.10270
# Poissons Ratio (z) = 0.58637 2.02796
#
# Static dielectric constant tensor:
#      x y z
#    x 1.674350 0.000000 0.000000 
#    y 0.000000 1.714880 0.000000 
#    z 0.000000 0.000000 1.692170 
# 
# From -- ./inp_files/8028.got.cif
#   From: 2010.05.17/outbox.cif.g08.bks.cpg/sg55_5_cif.got.tgz:8028.got - 2010.06.03 13:27:54.
