data_PCOD9426565
_publ_section_title
;
Structure prediction by ZEFSAII (Michael W. Deem and Ramdas Pophale) SiO2 
 PCOD9426565
Probable space group: P B A M
;
_chemical_formula_sum "Si O2"
_cell_formula_units_Z 64
_cell_length_a 29.170475
_cell_length_b 10.363865
_cell_length_c 14.221678
_cell_angle_alpha 90.000000
_cell_angle_beta 90.000000
_cell_angle_gamma 90.000000
_cell_volume 4299.481550
_symmetry_space_group_name_H-M "P B A M"
_symmetry_group_IT_number 55
_symmetry_cell_setting 'orthorhombic'
loop_
_space_group_symop_operation_xyz
x,y,z
-x,-y,z
1/2+x,1/2-y,-z
1/2-x,1/2+y,-z
-x,-y,-z
x,y,-z
1/2-x,1/2+y,z
1/2+x,1/2-y,z
loop_
_atom_site_type_symbol
_atom_site_label
_atom_site_fract_x
_atom_site_fract_y
_atom_site_fract_z
Si Si1 0.548097 0.156550 0.612827
Si Si2 0.148128 0.720215 0.701052
Si Si3 0.196650 0.673900 0.891759
Si Si4 0.446273 0.150990 0.386853
Si Si5 0.793374 0.509011 0.387771
Si Si6 0.230273 0.954911 0.107547
Si Si7 0.355117 0.742495 0.613597
Si Si8 0.192182 0.995119 0.299834
O O1 0.547316 0.171497 0.500000
O O2 0.497088 0.195917 0.643912
O O3 0.593090 0.229820 0.647528
O O4 0.554652 0.003677 0.628687
O O5 0.158893 0.691731 0.810937
O O6 0.095649 0.710505 0.669785
O O7 0.177112 0.613698 0.644101
O O8 0.167915 0.860508 0.677538
O O9 0.223702 0.539160 0.878808
O O10 0.230833 0.798705 0.880230
O O11 0.180143 0.678584 0.000000
O O12 0.440823 0.171637 0.500000
O O13 0.787024 0.506488 0.500000
O O14 0.822455 0.636430 0.362906
O O15 0.744101 0.508365 0.338517
O O16 0.195923 0.004520 0.187069
O O17 0.215796 0.978765 0.000000
O O18 0.355742 0.733290 0.500000
O O19 0.334194 0.614184 0.656172
#
# Coordination Sequence:
#
# PCOD9426565 Si02
#       8
#     8   8   8   8   8   8   8   8
#     4   8  15  30  50  69  89 119 161 203 235 268
#     4  11  20  31  48  71  94 121 161 195 233 282
#     4   9  18  32  49  68  92 121 157 198 238 277
#     4   9  16  29  50  72  91 117 159 202 235 274
#     4  11  21  32  45  64  95 134 166 187 214 271
#     4   9  18  32  48  66  89 122 160 198 233 269
#     4  10  20  33  47  67  97 130 161 193 230 272
#     4  11  22  31  44  68 100 130 153 190 235 282
#
# _framework density 14.885515
#
# number of rings (size 3 to 8) (size 9 to 14) (size 15 to 20)
#    0.000    2.250    2.500    2.250    1.750    3.000 
#    0.000    0.625    0.000    2.250    0.000    2.625 
#    0.000    4.000    0.000    0.000    0.000    0.000 
#
# Total GULP energy -356496.119081 kJ/mol
# GULP energy per Si atom -5570.251861 kJ/mol
# Density = 1.485164 g / cm^3
# Si number density = 14.885515 Si / 1000 Ang^3
#
#
#
# Elastic Constant Matrix: (Units=GPa)
#
#
# Indices 1 2 3 4 5 6 
#
# 1 121.1732 49.2757 38.1288 0.0000 0.0000 0.0000
# 2 49.2757 75.2672 33.1206 0.0000 0.0000 0.0000
# 3 38.1288 33.1206 49.2422 0.0000 0.0000 0.0000
# 4 0.0000 0.0000 0.0000 18.8750 0.0000 0.0000
# 5 0.0000 0.0000 0.0000 0.0000 10.6740 0.0000
# 6 0.0000 0.0000 0.0000 0.0000 0.0000 -11.3223
#
#
#
# Elastic Compliance Matrix: (Units=1/GPa)
#
#
# Indices 1 2 3 4 5 6 
#
# 1 0.012329 -0.005498 -0.005848 0.000000 0.000000 0.000000
# 2 -0.005498 0.021323 -0.010085 0.000000 0.000000 0.000000
# 3 -0.005848 -0.010085 0.031620 0.000000 0.000000 0.000000
# 4 0.000000 0.000000 0.000000 0.052980 0.000000 0.000000
# 5 0.000000 0.000000 0.000000 0.000000 0.093686 0.000000
# 6 0.000000 0.000000 0.000000 0.000000 0.000000 -0.088322
#
#
# Mechanical properties :
#
#
# Convention : Reuss Voigt Hill
#
# Bulk Modulus (GPa) = 44.62520 54.08142 49.35331
# Shear Modulus (GPa) = 28.74430 11.98916 20.36673
#
# Velocity S-wave (km/s) = 4.39911 2.84108 3.70296
# Velocity P-wave (km/s) = 7.47308 6.86824 7.17704
#
# Compressibility (1/GPa) = 0.02240886
#
# Stress axis : x y z
#
# Youngs Moduli (GPa) = 81.11208 46.89749 31.62598
#
# Poissons Ratio (x) = 0.25783 0.18496
# Poissons Ratio (y) = 0.44593 0.31895
# Poissons Ratio (z) = 0.47438 0.47296
#
# Static dielectric constant tensor:
#      x y z
#    x 1.490090 0.000000 0.000000 
#    y 0.000000 1.496770 0.000000 
#    z 0.000000 0.000000 1.497850 
# 
# From -- ./inp_files/20199.got.cif
#   From: 2010.05.17/outbox.cif.g08.bks.cpg/sg55_11_cif.got.tgz:20199.got - 2010.06.03 13:27:54.
