data_PCOD9426671
_publ_section_title
;
Structure prediction by ZEFSAII (Michael W. Deem and Ramdas Pophale) SiO2 
 PCOD9426671
Probable space group: P B A M
;
_chemical_formula_sum "Si O2"
_cell_formula_units_Z 40
_cell_length_a 29.421232
_cell_length_b 6.927739
_cell_length_c 8.102906
_cell_angle_alpha 90.000000
_cell_angle_beta 90.000000
_cell_angle_gamma 90.000000
_cell_volume 1651.555501
_symmetry_space_group_name_H-M "P B A M"
_symmetry_group_IT_number 55
_symmetry_cell_setting 'orthorhombic'
loop_
_space_group_symop_operation_xyz
x,y,z
-x,-y,z
1/2+x,1/2-y,-z
1/2-x,1/2+y,-z
-x,-y,-z
x,y,-z
1/2-x,1/2+y,z
1/2+x,1/2-y,z
loop_
_atom_site_type_symbol
_atom_site_label
_atom_site_fract_x
_atom_site_fract_y
_atom_site_fract_z
Si Si1 0.631311 0.870955 0.818734
Si Si2 0.657016 0.412792 0.181064
Si Si3 0.789939 0.976689 0.500000
Si Si4 0.438161 0.679805 0.306151
Si Si5 0.315270 0.077084 0.500000
Si Si6 0.963648 0.275979 0.306229
O O1 0.644626 0.642309 0.816347
O O2 0.657232 0.965908 0.665982
O O3 0.577275 0.877319 0.788318
O O4 0.643709 0.942848 0.000000
O O5 0.690750 0.379984 0.333912
O O6 0.608693 0.306856 0.208289
O O7 0.676289 0.370812 0.000000
O O8 0.735988 0.996297 0.500000
O O9 0.810171 0.190964 0.500000
O O10 0.429972 0.722854 0.500000
O O11 0.483938 0.789953 0.251521
O O12 0.451563 0.452555 0.298937
O O13 0.961370 0.328983 0.500000
#
# Coordination Sequence:
#
# PCOD9426671 Si02
#       6
#     8   8   4   8   4   8
#     4   9  16  26  41  61  86 116 147 178 217 264
#     4   9  16  26  41  61  86 116 147 178 217 264
#     4  10  20  34  49  65  87 115 148 188 227 262
#     4   8  12  19  33  54  83 117 146 171 205 255
#     4  10  20  34  49  65  87 115 148 188 227 262
#     4   8  12  19  33  54  83 117 146 171 205 255
#
# _framework density 24.219594000000001
#
# number of rings (size 3 to 8) (size 9 to 14) (size 15 to 20)
#    0.000    3.200    2.000    1.200    0.000    1.600 
#    0.000    4.000    0.000    0.000    0.000    0.000 
#    0.000    3.200    0.000    3.600    0.000    4.000 
#
# Total GULP energy -223774.703125 kJ/mol
# GULP energy per Si atom -5594.367578 kJ/mol
# Density = 2.416447 g / cm^3
# Si number density = 24.219594 Si / 1000 Ang^3
#
#
#
# Elastic Constant Matrix: (Units=GPa)
#
#
# Indices 1 2 3 4 5 6 
#
# 1 140.1565 21.9740 112.5038 0.0000 0.0000 0.0000
# 2 21.9740 96.5987 18.2647 0.0000 0.0000 0.0000
# 3 112.5038 18.2647 198.7605 0.0000 0.0000 0.0000
# 4 0.0000 0.0000 0.0000 -7.6564 0.0000 0.0000
# 5 0.0000 0.0000 0.0000 0.0000 -3.2736 0.0000
# 6 0.0000 0.0000 0.0000 0.0000 0.0000 33.7199
#
#
#
# Elastic Compliance Matrix: (Units=1/GPa)
#
#
# Indices 1 2 3 4 5 6 
#
# 1 0.013324 -0.001633 -0.007392 0.000000 0.000000 0.000000
# 2 -0.001633 0.010735 -0.000062 0.000000 0.000000 0.000000
# 3 -0.007392 -0.000062 0.009221 0.000000 0.000000 0.000000
# 4 0.000000 0.000000 0.000000 -0.130609 0.000000 0.000000
# 5 0.000000 0.000000 0.000000 0.000000 -0.305471 0.000000
# 6 0.000000 0.000000 0.000000 0.000000 0.000000 0.029656
#
#
# Mechanical properties :
#
#
# Convention : Reuss Voigt Hill
#
# Bulk Modulus (GPa) = 66.19782 82.33340 74.26561
# Shear Modulus (GPa) = -14.28842 23.40951 4.56055
#
# Velocity S-wave (km/s) = -2.43153 3.11232 1.37371
# Velocity P-wave (km/s) = 4.41685 6.85446 5.76595
#
# Compressibility (1/GPa) = 0.01510624
#
# Stress axis : x y z
#
# Youngs Moduli (GPa) = 75.04997 93.14992 108.44935
#
# Poissons Ratio (x) = 0.15215 0.80165
# Poissons Ratio (y) = 0.12258 0.00672
# Poissons Ratio (z) = 0.55476 0.00577
#
# Static dielectric constant tensor:
#      x y z
#    x 1.866470 0.000000 0.000000 
#    y 0.000000 2.046150 0.000000 
#    z 0.000000 0.000000 1.867220 
# 
# From -- ./inp_files/2520.got.cif
#   From: 2010.05.17/outbox.cif.g08.bks.cpg/sg55_2_cif.got.tgz:2520.got - 2010.06.03 13:27:54.
