data_PCOD9426249
_publ_section_title
;
Structure prediction by ZEFSAII (Michael W. Deem and Ramdas Pophale) SiO2 
 PCOD9426249
Probable space group: P B A M
;
_chemical_formula_sum "Si O2"
_cell_formula_units_Z 64
_cell_length_a 17.578225
_cell_length_b 22.518006
_cell_length_c 8.330247
_cell_angle_alpha 90.000000
_cell_angle_beta 90.000000
_cell_angle_gamma 90.000000
_cell_volume 3297.333147
_symmetry_space_group_name_H-M "P B A M"
_symmetry_group_IT_number 55
_symmetry_cell_setting 'orthorhombic'
loop_
_space_group_symop_operation_xyz
x,y,z
-x,-y,z
1/2+x,1/2-y,-z
1/2-x,1/2+y,-z
-x,-y,-z
x,y,-z
1/2-x,1/2+y,z
1/2+x,1/2-y,z
loop_
_atom_site_type_symbol
_atom_site_label
_atom_site_fract_x
_atom_site_fract_y
_atom_site_fract_z
Si Si1 0.936223 0.575445 0.815461
Si Si2 0.346439 0.470467 0.304649
Si Si3 0.168296 0.785022 0.811124
Si Si4 0.131068 0.105844 0.303820
Si Si5 0.209839 0.656473 0.305668
Si Si6 0.783687 0.618151 0.309920
Si Si7 0.904974 0.446331 0.687531
Si Si8 0.461749 0.367493 0.694291
O O1 0.865376 0.616773 0.772290
O O2 0.908219 0.508048 0.782067
O O3 0.011948 0.583037 0.710135
O O4 0.957982 0.581912 0.000000
O O5 0.344788 0.471548 0.500000
O O6 0.356086 0.537802 0.250213
O O7 0.269295 0.437082 0.253487
O O8 0.416458 0.427676 0.258955
O O9 0.176744 0.716736 0.764579
O O10 0.233517 0.823783 0.724030
O O11 0.087905 0.813197 0.759111
O O12 0.177848 0.793028 0.000000
O O13 0.130219 0.104714 0.500000
O O14 0.203161 0.145061 0.255578
O O15 0.048823 0.129205 0.251782
O O16 0.207174 0.660183 0.500000
O O17 0.159525 0.599361 0.259659
O O18 0.795116 0.611810 0.500000
O O19 0.892723 0.460718 0.500000
O O20 0.460318 0.364803 0.500000
#
# Coordination Sequence:
#
# PCOD9426249 Si02
#       8
#     8   8   8   8   8   8   8   8
#     4  11  21  34  55  86 120 147 181 229 287 344
#     4   8  14  26  51  86 116 139 169 214 267 320
#     4  11  23  39  56  75 107 148 187 232 284 331
#     4   9  16  29  54  87 113 135 172 223 270 319
#     4  10  21  38  58  80 107 145 193 238 277 324
#     4  10  19  35  59  83 109 145 189 232 272 326
#     4  10  20  36  58  82 112 150 191 233 279 333
#     4   9  17  32  56  83 111 144 178 216 264 327
#
# _framework density 19.409625999999999
#
# number of rings (size 3 to 8) (size 9 to 14) (size 15 to 20)
#    0.000    2.250    0.000    5.625    0.000    4.500 
#    2.250    0.625    0.000    7.500    0.000    0.000 
#    0.000    0.000    0.000    0.000    0.000    0.000 
#
# Total GULP energy -357344.353390 kJ/mol
# GULP energy per Si atom -5583.505522 kJ/mol
# Density = 1.936545 g / cm^3
# Si number density = 19.409626 Si / 1000 Ang^3
#
#
#
# Elastic Constant Matrix: (Units=GPa)
#
#
# Indices 1 2 3 4 5 6 
#
# 1 79.7102 13.8772 -1.8380 0.0000 0.0000 0.0000
# 2 13.8772 51.1471 4.2225 0.0000 0.0000 0.0000
# 3 -1.8380 4.2225 19.0728 0.0000 0.0000 0.0000
# 4 0.0000 0.0000 0.0000 -7.5428 0.0000 0.0000
# 5 0.0000 0.0000 0.0000 0.0000 2.6612 0.0000
# 6 0.0000 0.0000 0.0000 0.0000 0.0000 8.6882
#
#
#
# Elastic Compliance Matrix: (Units=1/GPa)
#
#
# Indices 1 2 3 4 5 6 
#
# 1 0.013250 -0.003769 0.002111 0.000000 0.000000 0.000000
# 2 -0.003769 0.020988 -0.005010 0.000000 0.000000 0.000000
# 3 0.002111 -0.005010 0.053743 0.000000 0.000000 0.000000
# 4 0.000000 0.000000 0.000000 -0.132576 0.000000 0.000000
# 5 0.000000 0.000000 0.000000 0.000000 0.375765 0.000000
# 6 0.000000 0.000000 0.000000 0.000000 0.000000 0.115099
#
#
# Mechanical properties :
#
#
# Convention : Reuss Voigt Hill
#
# Bulk Modulus (GPa) = 13.39655 20.27260 16.83458
# Shear Modulus (GPa) = 10.32021 9.67254 9.99638
#
# Velocity S-wave (km/s) = 2.30838 2.23477 2.27187
# Velocity P-wave (km/s) = 3.74457 4.13838 3.94639
#
# Compressibility (1/GPa) = 0.07464610
#
# Stress axis : x y z
#
# Youngs Moduli (GPa) = 75.46956 47.64680 18.60694
#
# Poissons Ratio (x) = 0.17960 -0.03929
# Poissons Ratio (y) = 0.28448 0.09322
# Poissons Ratio (z) = -0.15935 0.23870
#
# Static dielectric constant tensor:
#      x y z
#    x 1.682130 0.000000 0.000000 
#    y 0.000000 1.653890 0.000000 
#    z 0.000000 0.000000 1.664200 
# 
# From -- ./inp_files/8077.got.cif
#   From: 2010.05.17/outbox.cif.g08.bks.cpg/sg55_5_cif.got.tgz:8077.got - 2010.06.03 13:27:54.
