data_PCOD9426399
_publ_section_title
;
Structure prediction by ZEFSAII (Michael W. Deem and Ramdas Pophale) SiO2 
 PCOD9426399
Probable space group: P B A M
;
_chemical_formula_sum "Si O2"
_cell_formula_units_Z 64
_cell_length_a 15.804084
_cell_length_b 24.538272
_cell_length_c 7.897400
_cell_angle_alpha 90.000000
_cell_angle_beta 90.000000
_cell_angle_gamma 90.000000
_cell_volume 3062.650511
_symmetry_space_group_name_H-M "P B A M"
_symmetry_group_IT_number 55
_symmetry_cell_setting 'orthorhombic'
loop_
_space_group_symop_operation_xyz
x,y,z
-x,-y,z
1/2+x,1/2-y,-z
1/2-x,1/2+y,-z
-x,-y,-z
x,y,-z
1/2-x,1/2+y,z
1/2+x,1/2-y,z
loop_
_atom_site_type_symbol
_atom_site_label
_atom_site_fract_x
_atom_site_fract_y
_atom_site_fract_z
Si Si1 0.401786 0.000496 0.206725
Si Si2 0.849177 0.888340 0.300540
Si Si3 0.333342 0.115730 0.199480
Si Si4 0.993554 0.313171 0.701623
Si Si5 0.100404 0.993919 0.703441
Si Si6 0.157938 0.382497 0.794725
Si Si7 0.654877 0.625533 0.198048
Si Si8 0.992838 0.809117 0.301291
O O1 0.358039 0.944721 0.262032
O O2 0.500000 0.000000 0.257933
O O3 0.358165 0.055770 0.267136
O O4 0.400754 0.001523 0.000000
O O5 0.868770 0.894046 0.500000
O O6 0.754835 0.866283 0.279758
O O7 0.919507 0.847744 0.226741
O O8 0.856561 0.950203 0.233201
O O9 0.412935 0.154896 0.226206
O O10 0.317937 0.110999 0.000000
O O11 0.981121 0.311269 0.500000
O O12 0.079527 0.345830 0.738991
O O13 0.000644 0.251663 0.770541
O O14 0.111453 0.988491 0.500000
O O15 0.136072 0.938820 0.782939
O O16 0.000000 0.000000 0.735620
O O17 0.250381 0.363431 0.736859
O O18 0.158752 0.383009 0.000000
O O19 0.581083 0.659200 0.286675
O O20 0.651604 0.639704 0.000000
O O21 0.972338 0.801981 0.500000
#
# Coordination Sequence:
#
# PCOD9426399 Si02
#       8
#     8   8   8   8   8   8   8   8
#     4   9  16  32  59  84 112 155 188 217 282 358
#     4  10  21  39  62  87 117 155 201 244 288 347
#     4  11  22  38  62  89 121 155 190 240 303 359
#     4  11  24  41  62  86 112 152 205 251 291 349
#     4  10  19  36  62  88 121 162 197 238 295 352
#     4  10  21  39  60  86 121 155 189 238 296 353
#     4  11  23  37  60  93 125 154 194 245 296 355
#     4  10  23  44  63  80 114 160 202 246 296 349
#
# _framework density 20.896934000000002
#
# number of rings (size 3 to 8) (size 9 to 14) (size 15 to 20)
#    0.000    1.750    2.500    1.875    0.000    5.250 
#    0.000    5.625    0.000    0.000    0.000    0.000 
#    0.000    0.000    0.000    0.000    0.000    0.000 
#
# Total GULP energy -357622.383525 kJ/mol
# GULP energy per Si atom -5587.849743 kJ/mol
# Density = 2.084937 g / cm^3
# Si number density = 20.896934 Si / 1000 Ang^3
#
#
#
# Elastic Constant Matrix: (Units=GPa)
#
#
# Indices 1 2 3 4 5 6 
#
# 1 114.8204 43.0003 -18.9382 0.0000 0.0000 0.0000
# 2 43.0003 135.9675 -8.5637 0.0000 0.0000 0.0000
# 3 -18.9382 -8.5637 17.6523 0.0000 0.0000 0.0000
# 4 0.0000 0.0000 0.0000 24.0434 0.0000 0.0000
# 5 0.0000 0.0000 0.0000 0.0000 22.2014 0.0000
# 6 0.0000 0.0000 0.0000 0.0000 0.0000 -3.4267
#
#
#
# Elastic Compliance Matrix: (Units=1/GPa)
#
#
# Indices 1 2 3 4 5 6 
#
# 1 0.011651 -0.002989 0.011050 0.000000 0.000000 0.000000
# 2 -0.002989 0.008353 0.000846 0.000000 0.000000 0.000000
# 3 0.011050 0.000846 0.068915 0.000000 0.000000 0.000000
# 4 0.000000 0.000000 0.000000 0.041591 0.000000 0.000000
# 5 0.000000 0.000000 0.000000 0.000000 0.045042 0.000000
# 6 0.000000 0.000000 0.000000 0.000000 0.000000 -0.291826
#
#
# Mechanical properties :
#
#
# Convention : Reuss Voigt Hill
#
# Bulk Modulus (GPa) = 9.36910 33.27077 21.31994
# Shear Modulus (GPa) = -50.75663 25.42640 -12.66511
#
# Velocity S-wave (km/s) = -4.93374 3.49198 -2.46453
# Velocity P-wave (km/s) = 5.28795 5.67578 1.45809
#
# Compressibility (1/GPa) = 0.10673379
#
# Stress axis : x y z
#
# Youngs Moduli (GPa) = 85.82884 119.71492 14.51057
#
# Poissons Ratio (x) = 0.35780 -0.16034
# Poissons Ratio (y) = 0.25652 -0.01227
# Poissons Ratio (z) = -0.94840 -0.10127
#
# Static dielectric constant tensor:
#      x y z
#    x 1.726420 0.000000 0.000000 
#    y 0.000000 1.741940 0.000000 
#    z 0.000000 0.000000 1.756170 
# 
# From -- ./inp_files/6535.got.cif
#   From: 2010.05.17/outbox.cif.g08.bks.cpg/sg55_4_cif.got.tgz:6535.got - 2010.06.03 13:27:54.
