data_PCOD9426578
_publ_section_title
;
Structure prediction by ZEFSAII (Michael W. Deem and Ramdas Pophale) SiO2 
 PCOD9426578
Probable space group: P B A M
;
_chemical_formula_sum "Si O2"
_cell_formula_units_Z 64
_cell_length_a 17.738880
_cell_length_b 21.775754
_cell_length_c 9.044100
_cell_angle_alpha 90.000000
_cell_angle_beta 90.000000
_cell_angle_gamma 90.000000
_cell_volume 3493.532221
_symmetry_space_group_name_H-M "P B A M"
_symmetry_group_IT_number 55
_symmetry_cell_setting 'orthorhombic'
loop_
_space_group_symop_operation_xyz
x,y,z
-x,-y,z
1/2+x,1/2-y,-z
1/2-x,1/2+y,-z
-x,-y,-z
x,y,-z
1/2-x,1/2+y,z
1/2+x,1/2-y,z
loop_
_atom_site_type_symbol
_atom_site_label
_atom_site_fract_x
_atom_site_fract_y
_atom_site_fract_z
Si Si1 0.408905 0.501097 0.167221
Si Si2 0.265860 0.343594 0.824115
Si Si3 0.968209 0.638876 0.175919
Si Si4 0.368982 0.748996 0.824545
Si Si5 0.335258 0.940199 0.677517
Si Si6 0.408555 0.374213 0.325112
Si Si7 0.585832 0.372864 0.324369
Si Si8 0.568628 0.950331 0.673891
O O1 0.500000 0.500000 0.158090
O O2 0.391587 0.443230 0.269624
O O3 0.388111 0.565838 0.240091
O O4 0.379382 0.494136 0.000000
O O5 0.203897 0.291150 0.790175
O O6 0.234507 0.406738 0.753228
O O7 0.348336 0.331908 0.758390
O O8 0.269047 0.349852 0.000000
O O9 0.943578 0.709034 0.203640
O O10 0.904976 0.600494 0.263627
O O11 0.046001 0.609593 0.233418
O O12 0.960574 0.628367 0.000000
O O13 0.371860 0.687282 0.731816
O O14 0.367552 0.735464 0.000000
O O15 0.330371 0.936414 0.500000
O O16 0.357273 0.010426 0.716174
O O17 0.398070 0.369400 0.500000
O O18 0.496519 0.362876 0.290972
O O19 0.592874 0.381652 0.500000
O O20 0.572327 0.935084 0.500000
O O21 0.500000 0.000000 0.690587
#
# Coordination Sequence:
#
# PCOD9426578 Si02
#       8
#     8   8   8   8   8   8   8   8
#     4   9  17  31  53  79 105 132 161 198 248 302
#     4  10  20  33  50  74 102 135 175 215 258 310
#     4   9  16  25  39  61  88 119 158 203 245 288
#     4   9  19  33  48  71 103 137 175 216 257 306
#     4   9  16  26  40  60  88 121 157 200 249 297
#     4  10  20  34  53  79 108 134 166 211 260 310
#     4  10  20  33  53  80 106 135 171 210 254 306
#     4   8  14  23  36  56  82 114 152 195 245 293
#
# _framework density 18.319568
#
# number of rings (size 3 to 8) (size 9 to 14) (size 15 to 20)
#    0.000    2.750    0.000    3.750    0.000    8.750 
#    0.000    0.000    0.000    1.500    0.000    3.500 
#    0.000    0.000    0.000    0.000    0.000    0.000 
#
# Total GULP energy -356457.984354 kJ/mol
# GULP energy per Si atom -5569.656006 kJ/mol
# Density = 1.827787 g / cm^3
# Si number density = 18.319568 Si / 1000 Ang^3
#
#
#
# Elastic Constant Matrix: (Units=GPa)
#
#
# Indices 1 2 3 4 5 6 
#
# 1 36.4927 8.7273 15.9829 0.0000 0.0000 0.0000
# 2 8.7273 49.9316 17.7935 0.0000 0.0000 0.0000
# 3 15.9829 17.7935 42.1297 0.0000 0.0000 0.0000
# 4 0.0000 0.0000 0.0000 27.9129 0.0000 0.0000
# 5 0.0000 0.0000 0.0000 0.0000 21.2175 0.0000
# 6 0.0000 0.0000 0.0000 0.0000 0.0000 11.0760
#
#
#
# Elastic Compliance Matrix: (Units=1/GPa)
#
#
# Indices 1 2 3 4 5 6 
#
# 1 0.032963 -0.001536 -0.011856 0.000000 0.000000 0.000000
# 2 -0.001536 0.023647 -0.009405 0.000000 0.000000 0.000000
# 3 -0.011856 -0.009405 0.032206 0.000000 0.000000 0.000000
# 4 0.000000 0.000000 0.000000 0.035826 0.000000 0.000000
# 5 0.000000 0.000000 0.000000 0.000000 0.047131 0.000000
# 6 0.000000 0.000000 0.000000 0.000000 0.000000 0.090286
#
#
# Mechanical properties :
#
#
# Convention : Reuss Voigt Hill
#
# Bulk Modulus (GPa) = 23.13643 23.72904 23.43273
# Shear Modulus (GPa) = 15.52501 17.77794 16.65148
#
# Velocity S-wave (km/s) = 2.91427 3.11856 3.01814
# Velocity P-wave (km/s) = 4.89701 5.09394 4.99644
#
# Compressibility (1/GPa) = 0.04322188
#
# Stress axis : x y z
#
# Youngs Moduli (GPa) = 30.33706 42.28805 31.04983
#
# Poissons Ratio (x) = 0.06497 0.36814
# Poissons Ratio (y) = 0.04661 0.29201
# Poissons Ratio (z) = 0.35969 0.39770
#
# Static dielectric constant tensor:
#      x y z
#    x 1.693300 0.000000 0.000000 
#    y 0.000000 1.631280 0.000000 
#    z 0.000000 0.000000 1.609060 
# 
# From -- ./inp_files/8090.got.cif
#   From: 2010.05.17/outbox.cif.g08.bks.cpg/sg55_5_cif.got.tgz:8090.got - 2010.06.03 13:27:54.
