data_PCOD9426986
_publ_section_title
;
Structure prediction by ZEFSAII (Michael W. Deem and Ramdas Pophale) SiO2 
 PCOD9426986
Probable space group: P B A M
;
_chemical_formula_sum "Si O2"
_cell_formula_units_Z 56
_cell_length_a 20.545384
_cell_length_b 15.963845
_cell_length_c 7.562322
_cell_angle_alpha 90.000000
_cell_angle_beta 90.000000
_cell_angle_gamma 90.000000
_cell_volume 2480.315519
_symmetry_space_group_name_H-M "P B A M"
_symmetry_group_IT_number 55
_symmetry_cell_setting 'orthorhombic'
loop_
_space_group_symop_operation_xyz
x,y,z
-x,-y,z
1/2+x,1/2-y,-z
1/2-x,1/2+y,-z
-x,-y,-z
x,y,-z
1/2-x,1/2+y,z
1/2+x,1/2-y,z
loop_
_atom_site_type_symbol
_atom_site_label
_atom_site_fract_x
_atom_site_fract_y
_atom_site_fract_z
Si Si1 0.833208 0.520274 0.793947
Si Si2 0.095449 0.833109 0.286568
Si Si3 0.462238 0.733215 0.717804
Si Si4 0.820918 0.326650 0.715030
Si Si5 0.324533 0.673249 0.702245
Si Si6 0.031022 0.417720 0.299062
Si Si7 0.311518 0.485592 0.207083
O O1 0.840561 0.419671 0.774988
O O2 0.891832 0.566445 0.698280
O O3 0.760465 0.540755 0.727602
O O4 0.837894 0.543011 0.000000
O O5 0.096321 0.833335 0.500000
O O6 0.131919 0.747990 0.229432
O O7 0.136127 0.913176 0.227925
O O8 0.020304 0.828691 0.229860
O O9 0.460219 0.733538 0.500000
O O10 0.390302 0.710193 0.782110
O O11 0.480946 0.826573 0.777597
O O12 0.820163 0.329694 0.500000
O O13 0.746976 0.309163 0.778831
O O14 0.321820 0.703584 0.500000
O O15 0.330962 0.572519 0.703297
O O16 0.004425 0.414175 0.500000
O O17 0.000000 0.500000 0.212585
O O18 0.303347 0.505347 0.000000
#
# Coordination Sequence:
#
# PCOD9426986 Si02
#       7
#     8   8   8   8   8   8   8
#     4  10  21  36  54  79 111 147 183 223 273 328
#     4  10  20  35  57  83 109 140 181 226 276 330
#     4   9  19  34  54  82 112 140 178 229 280 325
#     4   9  18  33  56  81 105 139 185 229 271 324
#     4   9  18  35  56  78 104 140 184 229 274 322
#     4  10  20  35  58  85 115 147 181 226 277 330
#     4  10  22  38  54  78 110 144 184 228 274 323
#
# _framework density 22.577773000000001
#
# number of rings (size 3 to 8) (size 9 to 14) (size 15 to 20)
#    0.000    2.429    0.000    1.714    2.000    5.429 
#    0.000    5.000    0.000    0.000    0.000    0.000 
#    0.000    0.000    0.000    0.000    0.000    0.000 
#
# Total GULP energy -312827.085965 kJ/mol
# GULP energy per Si atom -5586.197964 kJ/mol
# Density = 2.252638 g / cm^3
# Si number density = 22.577773 Si / 1000 Ang^3
#
#
#
# Elastic Constant Matrix: (Units=GPa)
#
#
# Indices 1 2 3 4 5 6 
#
# 1 76.2669 19.3829 0.3181 0.0000 0.0000 0.0000
# 2 19.3829 25.9386 -7.4239 0.0000 0.0000 0.0000
# 3 0.3181 -7.4239 58.2190 0.0000 0.0000 0.0000
# 4 0.0000 0.0000 0.0000 43.6038 0.0000 0.0000
# 5 0.0000 0.0000 0.0000 0.0000 25.0838 0.0000
# 6 0.0000 0.0000 0.0000 0.0000 0.0000 36.0765
#
#
#
# Elastic Compliance Matrix: (Units=1/GPa)
#
#
# Indices 1 2 3 4 5 6 
#
# 1 0.016348 -0.012706 -0.001710 0.000000 0.000000 0.000000
# 2 -0.012706 0.049888 0.006431 0.000000 0.000000 0.000000
# 3 -0.001710 0.006431 0.018006 0.000000 0.000000 0.000000
# 4 0.000000 0.000000 0.000000 0.022934 0.000000 0.000000
# 5 0.000000 0.000000 0.000000 0.000000 0.039866 0.000000
# 6 0.000000 0.000000 0.000000 0.000000 0.000000 0.027719
#
#
# Mechanical properties :
#
#
# Convention : Reuss Voigt Hill
#
# Bulk Modulus (GPa) = 14.64699 20.55318 17.60009
# Shear Modulus (GPa) = 23.42066 30.82930 27.12498
#
# Velocity S-wave (km/s) = 3.22426 3.69924 3.46989
# Velocity P-wave (km/s) = 4.51249 5.23153 4.88525
#
# Compressibility (1/GPa) = 0.06827341
#
# Stress axis : x y z
#
# Youngs Moduli (GPa) = 61.16942 20.04504 55.53731
#
# Poissons Ratio (x) = 0.25468 0.09494
# Poissons Ratio (y) = 0.77719 -0.35716
# Poissons Ratio (z) = 0.10457 -0.12891
#
# Static dielectric constant tensor:
#      x y z
#    x 1.841980 0.000000 0.000000 
#    y 0.000000 1.787420 0.000000 
#    z 0.000000 0.000000 1.903740 
# 
# From -- ./inp_files/8680.got.cif
#   From: 2010.05.17/outbox.cif.g08.bks.cpg/sg55_5_cif.got.tgz:8680.got - 2010.06.03 13:27:54.
