data_PCOD9426062
_publ_section_title
;
Structure prediction by ZEFSAII (Michael W. Deem and Ramdas Pophale) SiO2 
 PCOD9426062
Probable space group: P B A M
;
_chemical_formula_sum "Si O2"
_cell_formula_units_Z 48
_cell_length_a 14.694299
_cell_length_b 20.658539
_cell_length_c 7.601429
_cell_angle_alpha 90.000000
_cell_angle_beta 90.000000
_cell_angle_gamma 90.000000
_cell_volume 2307.510683
_symmetry_space_group_name_H-M "P B A M"
_symmetry_group_IT_number 55
_symmetry_cell_setting 'orthorhombic'
loop_
_space_group_symop_operation_xyz
x,y,z
-x,-y,z
1/2+x,1/2-y,-z
1/2-x,1/2+y,-z
-x,-y,-z
x,y,-z
1/2-x,1/2+y,z
1/2+x,1/2-y,z
loop_
_atom_site_type_symbol
_atom_site_label
_atom_site_fract_x
_atom_site_fract_y
_atom_site_fract_z
Si Si1 0.528961 0.882892 0.714867
Si Si2 0.721183 0.943451 0.715967
Si Si3 0.968710 0.234847 0.289622
Si Si4 0.858847 0.837991 0.701698
Si Si5 0.668367 0.082295 0.712564
Si Si6 0.260886 0.281814 0.203212
O O1 0.530582 0.883109 0.500000
O O2 0.624342 0.913152 0.771185
O O3 0.521154 0.808518 0.775038
O O4 0.437347 0.919725 0.768512
O O5 0.722100 0.941493 0.500000
O O6 0.803106 0.898038 0.779573
O O7 0.721381 0.018207 0.770729
O O8 0.982895 0.238207 0.500000
O O9 0.047056 0.187822 0.217428
O O10 0.865904 0.213212 0.257373
O O11 0.879258 0.856551 0.500000
O O12 0.791187 0.776155 0.699410
O O13 0.668727 0.082332 0.500000
O O14 0.711806 0.149828 0.769339
O O15 0.256901 0.263770 0.000000
#
# Coordination Sequence:
#
# PCOD9426062 Si02
#       6
#     8   8   8   8   8   8
#     4   9  15  27  54  87 112 135 170 223 278 328
#     4   9  17  30  55  87 114 136 176 230 280 328
#     4  10  19  34  58  82 107 140 184 233 274 320
#     4  10  19  36  60  85 109 141 185 232 276 322
#     4  10  19  34  56  83 112 146 181 223 276 328
#     4  12  24  36  53  79 113 150 185 223 269 329
#
# _framework density 20.801639000000002
#
# number of rings (size 3 to 8) (size 9 to 14) (size 15 to 20)
#    0.000    2.000    3.333    2.000    0.000    2.667 
#    0.000    1.667    0.000    6.000    0.000    0.000 
#    0.000    0.000    0.000    0.000    0.000    0.000 
#
# Total GULP energy -268061.656038 kJ/mol
# GULP energy per Si atom -5584.617834 kJ/mol
# Density = 2.075429 g / cm^3
# Si number density = 20.801639 Si / 1000 Ang^3
#
#
#
# Elastic Constant Matrix: (Units=GPa)
#
#
# Indices 1 2 3 4 5 6 
#
# 1 69.1868 -16.5948 -13.9798 0.0000 0.0000 0.0000
# 2 -16.5948 43.1560 -10.9057 0.0000 0.0000 0.0000
# 3 -13.9798 -10.9057 42.6156 0.0000 0.0000 0.0000
# 4 0.0000 0.0000 0.0000 -24.0437 0.0000 0.0000
# 5 0.0000 0.0000 0.0000 0.0000 54.5026 0.0000
# 6 0.0000 0.0000 0.0000 0.0000 0.0000 29.7346
#
#
#
# Elastic Compliance Matrix: (Units=1/GPa)
#
#
# Indices 1 2 3 4 5 6 
#
# 1 0.018342 0.009166 0.008363 0.000000 0.000000 0.000000
# 2 0.009166 0.029355 0.010519 0.000000 0.000000 0.000000
# 3 0.008363 0.010519 0.028901 0.000000 0.000000 0.000000
# 4 0.000000 0.000000 0.000000 -0.041591 0.000000 0.000000
# 5 0.000000 0.000000 0.000000 0.000000 0.018348 0.000000
# 6 0.000000 0.000000 0.000000 0.000000 0.000000 0.033631
#
#
# Mechanical properties :
#
#
# Convention : Reuss Voigt Hill
#
# Bulk Modulus (GPa) = 7.53615 7.99976 7.76795
# Shear Modulus (GPa) = 66.56007 25.13462 45.84735
#
# Velocity S-wave (km/s) = 5.66277 3.47983 4.69980
# Velocity P-wave (km/s) = 6.81078 4.47211 5.76136
#
# Compressibility (1/GPa) = 0.13269377
#
# Stress axis : x y z
#
# Youngs Moduli (GPa) = 54.51975 34.06610 34.60109
#
# Poissons Ratio (x) = -0.31226 -0.28936
# Poissons Ratio (y) = -0.49975 -0.36397
# Poissons Ratio (z) = -0.45593 -0.35834
#
# Static dielectric constant tensor:
#      x y z
#    x 1.737680 0.000000 0.000000 
#    y 0.000000 1.728610 0.000000 
#    z 0.000000 0.000000 1.791390 
# 
# From -- ./inp_files/5546.got.cif
#   From: 2010.05.17/outbox.cif.g08.bks.cpg/sg55_3_cif.got.tgz:5546.got - 2010.06.03 13:27:54.
