data_PCOD9426544
_publ_section_title
;
Structure prediction by ZEFSAII (Michael W. Deem and Ramdas Pophale) SiO2 
 PCOD9426544
Probable space group: P B A M
;
_chemical_formula_sum "Si O2"
_cell_formula_units_Z 40
_cell_length_a 13.961006
_cell_length_b 19.000015
_cell_length_c 8.871849
_cell_angle_alpha 90.000000
_cell_angle_beta 90.000000
_cell_angle_gamma 90.000000
_cell_volume 2353.340663
_symmetry_space_group_name_H-M "P B A M"
_symmetry_group_IT_number 55
_symmetry_cell_setting 'orthorhombic'
loop_
_space_group_symop_operation_xyz
x,y,z
-x,-y,z
1/2+x,1/2-y,-z
1/2-x,1/2+y,-z
-x,-y,-z
x,y,-z
1/2-x,1/2+y,z
1/2+x,1/2-y,z
loop_
_atom_site_type_symbol
_atom_site_label
_atom_site_fract_x
_atom_site_fract_y
_atom_site_fract_z
Si Si1 0.889065 0.789654 0.681192
Si Si2 0.389229 0.998442 0.181775
Si Si3 0.704271 0.854078 0.819249
Si Si4 0.393231 0.282361 0.681886
Si Si5 0.296958 0.860182 0.319558
O O1 0.879875 0.797117 0.500000
O O2 0.810948 0.839017 0.759110
O O3 0.860023 0.708985 0.718116
O O4 0.998921 0.802229 0.724752
O O5 0.336372 0.070261 0.228521
O O6 0.500000 0.000000 0.231890
O O7 0.336746 0.929548 0.242797
O O8 0.388708 0.995999 0.000000
O O9 0.638643 0.791538 0.753411
O O10 0.703099 0.850317 0.000000
O O11 0.390297 0.274356 0.500000
O O12 0.311741 0.339023 0.723039
O O13 0.300506 0.869094 0.500000
#
# Coordination Sequence:
#
# PCOD9426544 Si02
#       5
#     8   8   8   8   8
#     4   9  18  34  54  74  99 130 164 204 246 291
#     4  10  21  35  49  69 100 133 162 197 243 292
#     4  10  20  32  49  75 102 129 165 204 244 293
#     4   9  18  34  54  75  99 128 164 205 247 291
#     4   9  18  31  50  76  98 122 162 203 242 290
#
# _framework density 16.997114
#
# number of rings (size 3 to 8) (size 9 to 14) (size 15 to 20)
#    0.000    2.600    0.000    3.000    0.000    6.000 
#    0.000    1.000    0.000    6.000    0.000    0.000 
#    0.000    0.000    0.000    0.000    0.000    0.000 
#
# Total GULP energy -223110.409700 kJ/mol
# GULP energy per Si atom -5577.760243 kJ/mol
# Density = 1.695843 g / cm^3
# Si number density = 16.997114 Si / 1000 Ang^3
#
#
#
# Elastic Constant Matrix: (Units=GPa)
#
#
# Indices 1 2 3 4 5 6 
#
# 1 176.8852 94.9590 38.8173 0.0000 0.0000 0.0000
# 2 94.9590 143.5728 36.8801 0.0000 0.0000 0.0000
# 3 38.8173 36.8801 15.5398 0.0000 0.0000 0.0000
# 4 0.0000 0.0000 0.0000 24.1449 0.0000 0.0000
# 5 0.0000 0.0000 0.0000 0.0000 24.5648 0.0000
# 6 0.0000 0.0000 0.0000 0.0000 0.0000 14.9900
#
#
#
# Elastic Compliance Matrix: (Units=1/GPa)
#
#
# Indices 1 2 3 4 5 6 
#
# 1 0.012535 -0.000634 -0.029806 0.000000 0.000000 0.000000
# 2 -0.000634 0.017874 -0.040837 0.000000 0.000000 0.000000
# 3 -0.029806 -0.040837 0.235721 0.000000 0.000000 0.000000
# 4 0.000000 0.000000 0.000000 0.041417 0.000000 0.000000
# 5 0.000000 0.000000 0.000000 0.000000 0.040709 0.000000
# 6 0.000000 0.000000 0.000000 0.000000 0.000000 0.066711
#
#
# Mechanical properties :
#
#
# Convention : Reuss Voigt Hill
#
# Bulk Modulus (GPa) = 8.09215 75.25673 41.67444
# Shear Modulus (GPa) = 8.35124 23.76270 16.05697
#
# Velocity S-wave (km/s) = 2.21901 3.74310 3.07691
# Velocity P-wave (km/s) = 3.36698 7.94061 6.09877
#
# Compressibility (1/GPa) = 0.12357653
#
# Stress axis : x y z
#
# Youngs Moduli (GPa) = 79.77864 55.94595 4.24229
#
# Poissons Ratio (x) = 0.03547 0.12645
# Poissons Ratio (y) = 0.05058 0.17324
# Poissons Ratio (z) = 2.37789 2.28466
#
# Static dielectric constant tensor:
#      x y z
#    x 1.581720 0.000000 0.000000 
#    y 0.000000 1.538920 0.000000 
#    z 0.000000 0.000000 1.573880 
# 
# From -- ./inp_files/3633.got.cif
#   From: 2010.05.17/outbox.cif.g08.bks.cpg/sg55_2_cif.got.tgz:3633.got - 2010.06.03 13:27:54.
