data_PCOD9426482
_publ_section_title
;
Structure prediction by ZEFSAII (Michael W. Deem and Ramdas Pophale) SiO2 
 PCOD9426482
Probable space group: P B A M
;
_chemical_formula_sum "Si O2"
_cell_formula_units_Z 64
_cell_length_a 11.576634
_cell_length_b 14.833538
_cell_length_c 17.359357
_cell_angle_alpha 90.000000
_cell_angle_beta 90.000000
_cell_angle_gamma 90.000000
_cell_volume 2980.991147
_symmetry_space_group_name_H-M "P B A M"
_symmetry_group_IT_number 55
_symmetry_cell_setting 'orthorhombic'
loop_
_space_group_symop_operation_xyz
x,y,z
-x,-y,z
1/2+x,1/2-y,-z
1/2-x,1/2+y,-z
-x,-y,-z
x,y,-z
1/2-x,1/2+y,z
1/2+x,1/2-y,z
loop_
_atom_site_type_symbol
_atom_site_label
_atom_site_fract_x
_atom_site_fract_y
_atom_site_fract_z
Si Si1 0.393016 0.192433 0.088467
Si Si2 0.181039 0.072787 0.139776
Si Si3 0.041333 0.846930 0.311026
Si Si4 0.807023 0.424823 0.305363
Si Si5 0.835840 0.807127 0.410584
Si Si6 0.792640 0.623768 0.653205
Si Si7 0.973776 0.657409 0.767715
Si Si8 0.081828 0.887237 0.854016
O O1 0.282815 0.127366 0.098545
O O2 0.496723 0.156634 0.142672
O O3 0.365271 0.291467 0.123060
O O4 0.425231 0.200219 0.000000
O O5 0.222185 0.076131 0.230214
O O6 0.054187 0.114646 0.123082
O O7 0.158695 0.969420 0.115363
O O8 0.160911 0.848525 0.355169
O O9 0.007552 0.754621 0.267224
O O10 0.068325 0.908215 0.237235
O O11 0.940342 0.862587 0.371410
O O12 0.771051 0.342336 0.359921
O O13 0.802470 0.516721 0.354569
O O14 0.935019 0.409341 0.272486
O O15 0.822479 0.825155 0.500000
O O16 0.857192 0.699698 0.397310
O O17 0.844850 0.638620 0.739431
#
# Coordination Sequence:
#
# PCOD9426482 Si02
#       8
#     8   8   8   8   8   8   8   8
#     4  10  23  39  62  98 136 170 209 267 339 394
#     4  10  21  38  67  95 126 166 228 277 320 383
#     4  10  19  38  65  90 122 165 217 263 312 371
#     4  11  20  39  68  93 125 163 217 266 312 383
#     4  11  25  41  61  97 136 163 202 271 334 382
#     4  11  22  39  67  91 124 170 218 259 314 384
#     4   9  21  38  63  94 124 162 221 262 307 376
#     4  10  20  38  67  95 123 173 223 278 320 385
#
# _framework density 21.469370999999999
#
# number of rings (size 3 to 8) (size 9 to 14) (size 15 to 20)
#    0.000    1.750    3.750    0.375    0.000    2.500 
#    0.000    1.875    0.000    8.250    0.000    0.000 
#    0.000    0.000    0.000    0.000    0.000    0.000 
#
# Total GULP energy -356784.438618 kJ/mol
# GULP energy per Si atom -5574.756853 kJ/mol
# Density = 2.142051 g / cm^3
# Si number density = 21.469371 Si / 1000 Ang^3
#
#
#
# Elastic Constant Matrix: (Units=GPa)
#
#
# Indices 1 2 3 4 5 6 
#
# 1 37.9095 1.2117 10.9009 0.0000 0.0000 0.0000
# 2 1.2117 90.5412 7.7153 0.0000 0.0000 0.0000
# 3 10.9009 7.7153 98.9729 0.0000 0.0000 0.0000
# 4 0.0000 0.0000 0.0000 2.8083 0.0000 0.0000
# 5 0.0000 0.0000 0.0000 0.0000 10.0841 0.0000
# 6 0.0000 0.0000 0.0000 0.0000 0.0000 26.3695
#
#
#
# Elastic Compliance Matrix: (Units=1/GPa)
#
#
# Indices 1 2 3 4 5 6 
#
# 1 0.027242 -0.000110 -0.002992 0.000000 0.000000 0.000000
# 2 -0.000110 0.011119 -0.000855 0.000000 0.000000 0.000000
# 3 -0.002992 -0.000855 0.010500 0.000000 0.000000 0.000000
# 4 0.000000 0.000000 0.000000 0.356085 0.000000 0.000000
# 5 0.000000 0.000000 0.000000 0.000000 0.099166 0.000000
# 6 0.000000 0.000000 0.000000 0.000000 0.000000 0.037923
#
#
# Mechanical properties :
#
#
# Convention : Reuss Voigt Hill
#
# Bulk Modulus (GPa) = 24.42071 29.67548 27.04809
# Shear Modulus (GPa) = 8.87159 21.69211 15.28185
#
# Velocity S-wave (km/s) = 2.03499 3.18209 2.67085
# Velocity P-wave (km/s) = 4.11351 5.23002 4.70500
#
# Compressibility (1/GPa) = 0.04094886
#
# Stress axis : x y z
#
# Youngs Moduli (GPa) = 36.70745 89.93619 95.23873
#
# Poissons Ratio (x) = 0.00986 0.28495
# Poissons Ratio (y) = 0.00402 0.08140
# Poissons Ratio (z) = 0.10983 0.07687
#
# Static dielectric constant tensor:
#      x y z
#    x 1.833970 0.000000 0.000000 
#    y 0.000000 1.848000 0.000000 
#    z 0.000000 0.000000 1.761860 
# 
# From -- ./inp_files/21338.got.cif
#   From: 2010.05.17/outbox.cif.g08.bks.cpg/sg55_11_cif.got.tgz:21338.got - 2010.06.03 13:27:54.
