data_PCOD9426320
_publ_section_title
;
Structure prediction by ZEFSAII (Michael W. Deem and Ramdas Pophale) SiO2 
 PCOD9426320
Probable space group: P B A M
;
_chemical_formula_sum "Si O2"
_cell_formula_units_Z 64
_cell_length_a 9.025604
_cell_length_b 19.930274
_cell_length_c 19.127810
_cell_angle_alpha 90.000000
_cell_angle_beta 90.000000
_cell_angle_gamma 90.000000
_cell_volume 3440.763270
_symmetry_space_group_name_H-M "P B A M"
_symmetry_group_IT_number 55
_symmetry_cell_setting 'orthorhombic'
loop_
_space_group_symop_operation_xyz
x,y,z
-x,-y,z
1/2+x,1/2-y,-z
1/2-x,1/2+y,-z
-x,-y,-z
x,y,-z
1/2-x,1/2+y,z
1/2+x,1/2-y,z
loop_
_atom_site_type_symbol
_atom_site_label
_atom_site_fract_x
_atom_site_fract_y
_atom_site_fract_z
Si Si1 0.323602 0.166029 0.581138
Si Si2 0.330554 0.482235 0.787888
Si Si3 0.659756 0.965765 0.922612
Si Si4 0.657607 0.660074 0.717198
Si Si5 0.118160 0.240980 0.218221
Si Si6 0.391149 0.062873 0.702563
Si Si7 0.100924 0.657814 0.833546
Si Si8 0.472336 0.310377 0.580778
O O1 0.343706 0.146067 0.500000
O O2 0.372649 0.109450 0.635465
O O3 0.417907 0.233869 0.592584
O O4 0.148626 0.181701 0.591221
O O5 0.500000 0.500000 0.797184
O O6 0.249027 0.498329 0.860554
O O7 0.313896 0.406456 0.761492
O O8 0.262329 0.530772 0.728878
O O9 0.630766 0.889311 0.899200
O O10 0.500000 0.000000 0.924400
O O11 0.727457 0.970335 0.000000
O O12 0.509418 0.696983 0.745744
O O13 0.793816 0.710940 0.728080
O O14 0.620468 0.646478 0.636399
O O15 0.245921 0.195065 0.185556
O O16 0.030649 0.288196 0.163453
O O17 0.438919 0.109177 0.768123
O O18 0.500000 0.000000 0.692812
O O19 0.439440 0.326981 0.500000
#
# Coordination Sequence:
#
# PCOD9426320 Si02
#       8
#     8   8   8   8   8   8   8   8
#     4  10  21  37  55  79 109 143 187 234 284 341
#     4  11  22  36  58  85 112 143 184 231 274 321
#     4  10  21  39  61  82 111 150 185 218 262 324
#     4  11  19  33  53  80 108 139 184 228 273 327
#     4  10  20  31  56  81 107 140 177 228 277 320
#     4  11  22  36  55  77 109 150 188 229 276 332
#     4  10  19  36  55  83 110 138 179 222 270 323
#     4  10  20  34  54  78 107 142 181 232 288 338
#
# _framework density 18.600524
#
# number of rings (size 3 to 8) (size 9 to 14) (size 15 to 20)
#    0.000    1.625    0.000    8.250    0.000    1.500 
#    0.000    1.250    0.000    5.250    0.000    0.000 
#    0.000    0.000    0.000    0.000    0.000    0.000 
#
# Total GULP energy -357466.222379 kJ/mol
# GULP energy per Si atom -5585.409725 kJ/mol
# Density = 1.855819 g / cm^3
# Si number density = 18.600524 Si / 1000 Ang^3
#
#
#
# Elastic Constant Matrix: (Units=GPa)
#
#
# Indices 1 2 3 4 5 6 
#
# 1 80.3723 22.6806 28.1722 0.0000 0.0000 0.0000
# 2 22.6806 75.3040 52.6346 0.0000 0.0000 0.0000
# 3 28.1722 52.6346 109.2652 0.0000 0.0000 0.0000
# 4 0.0000 0.0000 0.0000 -76.9800 0.0000 0.0000
# 5 0.0000 0.0000 0.0000 0.0000 15.4295 0.0000
# 6 0.0000 0.0000 0.0000 0.0000 0.0000 31.0138
#
#
#
# Elastic Compliance Matrix: (Units=1/GPa)
#
#
# Indices 1 2 3 4 5 6 
#
# 1 0.013996 -0.002553 -0.002379 0.000000 0.000000 0.000000
# 2 -0.002553 0.020486 -0.009210 0.000000 0.000000 0.000000
# 3 -0.002379 -0.009210 0.014202 0.000000 0.000000 0.000000
# 4 0.000000 0.000000 0.000000 -0.012990 0.000000 0.000000
# 5 0.000000 0.000000 0.000000 0.000000 0.064811 0.000000
# 6 0.000000 0.000000 0.000000 0.000000 0.000000 0.032244
#
#
# Mechanical properties :
#
#
# Convention : Reuss Voigt Hill
#
# Bulk Modulus (GPa) = 49.01827 52.43515 50.72671
# Shear Modulus (GPa) = 29.79154 4.65626 17.22390
#
# Velocity S-wave (km/s) = 4.00640 1.58390 3.04631
# Velocity P-wave (km/s) = 6.91463 5.62106 6.30113
#
# Compressibility (1/GPa) = 0.02040056
#
# Stress axis : x y z
#
# Youngs Moduli (GPa) = 71.44718 48.81398 70.41190
#
# Poissons Ratio (x) = 0.12460 0.16752
# Poissons Ratio (y) = 0.18238 0.64851
# Poissons Ratio (z) = 0.16998 0.44959
#
# Static dielectric constant tensor:
#      x y z
#    x 1.650650 0.000000 0.000000 
#    y 0.000000 1.647400 0.000000 
#    z 0.000000 0.000000 1.645910 
# 
# From -- ./inp_files/21107.got.cif
#   From: 2010.05.17/outbox.cif.g08.bks.cpg/sg55_11_cif.got.tgz:21107.got - 2010.06.03 13:27:54.
