data_PCOD9426217
_publ_section_title
;
Structure prediction by ZEFSAII (Michael W. Deem and Ramdas Pophale) SiO2 
 PCOD9426217
Probable space group: P B A M
;
_chemical_formula_sum "Si O2"
_cell_formula_units_Z 36
_cell_length_a 5.436270
_cell_length_b 17.155085
_cell_length_c 16.794617
_cell_angle_alpha 90.000000
_cell_angle_beta 90.000000
_cell_angle_gamma 90.000000
_cell_volume 1566.260505
_symmetry_space_group_name_H-M "P B A M"
_symmetry_group_IT_number 55
_symmetry_cell_setting 'orthorhombic'
loop_
_space_group_symop_operation_xyz
x,y,z
-x,-y,z
1/2+x,1/2-y,-z
1/2-x,1/2+y,-z
-x,-y,-z
x,y,-z
1/2-x,1/2+y,z
1/2+x,1/2-y,z
loop_
_atom_site_type_symbol
_atom_site_label
_atom_site_fract_x
_atom_site_fract_y
_atom_site_fract_z
Si Si1 0.729303 0.723825 0.294623
Si Si2 0.249439 0.030978 0.092533
Si Si3 0.215618 0.711981 0.882379
Si Si4 0.250277 0.448189 0.678406
Si Si5 0.249802 0.449912 0.500000
O O1 0.475333 0.746336 0.336999
O O2 0.716389 0.774309 0.212880
O O3 0.742215 0.632221 0.272214
O O4 0.249719 0.122971 0.096382
O O5 0.500000 0.000000 0.130033
O O6 0.249558 0.003870 0.000000
O O7 0.000000 0.000000 0.130453
O O8 0.452565 0.758817 0.911761
O O9 0.500000 0.500000 0.686804
O O10 0.248632 0.412958 0.587648
O O11 0.000000 0.500000 0.687818
O O12 0.500000 0.500000 0.500000
O O13 0.000000 0.500000 0.500000
#
# Coordination Sequence:
#
# PCOD9426217 Si02
#       5
#     8   8   8   8   4
#     4  10  21  38  53  77 115 146 180 223 269 324
#     4  10  21  38  60  85 110 140 182 227 269 319
#     4  10  21  38  56  80 113 147 179 220 270 325
#     4  10  19  35  58  81 106 142 185 226 268 320
#     4   8  16  30  52  80 106 134 176 226 272 316
#
# _framework density 22.984680999999998
#
# number of rings (size 3 to 8) (size 9 to 14) (size 15 to 20)
#    0.000    2.222    0.000    2.667    0.000    0.889 
#    0.000   27.778    0.000    0.000    0.000    0.000 
#    0.000    0.000    0.000    0.000    0.000    0.000 
#
# Total GULP energy -200924.038023 kJ/mol
# GULP energy per Si atom -5581.223278 kJ/mol
# Density = 2.293237 g / cm^3
# Si number density = 22.984681 Si / 1000 Ang^3
#
#
#
# Elastic Constant Matrix: (Units=GPa)
#
#
# Indices 1 2 3 4 5 6 
#
# 1 186.9631 44.4335 6.5486 0.0000 0.0000 0.0000
# 2 44.4335 89.1460 -15.7452 0.0000 0.0000 0.0000
# 3 6.5486 -15.7452 64.8581 0.0000 0.0000 0.0000
# 4 0.0000 0.0000 0.0000 11.5756 0.0000 0.0000
# 5 0.0000 0.0000 0.0000 0.0000 7.8320 0.0000
# 6 0.0000 0.0000 0.0000 0.0000 0.0000 46.8709
#
#
#
# Elastic Compliance Matrix: (Units=1/GPa)
#
#
# Indices 1 2 3 4 5 6 
#
# 1 0.006193 -0.003340 -0.001436 0.000000 0.000000 0.000000
# 2 -0.003340 0.013522 0.003620 0.000000 0.000000 0.000000
# 3 -0.001436 0.003620 0.016442 0.000000 0.000000 0.000000
# 4 0.000000 0.000000 0.000000 0.086389 0.000000 0.000000
# 5 0.000000 0.000000 0.000000 0.000000 0.127682 0.000000
# 6 0.000000 0.000000 0.000000 0.000000 0.000000 0.021335
#
#
# Mechanical properties :
#
#
# Convention : Reuss Voigt Hill
#
# Bulk Modulus (GPa) = 29.54790 45.71567 37.63179
# Shear Modulus (GPa) = 17.53422 33.63771 25.58596
#
# Velocity S-wave (km/s) = 2.76500 3.82970 3.34005
# Velocity P-wave (km/s) = 4.80385 6.28397 5.59309
#
# Compressibility (1/GPa) = 0.03384336
#
# Stress axis : x y z
#
# Youngs Moduli (GPa) = 161.47706 73.95424 60.81963
#
# Poissons Ratio (x) = 0.24704 0.08735
# Poissons Ratio (y) = 0.53940 -0.22016
# Poissons Ratio (z) = 0.23191 -0.26771
#
# Static dielectric constant tensor:
#      x y z
#    x 1.957010 0.000000 0.000000 
#    y 0.000000 1.789920 0.000000 
#    z 0.000000 0.000000 1.914090 
# 
# From -- ./inp_files/22252.got.cif
#   From: 2010.05.17/outbox.cif.g08.bks.cpg/sg55_12_cif.got.tgz:22252.got - 2010.06.03 13:27:54.
