data_PCOD9426134
_publ_section_title
;
Structure prediction by ZEFSAII (Michael W. Deem and Ramdas Pophale) SiO2 
 PCOD9426134
Probable space group: P B A M
;
_chemical_formula_sum "Si O2"
_cell_formula_units_Z 64
_cell_length_a 8.880793
_cell_length_b 21.659232
_cell_length_c 18.195213
_cell_angle_alpha 90.000000
_cell_angle_beta 90.000000
_cell_angle_gamma 90.000000
_cell_volume 3499.870253
_symmetry_space_group_name_H-M "P B A M"
_symmetry_group_IT_number 55
_symmetry_cell_setting 'orthorhombic'
loop_
_space_group_symop_operation_xyz
x,y,z
-x,-y,z
1/2+x,1/2-y,-z
1/2-x,1/2+y,-z
-x,-y,-z
x,y,-z
1/2-x,1/2+y,z
1/2+x,1/2-y,z
loop_
_atom_site_type_symbol
_atom_site_label
_atom_site_fract_x
_atom_site_fract_y
_atom_site_fract_z
Si Si1 0.322090 0.277671 0.716333
Si Si2 0.783008 0.666596 0.915698
Si Si3 0.363299 0.362234 0.584711
Si Si4 0.469305 0.714929 0.859361
Si Si5 0.597366 0.445646 0.326821
Si Si6 0.235158 0.647590 0.224539
Si Si7 0.388104 0.886720 0.222455
Si Si8 0.651478 0.034616 0.365775
O O1 0.361039 0.301612 0.635696
O O2 0.453999 0.280888 0.777938
O O3 0.271455 0.207438 0.722297
O O4 0.195151 0.326541 0.742635
O O5 0.610964 0.690738 0.906100
O O6 0.812759 0.611332 0.857919
O O7 0.897134 0.721919 0.890312
O O8 0.811028 0.651105 0.000000
O O9 0.390608 0.349215 0.500000
O O10 0.491560 0.404897 0.621419
O O11 0.211467 0.404109 0.593231
O O12 0.326367 0.670087 0.847134
O O13 0.500000 0.500000 0.290987
O O14 0.672387 0.404441 0.265484
O O15 0.722439 0.482205 0.372083
O O16 0.065135 0.625359 0.213141
O O17 0.363240 0.941833 0.280641
O O18 0.500000 0.000000 0.388603
#
# Coordination Sequence:
#
# PCOD9426134 Si02
#       8
#     8   8   8   8   8   8   8   8
#     4  10  19  34  58  86 113 150 196 236 299 360
#     4  11  21  34  52  87 126 155 185 236 309 368
#     4  10  22  39  58  84 123 156 186 240 309 366
#     4  11  19  31  55  85 114 156 194 236 284 358
#     4  10  22  35  58  85 112 155 204 248 287 350
#     4  12  18  34  60  85 111 150 198 251 294 336
#     4  10  20  34  58  85 114 147 192 252 295 346
#     4  10  20  37  59  88 109 143 208 253 282 337
#
# _framework density 18.286391999999999
#
# number of rings (size 3 to 8) (size 9 to 14) (size 15 to 20)
#    0.000    1.500    6.250    0.375    1.750    2.500 
#    0.000    1.250    0.000    0.375    0.000    0.875 
#    0.000    0.000    0.000    0.000    0.000    0.000 
#
# Total GULP energy -356691.223891 kJ/mol
# GULP energy per Si atom -5573.300373 kJ/mol
# Density = 1.824477 g / cm^3
# Si number density = 18.286392 Si / 1000 Ang^3
#
#
#
# Elastic Constant Matrix: (Units=GPa)
#
#
# Indices 1 2 3 4 5 6 
#
# 1 90.0109 10.3851 10.2295 0.0000 0.0000 0.0000
# 2 10.3851 38.6220 10.7799 0.0000 0.0000 0.0000
# 3 10.2295 10.7799 94.2075 0.0000 0.0000 0.0000
# 4 0.0000 0.0000 0.0000 10.8856 0.0000 0.0000
# 5 0.0000 0.0000 0.0000 0.0000 -12.5778 0.0000
# 6 0.0000 0.0000 0.0000 0.0000 0.0000 17.9673
#
#
#
# Elastic Compliance Matrix: (Units=1/GPa)
#
#
# Indices 1 2 3 4 5 6 
#
# 1 0.011543 -0.002845 -0.000928 0.000000 0.000000 0.000000
# 2 -0.002845 0.027447 -0.002832 0.000000 0.000000 0.000000
# 3 -0.000928 -0.002832 0.011040 0.000000 0.000000 0.000000
# 4 0.000000 0.000000 0.000000 0.091864 0.000000 0.000000
# 5 0.000000 0.000000 0.000000 0.000000 -0.079505 0.000000
# 6 0.000000 0.000000 0.000000 0.000000 0.000000 0.055657
#
#
# Mechanical properties :
#
#
# Convention : Reuss Voigt Hill
#
# Bulk Modulus (GPa) = 27.15830 31.73659 29.44744
# Shear Modulus (GPa) = 34.83607 16.01808 25.42707
#
# Velocity S-wave (km/s) = 4.36940 2.96287 3.73297
# Velocity P-wave (km/s) = 6.35133 5.39423 5.89225
#
# Compressibility (1/GPa) = 0.03682116
#
# Stress axis : x y z
#
# Youngs Moduli (GPa) = 86.62912 36.43340 90.58254
#
# Poissons Ratio (x) = 0.10365 0.08405
# Poissons Ratio (y) = 0.24646 0.25651
# Poissons Ratio (z) = 0.08038 0.10317
#
# Static dielectric constant tensor:
#      x y z
#    x 1.700750 0.000000 0.000000 
#    y 0.000000 1.635400 0.000000 
#    z 0.000000 0.000000 1.627690 
# 
# From -- ./inp_files/21076.got.cif
#   From: 2010.05.17/outbox.cif.g08.bks.cpg/sg55_11_cif.got.tgz:21076.got - 2010.06.03 13:27:54.
