data_PCOD9426159
_publ_section_title
;
Structure prediction by ZEFSAII (Michael W. Deem and Ramdas Pophale) SiO2 
 PCOD9426159
Probable space group: P B A M
;
_chemical_formula_sum "Si O2"
_cell_formula_units_Z 56
_cell_length_a 14.785905
_cell_length_b 21.656065
_cell_length_c 7.621097
_cell_angle_alpha 90.000000
_cell_angle_beta 90.000000
_cell_angle_gamma 90.000000
_cell_volume 2440.309705
_symmetry_space_group_name_H-M "P B A M"
_symmetry_group_IT_number 55
_symmetry_cell_setting 'orthorhombic'
loop_
_space_group_symop_operation_xyz
x,y,z
-x,-y,z
1/2+x,1/2-y,-z
1/2-x,1/2+y,-z
-x,-y,-z
x,y,-z
1/2-x,1/2+y,z
1/2+x,1/2-y,z
loop_
_atom_site_type_symbol
_atom_site_label
_atom_site_fract_x
_atom_site_fract_y
_atom_site_fract_z
Si Si1 0.422399 0.589185 0.796586
Si Si2 0.416879 0.822696 0.285550
Si Si3 0.722903 0.506214 0.200473
Si Si4 0.607204 0.764700 0.714191
Si Si5 0.696565 0.293776 0.287165
Si Si6 0.620047 0.624072 0.700740
Si Si7 0.583175 0.038622 0.704978
O O1 0.355205 0.537293 0.721297
O O2 0.367811 0.653161 0.784996
O O3 0.518557 0.597257 0.705636
O O4 0.442387 0.573958 0.000000
O O5 0.414505 0.822949 0.500000
O O6 0.514537 0.796472 0.230073
O O7 0.341212 0.773230 0.233006
O O8 0.405188 0.892402 0.221167
O O9 0.685564 0.575793 0.207595
O O10 0.821463 0.503887 0.283843
O O11 0.733834 0.486167 0.000000
O O12 0.604554 0.763025 0.500000
O O13 0.698941 0.799413 0.765372
O O14 0.614069 0.693475 0.772781
O O15 0.691648 0.297488 0.500000
O O16 0.652737 0.628364 0.500000
O O17 0.561323 0.047900 0.500000
O O18 0.500000 0.000000 0.782509
#
# Coordination Sequence:
#
# PCOD9426159 Si02
#       7
#     8   8   8   8   8   8   8
#     4  11  24  40  57  84 123 159 195 243 300 357
#     4   9  17  34  56  87 123 148 184 244 303 340
#     4  11  25  42  59  82 122 167 196 238 304 360
#     4   9  18  32  58  90 117 146 184 240 302 346
#     4  10  19  34  60  86 114 154 197 240 291 351
#     4  11  21  39  66  93 116 150 200 248 296 357
#     4  10  22  39  64  94 120 153 205 256 291 346
#
# _framework density 22.947907000000001
#
# number of rings (size 3 to 8) (size 9 to 14) (size 15 to 20)
#    0.000    1.857    1.429    2.571    2.000    6.571 
#    0.000    3.571    0.000    0.000    0.000    0.000 
#    0.000    0.000    0.000    0.000    0.000    0.000 
#
# Total GULP energy -313137.909117 kJ/mol
# GULP energy per Si atom -5591.748377 kJ/mol
# Density = 2.289568 g / cm^3
# Si number density = 22.947907 Si / 1000 Ang^3
#
#
#
# Elastic Constant Matrix: (Units=GPa)
#
#
# Indices 1 2 3 4 5 6 
#
# 1 106.4681 6.6436 -9.8373 0.0000 0.0000 0.0000
# 2 6.6436 60.7744 -1.7774 0.0000 0.0000 0.0000
# 3 -9.8373 -1.7774 44.7766 0.0000 0.0000 0.0000
# 4 0.0000 0.0000 0.0000 16.2247 0.0000 0.0000
# 5 0.0000 0.0000 0.0000 0.0000 25.6451 0.0000
# 6 0.0000 0.0000 0.0000 0.0000 0.0000 24.5136
#
#
#
# Elastic Compliance Matrix: (Units=1/GPa)
#
#
# Indices 1 2 3 4 5 6 
#
# 1 0.009647 -0.000994 0.002080 0.000000 0.000000 0.000000
# 2 -0.000994 0.016576 0.000440 0.000000 0.000000 0.000000
# 3 0.002080 0.000440 0.022808 0.000000 0.000000 0.000000
# 4 0.000000 0.000000 0.000000 0.061634 0.000000 0.000000
# 5 0.000000 0.000000 0.000000 0.000000 0.038994 0.000000
# 6 0.000000 0.000000 0.000000 0.000000 0.000000 0.040794
#
#
# Mechanical properties :
#
#
# Convention : Reuss Voigt Hill
#
# Bulk Modulus (GPa) = 19.20060 22.45297 20.82679
# Shear Modulus (GPa) = 24.41875 27.74270 26.08073
#
# Velocity S-wave (km/s) = 3.26559 3.48076 3.37489
# Velocity P-wave (km/s) = 4.75436 5.09507 4.92766
#
# Compressibility (1/GPa) = 0.05208170
#
# Stress axis : x y z
#
# Youngs Moduli (GPa) = 103.66269 60.32901 43.84520
#
# Poissons Ratio (x) = 0.05995 -0.09119
# Poissons Ratio (y) = 0.10301 -0.01928
# Poissons Ratio (z) = -0.21561 -0.02652
#
# Static dielectric constant tensor:
#      x y z
#    x 1.811330 0.000000 0.000000 
#    y 0.000000 1.843860 0.000000 
#    z 0.000000 0.000000 1.852790 
# 
# From -- ./inp_files/6174.got.cif
#   From: 2010.05.17/outbox.cif.g08.bks.cpg/sg55_4_cif.got.tgz:6174.got - 2010.06.03 13:27:54.
