data_PCOD9426620
_publ_section_title
;
Structure prediction by ZEFSAII (Michael W. Deem and Ramdas Pophale) SiO2 
 PCOD9426620
Probable space group: P B A M
;
_chemical_formula_sum "Si O2"
_cell_formula_units_Z 56
_cell_length_a 22.315054
_cell_length_b 15.224080
_cell_length_c 7.944579
_cell_angle_alpha 90.000000
_cell_angle_beta 90.000000
_cell_angle_gamma 90.000000
_cell_volume 2698.981374
_symmetry_space_group_name_H-M "P B A M"
_symmetry_group_IT_number 55
_symmetry_cell_setting 'orthorhombic'
loop_
_space_group_symop_operation_xyz
x,y,z
-x,-y,z
1/2+x,1/2-y,-z
1/2-x,1/2+y,-z
-x,-y,-z
x,y,-z
1/2-x,1/2+y,z
1/2+x,1/2-y,z
loop_
_atom_site_type_symbol
_atom_site_label
_atom_site_fract_x
_atom_site_fract_y
_atom_site_fract_z
Si Si1 0.387053 0.287338 0.698986
Si Si2 0.025009 0.636712 0.808553
Si Si3 0.643666 0.354966 0.705026
Si Si4 0.719320 0.832061 0.295683
Si Si5 0.067041 0.976633 0.801355
Si Si6 0.869284 0.485717 0.295852
Si Si7 0.603007 0.169439 0.307574
O O1 0.391835 0.267936 0.500000
O O2 0.434993 0.224237 0.788268
O O3 0.320927 0.252733 0.753233
O O4 0.403869 0.388264 0.726646
O O5 0.068212 0.556845 0.760422
O O6 0.966639 0.645079 0.695763
O O7 0.004653 0.627474 0.000000
O O8 0.641509 0.361527 0.500000
O O9 0.712503 0.341908 0.759744
O O10 0.610412 0.440857 0.771178
O O11 0.610994 0.266025 0.765043
O O12 0.721466 0.831282 0.500000
O O13 0.681763 0.917759 0.241956
O O14 0.060955 0.960512 0.000000
O O15 0.000000 0.000000 0.735082
O O16 0.869182 0.487622 0.500000
O O17 0.863533 0.585101 0.231901
O O18 0.624771 0.176741 0.500000
#
# Coordination Sequence:
#
# PCOD9426620 Si02
#       7
#     8   8   8   8   8   8   8
#     4  10  20  37  62  85 108 143 186 231 278 330
#     4  11  21  33  52  80 113 143 175 219 270 327
#     4  10  21  37  58  83 110 142 184 231 275 326
#     4   8  17  35  58  84 109 136 177 228 277 322
#     4  11  24  40  57  82 117 153 189 233 285 336
#     4   9  18  34  55  78 108 144 181 223 269 320
#     4  10  20  33  52  78 107 141 180 221 266 318
#
# _framework density 20.748567999999999
#
# number of rings (size 3 to 8) (size 9 to 14) (size 15 to 20)
#    0.000    2.143    0.000    4.286    0.000    7.429 
#    0.000    7.857    0.000    1.714    0.000    0.000 
#    0.000    0.000    0.000    0.000    0.000    0.000 
#
# Total GULP energy -312558.085287 kJ/mol
# GULP energy per Si atom -5581.394380 kJ/mol
# Density = 2.070134 g / cm^3
# Si number density = 20.748568 Si / 1000 Ang^3
#
#
#
# Elastic Constant Matrix: (Units=GPa)
#
#
# Indices 1 2 3 4 5 6 
#
# 1 88.8563 30.8307 -7.3586 0.0000 0.0000 0.0000
# 2 30.8307 140.4857 -6.6240 0.0000 0.0000 0.0000
# 3 -7.3586 -6.6240 33.5832 0.0000 0.0000 0.0000
# 4 0.0000 0.0000 0.0000 9.8448 0.0000 0.0000
# 5 0.0000 0.0000 0.0000 0.0000 -16.5969 0.0000
# 6 0.0000 0.0000 0.0000 0.0000 0.0000 17.3072
#
#
#
# Elastic Compliance Matrix: (Units=1/GPa)
#
#
# Indices 1 2 3 4 5 6 
#
# 1 0.012339 -0.002605 0.002190 0.000000 0.000000 0.000000
# 2 -0.002605 0.007735 0.000955 0.000000 0.000000 0.000000
# 3 0.002190 0.000955 0.030445 0.000000 0.000000 0.000000
# 4 0.000000 0.000000 0.000000 0.101576 0.000000 0.000000
# 5 0.000000 0.000000 0.000000 0.000000 -0.060252 0.000000
# 6 0.000000 0.000000 0.000000 0.000000 0.000000 0.057780
#
#
# Mechanical properties :
#
#
# Convention : Reuss Voigt Hill
#
# Bulk Modulus (GPa) = 19.38003 32.95790 26.16896
# Shear Modulus (GPa) = 30.16728 18.51614 24.34171
#
# Velocity S-wave (km/s) = 3.81720 2.99056 3.42888
# Velocity P-wave (km/s) = 5.36551 5.27669 5.32129
#
# Compressibility (1/GPa) = 0.05159951
#
# Stress axis : x y z
#
# Youngs Moduli (GPa) = 81.04222 129.28575 32.84607
#
# Poissons Ratio (x) = 0.33675 -0.07193
# Poissons Ratio (y) = 0.21109 -0.03136
# Poissons Ratio (z) = -0.17748 -0.12346
#
# Static dielectric constant tensor:
#      x y z
#    x 1.724660 0.000000 0.000000 
#    y 0.000000 1.746730 0.000000 
#    z 0.000000 0.000000 1.751330 
# 
# From -- ./inp_files/8711.got.cif
#   From: 2010.05.17/outbox.cif.g08.bks.cpg/sg55_5_cif.got.tgz:8711.got - 2010.06.03 13:27:54.
