data_PCOD9426136
_publ_section_title
;
Structure prediction by ZEFSAII (Michael W. Deem and Ramdas Pophale) SiO2 
 PCOD9426136
Probable space group: P B A M
;
_chemical_formula_sum "Si O2"
_cell_formula_units_Z 64
_cell_length_a 15.029046
_cell_length_b 25.041387
_cell_length_c 8.729080
_cell_angle_alpha 90.000000
_cell_angle_beta 90.000000
_cell_angle_gamma 90.000000
_cell_volume 3285.173171
_symmetry_space_group_name_H-M "P B A M"
_symmetry_group_IT_number 55
_symmetry_cell_setting 'orthorhombic'
loop_
_space_group_symop_operation_xyz
x,y,z
-x,-y,z
1/2+x,1/2-y,-z
1/2-x,1/2+y,-z
-x,-y,-z
x,y,-z
1/2-x,1/2+y,z
1/2+x,1/2-y,z
loop_
_atom_site_type_symbol
_atom_site_label
_atom_site_fract_x
_atom_site_fract_y
_atom_site_fract_z
Si Si1 0.248271 0.943594 0.681910
Si Si2 0.372997 0.745039 0.317518
Si Si3 0.451072 0.945024 0.314377
Si Si4 0.097620 0.019539 0.184624
Si Si5 0.438247 0.636083 0.178952
Si Si6 0.616817 0.645846 0.676825
Si Si7 0.668973 0.767655 0.680274
Si Si8 0.491149 0.167847 0.817833
O O1 0.249583 0.953754 0.500000
O O2 0.348548 0.948144 0.738614
O O3 0.209421 0.884123 0.704804
O O4 0.177006 0.983413 0.754525
O O5 0.372864 0.754068 0.500000
O O6 0.415246 0.687868 0.276890
O O7 0.270438 0.739495 0.264856
O O8 0.431959 0.791954 0.243984
O O9 0.452149 0.940779 0.500000
O O10 0.494068 0.891280 0.248387
O O11 0.500000 0.000000 0.272119
O O12 0.110239 0.081706 0.227047
O O13 0.096108 0.017176 0.000000
O O14 0.000000 0.000000 0.239661
O O15 0.542569 0.625352 0.207436
O O16 0.421606 0.646777 0.000000
O O17 0.590764 0.633704 0.500000
O O18 0.626544 0.708914 0.692003
O O19 0.671758 0.782361 0.500000
O O20 0.604109 0.808264 0.765737
O O21 0.495685 0.166849 0.000000
#
# Coordination Sequence:
#
# PCOD9426136 Si02
#       8
#     8   8   8   8   8   8   8   8
#     4  10  21  37  62  93 119 155 212 263 303 359
#     4  11  23  41  64  91 125 164 208 254 307 367
#     4  10  23  45  69  91 120 161 211 263 310 361
#     4  10  21  37  55  81 121 163 197 238 304 372
#     4  11  22  36  56  85 122 161 200 247 306 368
#     4  10  19  34  58  86 116 154 201 253 305 358
#     4  10  22  40  64  90 121 165 210 255 306 365
#     4  12  25  41  65  96 129 164 204 255 315 376
#
# _framework density 19.481468
#
# number of rings (size 3 to 8) (size 9 to 14) (size 15 to 20)
#    0.000    1.500    2.500    2.625    0.000    6.000 
#    0.000    5.000    0.000    0.000    0.000    0.000 
#    0.000    0.000    0.000    0.000    0.000    0.000 
#
# Total GULP energy -357471.087134 kJ/mol
# GULP energy per Si atom -5585.485736 kJ/mol
# Density = 1.943713 g / cm^3
# Si number density = 19.481468 Si / 1000 Ang^3
#
#
#
# Elastic Constant Matrix: (Units=GPa)
#
#
# Indices 1 2 3 4 5 6 
#
# 1 95.6169 50.5028 29.8355 0.0000 0.0000 0.0000
# 2 50.5028 132.7613 40.0520 0.0000 0.0000 0.0000
# 3 29.8355 40.0520 34.0660 0.0000 0.0000 0.0000
# 4 0.0000 0.0000 0.0000 15.8447 0.0000 0.0000
# 5 0.0000 0.0000 0.0000 0.0000 -21.5327 0.0000
# 6 0.0000 0.0000 0.0000 0.0000 0.0000 26.2028
#
#
#
# Elastic Compliance Matrix: (Units=1/GPa)
#
#
# Indices 1 2 3 4 5 6 
#
# 1 0.014990 -0.002699 -0.009956 0.000000 0.000000 0.000000
# 2 -0.002699 0.012158 -0.011931 0.000000 0.000000 0.000000
# 3 -0.009956 -0.011931 0.052102 0.000000 0.000000 0.000000
# 4 0.000000 0.000000 0.000000 0.063112 0.000000 0.000000
# 5 0.000000 0.000000 0.000000 0.000000 -0.046441 0.000000
# 6 0.000000 0.000000 0.000000 0.000000 0.000000 0.038164
#
#
# Mechanical properties :
#
#
# Convention : Reuss Voigt Hill
#
# Bulk Modulus (GPa) = 33.24558 55.91386 44.57972
# Shear Modulus (GPa) = 25.86872 13.57323 19.72098
#
# Velocity S-wave (km/s) = 3.64794 2.64242 3.18511
# Velocity P-wave (km/s) = 5.90301 6.17035 6.03816
#
# Compressibility (1/GPa) = 0.03007919
#
# Stress axis : x y z
#
# Youngs Moduli (GPa) = 66.70942 82.24751 19.19321
#
# Poissons Ratio (x) = 0.22198 0.19108
# Poissons Ratio (y) = 0.18004 0.22900
# Poissons Ratio (z) = 0.66414 0.98131
#
# Static dielectric constant tensor:
#      x y z
#    x 1.703790 0.000000 0.000000 
#    y 0.000000 1.667980 0.000000 
#    z 0.000000 0.000000 1.662790 
# 
# From -- ./inp_files/6620.got.cif
#   From: 2010.05.17/outbox.cif.g08.bks.cpg/sg55_4_cif.got.tgz:6620.got - 2010.06.03 13:27:54.
