data_PCOD9426895
_publ_section_title
;
Structure prediction by ZEFSAII (Michael W. Deem and Ramdas Pophale) SiO2 
 PCOD9426895
Probable space group: P B A M
;
_chemical_formula_sum "Si O2"
_cell_formula_units_Z 64
_cell_length_a 7.198146
_cell_length_b 15.557801
_cell_length_c 24.704715
_cell_angle_alpha 90.000000
_cell_angle_beta 90.000000
_cell_angle_gamma 90.000000
_cell_volume 2766.614899
_symmetry_space_group_name_H-M "P B A M"
_symmetry_group_IT_number 55
_symmetry_cell_setting 'orthorhombic'
loop_
_space_group_symop_operation_xyz
x,y,z
-x,-y,z
1/2+x,1/2-y,-z
1/2-x,1/2+y,-z
-x,-y,-z
x,y,-z
1/2-x,1/2+y,z
1/2+x,1/2-y,z
loop_
_atom_site_type_symbol
_atom_site_label
_atom_site_fract_x
_atom_site_fract_y
_atom_site_fract_z
Si Si1 0.691407 0.372714 0.061699
Si Si2 0.214565 0.971914 0.258042
Si Si3 0.188670 0.629076 0.674656
Si Si4 0.775775 0.430178 0.559313
Si Si5 0.656788 0.627074 0.441372
Si Si6 0.284406 0.972132 0.131707
Si Si7 0.378576 0.818171 0.061343
Si Si8 0.618290 0.683493 0.672751
O O1 0.671987 0.450420 0.103435
O O2 0.611825 0.280598 0.079610
O O3 0.912621 0.353738 0.058676
O O4 0.630573 0.393692 0.000000
O O5 0.329694 0.049989 0.284470
O O6 0.246328 0.960555 0.194728
O O7 0.233932 0.883920 0.291629
O O8 0.000000 0.000000 0.264030
O O9 0.129271 0.604307 0.613614
O O10 0.409862 0.647522 0.670822
O O11 0.109117 0.719759 0.693583
O O12 0.858841 0.410464 0.500000
O O13 0.564364 0.393927 0.558178
O O14 0.751597 0.533311 0.564003
O O15 0.705280 0.665256 0.500000
O O16 0.695405 0.683279 0.388655
O O17 0.500000 0.000000 0.127718
O O18 0.265651 0.883684 0.098531
O O19 0.301860 0.816888 0.000000
#
# Coordination Sequence:
#
# PCOD9426895 Si02
#       8
#     8   8   8   8   8   8   8   8
#     4   9  18  34  56  82 111 140 170 208 255 306
#     4  10  22  39  54  71 102 140 179 218 254 300
#     4  10  20  35  54  76 101 133 172 214 260 309
#     4   8  13  25  49  76  99 127 165 207 252 308
#     4   8  13  25  49  76  99 127 165 207 252 308
#     4  10  21  36  56  79 105 139 177 214 256 304
#     4   9  18  34  56  82 111 140 170 208 255 306
#     4  10  20  35  54  76 101 133 172 214 260 309
#
# _framework density 23.132963
#
# number of rings (size 3 to 8) (size 9 to 14) (size 15 to 20)
#    0.000    2.750    1.250    1.125    0.000    5.000 
#    0.000    5.000    0.000    3.750    0.000    1.750 
#    0.000    0.000    0.000    0.000    0.000    0.000 
#
# Total GULP energy -357828.953255 kJ/mol
# GULP energy per Si atom -5591.077395 kJ/mol
# Density = 2.308031 g / cm^3
# Si number density = 23.132963 Si / 1000 Ang^3
#
#
#
# Elastic Constant Matrix: (Units=GPa)
#
#
# Indices 1 2 3 4 5 6 
#
# 1 49.9371 30.7747 15.7151 0.0000 0.0000 0.0000
# 2 30.7747 142.1567 99.2507 0.0000 0.0000 0.0000
# 3 15.7151 99.2507 144.9409 0.0000 0.0000 0.0000
# 4 0.0000 0.0000 0.0000 13.8492 0.0000 0.0000
# 5 0.0000 0.0000 0.0000 0.0000 7.8343 0.0000
# 6 0.0000 0.0000 0.0000 0.0000 0.0000 30.6874
#
#
#
# Elastic Compliance Matrix: (Units=1/GPa)
#
#
# Indices 1 2 3 4 5 6 
#
# 1 0.023346 -0.006297 0.001781 0.000000 0.000000 0.000000
# 2 -0.006297 0.015177 -0.009710 0.000000 0.000000 0.000000
# 3 0.001781 -0.009710 0.013355 0.000000 0.000000 0.000000
# 4 0.000000 0.000000 0.000000 0.072206 0.000000 0.000000
# 5 0.000000 0.000000 0.000000 0.000000 0.127644 0.000000
# 6 0.000000 0.000000 0.000000 0.000000 0.000000 0.032587
#
#
# Mechanical properties :
#
#
# Convention : Reuss Voigt Hill
#
# Bulk Modulus (GPa) = 42.68891 69.83511 56.26201
# Shear Modulus (GPa) = 15.59694 23.22713 19.41203
#
# Velocity S-wave (km/s) = 2.59941 3.17214 2.89995
# Velocity P-wave (km/s) = 5.24433 6.60839 5.96548
#
# Compressibility (1/GPa) = 0.02342529
#
# Stress axis : x y z
#
# Youngs Moduli (GPa) = 42.83455 65.88880 74.87657
#
# Poissons Ratio (x) = 0.41493 -0.13336
# Poissons Ratio (y) = 0.26975 0.72705
# Poissons Ratio (z) = -0.07629 0.63978
#
# Static dielectric constant tensor:
#      x y z
#    x 1.971740 0.000000 0.000000 
#    y 0.000000 1.835830 0.000000 
#    z 0.000000 0.000000 1.823310 
# 
# From -- ./inp_files/23561.got.cif
#   From: 2010.05.17/outbox.cif.g08.bks.cpg/sg55_12_cif.got.tgz:23561.got - 2010.06.03 13:27:54.
