data_PCOD9426908
_publ_section_title
;
Structure prediction by ZEFSAII (Michael W. Deem and Ramdas Pophale) SiO2 
 PCOD9426908
Probable space group: P B A M
;
_chemical_formula_sum "Si O2"
_cell_formula_units_Z 64
_cell_length_a 29.402069
_cell_length_b 12.999716
_cell_length_c 7.609716
_cell_angle_alpha 90.000000
_cell_angle_beta 90.000000
_cell_angle_gamma 90.000000
_cell_volume 2908.574591
_symmetry_space_group_name_H-M "P B A M"
_symmetry_group_IT_number 55
_symmetry_cell_setting 'orthorhombic'
loop_
_space_group_symop_operation_xyz
x,y,z
-x,-y,z
1/2+x,1/2-y,-z
1/2-x,1/2+y,-z
-x,-y,-z
x,y,-z
1/2-x,1/2+y,z
1/2+x,1/2-y,z
loop_
_atom_site_type_symbol
_atom_site_label
_atom_site_fract_x
_atom_site_fract_y
_atom_site_fract_z
Si Si1 0.934522 0.266633 0.203265
Si Si2 0.882388 0.835266 0.786926
Si Si3 0.336476 0.290696 0.213781
Si Si4 0.050249 0.506177 0.699853
Si Si5 0.861295 0.609391 0.201650
Si Si6 0.013249 0.113189 0.707502
Si Si7 0.696126 0.490611 0.214722
Si Si8 0.703439 0.928221 0.784498
O O1 0.889791 0.204607 0.261084
O O2 0.937360 0.374063 0.302225
O O3 0.979749 0.199483 0.217071
O O4 0.927240 0.295409 0.000000
O O5 0.866389 0.723108 0.720923
O O6 0.934006 0.861147 0.736551
O O7 0.846483 0.921354 0.729296
O O8 0.881904 0.832338 0.000000
O O9 0.310489 0.392136 0.274484
O O10 0.316359 0.181587 0.273050
O O11 0.333750 0.291451 0.000000
O O12 0.047774 0.465725 0.500000
O O13 0.088995 0.442097 0.794673
O O14 0.000000 0.500000 0.779484
O O15 0.827196 0.524206 0.278407
O O16 0.846264 0.624096 0.000000
O O17 0.004407 0.113013 0.500000
O O18 0.000000 0.000000 0.777390
O O19 0.744500 0.444561 0.268097
O O20 0.695941 0.490755 0.000000
O O21 0.701284 0.927918 0.000000
#
# Coordination Sequence:
#
# PCOD9426908 Si02
#       8
#     8   8   8   8   8   8   8   8
#     4  11  21  36  59  85 115 148 189 243 291 342
#     4  10  21  36  56  86 117 151 193 241 290 340
#     4   9  17  30  50  79 113 147 182 226 284 339
#     4  11  23  37  54  79 111 148 190 233 285 348
#     4  10  20  35  54  80 114 147 186 235 289 342
#     4  11  24  40  58  82 115 157 199 238 287 345
#     4   9  18  30  51  82 115 148 186 231 285 344
#     4   9  17  30  50  79 113 148 184 231 288 342
#
# _framework density 22.003903999999999
#
# number of rings (size 3 to 8) (size 9 to 14) (size 15 to 20)
#    0.000    2.000    1.250    2.625    1.750    5.500 
#    0.000    0.000    0.000    0.750    0.000    0.000 
#    0.000    0.000    0.000    0.000    0.000    0.000 
#
# Total GULP energy -357664.234879 kJ/mol
# GULP energy per Si atom -5588.503670 kJ/mol
# Density = 2.195382 g / cm^3
# Si number density = 22.003904 Si / 1000 Ang^3
#
#
#
# Elastic Constant Matrix: (Units=GPa)
#
#
# Indices 1 2 3 4 5 6 
#
# 1 147.7361 63.7995 -7.9470 0.0000 0.0000 0.0000
# 2 63.7995 156.8526 -3.0924 0.0000 0.0000 0.0000
# 3 -7.9470 -3.0924 48.8554 0.0000 0.0000 0.0000
# 4 0.0000 0.0000 0.0000 0.1113 0.0000 0.0000
# 5 0.0000 0.0000 0.0000 0.0000 -10.0573 0.0000
# 6 0.0000 0.0000 0.0000 0.0000 0.0000 37.6826
#
#
#
# Elastic Compliance Matrix: (Units=1/GPa)
#
#
# Indices 1 2 3 4 5 6 
#
# 1 0.008273 -0.003343 0.001134 0.000000 0.000000 0.000000
# 2 -0.003343 0.007734 -0.000054 0.000000 0.000000 0.000000
# 3 0.001134 -0.000054 0.020650 0.000000 0.000000 0.000000
# 4 0.000000 0.000000 0.000000 8.985641 0.000000 0.000000
# 5 0.000000 0.000000 0.000000 0.000000 -0.099430 0.000000
# 6 0.000000 0.000000 0.000000 0.000000 0.000000 0.026537
#
#
# Mechanical properties :
#
#
# Convention : Reuss Voigt Hill
#
# Bulk Modulus (GPa) = 31.12225 50.99605 41.05915
# Shear Modulus (GPa) = 0.55775 25.59292 13.07533
#
# Velocity S-wave (km/s) = 0.50401 3.41414 2.44032
# Velocity P-wave (km/s) = 3.80964 6.22640 5.16146
#
# Compressibility (1/GPa) = 0.03213135
#
# Stress axis : x y z
#
# Youngs Moduli (GPa) = 120.86879 129.29852 48.42705
#
# Poissons Ratio (x) = 0.43222 -0.05493
# Poissons Ratio (y) = 0.40405 0.00263
# Poissons Ratio (z) = -0.13709 0.00701
#
# Static dielectric constant tensor:
#      x y z
#    x 1.761940 0.000000 0.000000 
#    y 0.000000 1.783280 0.000000 
#    z 0.000000 0.000000 1.817240 
# 
# From -- ./inp_files/10796.got.cif
#   From: 2010.05.17/outbox.cif.g08.bks.cpg/sg55_6_cif.got.tgz:10796.got - 2010.06.03 13:27:54.
