data_PCOD9426190
_publ_section_title
;
Structure prediction by ZEFSAII (Michael W. Deem and Ramdas Pophale) SiO2 
 PCOD9426190
Probable space group: P B A M
;
_chemical_formula_sum "Si O2"
_cell_formula_units_Z 56
_cell_length_a 19.719204
_cell_length_b 19.703532
_cell_length_c 8.569608
_cell_angle_alpha 90.000000
_cell_angle_beta 90.000000
_cell_angle_gamma 90.000000
_cell_volume 3329.618071
_symmetry_space_group_name_H-M "P B A M"
_symmetry_group_IT_number 55
_symmetry_cell_setting 'orthorhombic'
loop_
_space_group_symop_operation_xyz
x,y,z
-x,-y,z
1/2+x,1/2-y,-z
1/2-x,1/2+y,-z
-x,-y,-z
x,y,-z
1/2-x,1/2+y,z
1/2+x,1/2-y,z
loop_
_atom_site_type_symbol
_atom_site_label
_atom_site_fract_x
_atom_site_fract_y
_atom_site_fract_z
Si Si1 0.944186 0.556390 0.188422
Si Si2 0.754619 0.372024 0.686798
Si Si3 0.736636 0.655832 0.686976
Si Si4 0.978215 0.705608 0.687286
Si Si5 0.869492 0.265884 0.689422
Si Si6 0.790725 0.517898 0.813656
Si Si7 0.156036 0.236114 0.185261
O O1 0.961833 0.628627 0.262517
O O2 0.868809 0.532491 0.234537
O O3 0.000000 0.500000 0.231130
O O4 0.944859 0.563994 0.000000
O O5 0.749160 0.366918 0.500000
O O6 0.820941 0.328344 0.736982
O O7 0.764111 0.449030 0.737642
O O8 0.690545 0.333964 0.761851
O O9 0.736663 0.649261 0.500000
O O10 0.669270 0.697079 0.736345
O O11 0.747370 0.583075 0.763258
O O12 0.798937 0.704408 0.736302
O O13 0.975802 0.710173 0.500000
O O14 0.920428 0.753349 0.758602
O O15 0.053735 0.725015 0.742800
O O16 0.870641 0.266326 0.500000
O O17 0.789736 0.510764 0.000000
O O18 0.160242 0.243696 0.000000
#
# Coordination Sequence:
#
# PCOD9426190 Si02
#       7
#     8   8   8   8   8   8   8
#     4  10  21  34  48  73 113 150 177 211 261 321
#     4  10  20  36  56  78 105 140 182 223 265 317
#     4  10  19  35  56  77 103 140 183 223 264 316
#     4  11  20  33  54  78 105 140 179 220 265 316
#     4   8  18  34  53  78 105 134 177 225 263 311
#     4  11  21  33  51  78 111 143 177 218 267 317
#     4  11  21  35  53  77 107 139 178 223 269 320
#
# _framework density 16.818746000000001
#
# number of rings (size 3 to 8) (size 9 to 14) (size 15 to 20)
#    0.000    1.857    1.429    4.714    0.000    0.857 
#    0.000    7.857    0.000    0.857    0.000    6.000 
#    0.000    0.000    0.000    0.000    0.000    0.000 
#
# Total GULP energy -312683.338642 kJ/mol
# GULP energy per Si atom -5583.631047 kJ/mol
# Density = 1.678047 g / cm^3
# Si number density = 16.818746 Si / 1000 Ang^3
#
#
#
# Elastic Constant Matrix: (Units=GPa)
#
#
# Indices 1 2 3 4 5 6 
#
# 1 81.5459 57.7303 8.2179 0.0000 0.0000 0.0000
# 2 57.7303 99.3563 1.5372 0.0000 0.0000 0.0000
# 3 8.2179 1.5372 26.5264 0.0000 0.0000 0.0000
# 4 0.0000 0.0000 0.0000 21.1659 0.0000 0.0000
# 5 0.0000 0.0000 0.0000 0.0000 18.1668 0.0000
# 6 0.0000 0.0000 0.0000 0.0000 0.0000 23.0147
#
#
#
# Elastic Compliance Matrix: (Units=1/GPa)
#
#
# Indices 1 2 3 4 5 6 
#
# 1 0.021750 -0.012544 -0.006011 0.000000 0.000000 0.000000
# 2 -0.012544 0.017309 0.002883 0.000000 0.000000 0.000000
# 3 -0.006011 0.002883 0.039394 0.000000 0.000000 0.000000
# 4 0.000000 0.000000 0.000000 0.047246 0.000000 0.000000
# 5 0.000000 0.000000 0.000000 0.000000 0.055046 0.000000
# 6 0.000000 0.000000 0.000000 0.000000 0.000000 0.043451
#
#
# Mechanical properties :
#
#
# Convention : Reuss Voigt Hill
#
# Bulk Modulus (GPa) = 21.22804 38.04438 29.63621
# Shear Modulus (GPa) = 18.43376 21.79900 20.11638
#
# Velocity S-wave (km/s) = 3.31422 3.60406 3.46218
# Velocity P-wave (km/s) = 5.22441 6.32364 5.80012
#
# Compressibility (1/GPa) = 0.04710750
#
# Stress axis : x y z
#
# Youngs Moduli (GPa) = 45.97772 57.77318 25.38490
#
# Poissons Ratio (x) = 0.72474 0.15259
# Poissons Ratio (y) = 0.57677 -0.07319
# Poissons Ratio (z) = 0.27638 -0.16657
#
# Static dielectric constant tensor:
#      x y z
#    x 1.567810 0.000000 0.000000 
#    y 0.000000 1.540540 0.000000 
#    z 0.000000 0.000000 1.567600 
# 
# From -- ./inp_files/7850.got.cif
#   From: 2010.05.17/outbox.cif.g08.bks.cpg/sg55_4_cif.got.tgz:7850.got - 2010.06.03 13:27:54.
