data_PCOD9426566
_publ_section_title
;
Structure prediction by ZEFSAII (Michael W. Deem and Ramdas Pophale) SiO2 
 PCOD9426566
Probable space group: P B A M
;
_chemical_formula_sum "Si O2"
_cell_formula_units_Z 64
_cell_length_a 14.538149
_cell_length_b 29.534497
_cell_length_c 7.516537
_cell_angle_alpha 90.000000
_cell_angle_beta 90.000000
_cell_angle_gamma 90.000000
_cell_volume 3227.427491
_symmetry_space_group_name_H-M "P B A M"
_symmetry_group_IT_number 55
_symmetry_cell_setting 'orthorhombic'
loop_
_space_group_symop_operation_xyz
x,y,z
-x,-y,z
1/2+x,1/2-y,-z
1/2-x,1/2+y,-z
-x,-y,-z
x,y,-z
1/2-x,1/2+y,z
1/2+x,1/2-y,z
loop_
_atom_site_type_symbol
_atom_site_label
_atom_site_fract_x
_atom_site_fract_y
_atom_site_fract_z
Si Si1 0.991993 0.200254 0.793374
Si Si2 0.356846 0.377668 0.216063
Si Si3 0.148270 0.624960 0.214227
Si Si4 0.146819 0.375391 0.216876
Si Si5 0.000437 0.302064 0.217658
Si Si6 0.002675 0.551647 0.217209
Si Si7 0.492468 0.550332 0.709192
Si Si8 0.862523 0.871119 0.291136
O O1 0.915774 0.165620 0.719042
O O2 0.997864 0.250606 0.717349
O O3 0.088216 0.173298 0.785868
O O4 0.967147 0.206245 0.000000
O O5 0.251779 0.376710 0.276822
O O6 0.412635 0.422232 0.271785
O O7 0.357630 0.377039 0.000000
O O8 0.088294 0.668403 0.271760
O O9 0.253865 0.626714 0.267763
O O10 0.092292 0.580334 0.273516
O O11 0.146148 0.624788 0.000000
O O12 0.085976 0.418751 0.270659
O O13 0.089962 0.330871 0.272295
O O14 0.148094 0.375365 0.000000
O O15 0.002061 0.301608 0.000000
O O16 0.000000 0.500000 0.278406
O O17 0.003291 0.550957 0.000000
O O18 0.500000 0.500000 0.786234
O O19 0.470975 0.544918 0.500000
O O20 0.414405 0.584301 0.783274
O O21 0.883198 0.869196 0.500000
#
# Coordination Sequence:
#
# PCOD9426566 Si02
#       8
#     8   8   8   8   8   8   8   8
#     4   9  17  30  48  69  92 119 153 189 225 269
#     4   9  17  28  45  70  93 112 142 188 232 265
#     4   9  17  30  49  72  96 123 156 190 226 272
#     4   8  14  25  41  64  93 119 145 182 226 267
#     4   8  15  28  47  70  94 121 152 186 223 268
#     4   8  14  25  42  66  95 123 150 183 226 274
#     4   9  19  35  50  63  86 122 156 184 222 274
#     4  10  20  33  48  67  93 123 154 191 234 274
#
# _framework density 19.830036
#
# number of rings (size 3 to 8) (size 9 to 14) (size 15 to 20)
#    0.000    3.250    0.000    1.875    0.000    2.750 
#    0.000    5.625    0.000    7.125    0.000    0.000 
#    0.000    0.000    0.000    0.000    0.000    0.000 
#
# Total GULP energy -356824.545130 kJ/mol
# GULP energy per Si atom -5575.383518 kJ/mol
# Density = 1.978490 g / cm^3
# Si number density = 19.830036 Si / 1000 Ang^3
#
#
#
# Elastic Constant Matrix: (Units=GPa)
#
#
# Indices 1 2 3 4 5 6 
#
# 1 164.3993 89.4698 -13.6019 0.0000 0.0000 0.0000
# 2 89.4698 210.7508 1.1738 0.0000 0.0000 0.0000
# 3 -13.6019 1.1738 45.4477 0.0000 0.0000 0.0000
# 4 0.0000 0.0000 0.0000 1628.0499 0.0000 0.0000
# 5 0.0000 0.0000 0.0000 0.0000 -154.8171 0.0000
# 6 0.0000 0.0000 0.0000 0.0000 0.0000 6.7097
#
#
#
# Elastic Compliance Matrix: (Units=1/GPa)
#
#
# Indices 1 2 3 4 5 6 
#
# 1 0.008194 -0.003493 0.002543 0.000000 0.000000 0.000000
# 2 -0.003493 0.006234 -0.001206 0.000000 0.000000 0.000000
# 3 0.002543 -0.001206 0.022795 0.000000 0.000000 0.000000
# 4 0.000000 0.000000 0.000000 0.000614 0.000000 0.000000
# 5 0.000000 0.000000 0.000000 0.000000 -0.006459 0.000000
# 6 0.000000 0.000000 0.000000 0.000000 0.000000 0.149037
#
#
# Mechanical properties :
#
#
# Convention : Reuss Voigt Hill
#
# Bulk Modulus (GPa) = 30.38521 63.85346 47.11933
# Shear Modulus (GPa) = 25.54941 318.89222 172.22082
#
# Velocity S-wave (km/s) = 3.59335 12.69495 9.32936
# Velocity P-wave (km/s) = 5.70722 15.72109 11.82635
#
# Compressibility (1/GPa) = 0.03291075
#
# Stress axis : x y z
#
# Youngs Moduli (GPa) = 122.04148 160.39976 43.86842
#
# Poissons Ratio (x) = 0.56023 -0.11154
# Poissons Ratio (y) = 0.42626 0.05292
# Poissons Ratio (z) = -0.31030 0.19350
#
# Static dielectric constant tensor:
#      x y z
#    x 1.662260 0.000000 0.000000 
#    y 0.000000 1.693140 0.000000 
#    z 0.000000 0.000000 1.743630 
# 
# From -- ./inp_files/6942.got.cif
#   From: 2010.05.17/outbox.cif.g08.bks.cpg/sg55_4_cif.got.tgz:6942.got - 2010.06.03 13:27:54.
