data_PCOD9426728
_publ_section_title
;
Structure prediction by ZEFSAII (Michael W. Deem and Ramdas Pophale) SiO2 
 PCOD9426728
Probable space group: P B A M
;
_chemical_formula_sum "Si O2"
_cell_formula_units_Z 56
_cell_length_a 20.040762
_cell_length_b 14.038846
_cell_length_c 7.452581
_cell_angle_alpha 90.000000
_cell_angle_beta 90.000000
_cell_angle_gamma 90.000000
_cell_volume 2096.777489
_symmetry_space_group_name_H-M "P B A M"
_symmetry_group_IT_number 55
_symmetry_cell_setting 'orthorhombic'
loop_
_space_group_symop_operation_xyz
x,y,z
-x,-y,z
1/2+x,1/2-y,-z
1/2-x,1/2+y,-z
-x,-y,-z
x,y,-z
1/2-x,1/2+y,z
1/2+x,1/2-y,z
loop_
_atom_site_type_symbol
_atom_site_label
_atom_site_fract_x
_atom_site_fract_y
_atom_site_fract_z
Si Si1 0.210131 0.222119 0.718507
Si Si2 0.211502 0.447335 0.208725
Si Si3 0.068593 0.459287 0.212646
Si Si4 0.504103 0.777156 0.716016
Si Si5 0.645461 0.576919 0.211784
Si Si6 0.578735 0.391230 0.715733
Si Si7 0.144853 0.703858 0.704326
O O1 0.211007 0.222855 0.500000
O O2 0.207036 0.332090 0.777721
O O3 0.146600 0.161699 0.778181
O O4 0.282307 0.182762 0.782529
O O5 0.141576 0.485569 0.285818
O O6 0.284857 0.468927 0.283950
O O7 0.211882 0.473894 0.000000
O O8 0.000000 0.500000 0.293049
O O9 0.056392 0.346831 0.238848
O O10 0.069148 0.477742 0.000000
O O11 0.510783 0.774657 0.500000
O O12 0.483044 0.672577 0.780895
O O13 0.573387 0.820333 0.789963
O O14 0.587056 0.501250 0.238037
O O15 0.638738 0.680200 0.297939
O O16 0.653648 0.594084 0.000000
O O17 0.577146 0.386117 0.500000
O O18 0.145982 0.670825 0.500000
#
# Coordination Sequence:
#
# PCOD9426728 Si02
#       7
#     8   8   8   8   8   8   8
#     4   9  17  32  55  77  99 134 179 220 262 316
#     4   9  18  34  53  74 103 136 173 217 264 312
#     4  10  21  36  55  80 111 145 178 217 270 326
#     4  10  21  37  56  80 109 142 180 222 271 323
#     4  10  21  35  53  79 107 140 183 225 265 315
#     4  10  20  34  53  78 108 140 178 221 269 321
#     4   9  19  36  56  78 108 142 177 223 273 317
#
# _framework density 26.707650000000001
#
# number of rings (size 3 to 8) (size 9 to 14) (size 15 to 20)
#    0.000    2.429    1.429    0.429    0.000    4.286 
#    0.000    2.857    0.000    0.000    0.000    0.000 
#    0.000    0.000    0.000    0.000    0.000    0.000 
#
# Total GULP energy -313213.929415 kJ/mol
# GULP energy per Si atom -5593.105882 kJ/mol
# Density = 2.664686 g / cm^3
# Si number density = 26.707650 Si / 1000 Ang^3
#
#
#
# Elastic Constant Matrix: (Units=GPa)
#
#
# Indices 1 2 3 4 5 6 
#
# 1 129.3069 10.8451 15.5303 0.0000 0.0000 0.0000
# 2 10.8451 86.9935 8.4423 0.0000 0.0000 0.0000
# 3 15.5303 8.4423 110.1143 0.0000 0.0000 0.0000
# 4 0.0000 0.0000 0.0000 34.8354 0.0000 0.0000
# 5 0.0000 0.0000 0.0000 0.0000 -3.9716 0.0000
# 6 0.0000 0.0000 0.0000 0.0000 0.0000 54.2950
#
#
#
# Elastic Compliance Matrix: (Units=1/GPa)
#
#
# Indices 1 2 3 4 5 6 
#
# 1 0.007934 -0.000887 -0.001051 0.000000 0.000000 0.000000
# 2 -0.000887 0.011680 -0.000770 0.000000 0.000000 0.000000
# 3 -0.001051 -0.000770 0.009289 0.000000 0.000000 0.000000
# 4 0.000000 0.000000 0.000000 0.028706 0.000000 0.000000
# 5 0.000000 0.000000 0.000000 0.000000 -0.251790 0.000000
# 6 0.000000 0.000000 0.000000 0.000000 0.000000 0.018418
#
#
# Mechanical properties :
#
#
# Convention : Reuss Voigt Hill
#
# Bulk Modulus (GPa) = 42.57794 44.00557 43.29176
# Shear Modulus (GPa) = -30.76615 36.47158 2.85272
#
# Velocity S-wave (km/s) = -3.39774 3.69939 1.03462
# Velocity P-wave (km/s) = 0.76421 5.89575 4.20380
#
# Compressibility (1/GPa) = 0.02348634
#
# Stress axis : x y z
#
# Youngs Moduli (GPa) = 126.03710 85.61300 107.65688
#
# Poissons Ratio (x) = 0.07595 0.11315
# Poissons Ratio (y) = 0.11181 0.08294
# Poissons Ratio (z) = 0.13247 0.06596
#
# Static dielectric constant tensor:
#      x y z
#    x 2.136160 0.000000 0.000000 
#    y 0.000000 2.127220 0.000000 
#    z 0.000000 0.000000 1.992160 
# 
# From -- ./inp_files/5996.got.cif
#   From: 2010.05.17/outbox.cif.g08.bks.cpg/sg55_3_cif.got.tgz:5996.got - 2010.06.03 13:27:54.
