data_PCOD9426553
_publ_section_title
;
Structure prediction by ZEFSAII (Michael W. Deem and Ramdas Pophale) SiO2 
 PCOD9426553
Probable space group: P B A M
;
_chemical_formula_sum "Si O2"
_cell_formula_units_Z 48
_cell_length_a 9.832860
_cell_length_b 28.286143
_cell_length_c 7.362159
_cell_angle_alpha 90.000000
_cell_angle_beta 90.000000
_cell_angle_gamma 90.000000
_cell_volume 2047.664405
_symmetry_space_group_name_H-M "P B A M"
_symmetry_group_IT_number 55
_symmetry_cell_setting 'orthorhombic'
loop_
_space_group_symop_operation_xyz
x,y,z
-x,-y,z
1/2+x,1/2-y,-z
1/2-x,1/2+y,-z
-x,-y,-z
x,y,-z
1/2-x,1/2+y,z
1/2+x,1/2-y,z
loop_
_atom_site_type_symbol
_atom_site_label
_atom_site_fract_x
_atom_site_fract_y
_atom_site_fract_z
Si Si1 0.189605 0.885756 0.780250
Si Si2 0.148440 0.994901 0.713095
Si Si3 0.197431 0.720355 0.221709
Si Si4 0.091117 0.545219 0.719999
Si Si5 0.497923 0.305179 0.220747
Si Si6 0.475648 0.853634 0.794169
O O1 0.193344 0.940402 0.725892
O O2 0.055127 0.857071 0.723548
O O3 0.325376 0.858967 0.713336
O O4 0.194555 0.885395 0.000000
O O5 0.139370 0.006395 0.500000
O O6 0.259393 0.031125 0.785591
O O7 0.000000 0.000000 0.794957
O O8 0.352240 0.710978 0.283090
O O9 0.121363 0.768657 0.273185
O O10 0.092361 0.679715 0.283959
O O11 0.203836 0.719608 0.000000
O O12 0.088506 0.549597 0.500000
O O13 0.034223 0.593522 0.796568
O O14 0.000000 0.500000 0.766849
O O15 0.502747 0.304923 0.000000
O O16 0.454301 0.835556 0.000000
#
# Coordination Sequence:
#
# PCOD9426553 Si02
#       6
#     8   8   8   8   8   8
#     4  10  20  33  51  78 107 135 169 213 259 300
#     4  10  22  38  54  73 101 138 176 212 255 307
#     4   9  17  30  49  74 104 137 169 206 253 306
#     4  10  20  36  55  74  99 137 178 210 249 305
#     4   9  17  30  49  73 104 137 169 206 253 306
#     4  10  20  32  51  79 107 134 169 213 258 299
#
# _framework density 23.441341000000001
#
# number of rings (size 3 to 8) (size 9 to 14) (size 15 to 20)
#    0.000    2.333    1.667    1.000    2.333    5.333 
#    0.000    0.000    0.000    1.000    0.000    0.000 
#    0.000    0.000    0.000    0.000    0.000    0.000 
#
# Total GULP energy -268163.011214 kJ/mol
# GULP energy per Si atom -5586.729400 kJ/mol
# Density = 2.338799 g / cm^3
# Si number density = 23.441341 Si / 1000 Ang^3
#
#
#
# Elastic Constant Matrix: (Units=GPa)
#
#
# Indices 1 2 3 4 5 6 
#
# 1 142.8148 2.7467 -2.0201 0.0000 0.0000 0.0000
# 2 2.7467 51.4829 -19.9612 0.0000 0.0000 0.0000
# 3 -2.0201 -19.9612 82.7862 0.0000 0.0000 0.0000
# 4 0.0000 0.0000 0.0000 5.9039 0.0000 0.0000
# 5 0.0000 0.0000 0.0000 0.0000 -6.6607 0.0000
# 6 0.0000 0.0000 0.0000 0.0000 0.0000 47.1844
#
#
#
# Elastic Compliance Matrix: (Units=1/GPa)
#
#
# Indices 1 2 3 4 5 6 
#
# 1 0.007010 -0.000339 0.000089 0.000000 0.000000 0.000000
# 2 -0.000339 0.021444 0.005162 0.000000 0.000000 0.000000
# 3 0.000089 0.005162 0.013326 0.000000 0.000000 0.000000
# 4 0.000000 0.000000 0.000000 0.169379 0.000000 0.000000
# 5 0.000000 0.000000 0.000000 0.000000 -0.150135 0.000000
# 6 0.000000 0.000000 0.000000 0.000000 0.000000 0.021193
#
#
# Mechanical properties :
#
#
# Convention : Reuss Voigt Hill
#
# Bulk Modulus (GPa) = 19.37857 26.51275 22.94566
# Shear Modulus (GPa) = 55.80710 29.04009 42.42359
#
# Velocity S-wave (km/s) = 4.88455 3.52354 4.25876
# Velocity P-wave (km/s) = 6.33218 5.28096 5.83031
#
# Compressibility (1/GPa) = 0.05160340
#
# Stress axis : x y z
#
# Youngs Moduli (GPa) = 142.65612 46.63416 75.04037
#
# Poissons Ratio (x) = 0.01583 -0.00669
# Poissons Ratio (y) = 0.04842 -0.38737
# Poissons Ratio (z) = -0.01273 -0.24073
#
# Static dielectric constant tensor:
#      x y z
#    x 1.899820 0.000000 0.000000 
#    y 0.000000 1.822970 0.000000 
#    z 0.000000 0.000000 1.895780 
# 
# From -- ./inp_files/2768.got.cif
#   From: 2010.05.17/outbox.cif.g08.bks.cpg/sg55_2_cif.got.tgz:2768.got - 2010.06.03 13:27:54.
