data_PCOD9426749
_publ_section_title
;
Structure prediction by ZEFSAII (Michael W. Deem and Ramdas Pophale) SiO2 
 PCOD9426749
Probable space group: P B A M
;
_chemical_formula_sum "Si O2"
_cell_formula_units_Z 56
_cell_length_a 19.846583
_cell_length_b 14.361886
_cell_length_c 7.443530
_cell_angle_alpha 90.000000
_cell_angle_beta 90.000000
_cell_angle_gamma 90.000000
_cell_volume 2121.661829
_symmetry_space_group_name_H-M "P B A M"
_symmetry_group_IT_number 55
_symmetry_cell_setting 'orthorhombic'
loop_
_space_group_symop_operation_xyz
x,y,z
-x,-y,z
1/2+x,1/2-y,-z
1/2-x,1/2+y,-z
-x,-y,-z
x,y,-z
1/2-x,1/2+y,z
1/2+x,1/2-y,z
loop_
_atom_site_type_symbol
_atom_site_label
_atom_site_fract_x
_atom_site_fract_y
_atom_site_fract_z
Si Si1 0.352492 0.209000 0.793679
Si Si2 0.929723 0.898042 0.292157
Si Si3 0.499803 0.226199 0.289641
Si Si4 0.710013 0.059596 0.289944
Si Si5 0.704367 0.280951 0.782942
Si Si6 0.932063 0.548764 0.720445
Si Si7 0.143785 0.928368 0.720003
O O1 0.425409 0.182243 0.718265
O O2 0.278720 0.183987 0.718575
O O3 0.358232 0.321848 0.779014
O O4 0.352742 0.182684 0.000000
O O5 0.947704 0.915198 0.500000
O O6 0.985519 0.828336 0.212874
O O7 0.859082 0.839927 0.285286
O O8 0.912341 0.999263 0.216405
O O9 0.514021 0.235609 0.500000
O O10 0.554319 0.154278 0.217951
O O11 0.712232 0.036847 0.500000
O O12 0.702326 0.172089 0.273475
O O13 0.641065 0.016695 0.215997
O O14 0.782993 0.034797 0.216331
O O15 0.703941 0.283599 0.000000
O O16 0.931181 0.546242 0.500000
O O17 0.000000 0.500000 0.780081
O O18 0.142573 0.926190 0.500000
#
# Coordination Sequence:
#
# PCOD9426749 Si02
#       7
#     8   8   8   8   8   8   8
#     4  10  22  38  54  77 112 148 187 229 271 326
#     4  10  20  35  56  85 112 140 183 229 277 332
#     4  10  20  35  55  79 110 146 180 225 280 330
#     4   9  16  32  54  76 103 135 174 223 270 318
#     4  10  20  34  54  77 103 143 184 224 271 323
#     4   9  17  30  52  81 109 137 175 222 272 325
#     4   9  19  34  56  82 107 140 183 230 276 323
#
# _framework density 26.394404999999999
#
# number of rings (size 3 to 8) (size 9 to 14) (size 15 to 20)
#    0.000    2.429    1.429    0.857    0.000    4.571 
#    0.000    5.714    0.000    1.714    0.000    0.000 
#    0.000    0.000    0.000    0.000    0.000    0.000 
#
# Total GULP energy -312961.185787 kJ/mol
# GULP energy per Si atom -5588.592603 kJ/mol
# Density = 2.633433 g / cm^3
# Si number density = 26.394405 Si / 1000 Ang^3
#
#
#
# Elastic Constant Matrix: (Units=GPa)
#
#
# Indices 1 2 3 4 5 6 
#
# 1 131.0972 9.4806 -0.4961 0.0000 0.0000 0.0000
# 2 9.4806 70.0135 3.3623 0.0000 0.0000 0.0000
# 3 -0.4961 3.3623 99.4108 0.0000 0.0000 0.0000
# 4 0.0000 0.0000 0.0000 17.8418 0.0000 0.0000
# 5 0.0000 0.0000 0.0000 0.0000 30.7955 0.0000
# 6 0.0000 0.0000 0.0000 0.0000 0.0000 54.6302
#
#
#
# Elastic Compliance Matrix: (Units=1/GPa)
#
#
# Indices 1 2 3 4 5 6 
#
# 1 0.007704 -0.001047 0.000074 0.000000 0.000000 0.000000
# 2 -0.001047 0.014448 -0.000494 0.000000 0.000000 0.000000
# 3 0.000074 -0.000494 0.010076 0.000000 0.000000 0.000000
# 4 0.000000 0.000000 0.000000 0.056048 0.000000 0.000000
# 5 0.000000 0.000000 0.000000 0.000000 0.032472 0.000000
# 6 0.000000 0.000000 0.000000 0.000000 0.000000 0.018305
#
#
# Mechanical properties :
#
#
# Convention : Reuss Voigt Hill
#
# Bulk Modulus (GPa) = 34.13540 36.13499 35.13519
# Shear Modulus (GPa) = 32.94838 39.86515 36.40676
#
# Velocity S-wave (km/s) = 3.53697 3.89056 3.71797
# Velocity P-wave (km/s) = 5.44437 5.82254 5.63663
#
# Compressibility (1/GPa) = 0.02929510
#
# Stress axis : x y z
#
# Youngs Moduli (GPa) = 129.80427 69.21169 99.24237
#
# Poissons Ratio (x) = 0.07245 -0.00733
# Poissons Ratio (y) = 0.13587 0.04902
# Poissons Ratio (z) = -0.00959 0.03418
#
# Static dielectric constant tensor:
#      x y z
#    x 2.077290 0.000000 0.000000 
#    y 0.000000 2.124260 0.000000 
#    z 0.000000 0.000000 1.997780 
# 
# From -- ./inp_files/8684.got.cif
#   From: 2010.05.17/outbox.cif.g08.bks.cpg/sg55_5_cif.got.tgz:8684.got - 2010.06.03 13:27:54.
