data_PCOD9426489
_publ_section_title
;
Structure prediction by ZEFSAII (Michael W. Deem and Ramdas Pophale) SiO2 
 PCOD9426489
Probable space group: P B A M
;
_chemical_formula_sum "Si O2"
_cell_formula_units_Z 64
_cell_length_a 13.030774
_cell_length_b 28.801609
_cell_length_c 8.030911
_cell_angle_alpha 90.000000
_cell_angle_beta 90.000000
_cell_angle_gamma 90.000000
_cell_volume 3014.059184
_symmetry_space_group_name_H-M "P B A M"
_symmetry_group_IT_number 55
_symmetry_cell_setting 'orthorhombic'
loop_
_space_group_symop_operation_xyz
x,y,z
-x,-y,z
1/2+x,1/2-y,-z
1/2-x,1/2+y,-z
-x,-y,-z
x,y,-z
1/2-x,1/2+y,z
1/2+x,1/2-y,z
loop_
_atom_site_type_symbol
_atom_site_label
_atom_site_fract_x
_atom_site_fract_y
_atom_site_fract_z
Si Si1 0.370206 0.138088 0.300087
Si Si2 0.323061 0.701694 0.703292
Si Si3 0.246734 0.546895 0.700485
Si Si4 0.760492 0.200846 0.691550
Si Si5 0.533216 0.653143 0.299440
Si Si6 0.597218 0.031709 0.700932
Si Si7 0.023407 0.051397 0.193591
Si Si8 0.093182 0.363475 0.187350
O O1 0.383830 0.139940 0.500000
O O2 0.273385 0.169362 0.254621
O O3 0.337501 0.085704 0.256033
O O4 0.476986 0.152429 0.220342
O O5 0.330981 0.702666 0.500000
O O6 0.292636 0.753001 0.764124
O O7 0.429548 0.678809 0.762097
O O8 0.261194 0.549659 0.500000
O O9 0.199670 0.497027 0.742215
O O10 0.354617 0.557395 0.783551
O O11 0.785523 0.213197 0.500000
O O12 0.865256 0.179589 0.764926
O O13 0.674477 0.161353 0.695683
O O14 0.533877 0.656463 0.500000
O O15 0.529053 0.598036 0.262596
O O16 0.592469 0.037513 0.500000
O O17 0.594398 0.081617 0.782430
O O18 0.500000 0.000000 0.747943
O O19 0.995440 0.049463 0.000000
O O20 0.000000 0.000000 0.268019
O O21 0.124016 0.352514 0.000000
#
# Coordination Sequence:
#
# PCOD9426489 Si02
#       8
#     8   8   8   8   8   8   8   8
#     4  10  19  38  66  92 119 153 200 259 306 356
#     4   9  19  38  68  97 118 147 199 262 312 356
#     4  10  20  37  63  90 116 152 202 257 304 353
#     4  10  23  41  66  94 120 159 205 257 310 361
#     4  10  21  41  66  95 123 155 207 259 306 363
#     4  10  20  38  61  87 118 156 200 247 299 352
#     4  11  25  41  58  85 125 170 206 246 305 369
#     4  12  26  40  57  87 129 169 203 247 303 371
#
# _framework density 21.233822
#
# number of rings (size 3 to 8) (size 9 to 14) (size 15 to 20)
#    0.000    1.750    2.500    1.500    3.500    2.750 
#    0.000    1.250    0.000    0.000    0.000    0.000 
#    0.000    0.000    0.000    0.000    0.000    0.000 
#
# Total GULP energy -357416.788100 kJ/mol
# GULP energy per Si atom -5584.637314 kJ/mol
# Density = 2.118549 g / cm^3
# Si number density = 21.233822 Si / 1000 Ang^3
#
#
#
# Elastic Constant Matrix: (Units=GPa)
#
#
# Indices 1 2 3 4 5 6 
#
# 1 102.3403 56.9810 2.4989 0.0000 0.0000 0.0000
# 2 56.9810 128.4777 8.6680 0.0000 0.0000 0.0000
# 3 2.4989 8.6680 17.8479 0.0000 0.0000 0.0000
# 4 0.0000 0.0000 0.0000 -24.2830 0.0000 0.0000
# 5 0.0000 0.0000 0.0000 0.0000 -18.6132 0.0000
# 6 0.0000 0.0000 0.0000 0.0000 0.0000 28.1448
#
#
#
# Elastic Compliance Matrix: (Units=1/GPa)
#
#
# Indices 1 2 3 4 5 6 
#
# 1 0.012993 -0.005831 0.001013 0.000000 0.000000 0.000000
# 2 -0.005831 0.010664 -0.004363 0.000000 0.000000 0.000000
# 3 0.001013 -0.004363 0.058006 0.000000 0.000000 0.000000
# 4 0.000000 0.000000 0.000000 -0.041181 0.000000 0.000000
# 5 0.000000 0.000000 0.000000 0.000000 -0.053725 0.000000
# 6 0.000000 0.000000 0.000000 0.000000 0.000000 0.035531
#
#
# Mechanical properties :
#
#
# Convention : Reuss Voigt Hill
#
# Bulk Modulus (GPa) = 15.79751 42.77353 29.28552
# Shear Modulus (GPa) = 80.97299 9.08424 45.02862
#
# Velocity S-wave (km/s) = 6.18197 2.07062 4.61000
# Velocity P-wave (km/s) = 7.64275 5.08964 6.49292
#
# Compressibility (1/GPa) = 0.06330110
#
# Stress axis : x y z
#
# Youngs Moduli (GPa) = 76.96380 93.77488 17.23965
#
# Poissons Ratio (x) = 0.54679 -0.01746
# Poissons Ratio (y) = 0.44877 0.07521
# Poissons Ratio (z) = -0.07794 0.40910
#
# Static dielectric constant tensor:
#      x y z
#    x 1.744180 0.000000 0.000000 
#    y 0.000000 1.771020 0.000000 
#    z 0.000000 0.000000 1.778950 
# 
# From -- ./inp_files/4487.got.cif
#   From: 2010.05.17/outbox.cif.g08.bks.cpg/sg55_3_cif.got.tgz:4487.got - 2010.06.03 13:27:54.
