data_PCOD9426485
_publ_section_title
;
Structure prediction by ZEFSAII (Michael W. Deem and Ramdas Pophale) SiO2 
 PCOD9426485
Probable space group: P B A M
;
_chemical_formula_sum "Si O2"
_cell_formula_units_Z 56
_cell_length_a 14.854415
_cell_length_b 15.826812
_cell_length_c 11.255707
_cell_angle_alpha 90.000000
_cell_angle_beta 90.000000
_cell_angle_gamma 90.000000
_cell_volume 2646.194582
_symmetry_space_group_name_H-M "P B A M"
_symmetry_group_IT_number 55
_symmetry_cell_setting 'orthorhombic'
loop_
_space_group_symop_operation_xyz
x,y,z
-x,-y,z
1/2+x,1/2-y,-z
1/2-x,1/2+y,-z
-x,-y,-z
x,y,-z
1/2-x,1/2+y,z
1/2+x,1/2-y,z
loop_
_atom_site_type_symbol
_atom_site_label
_atom_site_fract_x
_atom_site_fract_y
_atom_site_fract_z
Si Si1 0.075209 0.066258 0.809553
Si Si2 0.620995 0.839119 0.744255
Si Si3 0.445655 0.869773 0.136152
Si Si4 0.032258 0.815581 0.371105
Si Si5 0.882020 0.525183 0.638773
Si Si6 0.680152 0.547833 0.628017
Si Si7 0.802709 0.783258 0.869392
O O1 0.140116 0.129833 0.878299
O O2 0.023971 0.131650 0.723308
O O3 0.140378 0.008366 0.731399
O O4 0.000000 0.000000 0.860266
O O5 0.552147 0.848509 0.855417
O O6 0.561329 0.777358 0.663102
O O7 0.717646 0.800229 0.782722
O O8 0.632225 0.927294 0.674996
O O9 0.432196 0.931184 0.250032
O O10 0.376122 0.791034 0.156740
O O11 0.427310 0.900779 0.000000
O O12 0.987534 0.818241 0.500000
O O13 0.124972 0.866787 0.375364
O O14 0.913045 0.533933 0.500000
O O15 0.783794 0.565919 0.641836
O O16 0.665732 0.503936 0.500000
O O17 0.764925 0.762677 0.000000
#
# Coordination Sequence:
#
# PCOD9426485 Si02
#       7
#     8   8   8   8   8   8   8
#     4  10  19  38  65  93 126 162 208 267 333 388
#     4  12  23  41  68  93 129 170 215 270 331 389
#     4  11  26  47  67  92 130 177 222 270 327 390
#     4  10  20  35  61  95 129 165 206 258 330 396
#     4  11  24  42  66  96 132 173 222 273 320 382
#     4   9  18  36  60  92 131 165 205 257 320 392
#     4  11  24  44  66  94 128 169 221 273 326 396
#
# _framework density 21.162465000000001
#
# number of rings (size 3 to 8) (size 9 to 14) (size 15 to 20)
#    0.000    1.429    2.857    2.571    0.000    5.429 
#    0.000    0.714    0.000    0.000    0.000    0.000 
#    0.000    0.000    0.000    0.000    0.000    0.000 
#
# Total GULP energy -311867.246973 kJ/mol
# GULP energy per Si atom -5569.057982 kJ/mol
# Density = 2.111430 g / cm^3
# Si number density = 21.162465 Si / 1000 Ang^3
#
#
#
# Elastic Constant Matrix: (Units=GPa)
#
#
# Indices 1 2 3 4 5 6 
#
# 1 89.5997 -8.3882 29.3793 0.0000 0.0000 0.0000
# 2 -8.3882 58.9660 34.8288 0.0000 0.0000 0.0000
# 3 29.3793 34.8288 114.7706 0.0000 0.0000 0.0000
# 4 0.0000 0.0000 0.0000 -1.9224 0.0000 0.0000
# 5 0.0000 0.0000 0.0000 0.0000 -13.5304 0.0000
# 6 0.0000 0.0000 0.0000 0.0000 0.0000 21.7968
#
#
#
# Elastic Compliance Matrix: (Units=1/GPa)
#
#
# Indices 1 2 3 4 5 6 
#
# 1 0.013177 0.004711 -0.004803 0.000000 0.000000 0.000000
# 2 0.004711 0.022347 -0.007987 0.000000 0.000000 0.000000
# 3 -0.004803 -0.007987 0.012366 0.000000 0.000000 0.000000
# 4 0.000000 0.000000 0.000000 -0.520187 0.000000 0.000000
# 5 0.000000 0.000000 0.000000 0.000000 -0.073908 0.000000
# 6 0.000000 0.000000 0.000000 0.000000 0.000000 0.045878
#
#
# Mechanical properties :
#
#
# Convention : Reuss Voigt Hill
#
# Bulk Modulus (GPa) = 31.51401 41.66402 36.58902
# Shear Modulus (GPa) = -10.55763 15.10324 2.27281
#
# Velocity S-wave (km/s) = -2.23600 2.67438 1.03745
# Velocity P-wave (km/s) = 2.87360 5.40988 4.33154
#
# Compressibility (1/GPa) = 0.03173191
#
# Stress axis : x y z
#
# Youngs Moduli (GPa) = 75.89235 44.74881 80.86468
#
# Poissons Ratio (x) = -0.21082 0.38836
# Poissons Ratio (y) = -0.35754 0.64590
# Poissons Ratio (z) = 0.36448 0.35743
#
# Static dielectric constant tensor:
#      x y z
#    x 1.772870 0.000000 0.000000 
#    y 0.000000 1.760280 0.000000 
#    z 0.000000 0.000000 1.905860 
# 
# From -- ./inp_files/14219.got.cif
#   From: 2010.05.17/outbox.cif.g08.bks.cpg/sg55_8_cif.got.tgz:14219.got - 2010.06.03 13:27:54.
