data_PCOD9426651
_publ_section_title
;
Structure prediction by ZEFSAII (Michael W. Deem and Ramdas Pophale) SiO2 
 PCOD9426651
Probable space group: P B A M
;
_chemical_formula_sum "Si O2"
_cell_formula_units_Z 64
_cell_length_a 12.197149
_cell_length_b 29.724972
_cell_length_c 8.742351
_cell_angle_alpha 90.000000
_cell_angle_beta 90.000000
_cell_angle_gamma 90.000000
_cell_volume 3169.626014
_symmetry_space_group_name_H-M "P B A M"
_symmetry_group_IT_number 55
_symmetry_cell_setting 'orthorhombic'
loop_
_space_group_symop_operation_xyz
x,y,z
-x,-y,z
1/2+x,1/2-y,-z
1/2-x,1/2+y,-z
-x,-y,-z
x,y,-z
1/2-x,1/2+y,z
1/2+x,1/2-y,z
loop_
_atom_site_type_symbol
_atom_site_label
_atom_site_fract_x
_atom_site_fract_y
_atom_site_fract_z
Si Si1 0.562813 0.938851 0.823974
Si Si2 0.272570 0.519108 0.680204
Si Si3 0.124271 0.109648 0.683688
Si Si4 0.689291 0.067484 0.819173
Si Si5 0.290030 0.833969 0.317293
Si Si6 0.166481 0.657118 0.177736
Si Si7 0.986402 0.724644 0.816613
Si Si8 0.043019 0.817901 0.684614
O O1 0.651909 0.960005 0.712056
O O2 0.436514 0.948464 0.790692
O O3 0.582391 0.885118 0.818303
O O4 0.587569 0.953142 0.000000
O O5 0.289541 0.512173 0.500000
O O6 0.353342 0.558693 0.738871
O O7 0.271044 0.471454 0.764178
O O8 0.123514 0.106836 0.500000
O O9 0.226944 0.140679 0.732762
O O10 0.015721 0.135805 0.734119
O O11 0.703522 0.114042 0.731298
O O12 0.698916 0.075192 0.000000
O O13 0.300415 0.830501 0.500000
O O14 0.385083 0.804926 0.240587
O O15 0.169815 0.816952 0.270099
O O16 0.099270 0.700036 0.235503
O O17 0.197134 0.664112 0.000000
O O18 0.982599 0.774844 0.753128
O O19 0.987290 0.724722 0.000000
O O20 0.037107 0.815923 0.500000
#
# Coordination Sequence:
#
# PCOD9426651 Si02
#       8
#     8   8   8   8   8   8   8   8
#     4   9  17  32  51  76 115 157 189 230 290 351
#     4  10  20  33  54  86 117 153 200 249 299 357
#     4   9  20  39  60  83 117 156 199 248 296 348
#     4  11  21  36  57  83 119 161 199 245 303 362
#     4  11  24  42  64  89 120 157 202 253 301 356
#     4   9  18  34  55  83 116 151 189 231 288 353
#     4  11  23  40  62  90 122 155 193 243 304 367
#     4  10  24  44  63  86 117 158 204 251 301 354
#
# _framework density 20.191655000000001
#
# number of rings (size 3 to 8) (size 9 to 14) (size 15 to 20)
#    0.000    2.000    1.250    1.875    1.750    5.500 
#    0.000    0.625    0.000    3.750    0.000    0.000 
#    0.000    0.000    0.000    0.000    0.000    0.000 
#
# Total GULP energy -357400.656212 kJ/mol
# GULP energy per Si atom -5584.385253 kJ/mol
# Density = 2.014570 g / cm^3
# Si number density = 20.191655 Si / 1000 Ang^3
#
#
#
# Elastic Constant Matrix: (Units=GPa)
#
#
# Indices 1 2 3 4 5 6 
#
# 1 36.5933 4.7224 3.1803 0.0000 0.0000 0.0000
# 2 4.7224 60.2940 0.3127 0.0000 0.0000 0.0000
# 3 3.1803 0.3127 7.8877 0.0000 0.0000 0.0000
# 4 0.0000 0.0000 0.0000 50.2382 0.0000 0.0000
# 5 0.0000 0.0000 0.0000 0.0000 -296.9577 0.0000
# 6 0.0000 0.0000 0.0000 0.0000 0.0000 14.1352
#
#
#
# Elastic Compliance Matrix: (Units=1/GPa)
#
#
# Indices 1 2 3 4 5 6 
#
# 1 0.028604 -0.002181 -0.011446 0.000000 0.000000 0.000000
# 2 -0.002181 0.016755 0.000215 0.000000 0.000000 0.000000
# 3 -0.011446 0.000215 0.131387 0.000000 0.000000 0.000000
# 4 0.000000 0.000000 0.000000 0.019905 0.000000 0.000000
# 5 0.000000 0.000000 0.000000 0.000000 -0.003367 0.000000
# 6 0.000000 0.000000 0.000000 0.000000 0.000000 0.070745
#
#
# Mechanical properties :
#
#
# Convention : Reuss Voigt Hill
#
# Bulk Modulus (GPa) = 6.67020 13.46733 10.06876
# Shear Modulus (GPa) = 14.67023 -40.07954 -12.70466
#
# Velocity S-wave (km/s) = 2.69838 -4.46012 -2.51111
# Velocity P-wave (km/s) = 3.60818 4.45413 1.84666
#
# Compressibility (1/GPa) = 0.14992062
#
# Stress axis : x y z
#
# Youngs Moduli (GPa) = 34.96059 59.68333 7.61113
#
# Poissons Ratio (x) = 0.13017 0.08712
# Poissons Ratio (y) = 0.07625 -0.00164
# Poissons Ratio (z) = 0.40017 -0.01283
#
# Static dielectric constant tensor:
#      x y z
#    x 1.709450 0.000000 0.000000 
#    y 0.000000 1.735470 0.000000 
#    z 0.000000 0.000000 1.679450 
# 
# From -- ./inp_files/4681.got.cif
#   From: 2010.05.17/outbox.cif.g08.bks.cpg/sg55_3_cif.got.tgz:4681.got - 2010.06.03 13:27:54.
