data_PCOD9426450
_publ_section_title
;
Structure prediction by ZEFSAII (Michael W. Deem and Ramdas Pophale) SiO2 
 PCOD9426450
Probable space group: P B A M
;
_chemical_formula_sum "Si O2"
_cell_formula_units_Z 52
_cell_length_a 14.880773
_cell_length_b 8.325353
_cell_length_c 20.824729
_cell_angle_alpha 90.000000
_cell_angle_beta 90.000000
_cell_angle_gamma 90.000000
_cell_volume 2579.927532
_symmetry_space_group_name_H-M "P B A M"
_symmetry_group_IT_number 55
_symmetry_cell_setting 'orthorhombic'
loop_
_space_group_symop_operation_xyz
x,y,z
-x,-y,z
1/2+x,1/2-y,-z
1/2-x,1/2+y,-z
-x,-y,-z
x,y,-z
1/2-x,1/2+y,z
1/2+x,1/2-y,z
loop_
_atom_site_type_symbol
_atom_site_label
_atom_site_fract_x
_atom_site_fract_y
_atom_site_fract_z
Si Si1 0.000000 0.000000 0.839706
Si Si2 0.345464 0.703668 0.779623
Si Si3 0.132200 0.804702 0.924016
Si Si4 0.456503 0.320278 0.574379
Si Si5 0.207695 0.501729 0.857458
Si Si6 0.722136 0.514301 0.576115
Si Si7 0.369873 0.797488 0.367264
O O1 0.926757 0.914045 0.795998
O O2 0.047149 0.871140 0.885684
O O3 0.256432 0.606746 0.801703
O O4 0.348287 0.860936 0.824393
O O5 0.350868 0.756030 0.706371
O O6 0.153606 0.624865 0.901269
O O7 0.215063 0.916219 0.899923
O O8 0.121726 0.815952 0.000000
O O9 0.500000 0.500000 0.574972
O O10 0.455593 0.265625 0.500000
O O11 0.354370 0.354402 0.596045
O O12 0.524607 0.212061 0.615480
O O13 0.735078 0.528674 0.500000
O O14 0.815532 0.545063 0.611901
O O15 0.678068 0.343318 0.591477
#
# Coordination Sequence:
#
# PCOD9426450 Si02
#       7
#     4   8   8   8   8   8   8
#     4  10  23  36  56  86 125 152 192 250 292 336
#     4  10  21  37  55  81 115 156 193 238 292 361
#     4  10  19  37  63  89 116 155 198 240 294 350
#     4   8  16  31  50  76 106 137 181 232 282 337
#     4   9  20  38  57  84 119 152 191 246 291 340
#     4  10  20  34  55  83 109 140 190 249 293 342
#     4  11  20  34  58  78 108 152 194 227 295 357
#
# _framework density 20.155604
#
# number of rings (size 3 to 8) (size 9 to 14) (size 15 to 20)
#    0.000    2.308    0.000    3.923    3.231    0.615 
#    0.000    3.846    3.385    2.769    0.000    0.000 
#    0.000    0.000    0.000    0.000    0.000    0.000 
#
# Total GULP energy -290404.460697 kJ/mol
# GULP energy per Si atom -5584.701167 kJ/mol
# Density = 2.010973 g / cm^3
# Si number density = 20.155604 Si / 1000 Ang^3
#
#
#
# Elastic Constant Matrix: (Units=GPa)
#
#
# Indices 1 2 3 4 5 6 
#
# 1 30.8347 -11.1046 -8.8870 0.0000 0.0000 0.0000
# 2 -11.1046 49.4017 -13.4039 0.0000 0.0000 0.0000
# 3 -8.8870 -13.4039 63.2491 0.0000 0.0000 0.0000
# 4 0.0000 0.0000 0.0000 18.9289 0.0000 0.0000
# 5 0.0000 0.0000 0.0000 0.0000 7.0512 0.0000
# 6 0.0000 0.0000 0.0000 0.0000 0.0000 19.9113
#
#
#
# Elastic Compliance Matrix: (Units=1/GPa)
#
#
# Indices 1 2 3 4 5 6 
#
# 1 0.038516 0.010744 0.007689 0.000000 0.000000 0.000000
# 2 0.010744 0.024474 0.006696 0.000000 0.000000 0.000000
# 3 0.007689 0.006696 0.018310 0.000000 0.000000 0.000000
# 4 0.000000 0.000000 0.000000 0.052829 0.000000 0.000000
# 5 0.000000 0.000000 0.000000 0.000000 0.141820 0.000000
# 6 0.000000 0.000000 0.000000 0.000000 0.000000 0.050223
#
#
# Mechanical properties :
#
#
# Convention : Reuss Voigt Hill
#
# Bulk Modulus (GPa) = 7.60122 8.52161 8.06142
# Shear Modulus (GPa) = 15.63638 20.97035 18.30336
#
# Velocity S-wave (km/s) = 2.78831 3.22906 3.01674
# Velocity P-wave (km/s) = 3.76108 4.25905 4.01779
#
# Compressibility (1/GPa) = 0.13155782
#
# Stress axis : x y z
#
# Youngs Moduli (GPa) = 25.96306 40.85954 54.61529
#
# Poissons Ratio (x) = -0.43899 -0.41992
# Poissons Ratio (y) = -0.27894 -0.36572
# Poissons Ratio (z) = -0.19962 -0.27360
#
# Static dielectric constant tensor:
#      x y z
#    x 1.099620 0.000000 0.000000 
#    y 0.000000 1.734040 0.000000 
#    z 0.000000 0.000000 1.654700 
# 
# From -- ./inp_files/22932.got.cif
#   From: 2010.05.17/outbox.cif.g08.bks.cpg/sg55_12_cif.got.tgz:22932.got - 2010.06.03 13:27:54.
