data_PCOD9426774
_publ_section_title
;
Structure prediction by ZEFSAII (Michael W. Deem and Ramdas Pophale) SiO2 
 PCOD9426774
Probable space group: P B A M
;
_chemical_formula_sum "Si O2"
_cell_formula_units_Z 64
_cell_length_a 17.066476
_cell_length_b 21.705545
_cell_length_c 8.050768
_cell_angle_alpha 90.000000
_cell_angle_beta 90.000000
_cell_angle_gamma 90.000000
_cell_volume 2982.303656
_symmetry_space_group_name_H-M "P B A M"
_symmetry_group_IT_number 55
_symmetry_cell_setting 'orthorhombic'
loop_
_space_group_symop_operation_xyz
x,y,z
-x,-y,z
1/2+x,1/2-y,-z
1/2-x,1/2+y,-z
-x,-y,-z
x,y,-z
1/2-x,1/2+y,z
1/2+x,1/2-y,z
loop_
_atom_site_type_symbol
_atom_site_label
_atom_site_fract_x
_atom_site_fract_y
_atom_site_fract_z
Si Si1 0.367643 0.172540 0.194488
Si Si2 0.303535 0.396669 0.695863
Si Si3 0.982858 0.430549 0.803409
Si Si4 0.574398 0.359165 0.806810
Si Si5 0.079424 0.794934 0.694472
Si Si6 0.092515 0.007687 0.196700
Si Si7 0.289251 0.740037 0.806017
Si Si8 0.859072 0.630626 0.695044
O O1 0.409856 0.111050 0.263827
O O2 0.497922 0.335709 0.286048
O O3 0.427360 0.230011 0.213275
O O4 0.351626 0.160793 0.000000
O O5 0.294845 0.384670 0.500000
O O6 0.349025 0.336587 0.763726
O O7 0.358417 0.454864 0.718520
O O8 0.216138 0.407711 0.760540
O O9 0.061090 0.389292 0.782082
O O10 0.000000 0.500000 0.736424
O O11 0.967719 0.437793 0.000000
O O12 0.609254 0.423392 0.744581
O O13 0.640824 0.308642 0.801884
O O14 0.550444 0.369467 0.000000
O O15 0.091688 0.782109 0.500000
O O16 0.212448 0.703994 0.736766
O O17 0.108515 0.002408 0.000000
O O18 0.000000 0.000000 0.222683
O O19 0.324943 0.800383 0.718774
O O20 0.273745 0.755992 0.000000
O O21 0.873125 0.619885 0.500000
#
# Coordination Sequence:
#
# PCOD9426774 Si02
#       8
#     8   8   8   8   8   8   8   8
#     4  10  21  38  61  87 115 150 196 248 302 357
#     4  10  22  37  55  81 115 154 194 239 288 345
#     4  10  23  43  66  92 122 159 205 254 307 368
#     4  10  21  36  54  82 118 149 187 235 281 340
#     4  11  21  35  56  83 114 153 194 235 289 347
#     4  10  20  34  54  81 112 150 192 231 278 338
#     4  10  21  37  59  86 117 153 192 242 301 353
#     4  11  23  41  62  88 121 154 199 252 300 355
#
# _framework density 21.459921999999999
#
# number of rings (size 3 to 8) (size 9 to 14) (size 15 to 20)
#    0.000    1.750    2.500    1.500    0.000    7.500 
#    0.000    2.500    0.000    0.000    0.000    0.000 
#    0.000    0.000    0.000    0.000    0.000    0.000 
#
# Total GULP energy -357040.282636 kJ/mol
# GULP energy per Si atom -5578.754416 kJ/mol
# Density = 2.141108 g / cm^3
# Si number density = 21.459922 Si / 1000 Ang^3
#
#
#
# Elastic Constant Matrix: (Units=GPa)
#
#
# Indices 1 2 3 4 5 6 
#
# 1 70.5713 19.6830 4.1310 0.0000 0.0000 0.0000
# 2 19.6830 72.0148 -1.0586 0.0000 0.0000 0.0000
# 3 4.1310 -1.0586 17.6914 0.0000 0.0000 0.0000
# 4 0.0000 0.0000 0.0000 -16.7788 0.0000 0.0000
# 5 0.0000 0.0000 0.0000 0.0000 16.1925 0.0000
# 6 0.0000 0.0000 0.0000 0.0000 0.0000 21.5232
#
#
#
# Elastic Compliance Matrix: (Units=1/GPa)
#
#
# Indices 1 2 3 4 5 6 
#
# 1 0.015604 -0.004322 -0.003902 0.000000 0.000000 0.000000
# 2 -0.004322 0.015096 0.001912 0.000000 0.000000 0.000000
# 3 -0.003902 0.001912 0.057550 0.000000 0.000000 0.000000
# 4 0.000000 0.000000 0.000000 -0.059599 0.000000 0.000000
# 5 0.000000 0.000000 0.000000 0.000000 0.061757 0.000000
# 6 0.000000 0.000000 0.000000 0.000000 0.000000 0.046462
#
#
# Mechanical properties :
#
#
# Convention : Reuss Voigt Hill
#
# Bulk Modulus (GPa) = 13.22297 22.86537 18.04417
# Shear Modulus (GPa) = 28.62019 13.35551 20.98785
#
# Velocity S-wave (km/s) = 3.65589 2.49739 3.13070
# Velocity P-wave (km/s) = 4.89855 4.35821 4.63626
#
# Compressibility (1/GPa) = 0.07562596
#
# Stress axis : x y z
#
# Youngs Moduli (GPa) = 64.08611 66.24491 17.37610
#
# Poissons Ratio (x) = 0.28633 0.06780
# Poissons Ratio (y) = 0.27700 -0.03323
# Poissons Ratio (z) = 0.25008 -0.12669
#
# Static dielectric constant tensor:
#      x y z
#    x 1.800240 0.000000 0.000000 
#    y 0.000000 1.816210 0.000000 
#    z 0.000000 0.000000 1.798150 
# 
# From -- ./inp_files/8020.got.cif
#   From: 2010.05.17/outbox.cif.g08.bks.cpg/sg55_5_cif.got.tgz:8020.got - 2010.06.03 13:27:54.
