data_PCOD9426221
_publ_section_title
;
Structure prediction by ZEFSAII (Michael W. Deem and Ramdas Pophale) SiO2 
 PCOD9426221
Probable space group: P B A M
;
_chemical_formula_sum "Si O2"
_cell_formula_units_Z 64
_cell_length_a 13.057887
_cell_length_b 28.948299
_cell_length_c 7.828942
_cell_angle_alpha 90.000000
_cell_angle_beta 90.000000
_cell_angle_gamma 90.000000
_cell_volume 2959.368395
_symmetry_space_group_name_H-M "P B A M"
_symmetry_group_IT_number 55
_symmetry_cell_setting 'orthorhombic'
loop_
_space_group_symop_operation_xyz
x,y,z
-x,-y,z
1/2+x,1/2-y,-z
1/2-x,1/2+y,-z
-x,-y,-z
x,y,-z
1/2-x,1/2+y,z
1/2+x,1/2-y,z
loop_
_atom_site_type_symbol
_atom_site_label
_atom_site_fract_x
_atom_site_fract_y
_atom_site_fract_z
Si Si1 0.940949 0.192109 0.200823
Si Si2 0.643104 0.789244 0.293485
Si Si3 0.909722 0.937893 0.194720
Si Si4 0.874163 0.090391 0.793244
Si Si5 0.647755 0.058873 0.296312
Si Si6 0.351119 0.662826 0.303361
Si Si7 0.188022 0.539867 0.701765
Si Si8 0.960304 0.380075 0.709080
O O1 0.876789 0.238043 0.229486
O O2 0.889408 0.144018 0.258422
O O3 0.049658 0.195096 0.294613
O O4 0.961613 0.187301 0.000000
O O5 0.642817 0.787167 0.500000
O O6 0.752119 0.810361 0.240346
O O7 0.560179 0.827587 0.236582
O O8 0.880338 0.883433 0.202828
O O9 0.810388 0.961451 0.274993
O O10 0.025379 0.938346 0.267761
O O11 0.914407 0.954102 0.000000
O O12 0.764446 0.073630 0.733183
O O13 0.876455 0.088213 0.000000
O O14 0.630520 0.056343 0.500000
O O15 0.564516 0.095458 0.231426
O O16 0.638401 0.006835 0.225919
O O17 0.331729 0.648140 0.500000
O O18 0.168545 0.539851 0.500000
O O19 0.133537 0.586512 0.765109
O O20 0.960435 0.378742 0.500000
#
# Coordination Sequence:
#
# PCOD9426221 Si02
#       8
#     8   8   8   8   8   8   8   8
#     4  10  22  38  56  81 113 150 188 230 285 346
#     4  10  20  35  58  85 110 144 187 234 285 336
#     4  10  20  35  57  82 109 147 190 232 281 336
#     4   9  21  40  55  73 111 153 185 227 286 341
#     4  10  21  35  58  85 112 149 190 232 278 338
#     4  10  19  35  58  82 109 143 184 235 286 332
#     4  10  19  35  58  85 113 146 187 234 285 335
#     4   9  18  36  57  82 115 146 184 232 285 338
#
# _framework density 21.626235999999999
#
# number of rings (size 3 to 8) (size 9 to 14) (size 15 to 20)
#    0.000    2.250    1.250    2.250    0.000    7.500 
#    0.000    7.500    0.000    1.500    0.000    0.000 
#    0.000    0.000    0.000    0.000    0.000    0.000 
#
# Total GULP energy -357278.146118 kJ/mol
# GULP energy per Si atom -5582.471033 kJ/mol
# Density = 2.157701 g / cm^3
# Si number density = 21.626236 Si / 1000 Ang^3
#
#
#
# Elastic Constant Matrix: (Units=GPa)
#
#
# Indices 1 2 3 4 5 6 
#
# 1 77.8193 8.3823 -6.5169 0.0000 0.0000 0.0000
# 2 8.3823 62.1193 -1.5080 0.0000 0.0000 0.0000
# 3 -6.5169 -1.5080 25.9633 0.0000 0.0000 0.0000
# 4 0.0000 0.0000 0.0000 -2.9154 0.0000 0.0000
# 5 0.0000 0.0000 0.0000 0.0000 43.1767 0.0000
# 6 0.0000 0.0000 0.0000 0.0000 0.0000 25.2442
#
#
#
# Elastic Compliance Matrix: (Units=1/GPa)
#
#
# Indices 1 2 3 4 5 6 
#
# 1 0.013307 -0.001717 0.003240 0.000000 0.000000 0.000000
# 2 -0.001717 0.016342 0.000518 0.000000 0.000000 0.000000
# 3 0.003240 0.000518 0.039359 0.000000 0.000000 0.000000
# 4 0.000000 0.000000 0.000000 -0.343003 0.000000 0.000000
# 5 0.000000 0.000000 0.000000 0.000000 0.023161 0.000000
# 6 0.000000 0.000000 0.000000 0.000000 0.000000 0.039613
#
#
# Mechanical properties :
#
#
# Convention : Reuss Voigt Hill
#
# Bulk Modulus (GPa) = 13.68150 18.51298 16.09724
# Shear Modulus (GPa) = -26.18623 24.13738 -1.02442
#
# Velocity S-wave (km/s) = -3.48351 3.34446 -0.68900
# Velocity P-wave (km/s) = 3.13683 4.84694 2.61277
#
# Compressibility (1/GPa) = 0.07309141
#
# Stress axis : x y z
#
# Youngs Moduli (GPa) = 75.15083 61.19081 25.40694
#
# Poissons Ratio (x) = 0.10506 -0.08233
# Poissons Ratio (y) = 0.12903 -0.01317
# Poissons Ratio (z) = -0.24351 -0.03171
#
# Static dielectric constant tensor:
#      x y z
#    x 1.789980 0.000000 0.000000 
#    y 0.000000 1.791400 0.000000 
#    z 0.000000 0.000000 1.822500 
# 
# From -- ./inp_files/4613.got.cif
#   From: 2010.05.17/outbox.cif.g08.bks.cpg/sg55_3_cif.got.tgz:4613.got - 2010.06.03 13:27:54.
