data_PCOD9426017
_publ_section_title
;
Structure prediction by ZEFSAII (Michael W. Deem and Ramdas Pophale) SiO2 
 PCOD9426017
Probable space group: P B A M
;
_chemical_formula_sum "Si O2"
_cell_formula_units_Z 64
_cell_length_a 9.209966
_cell_length_b 23.957743
_cell_length_c 15.401880
_cell_angle_alpha 90.000000
_cell_angle_beta 90.000000
_cell_angle_gamma 90.000000
_cell_volume 3398.424798
_symmetry_space_group_name_H-M "P B A M"
_symmetry_group_IT_number 55
_symmetry_cell_setting 'orthorhombic'
loop_
_space_group_symop_operation_xyz
x,y,z
-x,-y,z
1/2+x,1/2-y,-z
1/2-x,1/2+y,-z
-x,-y,-z
x,y,-z
1/2-x,1/2+y,z
1/2+x,1/2-y,z
loop_
_atom_site_type_symbol
_atom_site_label
_atom_site_fract_x
_atom_site_fract_y
_atom_site_fract_z
Si Si1 0.919724 0.058783 0.397152
Si Si2 0.581948 0.558691 0.102142
Si Si3 0.302326 0.785494 0.406314
Si Si4 0.959093 0.247338 0.297975
Si Si5 0.397874 0.914169 0.597556
Si Si6 0.087758 0.625058 0.249391
Si Si7 0.066142 0.131681 0.752354
Si Si8 0.424969 0.939815 0.899005
O O1 0.931234 0.073965 0.500000
O O2 0.747467 0.052046 0.378127
O O3 0.991640 0.104413 0.333623
O O4 0.000000 0.000000 0.383880
O O5 0.500000 0.500000 0.116117
O O6 0.507140 0.602515 0.165349
O O7 0.753757 0.555274 0.121959
O O8 0.566736 0.572658 0.000000
O O9 0.242764 0.769328 0.500000
O O10 0.199512 0.771480 0.326606
O O11 0.449438 0.752962 0.386587
O O12 0.337312 0.850788 0.406908
O O13 0.953193 0.309466 0.259672
O O14 0.031610 0.197510 0.244995
O O15 0.447323 0.929652 0.500000
O O16 0.522021 0.910369 0.669635
O O17 0.261597 0.621143 0.248421
O O18 0.009374 0.601474 0.164427
O O19 0.500000 0.000000 0.890087
O O20 0.437205 0.922803 0.000000
#
# Coordination Sequence:
#
# PCOD9426017 Si02
#       8
#     8   8   8   8   8   8   8   8
#     4  10  21  37  57  82 114 157 206 250 297 356
#     4  10  22  41  67  95 119 148 194 247 297 357
#     4  10  19  34  55  79 112 155 205 254 296 340
#     4  11  22  37  53  86 119 159 202 250 299 356
#     4   9  19  36  56  80 116 160 201 247 297 348
#     4  11  24  38  58  89 122 158 198 249 301 356
#     4  12  23  37  60  87 120 162 199 247 303 356
#     4  10  22  42  69  95 120 152 193 244 300 360
#
# _framework density 18.832255
#
# number of rings (size 3 to 8) (size 9 to 14) (size 15 to 20)
#    0.000    1.625    2.500    2.250    1.750    4.000 
#    0.000    0.625    0.000    2.625    0.000    0.000 
#    0.000    0.000    0.000    0.000    0.000    0.000 
#
# Total GULP energy -357196.073288 kJ/mol
# GULP energy per Si atom -5581.188645 kJ/mol
# Density = 1.878939 g / cm^3
# Si number density = 18.832255 Si / 1000 Ang^3
#
#
#
# Elastic Constant Matrix: (Units=GPa)
#
#
# Indices 1 2 3 4 5 6 
#
# 1 142.0850 35.1293 63.7515 0.0000 0.0000 0.0000
# 2 35.1293 52.2700 41.8740 0.0000 0.0000 0.0000
# 3 63.7515 41.8740 83.2742 0.0000 0.0000 0.0000
# 4 0.0000 0.0000 0.0000 12.6877 0.0000 0.0000
# 5 0.0000 0.0000 0.0000 0.0000 25.3639 0.0000
# 6 0.0000 0.0000 0.0000 0.0000 0.0000 27.4072
#
#
#
# Elastic Compliance Matrix: (Units=1/GPa)
#
#
# Indices 1 2 3 4 5 6 
#
# 1 0.010755 -0.001059 -0.007702 0.000000 0.000000 0.000000
# 2 -0.001059 0.032141 -0.015352 0.000000 0.000000 0.000000
# 3 -0.007702 -0.015352 0.025624 0.000000 0.000000 0.000000
# 4 0.000000 0.000000 0.000000 0.078816 0.000000 0.000000
# 5 0.000000 0.000000 0.000000 0.000000 0.039426 0.000000
# 6 0.000000 0.000000 0.000000 0.000000 0.000000 0.036487
#
#
# Mechanical properties :
#
#
# Convention : Reuss Voigt Hill
#
# Bulk Modulus (GPa) = 49.26833 62.12654 55.69743
# Shear Modulus (GPa) = 17.97016 22.21673 20.09344
#
# Velocity S-wave (km/s) = 3.09240 3.43843 3.26999
# Velocity P-wave (km/s) = 6.24252 6.98747 6.62547
#
# Compressibility (1/GPa) = 0.02029701
#
# Stress axis : x y z
#
# Youngs Moduli (GPa) = 92.97690 31.11276 39.02589
#
# Poissons Ratio (x) = 0.03294 0.30056
# Poissons Ratio (y) = 0.09842 0.59911
# Poissons Ratio (z) = 0.71607 0.47763
#
# Static dielectric constant tensor:
#      x y z
#    x 1.676260 0.000000 0.000000 
#    y 0.000000 1.652500 0.000000 
#    z 0.000000 0.000000 1.641700 
# 
# From -- ./inp_files/17812.got.cif
#   From: 2010.05.17/outbox.cif.g08.bks.cpg/sg55_9_cif.got.tgz:17812.got - 2010.06.03 13:27:54.
