data_PCOD9426693
_publ_section_title
;
Structure prediction by ZEFSAII (Michael W. Deem and Ramdas Pophale) SiO2 
 PCOD9426693
Probable space group: P B A M
;
_chemical_formula_sum "Si O2"
_cell_formula_units_Z 56
_cell_length_a 23.914332
_cell_length_b 13.827044
_cell_length_c 7.502883
_cell_angle_alpha 90.000000
_cell_angle_beta 90.000000
_cell_angle_gamma 90.000000
_cell_volume 2480.937212
_symmetry_space_group_name_H-M "P B A M"
_symmetry_group_IT_number 55
_symmetry_cell_setting 'orthorhombic'
loop_
_space_group_symop_operation_xyz
x,y,z
-x,-y,z
1/2+x,1/2-y,-z
1/2-x,1/2+y,-z
-x,-y,-z
x,y,-z
1/2-x,1/2+y,z
1/2+x,1/2-y,z
loop_
_atom_site_type_symbol
_atom_site_label
_atom_site_fract_x
_atom_site_fract_y
_atom_site_fract_z
Si Si1 0.960961 0.417820 0.203395
Si Si2 0.024995 0.225419 0.710042
Si Si3 0.434233 0.407496 0.703899
Si Si4 0.325512 0.510930 0.204356
Si Si5 0.844952 0.779818 0.216004
Si Si6 0.261735 0.323234 0.217677
Si Si7 0.132830 0.711577 0.782843
O O1 0.997062 0.319226 0.202223
O O2 0.000000 0.500000 0.288364
O O3 0.901005 0.383151 0.278765
O O4 0.949752 0.450266 0.000000
O O5 0.011946 0.230410 0.500000
O O6 0.090940 0.229977 0.731903
O O7 0.994985 0.125836 0.774064
O O8 0.439275 0.440833 0.500000
O O9 0.390779 0.479270 0.795201
O O10 0.401254 0.304882 0.714722
O O11 0.322757 0.616861 0.284263
O O12 0.289526 0.422929 0.282874
O O13 0.306780 0.519720 0.000000
O O14 0.801191 0.698308 0.273999
O O15 0.844300 0.781685 0.000000
O O16 0.303501 0.234904 0.266530
O O17 0.262862 0.326570 0.000000
O O18 0.129463 0.712738 0.000000
#
# Coordination Sequence:
#
# PCOD9426693 Si02
#       7
#     8   8   8   8   8   8   8
#     4   9  17  31  52  81 108 133 171 214 258 308
#     4  10  21  35  50  72 105 141 171 209 262 308
#     4   9  17  30  50  73  97 129 166 204 249 303
#     4   9  18  33  53  76 100 131 169 210 262 313
#     4  10  20  34  52  75 103 135 172 214 260 308
#     4   8  15  31  51  72  97 129 168 212 254 301
#     4   8  14  28  50  73  99 129 164 208 251 295
#
# _framework density 22.572113999999999
#
# number of rings (size 3 to 8) (size 9 to 14) (size 15 to 20)
#    0.000    3.000    0.000    1.714    0.000    3.143 
#    2.571    5.714    0.000    0.000    0.000    0.000 
#    0.000    0.000    0.000    0.000    0.000    0.000 
#
# Total GULP energy -312126.540475 kJ/mol
# GULP energy per Si atom -5573.688223 kJ/mol
# Density = 2.252074 g / cm^3
# Si number density = 22.572114 Si / 1000 Ang^3
#
#
#
# Elastic Constant Matrix: (Units=GPa)
#
#
# Indices 1 2 3 4 5 6 
#
# 1 107.9276 1.6455 -7.1688 0.0000 0.0000 0.0000
# 2 1.6455 38.0810 -4.0378 0.0000 0.0000 0.0000
# 3 -7.1688 -4.0378 66.8074 0.0000 0.0000 0.0000
# 4 0.0000 0.0000 0.0000 9.0990 0.0000 0.0000
# 5 0.0000 0.0000 0.0000 0.0000 105.7550 0.0000
# 6 0.0000 0.0000 0.0000 0.0000 0.0000 29.6624
#
#
#
# Elastic Compliance Matrix: (Units=1/GPa)
#
#
# Indices 1 2 3 4 5 6 
#
# 1 0.009335 -0.000299 0.000984 0.000000 0.000000 0.000000
# 2 -0.000299 0.026439 0.001566 0.000000 0.000000 0.000000
# 3 0.000984 0.001566 0.015169 0.000000 0.000000 0.000000
# 4 0.000000 0.000000 0.000000 0.109902 0.000000 0.000000
# 5 0.000000 0.000000 0.000000 0.000000 0.009456 0.000000
# 6 0.000000 0.000000 0.000000 0.000000 0.000000 0.033713
#
#
# Mechanical properties :
#
#
# Convention : Reuss Voigt Hill
#
# Bulk Modulus (GPa) = 18.03634 21.52152 19.77893
# Shear Modulus (GPa) = 22.93641 43.72841 33.33241
#
# Velocity S-wave (km/s) = 3.19115 4.40622 3.84696
# Velocity P-wave (km/s) = 4.64605 5.95329 5.33983
#
# Compressibility (1/GPa) = 0.05544363
#
# Stress axis : x y z
#
# Youngs Moduli (GPa) = 107.11949 37.82323 65.92567
#
# Poissons Ratio (x) = 0.01131 -0.06485
# Poissons Ratio (y) = 0.03204 -0.10323
# Poissons Ratio (z) = -0.10537 -0.05923
#
# Static dielectric constant tensor:
#      x y z
#    x 1.867170 0.000000 0.000000 
#    y 0.000000 1.841130 0.000000 
#    z 0.000000 0.000000 1.958240 
# 
# From -- ./inp_files/8748.got.cif
#   From: 2010.05.17/outbox.cif.g08.bks.cpg/sg55_5_cif.got.tgz:8748.got - 2010.06.03 13:27:54.
