data_PCOD9426340
_publ_section_title
;
Structure prediction by ZEFSAII (Michael W. Deem and Ramdas Pophale) SiO2 
 PCOD9426340
Probable space group: P B A M
;
_chemical_formula_sum "Si O2"
_cell_formula_units_Z 36
_cell_length_a 15.020223
_cell_length_b 4.979870
_cell_length_c 23.109277
_cell_angle_alpha 90.000000
_cell_angle_beta 90.000000
_cell_angle_gamma 90.000000
_cell_volume 1728.545216
_symmetry_space_group_name_H-M "P B A M"
_symmetry_group_IT_number 55
_symmetry_cell_setting 'orthorhombic'
loop_
_space_group_symop_operation_xyz
x,y,z
-x,-y,z
1/2+x,1/2-y,-z
1/2-x,1/2+y,-z
-x,-y,-z
x,y,-z
1/2-x,1/2+y,z
1/2+x,1/2-y,z
loop_
_atom_site_type_symbol
_atom_site_label
_atom_site_fract_x
_atom_site_fract_y
_atom_site_fract_z
Si Si1 0.438891 0.254910 0.729248
Si Si2 0.313124 0.431409 0.625487
Si Si3 0.562962 0.741923 0.065666
Si Si4 0.807649 0.396879 0.167122
Si Si5 0.189912 0.815444 0.500000
O O1 0.500000 0.500000 0.750257
O O2 0.382850 0.362084 0.674839
O O3 0.371378 0.167207 0.779297
O O4 0.500000 0.000000 0.713864
O O5 0.270461 0.725779 0.630485
O O6 0.353570 0.384916 0.561324
O O7 0.500000 0.500000 0.086473
O O8 0.641976 0.812884 0.108722
O O9 0.500000 0.000000 0.063256
O O10 0.593315 0.676964 0.000000
O O11 0.778655 0.705722 0.169979
O O12 0.222142 0.507982 0.500000
#
# Coordination Sequence:
#
# PCOD9426340 Si02
#       5
#     8   8   8   8   4
#     4  12  24  39  57  81 113 148 184 228 282 331
#     4  10  19  36  58  82 109 143 186 226 270 327
#     4  10  21  39  61  85 116 151 182 220 276 334
#     4  12  24  39  60  85 112 146 189 234 273 320
#     4   8  16  30  54  80 106 140 178 222 270 324
#
# _framework density 20.826764000000001
#
# number of rings (size 3 to 8) (size 9 to 14) (size 15 to 20)
#    0.000    1.333    0.000    6.667    0.000    0.889 
#    0.000    1.111    0.000    0.000    0.000    0.000 
#    0.000    0.000    0.000    0.000    0.000    0.000 
#
# Total GULP energy -201319.621542 kJ/mol
# GULP energy per Si atom -5592.211710 kJ/mol
# Density = 2.077936 g / cm^3
# Si number density = 20.826764 Si / 1000 Ang^3
#
#
#
# Elastic Constant Matrix: (Units=GPa)
#
#
# Indices 1 2 3 4 5 6 
#
# 1 39.1370 -13.9367 23.4949 0.0000 0.0000 0.0000
# 2 -13.9367 65.1507 -38.4334 0.0000 0.0000 0.0000
# 3 23.4949 -38.4334 87.9734 0.0000 0.0000 0.0000
# 4 0.0000 0.0000 0.0000 33.8243 0.0000 0.0000
# 5 0.0000 0.0000 0.0000 0.0000 26.1156 0.0000
# 6 0.0000 0.0000 0.0000 0.0000 0.0000 10.5424
#
#
#
# Elastic Compliance Matrix: (Units=1/GPa)
#
#
# Indices 1 2 3 4 5 6 
#
# 1 0.030691 0.002331 -0.007178 0.000000 0.000000 0.000000
# 2 0.002331 0.020855 0.008489 0.000000 0.000000 0.000000
# 3 -0.007178 0.008489 0.016993 0.000000 0.000000 0.000000
# 4 0.000000 0.000000 0.000000 0.029565 0.000000 0.000000
# 5 0.000000 0.000000 0.000000 0.000000 0.038291 0.000000
# 6 0.000000 0.000000 0.000000 0.000000 0.000000 0.094855
#
#
# Mechanical properties :
#
#
# Convention : Reuss Voigt Hill
#
# Bulk Modulus (GPa) = 13.18906 14.94562 14.06734
# Shear Modulus (GPa) = 20.06090 28.83887 24.44989
#
# Velocity S-wave (km/s) = 3.10696 3.72520 3.43003
# Velocity P-wave (km/s) = 4.38377 5.06898 4.73877
#
# Compressibility (1/GPa) = 0.07582039
#
# Stress axis : x y z
#
# Youngs Moduli (GPa) = 32.58335 47.94970 58.84902
#
# Poissons Ratio (x) = -0.11175 0.42243
# Poissons Ratio (y) = -0.07594 -0.49955
# Poissons Ratio (z) = 0.23389 -0.40703
#
# Static dielectric constant tensor:
#      x y z
#    x 1.712990 0.000000 0.000000 
#    y 0.000000 1.708740 0.000000 
#    z 0.000000 0.000000 1.767450 
# 
# From -- ./inp_files/22901.got.cif
#   From: 2010.05.17/outbox.cif.g08.bks.cpg/sg55_12_cif.got.tgz:22901.got - 2010.06.03 13:27:54.
