data_PCOD9426535
_publ_section_title
;
Structure prediction by ZEFSAII (Michael W. Deem and Ramdas Pophale) SiO2 
 PCOD9426535
Probable space group: P B A M
;
_chemical_formula_sum "Si O2"
_cell_formula_units_Z 64
_cell_length_a 23.040016
_cell_length_b 8.636169
_cell_length_c 18.073063
_cell_angle_alpha 90.000000
_cell_angle_beta 90.000000
_cell_angle_gamma 90.000000
_cell_volume 3596.132386
_symmetry_space_group_name_H-M "P B A M"
_symmetry_group_IT_number 55
_symmetry_cell_setting 'orthorhombic'
loop_
_space_group_symop_operation_xyz
x,y,z
-x,-y,z
1/2+x,1/2-y,-z
1/2-x,1/2+y,-z
-x,-y,-z
x,y,-z
1/2-x,1/2+y,z
1/2+x,1/2-y,z
loop_
_atom_site_type_symbol
_atom_site_label
_atom_site_fract_x
_atom_site_fract_y
_atom_site_fract_z
Si Si1 0.775916 0.698820 0.181543
Si Si2 0.971925 0.651095 0.190078
Si Si3 0.705202 0.909143 0.917246
Si Si4 0.672479 0.230068 0.585349
Si Si5 0.299053 0.130971 0.414260
Si Si6 0.656220 0.700307 0.726536
Si Si7 0.091175 0.629213 0.146144
Si Si8 0.881745 0.850184 0.272417
O O1 0.794565 0.535976 0.147783
O O2 0.754743 0.793798 0.110005
O O3 0.719533 0.683516 0.234461
O O4 0.827329 0.780953 0.225842
O O5 0.925116 0.553549 0.142477
O O6 0.939773 0.780015 0.236526
O O7 0.000000 0.500000 0.233343
O O8 0.027478 0.707016 0.143272
O O9 0.641389 0.832228 0.911522
O O10 0.715170 0.966285 0.000000
O O11 0.654107 0.245062 0.500000
O O12 0.730951 0.331091 0.595570
O O13 0.626443 0.286647 0.644809
O O14 0.689165 0.050521 0.598639
O O15 0.313212 0.167393 0.500000
O O16 0.333394 0.232907 0.355009
O O17 0.618864 0.819407 0.775630
O O18 0.624977 0.534589 0.727835
#
# Coordination Sequence:
#
# PCOD9426535 Si02
#       8
#     8   8   8   8   8   8   8   8
#     4  11  21  34  49  85 110 140 180 211 267 332
#     4   8  18  37  57  78 101 136 183 238 262 312
#     4  11  21  36  56  78 113 144 173 220 272 329
#     4  10  21  32  48  78 112 148 184 222 272 324
#     4  10  20  32  47  75 115 147 176 220 272 323
#     4  11  21  31  54  83 109 146 178 221 266 330
#     4   8  19  36  55  77 105 135 185 224 267 315
#     4  12  20  32  59  78 109 148 181 226 270 312
#
# _framework density 17.796897999999999
#
# number of rings (size 3 to 8) (size 9 to 14) (size 15 to 20)
#    0.750    1.000    3.750    1.875    1.750    2.000 
#    0.000    1.250    0.000    1.125    0.000    3.500 
#    0.000    0.000    0.000    0.000    0.000    0.000 
#
# Total GULP energy -356321.738666 kJ/mol
# GULP energy per Si atom -5567.527167 kJ/mol
# Density = 1.775639 g / cm^3
# Si number density = 17.796898 Si / 1000 Ang^3
#
#
#
# Elastic Constant Matrix: (Units=GPa)
#
#
# Indices 1 2 3 4 5 6 
#
# 1 55.0357 5.4789 2.0979 0.0000 0.0000 0.0000
# 2 5.4789 39.0501 13.0084 0.0000 0.0000 0.0000
# 3 2.0979 13.0084 52.0080 0.0000 0.0000 0.0000
# 4 0.0000 0.0000 0.0000 20.0620 0.0000 0.0000
# 5 0.0000 0.0000 0.0000 0.0000 8.4834 0.0000
# 6 0.0000 0.0000 0.0000 0.0000 0.0000 22.7283
#
#
#
# Elastic Compliance Matrix: (Units=1/GPa)
#
#
# Indices 1 2 3 4 5 6 
#
# 1 0.018428 -0.002550 -0.000105 0.000000 0.000000 0.000000
# 2 -0.002550 0.028289 -0.006973 0.000000 0.000000 0.000000
# 3 -0.000105 -0.006973 0.020976 0.000000 0.000000 0.000000
# 4 0.000000 0.000000 0.000000 0.049845 0.000000 0.000000
# 5 0.000000 0.000000 0.000000 0.000000 0.117877 0.000000
# 6 0.000000 0.000000 0.000000 0.000000 0.000000 0.043998
#
#
# Mechanical properties :
#
#
# Convention : Reuss Voigt Hill
#
# Bulk Modulus (GPa) = 20.64598 20.80712 20.72655
# Shear Modulus (GPa) = 15.88229 18.62198 17.25213
#
# Velocity S-wave (km/s) = 2.99058 3.23826 3.11688
# Velocity P-wave (km/s) = 4.85292 5.06938 4.96233
#
# Compressibility (1/GPa) = 0.04843558
#
# Stress axis : x y z
#
# Youngs Moduli (GPa) = 54.26541 35.34974 47.67322
#
# Poissons Ratio (x) = 0.09016 0.00503
# Poissons Ratio (y) = 0.13840 0.33242
# Poissons Ratio (z) = 0.00572 0.24649
#
# Static dielectric constant tensor:
#      x y z
#    x 1.649570 0.000000 0.000000 
#    y 0.000000 1.622660 0.000000 
#    z 0.000000 0.000000 1.603020 
# 
# From -- ./inp_files/22032.got.cif
#   From: 2010.05.17/outbox.cif.g08.bks.cpg/sg55_12_cif.got.tgz:22032.got - 2010.06.03 13:27:54.
