data_PCOD9426618
_publ_section_title
;
Structure prediction by ZEFSAII (Michael W. Deem and Ramdas Pophale) SiO2 
 PCOD9426618
Probable space group: P B A M
;
_chemical_formula_sum "Si O2"
_cell_formula_units_Z 56
_cell_length_a 13.993120
_cell_length_b 24.929741
_cell_length_c 7.561594
_cell_angle_alpha 90.000000
_cell_angle_beta 90.000000
_cell_angle_gamma 90.000000
_cell_volume 2637.823181
_symmetry_space_group_name_H-M "P B A M"
_symmetry_group_IT_number 55
_symmetry_cell_setting 'orthorhombic'
loop_
_space_group_symop_operation_xyz
x,y,z
-x,-y,z
1/2+x,1/2-y,-z
1/2-x,1/2+y,-z
-x,-y,-z
x,y,-z
1/2-x,1/2+y,z
1/2+x,1/2-y,z
loop_
_atom_site_type_symbol
_atom_site_label
_atom_site_fract_x
_atom_site_fract_y
_atom_site_fract_z
Si Si1 0.377709 0.871652 0.286246
Si Si2 0.306707 0.439497 0.287118
Si Si3 0.732472 0.443026 0.286429
Si Si4 0.078655 0.836403 0.210566
Si Si5 0.134229 0.168762 0.210772
Si Si6 0.951777 0.443683 0.715976
Si Si7 0.258691 0.770312 0.792276
O O1 0.377660 0.870703 0.500000
O O2 0.293779 0.912764 0.229521
O O3 0.479077 0.895228 0.227586
O O4 0.344371 0.813447 0.224042
O O5 0.304739 0.440650 0.500000
O O6 0.311951 0.500543 0.224069
O O7 0.388797 0.397933 0.235789
O O8 0.734923 0.444973 0.500000
O O9 0.674158 0.390622 0.236398
O O10 0.842582 0.439550 0.224972
O O11 0.163920 0.798872 0.283942
O O12 0.973250 0.826233 0.283061
O O13 0.075442 0.827722 0.000000
O O14 0.205879 0.213991 0.283624
O O15 0.128223 0.178108 0.000000
O O16 0.950869 0.443856 0.500000
O O17 0.000000 0.500000 0.769193
O O18 0.239229 0.762407 0.000000
#
# Coordination Sequence:
#
# PCOD9426618 Si02
#       7
#     8   8   8   8   8   8   8
#     4   9  16  29  53  80 103 133 171 208 250 303
#     4   9  17  31  52  78 104 132 168 209 251 297
#     4  10  20  33  52  78 107 137 170 210 254 301
#     4   9  19  36  56  74  97 134 172 206 253 310
#     4  10  22  38  53  73 103 137 170 210 260 306
#     4   9  15  28  51  78 108 138 164 198 254 314
#     4   9  19  36  55  73  98 134 175 214 253 302
#
# _framework density 21.229624999999999
#
# number of rings (size 3 to 8) (size 9 to 14) (size 15 to 20)
#    0.000    2.714    1.429    0.000    0.000    3.429 
#    0.000    5.000    0.000    0.857    0.000    0.000 
#    0.000    0.000    0.000    0.000    0.000    0.000 
#
# Total GULP energy -312527.587178 kJ/mol
# GULP energy per Si atom -5580.849771 kJ/mol
# Density = 2.118131 g / cm^3
# Si number density = 21.229625 Si / 1000 Ang^3
#
#
#
# Elastic Constant Matrix: (Units=GPa)
#
#
# Indices 1 2 3 4 5 6 
#
# 1 121.6479 64.4366 5.5889 0.0000 0.0000 0.0000
# 2 64.4366 144.3463 2.5194 0.0000 0.0000 0.0000
# 3 5.5889 2.5194 46.0372 0.0000 0.0000 0.0000
# 4 0.0000 0.0000 0.0000 16.5086 0.0000 0.0000
# 5 0.0000 0.0000 0.0000 0.0000 12.3578 0.0000
# 6 0.0000 0.0000 0.0000 0.0000 0.0000 15.4822
#
#
#
# Elastic Compliance Matrix: (Units=1/GPa)
#
#
# Indices 1 2 3 4 5 6 
#
# 1 0.010817 -0.004810 -0.001050 0.000000 0.000000 0.000000
# 2 -0.004810 0.009074 0.000087 0.000000 0.000000 0.000000
# 3 -0.001050 0.000087 0.021844 0.000000 0.000000 0.000000
# 4 0.000000 0.000000 0.000000 0.060575 0.000000 0.000000
# 5 0.000000 0.000000 0.000000 0.000000 0.080921 0.000000
# 6 0.000000 0.000000 0.000000 0.000000 0.000000 0.064590
#
#
# Mechanical properties :
#
#
# Convention : Reuss Voigt Hill
#
# Bulk Modulus (GPa) = 33.12466 50.79124 41.95795
# Shear Modulus (GPa) = 18.55778 24.83547 21.69663
#
# Velocity S-wave (km/s) = 2.95980 3.42402 3.20034
# Velocity P-wave (km/s) = 5.22661 6.29353 5.78472
#
# Compressibility (1/GPa) = 0.03018899
#
# Stress axis : x y z
#
# Youngs Moduli (GPa) = 92.44994 110.21017 45.77864
#
# Poissons Ratio (x) = 0.53014 0.04806
# Poissons Ratio (y) = 0.44471 -0.00400
# Poissons Ratio (z) = 0.09706 -0.00963
#
# Static dielectric constant tensor:
#      x y z
#    x 1.758470 0.000000 0.000000 
#    y 0.000000 1.745980 0.000000 
#    z 0.000000 0.000000 1.815650 
# 
# From -- ./inp_files/6164.got.cif
#   From: 2010.05.17/outbox.cif.g08.bks.cpg/sg55_4_cif.got.tgz:6164.got - 2010.06.03 13:27:54.
