data_PCOD9426813
_publ_section_title
;
Structure prediction by ZEFSAII (Michael W. Deem and Ramdas Pophale) SiO2 
 PCOD9426813
Probable space group: P B A M
;
_chemical_formula_sum "Si O2"
_cell_formula_units_Z 56
_cell_length_a 14.337844
_cell_length_b 15.258048
_cell_length_c 14.068321
_cell_angle_alpha 90.000000
_cell_angle_beta 90.000000
_cell_angle_gamma 90.000000
_cell_volume 3077.691583
_symmetry_space_group_name_H-M "P B A M"
_symmetry_group_IT_number 55
_symmetry_cell_setting 'orthorhombic'
loop_
_space_group_symop_operation_xyz
x,y,z
-x,-y,z
1/2+x,1/2-y,-z
1/2-x,1/2+y,-z
-x,-y,-z
x,y,-z
1/2-x,1/2+y,z
1/2+x,1/2-y,z
loop_
_atom_site_type_symbol
_atom_site_label
_atom_site_fract_x
_atom_site_fract_y
_atom_site_fract_z
Si Si1 0.726348 0.378772 0.220079
Si Si2 0.282251 0.453905 0.105934
Si Si3 0.951465 0.631084 0.609481
Si Si4 0.568414 0.071444 0.107872
Si Si5 0.142821 0.761806 0.885348
Si Si6 0.846006 0.460429 0.388613
Si Si7 0.551099 0.249926 0.780063
O O1 0.688059 0.468509 0.173860
O O2 0.802834 0.322055 0.159180
O O3 0.776706 0.410075 0.317612
O O4 0.636303 0.316578 0.221978
O O5 0.171088 0.466626 0.102851
O O6 0.301663 0.352905 0.130722
O O7 0.321208 0.467394 0.000000
O O8 0.931445 0.650768 0.500000
O O9 0.872071 0.560659 0.641180
O O10 0.959797 0.716249 0.673090
O O11 0.052809 0.585738 0.614235
O O12 0.574304 0.161529 0.162375
O O13 0.500000 0.000000 0.153200
O O14 0.465533 0.911503 0.000000
O O15 0.044903 0.777102 0.831261
O O16 0.132557 0.750147 0.000000
O O17 0.816050 0.460524 0.500000
#
# Coordination Sequence:
#
# PCOD9426813 Si02
#       7
#     8   8   8   8   8   8   8
#     4  12  23  38  63  89 122 159 209 253 305 368
#     4  10  22  39  57  81 121 163 199 247 302 357
#     4   9  19  37  61  90 121 152 193 247 309 364
#     4  10  20  34  55  85 115 148 198 253 301 345
#     4  11  24  41  58  86 125 164 210 255 302 363
#     4   9  19  37  63  92 123 154 190 248 313 370
#     4  12  23  35  61  90 117 161 204 250 300 365
#
# _framework density 18.195454999999999
#
# number of rings (size 3 to 8) (size 9 to 14) (size 15 to 20)
#    0.000    1.571    2.857    3.429    2.000    4.000 
#    0.000    1.429    0.000    0.857    0.000    2.000 
#    0.000    0.000    0.000    0.000    0.000    0.000 
#
# Total GULP energy -312176.784571 kJ/mol
# GULP energy per Si atom -5574.585439 kJ/mol
# Density = 1.815404 g / cm^3
# Si number density = 18.195455 Si / 1000 Ang^3
#
#
#
# Elastic Constant Matrix: (Units=GPa)
#
#
# Indices 1 2 3 4 5 6 
#
# 1 74.1129 26.5594 35.8053 0.0000 0.0000 0.0000
# 2 26.5594 84.3736 51.8729 0.0000 0.0000 0.0000
# 3 35.8053 51.8729 92.0247 0.0000 0.0000 0.0000
# 4 0.0000 0.0000 0.0000 -20.7797 0.0000 0.0000
# 5 0.0000 0.0000 0.0000 0.0000 21.3438 0.0000
# 6 0.0000 0.0000 0.0000 0.0000 0.0000 40.1705
#
#
#
# Elastic Compliance Matrix: (Units=1/GPa)
#
#
# Indices 1 2 3 4 5 6 
#
# 1 0.016823 -0.001946 -0.005449 0.000000 0.000000 0.000000
# 2 -0.001946 0.018363 -0.009594 0.000000 0.000000 0.000000
# 3 -0.005449 -0.009594 0.018395 0.000000 0.000000 0.000000
# 4 0.000000 0.000000 0.000000 -0.048124 0.000000 0.000000
# 5 0.000000 0.000000 0.000000 0.000000 0.046852 0.000000
# 6 0.000000 0.000000 0.000000 0.000000 0.000000 0.024894
#
#
# Mechanical properties :
#
#
# Convention : Reuss Voigt Hill
#
# Bulk Modulus (GPa) = 51.01089 53.22071 52.11580
# Shear Modulus (GPa) = 42.47633 17.23182 29.85408
#
# Velocity S-wave (km/s) = 4.83685 3.08074 4.05500
# Velocity P-wave (km/s) = 7.69996 6.47824 7.11537
#
# Compressibility (1/GPa) = 0.01960366
#
# Stress axis : x y z
#
# Youngs Moduli (GPa) = 59.44414 54.45802 54.36397
#
# Poissons Ratio (x) = 0.10595 0.29621
# Poissons Ratio (y) = 0.11565 0.52156
# Poissons Ratio (z) = 0.32389 0.52246
#
# Static dielectric constant tensor:
#      x y z
#    x 1.597460 0.000000 0.000000 
#    y 0.000000 1.644660 0.000000 
#    z 0.000000 0.000000 1.691420 
# 
# From -- ./inp_files/18969.got.cif
#   From: 2010.05.17/outbox.cif.g08.bks.cpg/sg55_10_cif.got.tgz:18969.got - 2010.06.03 13:27:54.
