data_PCOD9426525
_publ_section_title
;
Structure prediction by ZEFSAII (Michael W. Deem and Ramdas Pophale) SiO2 
 PCOD9426525
Probable space group: P B A M
;
_chemical_formula_sum "Si O2"
_cell_formula_units_Z 48
_cell_length_a 9.445016
_cell_length_b 15.595181
_cell_length_c 15.424724
_cell_angle_alpha 90.000000
_cell_angle_beta 90.000000
_cell_angle_gamma 90.000000
_cell_volume 2272.011469
_symmetry_space_group_name_H-M "P B A M"
_symmetry_group_IT_number 55
_symmetry_cell_setting 'orthorhombic'
loop_
_space_group_symop_operation_xyz
x,y,z
-x,-y,z
1/2+x,1/2-y,-z
1/2-x,1/2+y,-z
-x,-y,-z
x,y,-z
1/2-x,1/2+y,z
1/2+x,1/2-y,z
loop_
_atom_site_type_symbol
_atom_site_label
_atom_site_fract_x
_atom_site_fract_y
_atom_site_fract_z
Si Si1 0.334453 0.003276 0.295013
Si Si2 0.602766 0.417294 0.400795
Si Si3 0.579680 0.906426 0.000000
Si Si4 0.334155 0.479748 0.000000
Si Si5 0.879547 0.337941 0.183126
Si Si6 0.616845 0.577355 0.181353
Si Si7 0.584299 0.284421 0.756077
O O1 0.255789 0.045274 0.376225
O O2 0.326560 0.069097 0.214094
O O3 0.500000 0.000000 0.312685
O O4 0.231877 0.928347 0.258602
O O5 0.500000 0.500000 0.388731
O O6 0.590348 0.389191 0.500000
O O7 0.581242 0.339350 0.333010
O O8 0.560026 0.851477 0.912957
O O9 0.500000 0.000000 0.000000
O O10 0.744470 0.933867 0.000000
O O11 0.500000 0.500000 0.000000
O O12 0.306066 0.430764 0.910818
O O13 0.739269 0.281954 0.201888
O O14 0.004334 0.305634 0.246114
O O15 0.500000 0.500000 0.191353
O O16 0.519811 0.660844 0.182422
#
# Coordination Sequence:
#
# PCOD9426525 Si02
#       7
#     8   8   4   4   8   8   8
#     4  11  21  37  63  92 127 164 214 264 321 385
#     4  10  20  40  69  94 120 163 215 266 324 400
#     4  12  24  41  61  92 126 166 224 268 301 363
#     4  10  20  31  59  84 117 161 214 254 296 354
#     4  11  25  39  60  89 130 174 209 267 317 383
#     4  11  18  38  60  85 120 171 220 261 314 378
#     4  11  23  41  61  92 131 167 214 263 337 389
#
# _framework density 21.126653000000001
#
# number of rings (size 3 to 8) (size 9 to 14) (size 15 to 20)
#    0.000    1.167    6.667    1.500    2.333    1.667 
#    0.000    3.333    0.000    0.000    0.000    0.000 
#    0.000    0.000    0.000    0.000    0.000    0.000 
#
# Total GULP energy -267665.243090 kJ/mol
# GULP energy per Si atom -5576.359231 kJ/mol
# Density = 2.107857 g / cm^3
# Si number density = 21.126653 Si / 1000 Ang^3
#
#
#
# Elastic Constant Matrix: (Units=GPa)
#
#
# Indices 1 2 3 4 5 6 
#
# 1 143.5979 30.9245 23.9900 0.0000 0.0000 0.0000
# 2 30.9245 36.1323 22.6164 0.0000 0.0000 0.0000
# 3 23.9900 22.6164 133.7708 0.0000 0.0000 0.0000
# 4 0.0000 0.0000 0.0000 18.5350 0.0000 0.0000
# 5 0.0000 0.0000 0.0000 0.0000 10.7703 0.0000
# 6 0.0000 0.0000 0.0000 0.0000 0.0000 41.1178
#
#
#
# Elastic Compliance Matrix: (Units=1/GPa)
#
#
# Indices 1 2 3 4 5 6 
#
# 1 0.008551 -0.007111 -0.000331 0.000000 0.000000 0.000000
# 2 -0.007111 0.036865 -0.004957 0.000000 0.000000 0.000000
# 3 -0.000331 -0.004957 0.008373 0.000000 0.000000 0.000000
# 4 0.000000 0.000000 0.000000 0.053952 0.000000 0.000000
# 5 0.000000 0.000000 0.000000 0.000000 0.092848 0.000000
# 6 0.000000 0.000000 0.000000 0.000000 0.000000 0.024320
#
#
# Mechanical properties :
#
#
# Convention : Reuss Voigt Hill
#
# Bulk Modulus (GPa) = 34.49514 52.06254 43.27884
# Shear Modulus (GPa) = 19.27741 29.81596 24.54668
#
# Velocity S-wave (km/s) = 3.02399 3.76080 3.41234
# Velocity P-wave (km/s) = 5.34377 6.59960 6.00461
#
# Compressibility (1/GPa) = 0.02898959
#
# Stress axis : x y z
#
# Youngs Moduli (GPa) = 116.95112 27.12593 119.43107
#
# Poissons Ratio (x) = 0.19289 0.03956
# Poissons Ratio (y) = 0.83162 0.59208
# Poissons Ratio (z) = 0.03874 0.13448
#
# Static dielectric constant tensor:
#      x y z
#    x 1.795500 0.000000 0.000000 
#    y 0.000000 1.851120 0.000000 
#    z 0.000000 0.000000 1.763630 
# 
# From -- ./inp_files/20816.got.cif
#   From: 2010.05.17/outbox.cif.g08.bks.cpg/sg55_11_cif.got.tgz:20816.got - 2010.06.03 13:27:54.
