data_PCOD9426303
_publ_section_title
;
Structure prediction by ZEFSAII (Michael W. Deem and Ramdas Pophale) SiO2 
 PCOD9426303
Probable space group: P B A M
;
_chemical_formula_sum "Si O2"
_cell_formula_units_Z 64
_cell_length_a 28.721270
_cell_length_b 12.414928
_cell_length_c 8.759784
_cell_angle_alpha 90.000000
_cell_angle_beta 90.000000
_cell_angle_gamma 90.000000
_cell_volume 3123.498073
_symmetry_space_group_name_H-M "P B A M"
_symmetry_group_IT_number 55
_symmetry_cell_setting 'orthorhombic'
loop_
_space_group_symop_operation_xyz
x,y,z
-x,-y,z
1/2+x,1/2-y,-z
1/2-x,1/2+y,-z
-x,-y,-z
x,y,-z
1/2-x,1/2+y,z
1/2+x,1/2-y,z
loop_
_atom_site_type_symbol
_atom_site_label
_atom_site_fract_x
_atom_site_fract_y
_atom_site_fract_z
Si Si1 0.058992 0.867201 0.180704
Si Si2 0.403852 0.576514 0.679441
Si Si3 0.071424 0.463677 0.821116
Si Si4 0.311940 0.643310 0.821015
Si Si5 0.160658 0.365007 0.325232
Si Si6 0.216555 0.580532 0.324315
Si Si7 0.025039 0.266605 0.680150
Si Si8 0.123465 0.674023 0.183342
O O1 0.063037 0.979222 0.268935
O O2 0.103803 0.792215 0.214402
O O3 0.015543 0.794982 0.231312
O O4 0.056679 0.887538 0.000000
O O5 0.393981 0.568264 0.500000
O O6 0.356119 0.571143 0.773581
O O7 0.429496 0.690750 0.706040
O O8 0.120107 0.402283 0.788526
O O9 0.034277 0.387836 0.737389
O O10 0.084633 0.584539 0.768089
O O11 0.060176 0.466597 0.000000
O O12 0.318972 0.752051 0.724827
O O13 0.262392 0.595293 0.775118
O O14 0.313704 0.666091 0.000000
O O15 0.142149 0.360852 0.500000
O O16 0.199526 0.457250 0.320478
O O17 0.226157 0.610380 0.500000
O O18 0.172242 0.647556 0.262532
O O19 0.015341 0.266501 0.500000
O O20 0.128662 0.661305 0.000000
#
# Coordination Sequence:
#
# PCOD9426303 Si02
#       8
#     8   8   8   8   8   8   8   8
#     4  11  24  41  62  88 124 164 205 251 305 368
#     4  11  24  42  62  86 122 159 202 256 307 360
#     4  10  19  35  62  89 117 154 200 247 297 354
#     4  12  24  38  62  91 119 156 202 248 299 360
#     4  10  20  37  59  85 117 152 192 243 300 353
#     4  10  22  39  62  89 119 157 199 246 302 362
#     4  11  23  39  61  89 122 160 203 255 309 361
#     4   9  21  41  61  87 123 161 199 251 308 360
#
# _framework density 20.489847999999999
#
# number of rings (size 3 to 8) (size 9 to 14) (size 15 to 20)
#    0.000    1.500    1.250    3.750    0.000    7.500 
#    0.000    2.500    0.000    0.000    0.000    0.000 
#    0.000    0.000    0.000    0.000    0.000    0.000 
#
# Total GULP energy -357776.170274 kJ/mol
# GULP energy per Si atom -5590.252661 kJ/mol
# Density = 2.044321 g / cm^3
# Si number density = 20.489848 Si / 1000 Ang^3
#
#
#
# Elastic Constant Matrix: (Units=GPa)
#
#
# Indices 1 2 3 4 5 6 
#
# 1 59.1114 -9.8685 8.2705 0.0000 0.0000 0.0000
# 2 -9.8685 54.4064 6.7795 0.0000 0.0000 0.0000
# 3 8.2705 6.7795 45.7855 0.0000 0.0000 0.0000
# 4 0.0000 0.0000 0.0000 25.6778 0.0000 0.0000
# 5 0.0000 0.0000 0.0000 0.0000 31.0795 0.0000
# 6 0.0000 0.0000 0.0000 0.0000 0.0000 20.2073
#
#
#
# Elastic Compliance Matrix: (Units=1/GPa)
#
#
# Indices 1 2 3 4 5 6 
#
# 1 0.018079 0.003755 -0.003822 0.000000 0.000000 0.000000
# 2 0.003755 0.019506 -0.003567 0.000000 0.000000 0.000000
# 3 -0.003822 -0.003567 0.023059 0.000000 0.000000 0.000000
# 4 0.000000 0.000000 0.000000 0.038944 0.000000 0.000000
# 5 0.000000 0.000000 0.000000 0.000000 0.032176 0.000000
# 6 0.000000 0.000000 0.000000 0.000000 0.000000 0.049487
#
#
# Mechanical properties :
#
#
# Convention : Reuss Voigt Hill
#
# Bulk Modulus (GPa) = 18.73421 18.85182 18.79301
# Shear Modulus (GPa) = 24.23544 25.66771 24.95157
#
# Velocity S-wave (km/s) = 3.44292 3.54320 3.49342
# Velocity P-wave (km/s) = 4.99679 5.09505 5.04616
#
# Compressibility (1/GPa) = 0.05337828
#
# Stress axis : x y z
#
# Youngs Moduli (GPa) = 55.31306 51.26675 43.36621
#
# Poissons Ratio (x) = -0.19253 0.16574
# Poissons Ratio (y) = -0.20773 0.15467
# Poissons Ratio (z) = 0.21139 0.18285
#
# Static dielectric constant tensor:
#      x y z
#    x 1.732840 0.000000 0.000000 
#    y 0.000000 1.724360 0.000000 
#    z 0.000000 0.000000 1.686640 
# 
# From -- ./inp_files/10850.got.cif
#   From: 2010.05.17/outbox.cif.g08.bks.cpg/sg55_6_cif.got.tgz:10850.got - 2010.06.03 13:27:54.
