data_PCOD9426760
_publ_section_title
;
Structure prediction by ZEFSAII (Michael W. Deem and Ramdas Pophale) SiO2 
 PCOD9426760
Probable space group: P B A M
;
_chemical_formula_sum "Si O2"
_cell_formula_units_Z 64
_cell_length_a 18.978103
_cell_length_b 22.370841
_cell_length_c 8.680105
_cell_angle_alpha 90.000000
_cell_angle_beta 90.000000
_cell_angle_gamma 90.000000
_cell_volume 3685.191741
_symmetry_space_group_name_H-M "P B A M"
_symmetry_group_IT_number 55
_symmetry_cell_setting 'orthorhombic'
loop_
_space_group_symop_operation_xyz
x,y,z
-x,-y,z
1/2+x,1/2-y,-z
1/2-x,1/2+y,-z
-x,-y,-z
x,y,-z
1/2-x,1/2+y,z
1/2+x,1/2-y,z
loop_
_atom_site_type_symbol
_atom_site_label
_atom_site_fract_x
_atom_site_fract_y
_atom_site_fract_z
Si Si1 0.574122 0.857955 0.315775
Si Si2 0.965777 0.810960 0.183045
Si Si3 0.520213 0.566076 0.812240
Si Si4 0.919117 0.486065 0.183119
Si Si5 0.419047 0.807653 0.684951
Si Si6 0.817946 0.586310 0.684206
Si Si7 0.884754 0.230369 0.316490
Si Si8 0.672759 0.617370 0.815943
O O1 0.573493 0.868934 0.500000
O O2 0.594832 0.917742 0.229113
O O3 0.494548 0.837389 0.270964
O O4 0.623672 0.800655 0.285018
O O5 0.916147 0.760003 0.253707
O O6 0.967265 0.880261 0.235919
O O7 0.044229 0.789141 0.228683
O O8 0.957461 0.810054 0.000000
O O9 0.500000 0.500000 0.758044
O O10 0.599813 0.584850 0.767725
O O11 0.519003 0.565442 0.000000
O O12 0.867269 0.531467 0.267573
O O13 0.000000 0.500000 0.228427
O O14 0.912811 0.494388 0.000000
O O15 0.419139 0.804791 0.500000
O O16 0.357885 0.852730 0.734953
O O17 0.810764 0.587953 0.500000
O O18 0.741815 0.583163 0.761440
O O19 0.896101 0.224280 0.500000
O O20 0.827358 0.183239 0.260397
O O21 0.671493 0.623226 0.000000
#
# Coordination Sequence:
#
# PCOD9426760 Si02
#       8
#     8   8   8   8   8   8   8   8
#     4   9  17  31  51  74 100 133 174 214 254 308
#     4   9  16  26  47  77 102 125 159 209 257 298
#     4   8  15  30  53  79 105 134 167 207 262 321
#     4  11  22  33  49  78 110 140 178 226 270 310
#     4   9  18  31  48  71  99 134 171 210 257 309
#     4  11  22  36  54  72 101 146 184 217 267 327
#     4   9  17  31  51  74 100 131 166 205 254 311
#     4  10  20  34  54  80 105 132 174 225 271 318
#
# _framework density 17.366803999999998
#
# number of rings (size 3 to 8) (size 9 to 14) (size 15 to 20)
#    0.000    2.500    1.250    3.375    0.000    4.000 
#    0.000    0.000    2.750   13.500    0.000    0.000 
#    0.000    0.000    0.000    0.000    0.000    0.000 
#
# Total GULP energy -356596.452984 kJ/mol
# GULP energy per Si atom -5571.819578 kJ/mol
# Density = 1.732728 g / cm^3
# Si number density = 17.366804 Si / 1000 Ang^3
#
#
#
# Elastic Constant Matrix: (Units=GPa)
#
#
# Indices 1 2 3 4 5 6 
#
# 1 54.1013 36.1512 12.5340 0.0000 0.0000 0.0000
# 2 36.1512 134.6857 16.8767 0.0000 0.0000 0.0000
# 3 12.5340 16.8767 14.6660 0.0000 0.0000 0.0000
# 4 0.0000 0.0000 0.0000 3.9049 0.0000 0.0000
# 5 0.0000 0.0000 0.0000 0.0000 12.9315 0.0000
# 6 0.0000 0.0000 0.0000 0.0000 0.0000 21.2107
#
#
#
# Elastic Compliance Matrix: (Units=1/GPa)
#
#
# Indices 1 2 3 4 5 6 
#
# 1 0.025449 -0.004797 -0.016229 0.000000 0.000000 0.000000
# 2 -0.004797 0.009580 -0.006924 0.000000 0.000000 0.000000
# 3 -0.016229 -0.006924 0.090023 0.000000 0.000000 0.000000
# 4 0.000000 0.000000 0.000000 0.256086 0.000000 0.000000
# 5 0.000000 0.000000 0.000000 0.000000 0.077331 0.000000
# 6 0.000000 0.000000 0.000000 0.000000 0.000000 0.047146
#
#
# Mechanical properties :
#
#
# Convention : Reuss Voigt Hill
#
# Bulk Modulus (GPa) = 14.46121 37.17520 25.81820
# Shear Modulus (GPa) = 8.55334 16.80216 12.67775
#
# Velocity S-wave (km/s) = 2.22167 3.11382 2.70478
# Velocity P-wave (km/s) = 3.86343 5.86346 4.96519
#
# Compressibility (1/GPa) = 0.06915050
#
# Stress axis : x y z
#
# Youngs Moduli (GPa) = 39.29365 104.38460 11.10833
#
# Poissons Ratio (x) = 0.50076 0.18028
# Poissons Ratio (y) = 0.18850 0.07691
# Poissons Ratio (z) = 0.63771 0.72277
#
# Static dielectric constant tensor:
#      x y z
#    x 1.592070 0.000000 0.000000 
#    y 0.000000 1.625020 0.000000 
#    z 0.000000 0.000000 1.584940 
# 
# From -- ./inp_files/9178.got.cif
#   From: 2010.05.17/outbox.cif.g08.bks.cpg/sg55_5_cif.got.tgz:9178.got - 2010.06.03 13:27:54.
