data_PCOD9426204
_publ_section_title
;
Structure prediction by ZEFSAII (Michael W. Deem and Ramdas Pophale) SiO2 
 PCOD9426204
Probable space group: P B A M
;
_chemical_formula_sum "Si O2"
_cell_formula_units_Z 56
_cell_length_a 20.190105
_cell_length_b 14.401398
_cell_length_c 7.667158
_cell_angle_alpha 90.000000
_cell_angle_beta 90.000000
_cell_angle_gamma 90.000000
_cell_volume 2229.346852
_symmetry_space_group_name_H-M "P B A M"
_symmetry_group_IT_number 55
_symmetry_cell_setting 'orthorhombic'
loop_
_space_group_symop_operation_xyz
x,y,z
-x,-y,z
1/2+x,1/2-y,-z
1/2-x,1/2+y,-z
-x,-y,-z
x,y,-z
1/2-x,1/2+y,z
1/2+x,1/2-y,z
loop_
_atom_site_type_symbol
_atom_site_label
_atom_site_fract_x
_atom_site_fract_y
_atom_site_fract_z
Si Si1 0.572601 0.622750 0.305500
Si Si2 0.995222 0.713590 0.200319
Si Si3 0.645186 0.447570 0.209920
Si Si4 0.707495 0.724910 0.208725
Si Si5 0.853095 0.731043 0.213827
Si Si6 0.210588 0.551195 0.209448
Si Si7 0.930697 0.455344 0.212585
O O1 0.548591 0.633856 0.500000
O O2 0.518564 0.680319 0.198932
O O3 0.587523 0.515879 0.267505
O O4 0.644136 0.672843 0.283777
O O5 0.055544 0.651323 0.267106
O O6 0.923329 0.692515 0.278234
O O7 0.988169 0.684465 0.000000
O O8 0.641008 0.340190 0.259757
O O9 0.717871 0.480532 0.275259
O O10 0.646105 0.450514 0.000000
O O11 0.781164 0.694945 0.270008
O O12 0.706536 0.836711 0.233564
O O13 0.703566 0.709107 0.000000
O O14 0.851959 0.725474 0.000000
O O15 0.140912 0.512344 0.277234
O O16 0.212141 0.534819 0.000000
O O17 0.000000 0.500000 0.266070
O O18 0.926217 0.463521 0.000000
#
# Coordination Sequence:
#
# PCOD9426204 Si02
#       7
#     8   8   8   8   8   8   8
#     4  12  24  35  50  78 111 148 193 222 261 327
#     4  10  19  35  57  81 111 144 178 224 279 327
#     4   9  18  34  55  77 103 136 180 232 277 317
#     4   9  16  33  58  80 103 136 178 227 277 322
#     4   8  17  33  58  87 106 132 182 234 279 328
#     4   8  14  28  51  77 102 131 168 213 269 324
#     4   9  16  26  48  83 113 134 164 213 271 328
#
# _framework density 25.119467
#
# number of rings (size 3 to 8) (size 9 to 14) (size 15 to 20)
#    0.000    2.714    1.429    3.000    0.000    1.714 
#    0.000   11.429    0.000    0.429    0.000    0.000 
#    0.000    0.000    0.000    0.000    0.000    0.000 
#
# Total GULP energy -312603.246560 kJ/mol
# GULP energy per Si atom -5582.200831 kJ/mol
# Density = 2.506229 g / cm^3
# Si number density = 25.119467 Si / 1000 Ang^3
#
#
#
# Elastic Constant Matrix: (Units=GPa)
#
#
# Indices 1 2 3 4 5 6 
#
# 1 123.3995 -3.1769 -2.1788 0.0000 0.0000 0.0000
# 2 -3.1769 38.5665 0.4375 0.0000 0.0000 0.0000
# 3 -2.1788 0.4375 40.1061 0.0000 0.0000 0.0000
# 4 0.0000 0.0000 0.0000 22.7217 0.0000 0.0000
# 5 0.0000 0.0000 0.0000 0.0000 63.7321 0.0000
# 6 0.0000 0.0000 0.0000 0.0000 0.0000 37.0906
#
#
#
# Elastic Compliance Matrix: (Units=1/GPa)
#
#
# Indices 1 2 3 4 5 6 
#
# 1 0.008129 0.000665 0.000434 0.000000 0.000000 0.000000
# 2 0.000665 0.025987 -0.000247 0.000000 0.000000 0.000000
# 3 0.000434 -0.000247 0.024960 0.000000 0.000000 0.000000
# 4 0.000000 0.000000 0.000000 0.044011 0.000000 0.000000
# 5 0.000000 0.000000 0.000000 0.000000 0.015691 0.000000
# 6 0.000000 0.000000 0.000000 0.000000 0.000000 0.026961
#
#
# Mechanical properties :
#
#
# Convention : Reuss Voigt Hill
#
# Bulk Modulus (GPa) = 16.45311 21.35952 18.90632
# Shear Modulus (GPa) = 30.43318 38.50823 34.47071
#
# Velocity S-wave (km/s) = 3.48449 3.91961 3.70844
# Velocity P-wave (km/s) = 4.77002 5.38573 5.08720
#
# Compressibility (1/GPa) = 0.06077877
#
# Stress axis : x y z
#
# Youngs Moduli (GPa) = 123.02331 38.48106 40.06390
#
# Poissons Ratio (x) = -0.02558 -0.01740
# Poissons Ratio (y) = -0.08177 0.00991
# Poissons Ratio (z) = -0.05343 0.00952
#
# Static dielectric constant tensor:
#      x y z
#    x 1.989730 0.000000 0.000000 
#    y 0.000000 2.088030 0.000000 
#    z 0.000000 0.000000 1.954060 
# 
# From -- ./inp_files/8902.got.cif
#   From: 2010.05.17/outbox.cif.g08.bks.cpg/sg55_5_cif.got.tgz:8902.got - 2010.06.03 13:27:54.
