data_PCOD9426604
_publ_section_title
;
Structure prediction by ZEFSAII (Michael W. Deem and Ramdas Pophale) SiO2 
 PCOD9426604
Probable space group: P B A M
;
_chemical_formula_sum "Si O2"
_cell_formula_units_Z 56
_cell_length_a 14.823320
_cell_length_b 22.069869
_cell_length_c 9.533591
_cell_angle_alpha 90.000000
_cell_angle_beta 90.000000
_cell_angle_gamma 90.000000
_cell_volume 3118.902193
_symmetry_space_group_name_H-M "P B A M"
_symmetry_group_IT_number 55
_symmetry_cell_setting 'orthorhombic'
loop_
_space_group_symop_operation_xyz
x,y,z
-x,-y,z
1/2+x,1/2-y,-z
1/2-x,1/2+y,-z
-x,-y,-z
x,y,-z
1/2-x,1/2+y,z
1/2+x,1/2-y,z
loop_
_atom_site_type_symbol
_atom_site_label
_atom_site_fract_x
_atom_site_fract_y
_atom_site_fract_z
Si Si1 0.824060 0.281855 0.335732
Si Si2 0.486718 0.569516 0.170451
Si Si3 0.511956 0.876441 0.337854
Si Si4 0.870598 0.464959 0.837587
Si Si5 0.204428 0.126914 0.834468
Si Si6 0.648634 0.659525 0.833964
Si Si7 0.152549 0.393588 0.837064
O O1 0.802785 0.272883 0.500000
O O2 0.912447 0.324561 0.326835
O O3 0.743732 0.317716 0.256178
O O4 0.847492 0.219946 0.257256
O O5 0.500000 0.500000 0.219521
O O6 0.391971 0.600303 0.212044
O O7 0.569834 0.613007 0.208984
O O8 0.484976 0.566755 0.000000
O O9 0.495306 0.889510 0.500000
O O10 0.555628 0.934006 0.260028
O O11 0.419543 0.860381 0.260199
O O12 0.778328 0.426777 0.823406
O O13 0.853247 0.534861 0.806542
O O14 0.899917 0.459549 0.000000
O O15 0.198936 0.143955 0.000000
O O16 0.745628 0.627920 0.818674
O O17 0.635853 0.673816 0.000000
O O18 0.127836 0.384385 0.000000
#
# Coordination Sequence:
#
# PCOD9426604 Si02
#       7
#     8   8   8   8   8   8   8
#     4  10  22  39  54  72 103 140 178 219 264 310
#     4   9  17  32  57  87 113 137 171 219 272 321
#     4  10  21  35  52  75 103 138 176 212 253 304
#     4   9  17  31  52  79 109 136 165 206 255 307
#     4   9  17  32  57  83 106 137 175 213 257 313
#     4  10  21  36  55  79 106 136 174 218 260 311
#     4  10  20  33  51  77 106 135 167 207 257 307
#
# _framework density 17.955034999999999
#
# number of rings (size 3 to 8) (size 9 to 14) (size 15 to 20)
#    0.000    2.429    0.000    2.143    0.000    9.143 
#    0.000    5.000    0.000    3.429    0.000    0.000 
#    0.000    0.000    0.000    0.000    0.000    0.000 
#
# Total GULP energy -312494.308384 kJ/mol
# GULP energy per Si atom -5580.255507 kJ/mol
# Density = 1.791417 g / cm^3
# Si number density = 17.955035 Si / 1000 Ang^3
#
#
#
# Elastic Constant Matrix: (Units=GPa)
#
#
# Indices 1 2 3 4 5 6 
#
# 1 119.4069 48.5677 60.9399 0.0000 0.0000 0.0000
# 2 48.5677 112.1496 64.4589 0.0000 0.0000 0.0000
# 3 60.9399 64.4589 72.9781 0.0000 0.0000 0.0000
# 4 0.0000 0.0000 0.0000 -7.1342 0.0000 0.0000
# 5 0.0000 0.0000 0.0000 0.0000 13.5905 0.0000
# 6 0.0000 0.0000 0.0000 0.0000 0.0000 15.8853
#
#
#
# Elastic Compliance Matrix: (Units=1/GPa)
#
#
# Indices 1 2 3 4 5 6 
#
# 1 0.014702 0.001400 -0.013513 0.000000 0.000000 0.000000
# 2 0.001400 0.018244 -0.017284 0.000000 0.000000 0.000000
# 3 -0.013513 -0.017284 0.040253 0.000000 0.000000 0.000000
# 4 0.000000 0.000000 0.000000 -0.140171 0.000000 0.000000
# 5 0.000000 0.000000 0.000000 0.000000 0.073581 0.000000
# 6 0.000000 0.000000 0.000000 0.000000 0.000000 0.062951
#
#
# Mechanical properties :
#
#
# Convention : Reuss Voigt Hill
#
# Bulk Modulus (GPa) = 69.41873 72.49639 70.95756
# Shear Modulus (GPa) = 37.55004 13.17288 25.36146
#
# Velocity S-wave (km/s) = 4.57808 2.71155 3.76240
# Velocity P-wave (km/s) = 8.16649 7.08997 7.64719
#
# Compressibility (1/GPa) = 0.01440533
#
# Stress axis : x y z
#
# Youngs Moduli (GPa) = 68.01871 54.81182 24.84287
#
# Poissons Ratio (x) = -0.07674 0.33571
# Poissons Ratio (y) = -0.09523 0.42938
# Poissons Ratio (z) = 0.91916 0.94735
#
# Static dielectric constant tensor:
#      x y z
#    x 1.612970 0.000000 0.000000 
#    y 0.000000 1.598360 0.000000 
#    z 0.000000 0.000000 1.599740 
# 
# From -- ./inp_files/6128.got.cif
#   From: 2010.05.17/outbox.cif.g08.bks.cpg/sg55_4_cif.got.tgz:6128.got - 2010.06.03 13:27:54.
