data_PCOD9426241
_publ_section_title
;
Structure prediction by ZEFSAII (Michael W. Deem and Ramdas Pophale) SiO2 
 PCOD9426241
Probable space group: P B A M
;
_chemical_formula_sum "Si O2"
_cell_formula_units_Z 38
_cell_length_a 4.763652
_cell_length_b 24.155011
_cell_length_c 16.587338
_cell_angle_alpha 90.000000
_cell_angle_beta 90.000000
_cell_angle_gamma 90.000000
_cell_volume 1908.639737
_symmetry_space_group_name_H-M "P B A M"
_symmetry_group_IT_number 55
_symmetry_cell_setting 'orthorhombic'
loop_
_space_group_symop_operation_xyz
x,y,z
-x,-y,z
1/2+x,1/2-y,-z
1/2-x,1/2+y,-z
-x,-y,-z
x,y,-z
1/2-x,1/2+y,z
1/2+x,1/2-y,z
loop_
_atom_site_type_symbol
_atom_site_label
_atom_site_fract_x
_atom_site_fract_y
_atom_site_fract_z
Si Si1 0.000000 0.000000 0.000000
Si Si2 0.632245 0.790922 0.679907
Si Si3 0.828015 0.551560 0.154826
Si Si4 0.936485 0.286471 0.500000
Si Si5 0.819963 0.214873 0.904117
Si Si6 0.157938 0.123090 0.809906
O O1 0.812066 0.031262 0.071407
O O2 0.576700 0.903301 0.856325
O O3 0.643287 0.810592 0.586604
O O4 0.721932 0.841010 0.736535
O O5 0.330031 0.762987 0.693051
O O6 0.572863 0.575487 0.208037
O O7 0.000000 0.500000 0.190788
O O8 0.265379 0.271946 0.500000
O O9 0.504487 0.230766 0.882569
O O10 0.967513 0.163729 0.863446
O O11 0.835310 0.207630 0.000000
#
# Coordination Sequence:
#
# PCOD9426241 Si02
#       6
#     2   8   8   4   8   8
#     4  12  26  48  62  76 110 134 198 268 306 344
#     4  10  19  35  58  91 129 158 190 227 275 347
#     4  12  26  42  59  82 105 141 194 257 307 339
#     4   8  16  30  54  86 125 163 186 222 272 328
#     4  10  21  35  47  72 107 141 177 215 259 334
#     4  12  23  36  61  83 109 151 190 236 298 339
#
# _framework density 19.909468
#
# number of rings (size 3 to 8) (size 9 to 14) (size 15 to 20)
#    0.000    1.263    2.105    4.105    2.947    0.000 
#    0.000    0.000    0.000    0.000    0.000    4.421 
#    0.000    0.000    0.000    0.000    0.000    0.000 
#
# Total GULP energy -211616.183675 kJ/mol
# GULP energy per Si atom -5568.846939 kJ/mol
# Density = 1.986415 g / cm^3
# Si number density = 19.909468 Si / 1000 Ang^3
#
#
#
# Elastic Constant Matrix: (Units=GPa)
#
#
# Indices 1 2 3 4 5 6 
#
# 1 99.0905 29.6672 9.2426 0.0000 0.0000 0.0000
# 2 29.6672 78.6303 29.1037 0.0000 0.0000 0.0000
# 3 9.2426 29.1037 75.8762 0.0000 0.0000 0.0000
# 4 0.0000 0.0000 0.0000 8.7728 0.0000 0.0000
# 5 0.0000 0.0000 0.0000 0.0000 16.9460 0.0000
# 6 0.0000 0.0000 0.0000 0.0000 0.0000 41.7170
#
#
#
# Elastic Compliance Matrix: (Units=1/GPa)
#
#
# Indices 1 2 3 4 5 6 
#
# 1 0.011383 -0.004407 0.000304 0.000000 0.000000 0.000000
# 2 -0.004407 0.016528 -0.005803 0.000000 0.000000 0.000000
# 3 0.000304 -0.005803 0.015368 0.000000 0.000000 0.000000
# 4 0.000000 0.000000 0.000000 0.113989 0.000000 0.000000
# 5 0.000000 0.000000 0.000000 0.000000 0.059011 0.000000
# 6 0.000000 0.000000 0.000000 0.000000 0.000000 0.023971
#
#
# Mechanical properties :
#
#
# Convention : Reuss Voigt Hill
#
# Bulk Modulus (GPa) = 42.61305 43.29156 42.95231
# Shear Modulus (GPa) = 18.66467 25.85939 22.26203
#
# Velocity S-wave (km/s) = 3.06515 3.60786 3.34752
# Velocity P-wave (km/s) = 5.82895 6.25676 6.04664
#
# Compressibility (1/GPa) = 0.02346699
#
# Stress axis : x y z
#
# Youngs Moduli (GPa) = 87.85071 60.50169 65.06954
#
# Poissons Ratio (x) = 0.26665 -0.01978
# Poissons Ratio (y) = 0.38718 0.37759
# Poissons Ratio (z) = -0.02670 0.35109
#
# Static dielectric constant tensor:
#      x y z
#    x 1.741730 0.000000 0.000000 
#    y 0.000000 1.794910 0.000000 
#    z 0.000000 0.000000 1.708110 
# 
# From -- ./inp_files/16564.got.cif
#   From: 2010.05.17/outbox.cif.g08.bks.cpg/sg55_9_cif.got.tgz:16564.got - 2010.06.03 13:27:54.
