data_PCOD9426701
_publ_section_title
;
Structure prediction by ZEFSAII (Michael W. Deem and Ramdas Pophale) SiO2 
 PCOD9426701
Probable space group: P B A M
;
_chemical_formula_sum "Si O2"
_cell_formula_units_Z 48
_cell_length_a 17.114233
_cell_length_b 18.639403
_cell_length_c 8.255918
_cell_angle_alpha 90.000000
_cell_angle_beta 90.000000
_cell_angle_gamma 90.000000
_cell_volume 2633.630295
_symmetry_space_group_name_H-M "P B A M"
_symmetry_group_IT_number 55
_symmetry_cell_setting 'orthorhombic'
loop_
_space_group_symop_operation_xyz
x,y,z
-x,-y,z
1/2+x,1/2-y,-z
1/2-x,1/2+y,-z
-x,-y,-z
x,y,-z
1/2-x,1/2+y,z
1/2+x,1/2-y,z
loop_
_atom_site_type_symbol
_atom_site_label
_atom_site_fract_x
_atom_site_fract_y
_atom_site_fract_z
Si Si1 0.331195 0.832407 0.195153
Si Si2 0.826556 0.093348 0.804530
Si Si3 0.256457 0.052751 0.195188
Si Si4 0.914127 0.522643 0.802029
Si Si5 0.003607 0.918064 0.694715
Si Si6 0.144503 0.172020 0.692985
O O1 0.243489 0.854288 0.247398
O O2 0.387871 0.897361 0.248676
O O3 0.353640 0.753695 0.250524
O O4 0.331515 0.833608 0.000000
O O5 0.911453 0.111610 0.739213
O O6 0.799800 0.013216 0.752238
O O7 0.829224 0.093432 0.000000
O O8 0.220400 0.126752 0.254813
O O9 0.344030 0.031052 0.247340
O O10 0.256339 0.053375 0.000000
O O11 0.000000 0.500000 0.746200
O O12 0.915004 0.522315 0.000000
O O13 0.997413 0.920838 0.500000
O O14 0.931724 0.870593 0.757072
O O15 0.000000 0.000000 0.757027
O O16 0.141017 0.171451 0.500000
#
# Coordination Sequence:
#
# PCOD9426701 Si02
#       6
#     8   8   8   8   8   8
#     4   9  19  36  55  77 106 136 171 217 265 310
#     4   9  18  33  54  78 100 132 175 215 259 308
#     4   9  17  31  54  79 103 131 169 216 258 307
#     4   8  15  32  58  82 102 130 171 217 264 310
#     4  10  20  34  52  76 107 141 175 213 256 308
#     4  11  22  35  51  75 108 144 176 209 261 315
#
# _framework density 18.225792999999999
#
# number of rings (size 3 to 8) (size 9 to 14) (size 15 to 20)
#    0.000    2.667    1.667    2.500    0.000    2.333 
#    3.000    2.500    0.000    1.000    0.000    0.000 
#    0.000    0.000    0.000    0.000    0.000    0.000 
#
# Total GULP energy -267636.026003 kJ/mol
# GULP energy per Si atom -5575.750542 kJ/mol
# Density = 1.818431 g / cm^3
# Si number density = 18.225793 Si / 1000 Ang^3
#
#
#
# Elastic Constant Matrix: (Units=GPa)
#
#
# Indices 1 2 3 4 5 6 
#
# 1 162.9114 98.5194 11.6266 0.0000 0.0000 0.0000
# 2 98.5194 147.2419 17.5201 0.0000 0.0000 0.0000
# 3 11.6266 17.5201 5.1462 0.0000 0.0000 0.0000
# 4 0.0000 0.0000 0.0000 14.2439 0.0000 0.0000
# 5 0.0000 0.0000 0.0000 0.0000 -41.9466 0.0000
# 6 0.0000 0.0000 0.0000 0.0000 0.0000 23.0412
#
#
#
# Elastic Compliance Matrix: (Units=1/GPa)
#
#
# Indices 1 2 3 4 5 6 
#
# 1 0.010310 -0.006937 0.000324 0.000000 0.000000 0.000000
# 2 -0.006937 0.016084 -0.039084 0.000000 0.000000 0.000000
# 3 0.000324 -0.039084 0.326647 0.000000 0.000000 0.000000
# 4 0.000000 0.000000 0.000000 0.070206 0.000000 0.000000
# 5 0.000000 0.000000 0.000000 0.000000 -0.023840 0.000000
# 6 0.000000 0.000000 0.000000 0.000000 0.000000 0.043400
#
#
# Mechanical properties :
#
#
# Convention : Reuss Voigt Hill
#
# Bulk Modulus (GPa) = 3.82196 63.40354 33.61275
# Shear Modulus (GPa) = 8.04612 11.57660 9.81136
#
# Velocity S-wave (km/s) = 2.10340 2.52301 2.32270
# Velocity P-wave (km/s) = 2.82853 6.58413 5.06712
#
# Compressibility (1/GPa) = 0.26164619
#
# Stress axis : x y z
#
# Youngs Moduli (GPa) = 96.98914 62.17460 3.06141
#
# Poissons Ratio (x) = 0.43132 -0.00099
# Poissons Ratio (y) = 0.67283 0.11965
# Poissons Ratio (z) = -0.03138 2.43001
#
# Static dielectric constant tensor:
#      x y z
#    x 1.631520 0.000000 0.000000 
#    y 0.000000 1.613920 0.000000 
#    z 0.000000 0.000000 1.635320 
# 
# From -- ./inp_files/7554.got.cif
#   From: 2010.05.17/outbox.cif.g08.bks.cpg/sg55_4_cif.got.tgz:7554.got - 2010.06.03 13:27:54.
