data_PCOD9426885
_publ_section_title
;
Structure prediction by ZEFSAII (Michael W. Deem and Ramdas Pophale) SiO2 
 PCOD9426885
Probable space group: P B A M
;
_chemical_formula_sum "Si O2"
_cell_formula_units_Z 64
_cell_length_a 14.881855
_cell_length_b 24.204964
_cell_length_c 9.109227
_cell_angle_alpha 90.000000
_cell_angle_beta 90.000000
_cell_angle_gamma 90.000000
_cell_volume 3281.278059
_symmetry_space_group_name_H-M "P B A M"
_symmetry_group_IT_number 55
_symmetry_cell_setting 'orthorhombic'
loop_
_space_group_symop_operation_xyz
x,y,z
-x,-y,z
1/2+x,1/2-y,-z
1/2-x,1/2+y,-z
-x,-y,-z
x,y,-z
1/2-x,1/2+y,z
1/2+x,1/2-y,z
loop_
_atom_site_type_symbol
_atom_site_label
_atom_site_fract_x
_atom_site_fract_y
_atom_site_fract_z
Si Si1 0.017122 0.323369 0.324091
Si Si2 0.823978 0.291241 0.327627
Si Si3 0.061176 0.946277 0.823217
Si Si4 0.248858 0.585011 0.664469
Si Si5 0.945535 0.553999 0.324183
Si Si6 0.265767 0.974759 0.826408
Si Si7 0.149738 0.245772 0.825470
Si Si8 0.939952 0.859587 0.669758
O O1 0.030026 0.317984 0.500000
O O2 0.005290 0.388264 0.292018
O O3 0.101255 0.299539 0.237728
O O4 0.927958 0.288700 0.285054
O O5 0.813723 0.276679 0.500000
O O6 0.798144 0.356064 0.315397
O O7 0.751670 0.258868 0.232394
O O8 0.165031 0.956501 0.782551
O O9 0.020455 0.892563 0.745110
O O10 0.055793 0.939876 0.000000
O O11 0.000000 0.000000 0.785553
O O12 0.225605 0.564609 0.500000
O O13 0.225600 0.538970 0.781436
O O14 0.354537 0.598896 0.670361
O O15 0.937372 0.549708 0.500000
O O16 0.846824 0.555446 0.254850
O O17 0.000000 0.500000 0.272125
O O18 0.274015 0.967723 0.000000
O O19 0.094874 0.194063 0.756072
O O20 0.147015 0.243334 0.000000
O O21 0.958760 0.845059 0.500000
#
# Coordination Sequence:
#
# PCOD9426885 Si02
#       8
#     8   8   8   8   8   8   8   8
#     4  10  21  41  67  91 119 157 202 252 302 358
#     4   9  19  38  64  90 113 147 198 250 296 347
#     4  10  20  35  53  80 123 165 199 242 301 361
#     4   9  17  31  54  83 114 148 194 245 286 338
#     4  10  22  42  66  90 118 154 198 250 306 358
#     4  11  22  34  53  84 121 160 196 236 294 360
#     4  11  23  39  61  89 123 156 193 244 304 364
#     4  10  20  35  57  83 112 153 207 253 291 343
#
# _framework density 19.504594999999998
#
# number of rings (size 3 to 8) (size 9 to 14) (size 15 to 20)
#    0.000    2.000    1.250    3.375    0.000    6.500 
#    2.250    1.250    0.000    0.000    0.000    0.000 
#    0.000    0.000    0.000    0.000    0.000    0.000 
#
# Total GULP energy -357383.590975 kJ/mol
# GULP energy per Si atom -5584.118609 kJ/mol
# Density = 1.946020 g / cm^3
# Si number density = 19.504595 Si / 1000 Ang^3
#
#
#
# Elastic Constant Matrix: (Units=GPa)
#
#
# Indices 1 2 3 4 5 6 
#
# 1 116.3048 25.8566 44.7419 0.0000 0.0000 0.0000
# 2 25.8566 51.8413 33.8406 0.0000 0.0000 0.0000
# 3 44.7419 33.8406 54.9736 0.0000 0.0000 0.0000
# 4 0.0000 0.0000 0.0000 22.2370 0.0000 0.0000
# 5 0.0000 0.0000 0.0000 0.0000 25.5455 0.0000
# 6 0.0000 0.0000 0.0000 0.0000 0.0000 27.4208
#
#
#
# Elastic Compliance Matrix: (Units=1/GPa)
#
#
# Indices 1 2 3 4 5 6 
#
# 1 0.012532 0.000681 -0.010618 0.000000 0.000000 0.000000
# 2 0.000681 0.032285 -0.020428 0.000000 0.000000 0.000000
# 3 -0.010618 -0.020428 0.039408 0.000000 0.000000 0.000000
# 4 0.000000 0.000000 0.000000 0.044970 0.000000 0.000000
# 5 0.000000 0.000000 0.000000 0.000000 0.039146 0.000000
# 6 0.000000 0.000000 0.000000 0.000000 0.000000 0.036469
#
#
# Mechanical properties :
#
#
# Convention : Reuss Voigt Hill
#
# Bulk Modulus (GPa) = 42.56557 47.99977 45.28267
# Shear Modulus (GPa) = 18.29013 22.95272 20.62142
#
# Velocity S-wave (km/s) = 3.06557 3.43415 3.25508
# Velocity P-wave (km/s) = 5.86524 6.35511 6.11508
#
# Compressibility (1/GPa) = 0.02349317
#
# Stress axis : x y z
#
# Youngs Moduli (GPa) = 79.79873 30.97414 25.37552
#
# Poissons Ratio (x) = -0.02110 0.26945
# Poissons Ratio (y) = -0.05436 0.51838
# Poissons Ratio (z) = 0.84734 0.63275
#
# Static dielectric constant tensor:
#      x y z
#    x 1.688910 0.000000 0.000000 
#    y 0.000000 1.686310 0.000000 
#    z 0.000000 0.000000 1.651400 
# 
# From -- ./inp_files/6546.got.cif
#   From: 2010.05.17/outbox.cif.g08.bks.cpg/sg55_4_cif.got.tgz:6546.got - 2010.06.03 13:27:54.
