data_PCOD9426240
_publ_section_title
;
Structure prediction by ZEFSAII (Michael W. Deem and Ramdas Pophale) SiO2 
 PCOD9426240
Probable space group: P B A M
;
_chemical_formula_sum "Si O2"
_cell_formula_units_Z 40
_cell_length_a 18.143591
_cell_length_b 5.387675
_cell_length_c 18.409030
_cell_angle_alpha 90.000000
_cell_angle_beta 90.000000
_cell_angle_gamma 90.000000
_cell_volume 1799.515297
_symmetry_space_group_name_H-M "P B A M"
_symmetry_group_IT_number 55
_symmetry_cell_setting 'orthorhombic'
loop_
_space_group_symop_operation_xyz
x,y,z
-x,-y,z
1/2+x,1/2-y,-z
1/2-x,1/2+y,-z
-x,-y,-z
x,y,-z
1/2-x,1/2+y,z
1/2+x,1/2-y,z
loop_
_atom_site_type_symbol
_atom_site_label
_atom_site_fract_x
_atom_site_fract_y
_atom_site_fract_z
Si Si1 0.952504 0.258270 0.269012
Si Si2 0.821023 0.698818 0.916363
Si Si3 0.657336 0.698717 0.858589
Si Si4 0.785807 0.770489 0.412566
Si Si5 0.079974 0.884533 0.420400
O O1 0.880716 0.227009 0.218792
O O2 0.926297 0.294517 0.352207
O O3 0.000000 0.500000 0.247517
O O4 0.000000 0.000000 0.265341
O O5 0.746735 0.688882 0.866887
O O6 0.862764 0.442886 0.903986
O O7 0.866425 0.938697 0.893276
O O8 0.797357 0.723524 0.000000
O O9 0.777451 0.752233 0.500000
O O10 0.732925 0.995389 0.385067
O O11 0.865371 0.890509 0.400569
O O12 0.102251 0.779892 0.500000
O O13 0.000000 0.000000 0.428210
#
# Coordination Sequence:
#
# PCOD9426240 Si02
#       5
#     8   8   8   8   8
#     4  11  24  41  59  83 122 166 201 249 306 358
#     4  10  19  36  66  93 118 151 198 252 289 341
#     4  10  19  35  58  90 120 155 193 241 301 356
#     4   9  18  34  54  81 114 145 181 246 320 361
#     4   9  20  40  64  88 115 162 223 266 303 367
#
# _framework density 22.228207000000001
#
# number of rings (size 3 to 8) (size 9 to 14) (size 15 to 20)
#    0.000    2.200    0.000    4.200    0.000    3.600 
#    7.200    6.000    0.000   20.400    0.000    0.000 
#    0.000    0.000    0.000    0.000    0.000    0.000 
#
# Total GULP energy -223009.343892 kJ/mol
# GULP energy per Si atom -5575.233597 kJ/mol
# Density = 2.217761 g / cm^3
# Si number density = 22.228207 Si / 1000 Ang^3
#
#
#
# Elastic Constant Matrix: (Units=GPa)
#
#
# Indices 1 2 3 4 5 6 
#
# 1 76.8918 -8.1984 25.2990 0.0000 0.0000 0.0000
# 2 -8.1984 121.4976 -5.6739 0.0000 0.0000 0.0000
# 3 25.2990 -5.6739 95.5075 0.0000 0.0000 0.0000
# 4 0.0000 0.0000 0.0000 31.1424 0.0000 0.0000
# 5 0.0000 0.0000 0.0000 0.0000 89.2076 0.0000
# 6 0.0000 0.0000 0.0000 0.0000 0.0000 23.0673
#
#
#
# Elastic Compliance Matrix: (Units=1/GPa)
#
#
# Indices 1 2 3 4 5 6 
#
# 1 0.014322 0.000791 -0.003747 0.000000 0.000000 0.000000
# 2 0.000791 0.008297 0.000283 0.000000 0.000000 0.000000
# 3 -0.003747 0.000283 0.011480 0.000000 0.000000 0.000000
# 4 0.000000 0.000000 0.000000 0.032111 0.000000 0.000000
# 5 0.000000 0.000000 0.000000 0.000000 0.011210 0.000000
# 6 0.000000 0.000000 0.000000 0.000000 0.000000 0.043351
#
#
# Mechanical properties :
#
#
# Convention : Reuss Voigt Hill
#
# Bulk Modulus (GPa) = 34.77630 35.19446 34.98538
# Shear Modulus (GPa) = 36.84587 47.51483 42.18035
#
# Velocity S-wave (km/s) = 4.07580 4.62843 4.36088
# Velocity P-wave (km/s) = 6.15050 6.66564 6.41324
#
# Compressibility (1/GPa) = 0.02875521
#
# Stress axis : x y z
#
# Youngs Moduli (GPa) = 69.82039 120.52182 87.11022
#
# Poissons Ratio (x) = -0.09539 0.32639
# Poissons Ratio (y) = -0.05526 -0.02468
# Poissons Ratio (z) = 0.26161 -0.03414
#
# Static dielectric constant tensor:
#      x y z
#    x 1.841670 0.000000 0.000000 
#    y 0.000000 1.895410 0.000000 
#    z 0.000000 0.000000 1.828730 
# 
# From -- ./inp_files/21703.got.cif
#   From: 2010.05.17/outbox.cif.g08.bks.cpg/sg55_11_cif.got.tgz:21703.got - 2010.06.03 13:27:54.
