data_PCOD9426935
_publ_section_title
;
Structure prediction by ZEFSAII (Michael W. Deem and Ramdas Pophale) SiO2 
 PCOD9426935
Probable space group: P B A M
;
_chemical_formula_sum "Si O2"
_cell_formula_units_Z 48
_cell_length_a 27.946732
_cell_length_b 5.159856
_cell_length_c 15.905845
_cell_angle_alpha 90.000000
_cell_angle_beta 90.000000
_cell_angle_gamma 90.000000
_cell_volume 2293.640549
_symmetry_space_group_name_H-M "P B A M"
_symmetry_group_IT_number 55
_symmetry_cell_setting 'orthorhombic'
loop_
_space_group_symop_operation_xyz
x,y,z
-x,-y,z
1/2+x,1/2-y,-z
1/2-x,1/2+y,-z
-x,-y,-z
x,y,-z
1/2-x,1/2+y,z
1/2+x,1/2-y,z
loop_
_atom_site_type_symbol
_atom_site_label
_atom_site_fract_x
_atom_site_fract_y
_atom_site_fract_z
Si Si1 0.000000 0.000000 0.761986
Si Si2 0.543863 0.805832 0.912258
Si Si3 0.341021 0.101946 0.671461
Si Si4 0.102573 0.105737 0.270878
Si Si5 0.133149 0.314945 0.907402
Si Si6 0.216248 0.673396 0.500000
Si Si7 0.221381 0.612085 0.835674
O O1 0.968117 0.167070 0.826275
O O2 0.044845 0.136140 0.716394
O O3 0.500000 0.000000 0.919509
O O4 0.590661 0.976656 0.907159
O O5 0.545856 0.647139 0.000000
O O6 0.376889 0.334401 0.696154
O O7 0.316760 0.145892 0.582082
O O8 0.298768 0.091741 0.741019
O O9 0.370143 0.835740 0.680758
O O10 0.120011 0.137674 0.172894
O O11 0.180179 0.485360 0.891740
O O12 0.135841 0.189594 0.000000
O O13 0.255561 0.444610 0.500000
O O14 0.265290 0.411840 0.849169
#
# Coordination Sequence:
#
# PCOD9426935 Si02
#       7
#     4   8   8   8   8   4   8
#     4  12  21  34  62  87 122 176 228 250 326 397
#     4  10  20  35  55  85 121 159 220 297 338 365
#     4  11  24  44  66 100 131 161 201 265 332 381
#     4  11  24  40  64  93 135 171 213 269 314 375
#     4  10  22  40  59  86 126 173 223 273 325 371
#     4  12  24  44  80 109 130 159 204 260 328 406
#     4  11  22  39  60  84 121 163 207 255 307 377
#
# _framework density 20.927429
#
# number of rings (size 3 to 8) (size 9 to 14) (size 15 to 20)
#    0.000    1.167    1.667    6.250    0.000    1.333 
#    0.000    8.333    0.000    3.000    0.000    0.000 
#    0.000    0.000    0.000    0.000    0.000    0.000 
#
# Total GULP energy -268117.805402 kJ/mol
# GULP energy per Si atom -5585.787613 kJ/mol
# Density = 2.087980 g / cm^3
# Si number density = 20.927429 Si / 1000 Ang^3
#
#
#
# Elastic Constant Matrix: (Units=GPa)
#
#
# Indices 1 2 3 4 5 6 
#
# 1 101.7655 2.3983 27.5138 0.0000 0.0000 0.0000
# 2 2.3983 60.4975 -1.4066 0.0000 0.0000 0.0000
# 3 27.5138 -1.4066 89.5830 0.0000 0.0000 0.0000
# 4 0.0000 0.0000 0.0000 28.0920 0.0000 0.0000
# 5 0.0000 0.0000 0.0000 0.0000 28.2517 0.0000
# 6 0.0000 0.0000 0.0000 0.0000 0.0000 48.1707
#
#
#
# Elastic Compliance Matrix: (Units=1/GPa)
#
#
# Indices 1 2 3 4 5 6 
#
# 1 0.010732 -0.000502 -0.003304 0.000000 0.000000 0.000000
# 2 -0.000502 0.016559 0.000414 0.000000 0.000000 0.000000
# 3 -0.003304 0.000414 0.012184 0.000000 0.000000 0.000000
# 4 0.000000 0.000000 0.000000 0.035597 0.000000 0.000000
# 5 0.000000 0.000000 0.000000 0.000000 0.035396 0.000000
# 6 0.000000 0.000000 0.000000 0.000000 0.000000 0.020759
#
#
# Mechanical properties :
#
#
# Convention : Reuss Voigt Hill
#
# Bulk Modulus (GPa) = 30.58942 34.31746 32.45344
# Shear Modulus (GPa) = 33.57765 35.79225 34.68495
#
# Velocity S-wave (km/s) = 4.00994 4.14007 4.07552
# Velocity P-wave (km/s) = 6.00734 6.26797 6.13904
#
# Compressibility (1/GPa) = 0.03269104
#
# Stress axis : x y z
#
# Youngs Moduli (GPa) = 93.18268 60.38954 82.07436
#
# Poissons Ratio (x) = 0.03033 0.27117
# Poissons Ratio (y) = 0.04680 -0.03400
# Poissons Ratio (z) = 0.30787 -0.02502
#
# Static dielectric constant tensor:
#      x y z
#    x 1.778220 0.000000 0.000000 
#    y 0.000000 1.774700 0.000000 
#    z 0.000000 0.000000 1.839610 
# 
# From -- ./inp_files/20130.got.cif
#   From: 2010.05.17/outbox.cif.g08.bks.cpg/sg55_11_cif.got.tgz:20130.got - 2010.06.03 13:27:54.
