data_PCOD9426270
_publ_section_title
;
Structure prediction by ZEFSAII (Michael W. Deem and Ramdas Pophale) SiO2 
 PCOD9426270
Probable space group: P B A M
;
_chemical_formula_sum "Si O2"
_cell_formula_units_Z 64
_cell_length_a 29.325388
_cell_length_b 12.457532
_cell_length_c 9.483059
_cell_angle_alpha 90.000000
_cell_angle_beta 90.000000
_cell_angle_gamma 90.000000
_cell_volume 3464.369695
_symmetry_space_group_name_H-M "P B A M"
_symmetry_group_IT_number 55
_symmetry_cell_setting 'orthorhombic'
loop_
_space_group_symop_operation_xyz
x,y,z
-x,-y,z
1/2+x,1/2-y,-z
1/2-x,1/2+y,-z
-x,-y,-z
x,y,-z
1/2-x,1/2+y,z
1/2+x,1/2-y,z
loop_
_atom_site_type_symbol
_atom_site_label
_atom_site_fract_x
_atom_site_fract_y
_atom_site_fract_z
Si Si1 0.256671 0.101860 0.158170
Si Si2 0.819227 0.187011 0.161589
Si Si3 0.181622 0.204336 0.660386
Si Si4 0.577979 0.229015 0.669453
Si Si5 0.004533 0.127567 0.169463
Si Si6 0.554893 0.010504 0.166986
Si Si7 0.583574 0.772035 0.170642
Si Si8 0.743023 0.082884 0.660074
O O1 0.288532 0.205739 0.155604
O O2 0.208582 0.131412 0.229413
O O3 0.279747 0.012439 0.253837
O O4 0.250659 0.062382 0.000000
O O5 0.868807 0.220217 0.217375
O O6 0.790154 0.110304 0.261285
O O7 0.823451 0.146548 0.000000
O O8 0.184038 0.161522 0.500000
O O9 0.129553 0.230568 0.693748
O O10 0.210366 0.314612 0.661981
O O11 0.570656 0.222082 0.500000
O O12 0.544057 0.313907 0.742769
O O13 0.570521 0.112864 0.742459
O O14 0.958481 0.193805 0.204568
O O15 0.012538 0.139470 0.000000
O O16 0.000000 0.000000 0.198227
O O17 0.575271 0.895439 0.215495
O O18 0.500000 0.000000 0.176267
O O19 0.565917 0.026817 0.000000
O O20 0.585875 0.777394 0.000000
O O21 0.751193 0.051963 0.500000
#
# Coordination Sequence:
#
# PCOD9426270 Si02
#       8
#     8   8   8   8   8   8   8   8
#     4  10  20  34  55  82 108 139 184 237 281 319
#     4   9  19  35  54  79 110 141 183 234 274 318
#     4   9  21  39  55  77 112 152 186 221 273 336
#     4  11  23  38  57  85 118 148 188 238 283 332
#     4  10  21  39  61  83 111 150 193 231 276 339
#     4  10  19  35  60  84 114 152 187 228 280 338
#     4   9  18  35  57  84 114 146 184 230 281 330
#     4  10  20  36  56  77 109 150 184 220 274 337
#
# _framework density 18.473777999999999
#
# number of rings (size 3 to 8) (size 9 to 14) (size 15 to 20)
#    0.000    2.250    1.250    1.125    1.750    3.500 
#    0.000    2.500    0.000    0.000    0.000    0.000 
#    0.000    0.000    0.000    0.000    0.000    0.000 
#
# Total GULP energy -356939.929482 kJ/mol
# GULP energy per Si atom -5577.186398 kJ/mol
# Density = 1.843173 g / cm^3
# Si number density = 18.473778 Si / 1000 Ang^3
#
#
#
# Elastic Constant Matrix: (Units=GPa)
#
#
# Indices 1 2 3 4 5 6 
#
# 1 111.6959 25.6154 32.7583 0.0000 0.0000 0.0000
# 2 25.6154 92.7388 34.6649 0.0000 0.0000 0.0000
# 3 32.7583 34.6649 84.7389 0.0000 0.0000 0.0000
# 4 0.0000 0.0000 0.0000 23.2180 0.0000 0.0000
# 5 0.0000 0.0000 0.0000 0.0000 11.9672 0.0000
# 6 0.0000 0.0000 0.0000 0.0000 0.0000 2.7063
#
#
#
# Elastic Compliance Matrix: (Units=1/GPa)
#
#
# Indices 1 2 3 4 5 6 
#
# 1 0.010295 -0.001601 -0.003325 0.000000 0.000000 0.000000
# 2 -0.001601 0.012978 -0.004690 0.000000 0.000000 0.000000
# 3 -0.003325 -0.004690 0.015005 0.000000 0.000000 0.000000
# 4 0.000000 0.000000 0.000000 0.043070 0.000000 0.000000
# 5 0.000000 0.000000 0.000000 0.000000 0.083562 0.000000
# 6 0.000000 0.000000 0.000000 0.000000 0.000000 0.369502
#
#
# Mechanical properties :
#
#
# Convention : Reuss Voigt Hill
#
# Bulk Modulus (GPa) = 52.50378 52.80565 52.65471
# Shear Modulus (GPa) = 8.92868 20.65397 14.79132
#
# Velocity S-wave (km/s) = 2.20083 3.34730 2.83267
# Velocity P-wave (km/s) = 5.91106 6.60192 6.26602
#
# Compressibility (1/GPa) = 0.01904625
#
# Stress axis : x y z
#
# Youngs Moduli (GPa) = 97.13307 77.05152 66.64415
#
# Poissons Ratio (x) = 0.12334 0.22160
# Poissons Ratio (y) = 0.15549 0.31258
# Poissons Ratio (z) = 0.32297 0.36140
#
# Static dielectric constant tensor:
#      x y z
#    x 1.617880 0.000000 0.000000 
#    y 0.000000 1.657760 0.000000 
#    z 0.000000 0.000000 1.636420 
# 
# From -- ./inp_files/10758.got.cif
#   From: 2010.05.17/outbox.cif.g08.bks.cpg/sg55_6_cif.got.tgz:10758.got - 2010.06.03 13:27:54.
