data_PCOD9426704
_publ_section_title
;
Structure prediction by ZEFSAII (Michael W. Deem and Ramdas Pophale) SiO2 
 PCOD9426704
Probable space group: P B A M
;
_chemical_formula_sum "Si O2"
_cell_formula_units_Z 64
_cell_length_a 17.771903
_cell_length_b 22.657064
_cell_length_c 8.597751
_cell_angle_alpha 90.000000
_cell_angle_beta 90.000000
_cell_angle_gamma 90.000000
_cell_volume 3461.963055
_symmetry_space_group_name_H-M "P B A M"
_symmetry_group_IT_number 55
_symmetry_cell_setting 'orthorhombic'
loop_
_space_group_symop_operation_xyz
x,y,z
-x,-y,z
1/2+x,1/2-y,-z
1/2-x,1/2+y,-z
-x,-y,-z
x,y,-z
1/2-x,1/2+y,z
1/2+x,1/2-y,z
loop_
_atom_site_type_symbol
_atom_site_label
_atom_site_fract_x
_atom_site_fract_y
_atom_site_fract_z
Si Si1 0.920060 0.573067 0.687935
Si Si2 0.356230 0.474160 0.187051
Si Si3 0.159937 0.784168 0.685600
Si Si4 0.127364 0.105775 0.314078
Si Si5 0.213240 0.655324 0.309805
Si Si6 0.769519 0.618123 0.185127
Si Si7 0.911608 0.436346 0.688965
Si Si8 0.465514 0.367341 0.814145
O O1 0.915008 0.576571 0.500000
O O2 0.854946 0.611634 0.762313
O O3 0.906314 0.504756 0.734826
O O4 0.005809 0.587287 0.734101
O O5 0.364456 0.537488 0.264262
O O6 0.278055 0.441036 0.226410
O O7 0.421549 0.427667 0.233725
O O8 0.360119 0.481430 0.000000
O O9 0.152568 0.783186 0.500000
O O10 0.181210 0.718580 0.739896
O O11 0.226915 0.828135 0.733686
O O12 0.084374 0.812814 0.754666
O O13 0.124295 0.108848 0.500000
O O14 0.201866 0.140778 0.260141
O O15 0.049968 0.130988 0.246974
O O16 0.213289 0.655022 0.500000
O O17 0.156690 0.603867 0.256699
O O18 0.763333 0.625303 0.000000
O O19 0.910695 0.436286 0.500000
O O20 0.465350 0.366606 0.000000
#
# Coordination Sequence:
#
# PCOD9426704 Si02
#       8
#     8   8   8   8   8   8   8   8
#     4   9  16  29  54  83 107 136 177 216 261 323
#     4   9  19  34  52  76 109 147 175 208 267 321
#     4  10  20  37  58  75  98 138 186 227 263 307
#     4  11  21  33  55  86 111 135 175 222 265 319
#     4   9  19  35  53  77 108 138 174 226 274 308
#     4  10  20  34  52  76 110 144 175 218 268 317
#     4   8  15  30  52  79 109 138 170 218 272 315
#     4  10  21  38  56  77 111 147 176 215 266 319
#
# _framework density 18.486622000000001
#
# number of rings (size 3 to 8) (size 9 to 14) (size 15 to 20)
#    0.000    2.500    0.000    4.125    0.000    5.500 
#    2.250    3.750    0.000    3.750    0.000    0.000 
#    0.000    0.000    0.000    0.000    0.000    0.000 
#
# Total GULP energy -357131.548301 kJ/mol
# GULP energy per Si atom -5580.180442 kJ/mol
# Density = 1.844455 g / cm^3
# Si number density = 18.486622 Si / 1000 Ang^3
#
#
#
# Elastic Constant Matrix: (Units=GPa)
#
#
# Indices 1 2 3 4 5 6 
#
# 1 115.5057 40.8976 15.9527 0.0000 0.0000 0.0000
# 2 40.8976 71.7297 15.5881 0.0000 0.0000 0.0000
# 3 15.9527 15.5881 24.5991 0.0000 0.0000 0.0000
# 4 0.0000 0.0000 0.0000 -4.3250 0.0000 0.0000
# 5 0.0000 0.0000 0.0000 0.0000 15.3679 0.0000
# 6 0.0000 0.0000 0.0000 0.0000 0.0000 7.5796
#
#
#
# Elastic Compliance Matrix: (Units=1/GPa)
#
#
# Indices 1 2 3 4 5 6 
#
# 1 0.011132 -0.005541 -0.003708 0.000000 0.000000 0.000000
# 2 -0.005541 0.018926 -0.008400 0.000000 0.000000 0.000000
# 3 -0.003708 -0.008400 0.048379 0.000000 0.000000 0.000000
# 4 0.000000 0.000000 0.000000 -0.231215 0.000000 0.000000
# 5 0.000000 0.000000 0.000000 0.000000 0.065071 0.000000
# 6 0.000000 0.000000 0.000000 0.000000 0.000000 0.131932
#
#
# Mechanical properties :
#
#
# Convention : Reuss Voigt Hill
#
# Bulk Modulus (GPa) = 23.18044 39.63459 31.40751
# Shear Modulus (GPa) = 53.24764 13.01760 33.13262
#
# Velocity S-wave (km/s) = 5.37270 2.65649 4.23809
# Velocity P-wave (km/s) = 7.14521 5.55836 6.40115
#
# Compressibility (1/GPa) = 0.04313982
#
# Stress axis : x y z
#
# Youngs Moduli (GPa) = 89.83439 52.83747 20.67012
#
# Poissons Ratio (x) = 0.29278 0.07664
# Poissons Ratio (y) = 0.49778 0.17362
# Poissons Ratio (z) = 0.33307 0.44382
#
# Static dielectric constant tensor:
#      x y z
#    x 1.636630 0.000000 0.000000 
#    y 0.000000 1.619830 0.000000 
#    z 0.000000 0.000000 1.625620 
# 
# From -- ./inp_files/8079.got.cif
#   From: 2010.05.17/outbox.cif.g08.bks.cpg/sg55_5_cif.got.tgz:8079.got - 2010.06.03 13:27:54.
