data_PCOD9426876
_publ_section_title
;
Structure prediction by ZEFSAII (Michael W. Deem and Ramdas Pophale) SiO2 
 PCOD9426876
Probable space group: P B A M
;
_chemical_formula_sum "Si O2"
_cell_formula_units_Z 64
_cell_length_a 29.261003
_cell_length_b 14.601001
_cell_length_c 8.391262
_cell_angle_alpha 90.000000
_cell_angle_beta 90.000000
_cell_angle_gamma 90.000000
_cell_volume 3585.082224
_symmetry_space_group_name_H-M "P B A M"
_symmetry_group_IT_number 55
_symmetry_cell_setting 'orthorhombic'
loop_
_space_group_symop_operation_xyz
x,y,z
-x,-y,z
1/2+x,1/2-y,-z
1/2-x,1/2+y,-z
-x,-y,-z
x,y,-z
1/2-x,1/2+y,z
1/2+x,1/2-y,z
loop_
_atom_site_type_symbol
_atom_site_label
_atom_site_fract_x
_atom_site_fract_y
_atom_site_fract_z
Si Si1 0.625233 0.110063 0.807217
Si Si2 0.622942 0.402570 0.809162
Si Si3 0.126683 0.890725 0.309314
Si Si4 0.801599 0.758155 0.805758
Si Si5 0.122680 0.599192 0.192568
Si Si6 0.302592 0.246371 0.807358
Si Si7 0.551860 0.756564 0.692530
Si Si8 0.947401 0.754884 0.308928
O O1 0.669943 0.167975 0.757134
O O2 0.581682 0.167911 0.750087
O O3 0.625107 0.005407 0.751419
O O4 0.624720 0.109865 0.000000
O O5 0.623600 0.505898 0.749568
O O6 0.667777 0.345089 0.755954
O O7 0.579483 0.344665 0.749868
O O8 0.622550 0.402034 0.000000
O O9 0.127244 0.890110 0.500000
O O10 0.171407 0.837709 0.247421
O O11 0.083374 0.829067 0.255241
O O12 0.749489 0.759493 0.749955
O O13 0.800563 0.758676 0.000000
O O14 0.165877 0.660929 0.245542
O O15 0.077641 0.652576 0.248962
O O16 0.122910 0.598413 0.000000
O O17 0.301987 0.245764 0.000000
O O18 0.551741 0.757427 0.500000
O O19 0.499726 0.748855 0.747728
O O20 0.947370 0.755284 0.500000
#
# Coordination Sequence:
#
# PCOD9426876 Si02
#       8
#     8   8   8   8   8   8   8   8
#     4   9  18  33  50  73 103 133 164 206 254 298
#     4  10  20  35  54  77 102 131 166 207 250 296
#     4  10  20  35  52  73 102 134 165 204 250 298
#     4   8  16  31  52  74  99 129 163 201 243 290
#     4   9  18  31  50  74 100 128 164 207 248 288
#     4   9  17  32  53  76  99 130 169 206 242 289
#     4   9  20  36  52  70  98 133 167 202 248 301
#     4  10  20  35  53  73  97 130 168 207 248 298
#
# _framework density 17.851754
#
# number of rings (size 3 to 8) (size 9 to 14) (size 15 to 20)
#    0.000    2.750    0.000    1.875    0.000    4.000 
#    0.000   11.875    0.000    3.000    0.000    0.000 
#    0.000    0.000    0.000    0.000    0.000    0.000 
#
# Total GULP energy -356900.765754 kJ/mol
# GULP energy per Si atom -5576.574465 kJ/mol
# Density = 1.781112 g / cm^3
# Si number density = 17.851754 Si / 1000 Ang^3
#
#
#
# Elastic Constant Matrix: (Units=GPa)
#
#
# Indices 1 2 3 4 5 6 
#
# 1 173.9236 83.1118 17.6568 0.0000 0.0000 0.0000
# 2 83.1118 173.9961 17.1027 0.0000 0.0000 0.0000
# 3 17.6568 17.1027 13.3093 0.0000 0.0000 0.0000
# 4 0.0000 0.0000 0.0000 21.2445 0.0000 0.0000
# 5 0.0000 0.0000 0.0000 0.0000 72.0126 0.0000
# 6 0.0000 0.0000 0.0000 0.0000 0.0000 6.4681
#
#
#
# Elastic Compliance Matrix: (Units=1/GPa)
#
#
# Indices 1 2 3 4 5 6 
#
# 1 0.007906 -0.003142 -0.006451 0.000000 0.000000 0.000000
# 2 -0.003142 0.007827 -0.005889 0.000000 0.000000 0.000000
# 3 -0.006451 -0.005889 0.091261 0.000000 0.000000 0.000000
# 4 0.000000 0.000000 0.000000 0.047071 0.000000 0.000000
# 5 0.000000 0.000000 0.000000 0.000000 0.013886 0.000000
# 6 0.000000 0.000000 0.000000 0.000000 0.000000 0.154606
#
#
# Mechanical properties :
#
#
# Convention : Reuss Voigt Hill
#
# Bulk Modulus (GPa) = 13.15274 66.33019 39.74146
# Shear Modulus (GPa) = 13.19730 36.16888 24.68309
#
# Velocity S-wave (km/s) = 2.72191 4.50607 3.72246
# Velocity P-wave (km/s) = 4.15477 8.01933 6.38638
#
# Compressibility (1/GPa) = 0.07602980
#
# Stress axis : x y z
#
# Youngs Moduli (GPa) = 126.48315 127.76031 10.95759
#
# Poissons Ratio (x) = 0.40148 0.07068
# Poissons Ratio (y) = 0.39747 0.06453
# Poissons Ratio (z) = 0.81590 0.75240
#
# Static dielectric constant tensor:
#      x y z
#    x 1.602920 0.000000 0.000000 
#    y 0.000000 1.590360 0.000000 
#    z 0.000000 0.000000 1.617320 
# 
# From -- ./inp_files/10900.got.cif
#   From: 2010.05.17/outbox.cif.g08.bks.cpg/sg55_6_cif.got.tgz:10900.got - 2010.06.03 13:27:54.
