data_PCOD9426390
_publ_section_title
;
Structure prediction by ZEFSAII (Michael W. Deem and Ramdas Pophale) SiO2 
 PCOD9426390
Probable space group: P B A M
;
_chemical_formula_sum "Si O2"
_cell_formula_units_Z 64
_cell_length_a 31.174677
_cell_length_b 12.372360
_cell_length_c 7.975745
_cell_angle_alpha 90.000000
_cell_angle_beta 90.000000
_cell_angle_gamma 90.000000
_cell_volume 3076.279355
_symmetry_space_group_name_H-M "P B A M"
_symmetry_group_IT_number 55
_symmetry_cell_setting 'orthorhombic'
loop_
_space_group_symop_operation_xyz
x,y,z
-x,-y,z
1/2+x,1/2-y,-z
1/2-x,1/2+y,-z
-x,-y,-z
x,y,-z
1/2-x,1/2+y,z
1/2+x,1/2-y,z
loop_
_atom_site_type_symbol
_atom_site_label
_atom_site_fract_x
_atom_site_fract_y
_atom_site_fract_z
Si Si1 0.955877 0.555196 0.706193
Si Si2 0.621584 0.675052 0.198650
Si Si3 0.334724 0.729138 0.197481
Si Si4 0.049928 0.989473 0.702546
Si Si5 0.209730 0.439348 0.299535
Si Si6 0.693673 0.507746 0.202309
Si Si7 0.627957 0.924099 0.299594
Si Si8 0.073438 0.222575 0.693839
O O1 0.954859 0.557252 0.500000
O O2 0.914029 0.488617 0.763168
O O3 0.953809 0.679191 0.766529
O O4 0.000000 0.500000 0.756892
O O5 0.577112 0.612299 0.234605
O O6 0.660205 0.598376 0.265295
O O7 0.624093 0.796846 0.264544
O O8 0.626685 0.681977 0.000000
O O9 0.299990 0.821228 0.226624
O O10 0.320434 0.611495 0.258445
O O11 0.377735 0.761218 0.294053
O O12 0.344776 0.722993 0.000000
O O13 0.052166 0.983265 0.500000
O O14 0.070654 0.102180 0.765811
O O15 0.000000 0.000000 0.749274
O O16 0.206715 0.433307 0.500000
O O17 0.257524 0.473222 0.253062
O O18 0.172285 0.521178 0.237596
O O19 0.691618 0.508463 0.000000
O O20 0.628098 0.936797 0.500000
O O21 0.060307 0.210965 0.500000
#
# Coordination Sequence:
#
# PCOD9426390 Si02
#       8
#     8   8   8   8   8   8   8   8
#     4   9  18  34  60  88 117 154 193 242 297 350
#     4  11  24  42  61  85 122 162 201 243 297 360
#     4  11  22  40  64  87 119 158 197 244 299 358
#     4  10  22  38  62  93 122 156 202 251 299 354
#     4  11  24  41  63  92 121 153 198 252 303 353
#     4  10  24  43  61  86 119 160 202 242 296 360
#     4  10  22  40  60  87 121 154 198 248 297 353
#     4  10  19  36  61  89 118 152 201 251 295 346
#
# _framework density 20.804352000000002
#
# number of rings (size 3 to 8) (size 9 to 14) (size 15 to 20)
#    0.000    1.750    2.500    1.125    3.500    3.250 
#    0.000    0.000    0.000    0.750    0.000    0.000 
#    0.000    0.000    0.000    0.000    0.000    0.000 
#
# Total GULP energy -357420.957351 kJ/mol
# GULP energy per Si atom -5584.702459 kJ/mol
# Density = 2.075700 g / cm^3
# Si number density = 20.804352 Si / 1000 Ang^3
#
#
#
# Elastic Constant Matrix: (Units=GPa)
#
#
# Indices 1 2 3 4 5 6 
#
# 1 86.9443 14.1098 -6.2184 0.0000 0.0000 0.0000
# 2 14.1098 103.2269 -5.4323 0.0000 0.0000 0.0000
# 3 -6.2184 -5.4323 13.8416 0.0000 0.0000 0.0000
# 4 0.0000 0.0000 0.0000 6.3633 0.0000 0.0000
# 5 0.0000 0.0000 0.0000 0.0000 -404.5505 0.0000
# 6 0.0000 0.0000 0.0000 0.0000 0.0000 36.4557
#
#
#
# Elastic Compliance Matrix: (Units=1/GPa)
#
#
# Indices 1 2 3 4 5 6 
#
# 1 0.012077 -0.001394 0.004878 0.000000 0.000000 0.000000
# 2 -0.001394 0.010053 0.003319 0.000000 0.000000 0.000000
# 3 0.004878 0.003319 0.075740 0.000000 0.000000 0.000000
# 4 0.000000 0.000000 0.000000 0.157152 0.000000 0.000000
# 5 0.000000 0.000000 0.000000 0.000000 -0.002472 0.000000
# 6 0.000000 0.000000 0.000000 0.000000 0.000000 0.027431
#
#
# Mechanical properties :
#
#
# Convention : Reuss Voigt Hill
#
# Bulk Modulus (GPa) = 8.97052 23.21454 16.09253
# Shear Modulus (GPa) = 16.47273 -58.90939 -21.21833
#
# Velocity S-wave (km/s) = 2.81693 -5.32704 -3.19705
# Velocity P-wave (km/s) = 3.86023 5.16273 2.42409
#
# Compressibility (1/GPa) = 0.11147627
#
# Stress axis : x y z
#
# Youngs Moduli (GPa) = 82.80368 99.47673 13.20306
#
# Poissons Ratio (x) = 0.13867 -0.06441
# Poissons Ratio (y) = 0.11543 -0.04382
# Poissons Ratio (z) = -0.40395 -0.33016
#
# Static dielectric constant tensor:
#      x y z
#    x 1.737810 0.000000 0.000000 
#    y 0.000000 1.743740 0.000000 
#    z 0.000000 0.000000 1.766560 
# 
# From -- ./inp_files/4590.got.cif
#   From: 2010.05.17/outbox.cif.g08.bks.cpg/sg55_3_cif.got.tgz:4590.got - 2010.06.03 13:27:54.
