data_PCOD9426344
_publ_section_title
;
Structure prediction by ZEFSAII (Michael W. Deem and Ramdas Pophale) SiO2 
 PCOD9426344
Probable space group: P B A M
;
_chemical_formula_sum "Si O2"
_cell_formula_units_Z 64
_cell_length_a 24.252839
_cell_length_b 15.567926
_cell_length_c 7.551350
_cell_angle_alpha 90.000000
_cell_angle_beta 90.000000
_cell_angle_gamma 90.000000
_cell_volume 2851.136056
_symmetry_space_group_name_H-M "P B A M"
_symmetry_group_IT_number 55
_symmetry_cell_setting 'orthorhombic'
loop_
_space_group_symop_operation_xyz
x,y,z
-x,-y,z
1/2+x,1/2-y,-z
1/2-x,1/2+y,-z
-x,-y,-z
x,y,-z
1/2-x,1/2+y,z
1/2+x,1/2-y,z
loop_
_atom_site_type_symbol
_atom_site_label
_atom_site_fract_x
_atom_site_fract_y
_atom_site_fract_z
Si Si1 0.862716 0.494009 0.713333
Si Si2 0.666924 0.570758 0.289953
Si Si3 0.761862 0.228796 0.701932
Si Si4 0.858125 0.685281 0.794171
Si Si5 0.537781 0.579700 0.214203
Si Si6 0.745028 0.421617 0.283848
Si Si7 0.029200 0.589057 0.286204
Si Si8 0.032452 0.238084 0.205572
O O1 0.864661 0.499163 0.500000
O O2 0.878655 0.587445 0.782548
O O3 0.801054 0.470712 0.764963
O O4 0.907144 0.422673 0.766619
O O5 0.679027 0.571689 0.500000
O O6 0.697429 0.656796 0.217911
O O7 0.601481 0.573423 0.267275
O O8 0.694645 0.482041 0.222460
O O9 0.781691 0.243305 0.500000
O O10 0.700442 0.189855 0.700003
O O11 0.752529 0.323840 0.780955
O O12 0.906431 0.745666 0.718503
O O13 0.848721 0.706243 0.000000
O O14 0.500000 0.500000 0.270475
O O15 0.506668 0.664787 0.281508
O O16 0.538442 0.581340 0.000000
O O17 0.741310 0.416219 0.500000
O O18 0.025753 0.595389 0.500000
O O19 0.000000 0.500000 0.234987
O O20 0.999889 0.672384 0.212831
O O21 0.041930 0.215692 0.000000
#
# Coordination Sequence:
#
# PCOD9426344 Si02
#       8
#     8   8   8   8   8   8   8   8
#     4  10  19  36  58  82 117 154 188 229 285 351
#     4  10  21  39  63  91 119 148 193 248 296 347
#     4  10  21  38  61  86 117 153 185 235 300 350
#     4  11  22  36  57  85 116 150 196 241 285 347
#     4  10  24  45  64  81 114 164 209 249 297 346
#     4   9  19  36  59  85 113 149 188 230 292 356
#     4  10  20  33  56  88 116 149 192 232 281 348
#     4  10  23  40  57  81 116 158 197 240 294 345
#
# _framework density 22.447192000000001
#
# number of rings (size 3 to 8) (size 9 to 14) (size 15 to 20)
#    0.000    2.000    2.500    0.375    3.500    2.500 
#    0.000    0.625    0.000    0.000    0.000    0.000 
#    0.000    0.000    0.000    0.000    0.000    0.000 
#
# Total GULP energy -357376.258269 kJ/mol
# GULP energy per Si atom -5584.004035 kJ/mol
# Density = 2.239610 g / cm^3
# Si number density = 22.447192 Si / 1000 Ang^3
#
#
#
# Elastic Constant Matrix: (Units=GPa)
#
#
# Indices 1 2 3 4 5 6 
#
# 1 151.2237 66.1273 -4.6626 0.0000 0.0000 0.0000
# 2 66.1273 151.7956 0.8505 0.0000 0.0000 0.0000
# 3 -4.6626 0.8505 51.2314 0.0000 0.0000 0.0000
# 4 0.0000 0.0000 0.0000 4.0712 0.0000 0.0000
# 5 0.0000 0.0000 0.0000 0.0000 -6.7514 0.0000
# 6 0.0000 0.0000 0.0000 0.0000 0.0000 28.2020
#
#
#
# Elastic Compliance Matrix: (Units=1/GPa)
#
#
# Indices 1 2 3 4 5 6 
#
# 1 0.008202 -0.003578 0.000806 0.000000 0.000000 0.000000
# 2 -0.003578 0.008149 -0.000461 0.000000 0.000000 0.000000
# 3 0.000806 -0.000461 0.019600 0.000000 0.000000 0.000000
# 4 0.000000 0.000000 0.000000 0.245630 0.000000 0.000000
# 5 0.000000 0.000000 0.000000 0.000000 -0.148117 0.000000
# 6 0.000000 0.000000 0.000000 0.000000 0.000000 0.035459
#
#
# Mechanical properties :
#
#
# Convention : Reuss Voigt Hill
#
# Bulk Modulus (GPa) = 33.91447 53.20903 43.56175
# Shear Modulus (GPa) = 26.99538 24.56671 25.78104
#
# Velocity S-wave (km/s) = 3.47164 3.31179 3.39266
# Velocity P-wave (km/s) = 5.58669 6.19512 5.89875
#
# Compressibility (1/GPa) = 0.02948594
#
# Stress axis : x y z
#
# Youngs Moduli (GPa) = 121.92190 122.71596 51.01973
#
# Poissons Ratio (x) = 0.43903 -0.04111
# Poissons Ratio (y) = 0.43618 0.02351
# Poissons Ratio (z) = -0.09825 0.05656
#
# Static dielectric constant tensor:
#      x y z
#    x 1.809100 0.000000 0.000000 
#    y 0.000000 1.835860 0.000000 
#    z 0.000000 0.000000 1.870850 
# 
# From -- ./inp_files/9672.got.cif
#   From: 2010.05.17/outbox.cif.g08.bks.cpg/sg55_5_cif.got.tgz:9672.got - 2010.06.03 13:27:54.
