data_PCOD9426366
_publ_section_title
;
Structure prediction by ZEFSAII (Michael W. Deem and Ramdas Pophale) SiO2 
 PCOD9426366
Probable space group: P B A M
;
_chemical_formula_sum "Si O2"
_cell_formula_units_Z 64
_cell_length_a 14.285467
_cell_length_b 14.384827
_cell_length_c 15.483547
_cell_angle_alpha 90.000000
_cell_angle_beta 90.000000
_cell_angle_gamma 90.000000
_cell_volume 3181.775565
_symmetry_space_group_name_H-M "P B A M"
_symmetry_group_IT_number 55
_symmetry_cell_setting 'orthorhombic'
loop_
_space_group_symop_operation_xyz
x,y,z
-x,-y,z
1/2+x,1/2-y,-z
1/2-x,1/2+y,-z
-x,-y,-z
x,y,-z
1/2-x,1/2+y,z
1/2+x,1/2-y,z
loop_
_atom_site_type_symbol
_atom_site_label
_atom_site_fract_x
_atom_site_fract_y
_atom_site_fract_z
Si Si1 0.659920 0.311213 0.099136
Si Si2 0.175434 0.252963 0.397534
Si Si3 0.534809 0.675426 0.182290
Si Si4 0.429496 0.569555 0.335160
Si Si5 0.528134 0.101133 0.398361
Si Si6 0.756860 0.965741 0.227876
Si Si7 0.137323 0.686300 0.309577
Si Si8 0.275820 0.378293 0.900877
O O1 0.553879 0.289622 0.127809
O O2 0.698809 0.390317 0.161952
O O3 0.725909 0.221376 0.106685
O O4 0.660708 0.342573 0.000000
O O5 0.192936 0.261201 0.500000
O O6 0.111422 0.160994 0.381852
O O7 0.118124 0.342796 0.364224
O O8 0.271427 0.237998 0.346188
O O9 0.490655 0.607045 0.254104
O O10 0.587271 0.756227 0.234542
O O11 0.614194 0.628867 0.123084
O O12 0.500000 0.500000 0.383682
O O13 0.338086 0.516434 0.298383
O O14 0.545569 0.089762 0.500000
O O15 0.439278 0.167077 0.382510
O O16 0.500000 0.000000 0.363322
O O17 0.673290 0.912363 0.274116
O O18 0.732574 0.053610 0.170289
O O19 0.264522 0.409949 0.000000
#
# Coordination Sequence:
#
# PCOD9426366 Si02
#       8
#     8   8   8   8   8   8   8   8
#     4  10  22  38  56  82 117 149 192 242 289 353
#     4  10  22  40  61  88 123 158 197 246 300 358
#     4  11  21  37  59  86 114 154 199 236 294 347
#     4  10  19  36  59  87 119 149 193 247 290 355
#     4  10  22  41  63  89 123 165 205 243 299 366
#     4  10  21  36  57  88 115 151 198 242 292 348
#     4  11  22  38  63  87 120 159 199 255 294 351
#     4  11  22  38  61  85 118 157 193 243 303 356
#
# _framework density 20.114556
#
# number of rings (size 3 to 8) (size 9 to 14) (size 15 to 20)
#    0.000    1.625    3.750    1.125    0.000    2.250 
#    0.000    1.875    0.000    1.500    0.000    0.000 
#    0.000    0.000    0.000    0.000    0.000    0.000 
#
# Total GULP energy -357341.089276 kJ/mol
# GULP energy per Si atom -5583.454520 kJ/mol
# Density = 2.006877 g / cm^3
# Si number density = 20.114556 Si / 1000 Ang^3
#
#
#
# Elastic Constant Matrix: (Units=GPa)
#
#
# Indices 1 2 3 4 5 6 
#
# 1 79.1895 4.5557 9.6315 0.0000 0.0000 0.0000
# 2 4.5557 31.4847 -0.1635 0.0000 0.0000 0.0000
# 3 9.6315 -0.1635 38.6257 0.0000 0.0000 0.0000
# 4 0.0000 0.0000 0.0000 27.2650 0.0000 0.0000
# 5 0.0000 0.0000 0.0000 0.0000 24.4129 0.0000
# 6 0.0000 0.0000 0.0000 0.0000 0.0000 27.8496
#
#
#
# Elastic Compliance Matrix: (Units=1/GPa)
#
#
# Indices 1 2 3 4 5 6 
#
# 1 0.013138 -0.001918 -0.003284 0.000000 0.000000 0.000000
# 2 -0.001918 0.032042 0.000614 0.000000 0.000000 0.000000
# 3 -0.003284 0.000614 0.026711 0.000000 0.000000 0.000000
# 4 0.000000 0.000000 0.000000 0.036677 0.000000 0.000000
# 5 0.000000 0.000000 0.000000 0.000000 0.040962 0.000000
# 6 0.000000 0.000000 0.000000 0.000000 0.000000 0.035907
#
#
# Mechanical properties :
#
#
# Convention : Reuss Voigt Hill
#
# Bulk Modulus (GPa) = 15.94525 19.70524 17.82524
# Shear Modulus (GPa) = 23.19989 24.92392 24.06191
#
# Velocity S-wave (km/s) = 3.39984 3.52390 3.46243
# Velocity P-wave (km/s) = 4.83284 5.13565 4.98655
#
# Compressibility (1/GPa) = 0.06271460
#
# Stress axis : x y z
#
# Youngs Moduli (GPa) = 76.11684 31.20886 37.43777
#
# Poissons Ratio (x) = 0.05986 0.12295
# Poissons Ratio (y) = 0.14599 -0.02298
# Poissons Ratio (z) = 0.24997 -0.01916
#
# Static dielectric constant tensor:
#      x y z
#    x 1.696900 0.000000 0.000000 
#    y 0.000000 1.733500 0.000000 
#    z 0.000000 0.000000 1.701390 
# 
# From -- ./inp_files/21335.got.cif
#   From: 2010.05.17/outbox.cif.g08.bks.cpg/sg55_11_cif.got.tgz:21335.got - 2010.06.03 13:27:54.
