data_PCOD9426940
_publ_section_title
;
Structure prediction by ZEFSAII (Michael W. Deem and Ramdas Pophale) SiO2 
 PCOD9426940
Probable space group: P B A M
;
_chemical_formula_sum "Si O2"
_cell_formula_units_Z 64
_cell_length_a 19.528260
_cell_length_b 8.938096
_cell_length_c 19.153150
_cell_angle_alpha 90.000000
_cell_angle_beta 90.000000
_cell_angle_gamma 90.000000
_cell_volume 3343.095427
_symmetry_space_group_name_H-M "P B A M"
_symmetry_group_IT_number 55
_symmetry_cell_setting 'orthorhombic'
loop_
_space_group_symop_operation_xyz
x,y,z
-x,-y,z
1/2+x,1/2-y,-z
1/2-x,1/2+y,-z
-x,-y,-z
x,y,-z
1/2-x,1/2+y,z
1/2+x,1/2-y,z
loop_
_atom_site_type_symbol
_atom_site_label
_atom_site_fract_x
_atom_site_fract_y
_atom_site_fract_z
Si Si1 0.309766 0.377600 0.294900
Si Si2 0.578623 0.061443 0.920216
Si Si3 0.479765 0.659691 0.152796
Si Si4 0.837327 0.549041 0.309192
Si Si5 0.846229 0.321760 0.579760
Si Si6 0.594293 0.351342 0.701319
Si Si7 0.501970 0.680793 0.424644
Si Si8 0.884650 0.341324 0.804319
O O1 0.240873 0.471440 0.284601
O O2 0.303194 0.272397 0.363286
O O3 0.370731 0.491144 0.314368
O O4 0.330770 0.279262 0.227160
O O5 0.568224 0.229885 0.891954
O O6 0.500000 0.000000 0.918809
O O7 0.623801 0.954970 0.869777
O O8 0.602472 0.057741 0.000000
O O9 0.500000 0.500000 0.119663
O O10 0.441428 0.628054 0.224870
O O11 0.548154 0.748665 0.175108
O O12 0.846128 0.487580 0.387343
O O13 0.849983 0.722058 0.296597
O O14 0.889743 0.454244 0.261464
O O15 0.821642 0.316033 0.500000
O O16 0.922711 0.251832 0.580916
O O17 0.541677 0.289466 0.643881
O O18 0.500000 0.500000 0.427204
O O19 0.473244 0.733004 0.500000
#
# Coordination Sequence:
#
# PCOD9426940 Si02
#       8
#     8   8   8   8   8   8   8   8
#     4  11  22  38  58  81 112 156 203 245 295 353
#     4   9  19  36  60  91 125 155 181 224 291 352
#     4  11  20  33  59  93 122 155 192 233 296 354
#     4  11  24  37  54  83 114 153 198 245 297 352
#     4  10  22  40  57  79 113 150 195 252 308 363
#     4  12  20  34  58  84 112 147 199 247 297 357
#     4  10  20  35  56  79 107 146 190 244 306 359
#     4  10  20  38  58  84 117 152 193 244 290 344
#
# _framework density 19.143934999999999
#
# number of rings (size 3 to 8) (size 9 to 14) (size 15 to 20)
#    0.000    1.500    3.750    3.375    0.000    2.750 
#    0.000    2.500    0.000    0.750    0.000    0.000 
#    0.000    0.000    0.000    0.000    0.000    0.000 
#
# Total GULP energy -356547.899105 kJ/mol
# GULP energy per Si atom -5571.060924 kJ/mol
# Density = 1.910036 g / cm^3
# Si number density = 19.143935 Si / 1000 Ang^3
#
#
#
# Elastic Constant Matrix: (Units=GPa)
#
#
# Indices 1 2 3 4 5 6 
#
# 1 36.2373 16.8872 18.2574 0.0000 0.0000 0.0000
# 2 16.8872 99.4671 34.6854 0.0000 0.0000 0.0000
# 3 18.2574 34.6854 87.1989 0.0000 0.0000 0.0000
# 4 0.0000 0.0000 0.0000 14.7522 0.0000 0.0000
# 5 0.0000 0.0000 0.0000 0.0000 -7.3940 0.0000
# 6 0.0000 0.0000 0.0000 0.0000 0.0000 29.9009
#
#
#
# Elastic Compliance Matrix: (Units=1/GPa)
#
#
# Indices 1 2 3 4 5 6 
#
# 1 0.031915 -0.003586 -0.005256 0.000000 0.000000 0.000000
# 2 -0.003586 0.012075 -0.004053 0.000000 0.000000 0.000000
# 3 -0.005256 -0.004053 0.014181 0.000000 0.000000 0.000000
# 4 0.000000 0.000000 0.000000 0.067787 0.000000 0.000000
# 5 0.000000 0.000000 0.000000 0.000000 -0.135244 0.000000
# 6 0.000000 0.000000 0.000000 0.000000 0.000000 0.033444
#
#
# Mechanical properties :
#
#
# Convention : Reuss Voigt Hill
#
# Bulk Modulus (GPa) = 30.88071 40.28480 35.58276
# Shear Modulus (GPa) = 82.31849 17.65671 49.98760
#
# Velocity S-wave (km/s) = 6.56454 3.04026 5.11548
# Velocity P-wave (km/s) = 8.58040 5.78040 7.31561
#
# Compressibility (1/GPa) = 0.03238267
#
# Stress axis : x y z
#
# Youngs Moduli (GPa) = 31.33332 82.81234 70.51935
#
# Poissons Ratio (x) = 0.29693 0.37065
# Poissons Ratio (y) = 0.11235 0.28578
# Poissons Ratio (z) = 0.16469 0.33560
#
# Static dielectric constant tensor:
#      x y z
#    x 1.706490 0.000000 0.000000 
#    y 0.000000 1.743800 0.000000 
#    z 0.000000 0.000000 1.664350 
# 
# From -- ./inp_files/21968.got.cif
#   From: 2010.05.17/outbox.cif.g08.bks.cpg/sg55_11_cif.got.tgz:21968.got - 2010.06.03 13:27:54.
