data_PCOD9426063
_publ_section_title
;
Structure prediction by ZEFSAII (Michael W. Deem and Ramdas Pophale) SiO2 
 PCOD9426063
Probable space group: P B A M
;
_chemical_formula_sum "Si O2"
_cell_formula_units_Z 48
_cell_length_a 9.411024
_cell_length_b 21.926212
_cell_length_c 12.862597
_cell_angle_alpha 90.000000
_cell_angle_beta 90.000000
_cell_angle_gamma 90.000000
_cell_volume 2654.172547
_symmetry_space_group_name_H-M "P B A M"
_symmetry_group_IT_number 55
_symmetry_cell_setting 'orthorhombic'
loop_
_space_group_symop_operation_xyz
x,y,z
-x,-y,z
1/2+x,1/2-y,-z
1/2-x,1/2+y,-z
-x,-y,-z
x,y,-z
1/2-x,1/2+y,z
1/2+x,1/2-y,z
loop_
_atom_site_type_symbol
_atom_site_label
_atom_site_fract_x
_atom_site_fract_y
_atom_site_fract_z
Si Si1 0.585632 0.124834 0.620579
Si Si2 0.936209 0.905648 0.693747
Si Si3 0.500594 0.318647 0.878898
Si Si4 0.783762 0.722185 0.219534
Si Si5 0.788674 0.318574 0.614204
Si Si6 0.707571 0.522279 0.621333
O O1 0.627277 0.139686 0.500000
O O2 0.650389 0.170878 0.705125
O O3 0.416704 0.133435 0.625306
O O4 0.645863 0.057369 0.640315
O O5 0.959443 0.876153 0.806344
O O6 0.859813 0.853316 0.627190
O O7 0.083478 0.928337 0.644354
O O8 0.833167 0.964244 0.690145
O O9 0.596729 0.261704 0.839433
O O10 0.335419 0.304333 0.856509
O O11 0.525943 0.329277 0.000000
O O12 0.703014 0.768529 0.297042
O O13 0.800215 0.290568 0.500000
O O14 0.699834 0.503691 0.500000
#
# Coordination Sequence:
#
# PCOD9426063 Si02
#       6
#     8   8   8   8   8   8
#     4  10  20  33  53  82 115 146 177 212 267 336
#     4  10  20  35  55  78 110 143 181 223 267 316
#     4  11  23  38  59  78 102 142 189 234 273 313
#     4  11  20  38  54  80 112 138 178 227 279 321
#     4  10  20  33  52  82 114 146 176 211 268 333
#     4  10  19  34  56  83 113 145 177 215 273 330
#
# _framework density 18.084733
#
# number of rings (size 3 to 8) (size 9 to 14) (size 15 to 20)
#    0.000    1.667    3.333    3.000    0.000    0.667 
#    0.000    4.167    0.000    0.000    0.000    2.333 
#    0.000    0.000    0.000    0.000    0.000    0.000 
#
# Total GULP energy -267831.476363 kJ/mol
# GULP energy per Si atom -5579.822424 kJ/mol
# Density = 1.804357 g / cm^3
# Si number density = 18.084733 Si / 1000 Ang^3
#
#
#
# Elastic Constant Matrix: (Units=GPa)
#
#
# Indices 1 2 3 4 5 6 
#
# 1 45.7623 7.0327 25.1537 0.0000 0.0000 0.0000
# 2 7.0327 49.1157 24.1255 0.0000 0.0000 0.0000
# 3 25.1537 24.1255 90.7146 0.0000 0.0000 0.0000
# 4 0.0000 0.0000 0.0000 14.6472 0.0000 0.0000
# 5 0.0000 0.0000 0.0000 0.0000 19.9670 0.0000
# 6 0.0000 0.0000 0.0000 0.0000 0.0000 25.0324
#
#
#
# Elastic Compliance Matrix: (Units=1/GPa)
#
#
# Indices 1 2 3 4 5 6 
#
# 1 0.025783 -0.000207 -0.007094 0.000000 0.000000 0.000000
# 2 -0.000207 0.023421 -0.006171 0.000000 0.000000 0.000000
# 3 -0.007094 -0.006171 0.014632 0.000000 0.000000 0.000000
# 4 0.000000 0.000000 0.000000 0.068272 0.000000 0.000000
# 5 0.000000 0.000000 0.000000 0.000000 0.050083 0.000000
# 6 0.000000 0.000000 0.000000 0.000000 0.000000 0.039948
#
#
# Mechanical properties :
#
#
# Convention : Reuss Voigt Hill
#
# Bulk Modulus (GPa) = 27.10699 33.13515 30.12107
# Shear Modulus (GPa) = 19.12909 20.54804 19.83857
#
# Velocity S-wave (km/s) = 3.25583 3.37443 3.31566
# Velocity P-wave (km/s) = 5.39957 5.79174 5.59909
#
# Compressibility (1/GPa) = 0.03689085
#
# Stress axis : x y z
#
# Youngs Moduli (GPa) = 38.78489 42.69650 68.34364
#
# Poissons Ratio (x) = 0.00885 0.48484
# Poissons Ratio (y) = 0.00804 0.42177
# Poissons Ratio (z) = 0.27515 0.26350
#
# Static dielectric constant tensor:
#      x y z
#    x 1.641980 0.000000 0.000000 
#    y 0.000000 1.629060 0.000000 
#    z 0.000000 0.000000 1.581780 
# 
# From -- ./inp_files/12219.got.cif
#   From: 2010.05.17/outbox.cif.g08.bks.cpg/sg55_7_cif.got.tgz:12219.got - 2010.06.03 13:27:54.
