data_PCOD9426603
_publ_section_title
;
Structure prediction by ZEFSAII (Michael W. Deem and Ramdas Pophale) SiO2 
 PCOD9426603
Probable space group: P B A M
;
_chemical_formula_sum "Si O2"
_cell_formula_units_Z 48
_cell_length_a 15.912072
_cell_length_b 19.152042
_cell_length_c 7.701530
_cell_angle_alpha 90.000000
_cell_angle_beta 90.000000
_cell_angle_gamma 90.000000
_cell_volume 2347.031034
_symmetry_space_group_name_H-M "P B A M"
_symmetry_group_IT_number 55
_symmetry_cell_setting 'orthorhombic'
loop_
_space_group_symop_operation_xyz
x,y,z
-x,-y,z
1/2+x,1/2-y,-z
1/2-x,1/2+y,-z
-x,-y,-z
x,y,-z
1/2-x,1/2+y,z
1/2+x,1/2-y,z
loop_
_atom_site_type_symbol
_atom_site_label
_atom_site_fract_x
_atom_site_fract_y
_atom_site_fract_z
Si Si1 0.160658 0.085362 0.290267
Si Si2 0.647964 0.574301 0.712766
Si Si3 0.500742 0.166101 0.289687
Si Si4 0.651937 0.934920 0.800550
Si Si5 0.496887 0.674363 0.712575
Si Si6 0.834079 0.590642 0.699322
O O1 0.160893 0.086005 0.500000
O O2 0.256186 0.097528 0.232775
O O3 0.091273 0.140436 0.231109
O O4 0.136136 0.006497 0.235572
O O5 0.649192 0.574431 0.500000
O O6 0.573466 0.624841 0.768386
O O7 0.740480 0.597584 0.775025
O O8 0.503622 0.166126 0.500000
O O9 0.421909 0.118490 0.240508
O O10 0.492710 0.245937 0.231099
O O11 0.587467 0.131856 0.223190
O O12 0.646337 0.007878 0.698669
O O13 0.646220 0.955748 0.000000
O O14 0.497035 0.674066 0.500000
O O15 0.827079 0.614744 0.500000
#
# Coordination Sequence:
#
# PCOD9426603 Si02
#       6
#     8   8   8   8   8   8
#     4   9  17  32  55  79 102 131 167 207 248 292
#     4   8  14  27  50  79 105 127 159 205 250 293
#     4  10  20  33  51  77 106 134 166 206 252 302
#     4  11  22  35  52  73  98 133 174 213 253 296
#     4   9  17  29  51  82 108 131 162 202 250 302
#     4   9  18  33  53  75  99 130 168 211 255 297
#
# _framework density 20.451369
#
# number of rings (size 3 to 8) (size 9 to 14) (size 15 to 20)
#    0.000    2.667    0.000    3.500    0.000    6.000 
#    0.000    5.833    0.000   16.000    0.000    0.000 
#    0.000    0.000    0.000    0.000    0.000    0.000 
#
# Total GULP energy -267891.153162 kJ/mol
# GULP energy per Si atom -5581.065691 kJ/mol
# Density = 2.040482 g / cm^3
# Si number density = 20.451369 Si / 1000 Ang^3
#
#
#
# Elastic Constant Matrix: (Units=GPa)
#
#
# Indices 1 2 3 4 5 6 
#
# 1 88.6573 38.5333 -4.8253 0.0000 0.0000 0.0000
# 2 38.5333 39.4451 -7.5001 0.0000 0.0000 0.0000
# 3 -4.8253 -7.5001 39.2460 0.0000 0.0000 0.0000
# 4 0.0000 0.0000 0.0000 -16.8938 0.0000 0.0000
# 5 0.0000 0.0000 0.0000 0.0000 -22.1389 0.0000
# 6 0.0000 0.0000 0.0000 0.0000 0.0000 -6.7388
#
#
#
# Elastic Compliance Matrix: (Units=1/GPa)
#
#
# Indices 1 2 3 4 5 6 
#
# 1 0.019666 -0.019459 -0.001301 0.000000 0.000000 0.000000
# 2 -0.019459 0.045561 0.006315 0.000000 0.000000 0.000000
# 3 -0.001301 0.006315 0.026527 0.000000 0.000000 0.000000
# 4 0.000000 0.000000 0.000000 -0.059193 0.000000 0.000000
# 5 0.000000 0.000000 0.000000 0.000000 -0.045169 0.000000
# 6 0.000000 0.000000 0.000000 0.000000 0.000000 -0.148394
#
#
# Mechanical properties :
#
#
# Convention : Reuss Voigt Hill
#
# Bulk Modulus (GPa) = 15.90720 24.41823 20.16272
# Shear Modulus (GPa) = -44.98091 0.25508 -22.36292
#
# Velocity S-wave (km/s) = -4.69487 0.35355 -3.31035
# Velocity P-wave (km/s) = 4.64695 3.48314 2.17508
#
# Compressibility (1/GPa) = 0.06286462
#
# Stress axis : x y z
#
# Youngs Moduli (GPa) = 50.84930 21.94848 37.69727
#
# Poissons Ratio (x) = 0.42709 0.04903
# Poissons Ratio (y) = 0.98946 -0.23804
# Poissons Ratio (z) = 0.06614 -0.13860
#
# Static dielectric constant tensor:
#      x y z
#    x 1.713670 0.000000 0.000000 
#    y 0.000000 1.685900 0.000000 
#    z 0.000000 0.000000 1.760300 
# 
# From -- ./inp_files/5588.got.cif
#   From: 2010.05.17/outbox.cif.g08.bks.cpg/sg55_3_cif.got.tgz:5588.got - 2010.06.03 13:27:54.
