data_PCOD9426263
_publ_section_title
;
Structure prediction by ZEFSAII (Michael W. Deem and Ramdas Pophale) SiO2 
 PCOD9426263
Probable space group: P B A M
;
_chemical_formula_sum "Si O2"
_cell_formula_units_Z 64
_cell_length_a 24.131326
_cell_length_b 15.846951
_cell_length_c 7.608714
_cell_angle_alpha 90.000000
_cell_angle_beta 90.000000
_cell_angle_gamma 90.000000
_cell_volume 2909.632652
_symmetry_space_group_name_H-M "P B A M"
_symmetry_group_IT_number 55
_symmetry_cell_setting 'orthorhombic'
loop_
_space_group_symop_operation_xyz
x,y,z
-x,-y,z
1/2+x,1/2-y,-z
1/2-x,1/2+y,-z
-x,-y,-z
x,y,-z
1/2-x,1/2+y,z
1/2+x,1/2-y,z
loop_
_atom_site_type_symbol
_atom_site_label
_atom_site_fract_x
_atom_site_fract_y
_atom_site_fract_z
Si Si1 0.245921 0.837086 0.287608
Si Si2 0.623711 0.606675 0.713771
Si Si3 0.857407 0.580882 0.712803
Si Si4 0.133566 0.606582 0.794430
Si Si5 0.872864 0.919589 0.297564
Si Si6 0.080727 0.253117 0.703188
Si Si7 0.545187 0.760280 0.793605
Si Si8 0.744182 0.357138 0.206059
O O1 0.245503 0.835281 0.500000
O O2 0.184434 0.861311 0.227347
O O3 0.293625 0.902582 0.233696
O O4 0.262281 0.743549 0.226450
O O5 0.624722 0.605613 0.500000
O O6 0.614270 0.511365 0.778317
O O7 0.577324 0.672370 0.771316
O O8 0.859641 0.577387 0.500000
O O9 0.879379 0.491776 0.778861
O O10 0.891992 0.661871 0.776426
O O11 0.086376 0.667582 0.720587
O O12 0.195099 0.621230 0.719267
O O13 0.138102 0.630170 0.000000
O O14 0.892282 0.923048 0.500000
O O15 0.899324 0.835424 0.215454
O O16 0.806794 0.904878 0.294271
O O17 0.100350 0.250696 0.500000
O O18 0.014829 0.258758 0.707991
O O19 0.535719 0.776283 0.000000
O O20 0.742256 0.379073 0.000000
#
# Coordination Sequence:
#
# PCOD9426263 Si02
#       8
#     8   8   8   8   8   8   8   8
#     4  10  19  35  59  89 120 150 189 235 289 346
#     4  10  21  37  63  91 115 152 195 238 291 345
#     4  10  21  38  62  90 117 150 193 243 292 342
#     4  10  23  40  57  84 120 157 192 234 290 346
#     4  10  21  40  63  88 120 152 190 243 294 346
#     4  10  22  41  62  85 115 150 197 248 293 343
#     4  11  24  42  60  81 118 158 197 243 291 347
#     4  11  21  35  58  88 121 157 193 231 287 352
#
# _framework density 21.995902999999998
#
# number of rings (size 3 to 8) (size 9 to 14) (size 15 to 20)
#    0.000    1.750    2.500    1.500    0.000    6.000 
#    0.000    5.000    0.000    0.000    0.000    0.000 
#    0.000    0.000    0.000    0.000    0.000    0.000 
#
# Total GULP energy -357726.881145 kJ/mol
# GULP energy per Si atom -5589.482518 kJ/mol
# Density = 2.194584 g / cm^3
# Si number density = 21.995903 Si / 1000 Ang^3
#
#
#
# Elastic Constant Matrix: (Units=GPa)
#
#
# Indices 1 2 3 4 5 6 
#
# 1 95.1983 23.1573 -10.7238 0.0000 0.0000 0.0000
# 2 23.1573 112.2884 -12.5148 0.0000 0.0000 0.0000
# 3 -10.7238 -12.5148 47.9411 0.0000 0.0000 0.0000
# 4 0.0000 0.0000 0.0000 24.2320 0.0000 0.0000
# 5 0.0000 0.0000 0.0000 0.0000 -5.0608 0.0000
# 6 0.0000 0.0000 0.0000 0.0000 0.0000 6.8008
#
#
#
# Elastic Compliance Matrix: (Units=1/GPa)
#
#
# Indices 1 2 3 4 5 6 
#
# 1 0.011236 -0.002098 0.001966 0.000000 0.000000 0.000000
# 2 -0.002098 0.009564 0.002027 0.000000 0.000000 0.000000
# 3 0.001966 0.002027 0.021828 0.000000 0.000000 0.000000
# 4 0.000000 0.000000 0.000000 0.041268 0.000000 0.000000
# 5 0.000000 0.000000 0.000000 0.000000 -0.197597 0.000000
# 6 0.000000 0.000000 0.000000 0.000000 0.000000 0.147042
#
#
# Mechanical properties :
#
#
# Convention : Reuss Voigt Hill
#
# Bulk Modulus (GPa) = 21.54330 28.36280 24.95305
# Shear Modulus (GPa) = 111.05138 22.22833 66.63986
#
# Velocity S-wave (km/s) = 7.11315 3.18239 5.51020
# Velocity P-wave (km/s) = 8.79079 5.14063 7.20084
#
# Compressibility (1/GPa) = 0.04641815
#
# Stress axis : x y z
#
# Youngs Moduli (GPa) = 88.99803 104.55538 45.81299
#
# Poissons Ratio (x) = 0.21938 -0.09005
# Poissons Ratio (y) = 0.18673 -0.09288
# Poissons Ratio (z) = -0.17494 -0.21197
#
# Static dielectric constant tensor:
#      x y z
#    x 1.772010 0.000000 0.000000 
#    y 0.000000 1.799220 0.000000 
#    z 0.000000 0.000000 1.831800 
# 
# From -- ./inp_files/6554.got.cif
#   From: 2010.05.17/outbox.cif.g08.bks.cpg/sg55_4_cif.got.tgz:6554.got - 2010.06.03 13:27:54.
