data_PCOD9426153
_publ_section_title
;
Structure prediction by ZEFSAII (Michael W. Deem and Ramdas Pophale) SiO2 
 PCOD9426153
Probable space group: P B A M
;
_chemical_formula_sum "Si O2"
_cell_formula_units_Z 48
_cell_length_a 28.509362
_cell_length_b 9.682032
_cell_length_c 7.648639
_cell_angle_alpha 90.000000
_cell_angle_beta 90.000000
_cell_angle_gamma 90.000000
_cell_volume 2111.242772
_symmetry_space_group_name_H-M "P B A M"
_symmetry_group_IT_number 55
_symmetry_cell_setting 'orthorhombic'
loop_
_space_group_symop_operation_xyz
x,y,z
-x,-y,z
1/2+x,1/2-y,-z
1/2-x,1/2+y,-z
-x,-y,-z
x,y,-z
1/2-x,1/2+y,z
1/2+x,1/2-y,z
loop_
_atom_site_type_symbol
_atom_site_label
_atom_site_fract_x
_atom_site_fract_y
_atom_site_fract_z
Si Si1 0.486484 0.651245 0.213573
Si Si2 0.230995 0.677562 0.694833
Si Si3 0.644564 0.014210 0.787415
Si Si4 0.193559 0.973326 0.804137
Si Si5 0.879344 0.816817 0.785677
Si Si6 0.043477 0.594374 0.787079
O O1 0.500000 0.500000 0.271206
O O2 0.433749 0.690571 0.267852
O O3 0.527330 0.754803 0.268151
O O4 0.485596 0.654405 0.000000
O O5 0.249737 0.663471 0.500000
O O6 0.184613 0.584646 0.716163
O O7 0.217526 0.837293 0.724847
O O8 0.269711 0.600368 0.810318
O O9 0.646672 0.175018 0.734564
O O10 0.593875 0.957620 0.730003
O O11 0.647260 0.009732 0.000000
O O12 0.147380 0.045280 0.724406
O O13 0.180997 0.928155 0.000000
O O14 0.878657 0.820422 0.000000
O O15 0.000000 0.500000 0.732102
O O16 0.044951 0.588896 0.000000
#
# Coordination Sequence:
#
# PCOD9426153 Si02
#       6
#     8   8   8   8   8   8
#     4   9  16  25  42  76 122 156 184 232 298 355
#     4  12  26  43  62  88 121 157 195 245 307 369
#     4  10  19  34  59  89 120 156 201 249 298 356
#     4  11  23  41  65  90 117 152 200 251 299 358
#     4   9  18  32  53  86 121 151 188 243 301 351
#     4   9  15  26  47  80 119 154 191 243 300 349
#
# _framework density 22.735424999999999
#
# number of rings (size 3 to 8) (size 9 to 14) (size 15 to 20)
#    0.000    2.000    1.667    3.000    2.333    1.333 
#    0.000    0.833    0.000    0.500    0.000    1.167 
#    0.000    0.000    0.000    0.000    0.000    0.000 
#
# Total GULP energy -268114.164099 kJ/mol
# GULP energy per Si atom -5585.711752 kJ/mol
# Density = 2.268368 g / cm^3
# Si number density = 22.735425 Si / 1000 Ang^3
#
#
#
# Elastic Constant Matrix: (Units=GPa)
#
#
# Indices 1 2 3 4 5 6 
#
# 1 63.0860 4.8498 -9.3169 0.0000 0.0000 0.0000
# 2 4.8498 121.5496 1.1181 0.0000 0.0000 0.0000
# 3 -9.3169 1.1181 53.6680 0.0000 0.0000 0.0000
# 4 0.0000 0.0000 0.0000 20.5226 0.0000 0.0000
# 5 0.0000 0.0000 0.0000 0.0000 178.4124 0.0000
# 6 0.0000 0.0000 0.0000 0.0000 0.0000 41.0003
#
#
#
# Elastic Compliance Matrix: (Units=1/GPa)
#
#
# Indices 1 2 3 4 5 6 
#
# 1 0.016324 -0.000678 0.002848 0.000000 0.000000 0.000000
# 2 -0.000678 0.008257 -0.000290 0.000000 0.000000 0.000000
# 3 0.002848 -0.000290 0.019134 0.000000 0.000000 0.000000
# 4 0.000000 0.000000 0.000000 0.048727 0.000000 0.000000
# 5 0.000000 0.000000 0.000000 0.000000 0.005605 0.000000
# 6 0.000000 0.000000 0.000000 0.000000 0.000000 0.024390
#
#
# Mechanical properties :
#
#
# Convention : Reuss Voigt Hill
#
# Bulk Modulus (GPa) = 21.06322 25.73396 23.39859
# Shear Modulus (GPa) = 37.17477 64.09724 50.63600
#
# Velocity S-wave (km/s) = 4.04803 5.31544 4.72443
# Velocity P-wave (km/s) = 5.57972 7.00109 6.33043
#
# Compressibility (1/GPa) = 0.04747613
#
# Stress axis : x y z
#
# Youngs Moduli (GPa) = 61.25918 121.11243 52.26421
#
# Poissons Ratio (x) = 0.08206 -0.14885
# Poissons Ratio (y) = 0.04151 0.01514
# Poissons Ratio (z) = -0.17447 0.03508
#
# Static dielectric constant tensor:
#      x y z
#    x 1.820570 0.000000 0.000000 
#    y 0.000000 1.852430 0.000000 
#    z 0.000000 0.000000 1.872030 
# 
# From -- ./inp_files/2780.got.cif
#   From: 2010.05.17/outbox.cif.g08.bks.cpg/sg55_2_cif.got.tgz:2780.got - 2010.06.03 13:27:54.
