data_PCOD9426660
_publ_section_title
;
Structure prediction by ZEFSAII (Michael W. Deem and Ramdas Pophale) SiO2 
 PCOD9426660
Probable space group: P B A M
;
_chemical_formula_sum "Si O2"
_cell_formula_units_Z 64
_cell_length_a 11.304950
_cell_length_b 31.848298
_cell_length_c 9.298768
_cell_angle_alpha 90.000000
_cell_angle_beta 90.000000
_cell_angle_gamma 90.000000
_cell_volume 3347.960200
_symmetry_space_group_name_H-M "P B A M"
_symmetry_group_IT_number 55
_symmetry_cell_setting 'orthorhombic'
loop_
_space_group_symop_operation_xyz
x,y,z
-x,-y,z
1/2+x,1/2-y,-z
1/2-x,1/2+y,-z
-x,-y,-z
x,y,-z
1/2-x,1/2+y,z
1/2+x,1/2-y,z
loop_
_atom_site_type_symbol
_atom_site_label
_atom_site_fract_x
_atom_site_fract_y
_atom_site_fract_z
Si Si1 0.425062 0.766303 0.666942
Si Si2 0.939801 0.607283 0.837879
Si Si3 0.650853 0.326032 0.337001
Si Si4 0.744886 0.681073 0.163452
Si Si5 0.570018 0.622455 0.330705
Si Si6 0.884209 0.026019 0.325055
Si Si7 0.613146 0.822267 0.829854
Si Si8 0.618196 0.024822 0.673061
O O1 0.423430 0.779335 0.500000
O O2 0.427705 0.716115 0.672650
O O3 0.305094 0.782243 0.744170
O O4 0.534440 0.788027 0.746775
O O5 0.844957 0.644808 0.841948
O O6 0.900321 0.571987 0.728450
O O7 0.059253 0.631610 0.797568
O O8 0.949106 0.589776 0.000000
O O9 0.700679 0.326664 0.500000
O O10 0.568104 0.366362 0.317988
O O11 0.753909 0.322037 0.223176
O O12 0.638164 0.657395 0.239881
O O13 0.718266 0.694452 0.000000
O O14 0.601819 0.626611 0.500000
O O15 0.600264 0.575095 0.284804
O O16 0.885764 0.024410 0.500000
O O17 0.751655 0.011297 0.279862
O O18 0.000000 0.000000 0.275589
O O19 0.600898 0.815376 0.000000
O O20 0.618602 0.023546 0.500000
O O21 0.500000 0.000000 0.722247
#
# Coordination Sequence:
#
# PCOD9426660 Si02
#       8
#     8   8   8   8   8   8   8   8
#     4  10  21  37  57  81 113 150 191 240 291 342
#     4   9  19  36  56  78 108 145 184 228 280 344
#     4  10  23  38  55  83 115 151 194 241 291 350
#     4  10  20  35  57  84 111 144 191 237 284 345
#     4  10  20  36  59  84 112 153 198 239 294 352
#     4   9  18  34  56  83 117 154 193 244 303 358
#     4  10  22  39  57  81 113 149 190 236 292 349
#     4  10  20  33  55  88 115 143 192 246 295 352
#
# _framework density 19.116119000000001
#
# number of rings (size 3 to 8) (size 9 to 14) (size 15 to 20)
#    0.000    2.250    1.250    1.875    1.750    5.250 
#    0.000    2.500    0.000    1.500    0.000    0.000 
#    0.000    0.000    0.000    0.000    0.000    0.000 
#
# Total GULP energy -356880.117917 kJ/mol
# GULP energy per Si atom -5576.251842 kJ/mol
# Density = 1.907261 g / cm^3
# Si number density = 19.116119 Si / 1000 Ang^3
#
#
#
# Elastic Constant Matrix: (Units=GPa)
#
#
# Indices 1 2 3 4 5 6 
#
# 1 100.3061 35.5892 38.2913 0.0000 0.0000 0.0000
# 2 35.5892 43.2521 18.7585 0.0000 0.0000 0.0000
# 3 38.2913 18.7585 52.8491 0.0000 0.0000 0.0000
# 4 0.0000 0.0000 0.0000 -7.7252 0.0000 0.0000
# 5 0.0000 0.0000 0.0000 0.0000 21.6811 0.0000
# 6 0.0000 0.0000 0.0000 0.0000 0.0000 24.6020
#
#
#
# Elastic Compliance Matrix: (Units=1/GPa)
#
#
# Indices 1 2 3 4 5 6 
#
# 1 0.016852 -0.010131 -0.008614 0.000000 0.000000 0.000000
# 2 -0.010131 0.033417 -0.004521 0.000000 0.000000 0.000000
# 3 -0.008614 -0.004521 0.026768 0.000000 0.000000 0.000000
# 4 0.000000 0.000000 0.000000 -0.129447 0.000000 0.000000
# 5 0.000000 0.000000 0.000000 0.000000 0.046123 0.000000
# 6 0.000000 0.000000 0.000000 0.000000 0.000000 0.040647
#
#
# Mechanical properties :
#
#
# Convention : Reuss Voigt Hill
#
# Bulk Modulus (GPa) = 32.78150 42.40948 37.59549
# Shear Modulus (GPa) = 54.90790 14.62947 34.76869
#
# Velocity S-wave (km/s) = 5.36523 2.76940 4.26938
# Velocity P-wave (km/s) = 7.45431 5.69732 6.63424
#
# Compressibility (1/GPa) = 0.03050501
#
# Stress axis : x y z
#
# Youngs Moduli (GPa) = 59.33877 29.92500 37.35794
#
# Poissons Ratio (x) = 0.30316 0.32182
# Poissons Ratio (y) = 0.60114 0.16890
# Poissons Ratio (z) = 0.51117 0.13530
#
# Static dielectric constant tensor:
#      x y z
#    x 1.704580 0.000000 0.000000 
#    y 0.000000 1.652070 0.000000 
#    z 0.000000 0.000000 1.656420 
# 
# From -- ./inp_files/4499.got.cif
#   From: 2010.05.17/outbox.cif.g08.bks.cpg/sg55_3_cif.got.tgz:4499.got - 2010.06.03 13:27:54.
