data_PCOD9426973
_publ_section_title
;
Structure prediction by ZEFSAII (Michael W. Deem and Ramdas Pophale) SiO2 
 PCOD9426973
Probable space group: P B A M
;
_chemical_formula_sum "Si O2"
_cell_formula_units_Z 64
_cell_length_a 26.666040
_cell_length_b 12.808440
_cell_length_c 9.120603
_cell_angle_alpha 90.000000
_cell_angle_beta 90.000000
_cell_angle_gamma 90.000000
_cell_volume 3115.145360
_symmetry_space_group_name_H-M "P B A M"
_symmetry_group_IT_number 55
_symmetry_cell_setting 'orthorhombic'
loop_
_space_group_symop_operation_xyz
x,y,z
-x,-y,z
1/2+x,1/2-y,-z
1/2-x,1/2+y,-z
-x,-y,-z
x,y,-z
1/2-x,1/2+y,z
1/2+x,1/2-y,z
loop_
_atom_site_type_symbol
_atom_site_label
_atom_site_fract_x
_atom_site_fract_y
_atom_site_fract_z
Si Si1 0.971628 0.600365 0.332076
Si Si2 0.672591 0.196334 0.161764
Si Si3 0.214455 0.106267 0.327668
Si Si4 0.859568 0.510411 0.333560
Si Si5 0.344787 0.415958 0.824208
Si Si6 0.823442 0.300733 0.672197
Si Si7 0.940623 0.993841 0.326077
Si Si8 0.561771 0.284581 0.837613
O O1 0.988439 0.620516 0.500000
O O2 0.913732 0.564813 0.338286
O O3 0.976276 0.702682 0.233859
O O4 0.000000 0.500000 0.272138
O O5 0.692355 0.284232 0.270490
O O6 0.674533 0.081057 0.228742
O O7 0.614189 0.224911 0.145817
O O8 0.696254 0.202933 0.000000
O O9 0.204079 0.090687 0.500000
O O10 0.273368 0.129559 0.307766
O O11 0.190008 0.009689 0.240111
O O12 0.839290 0.513863 0.500000
O O13 0.865054 0.388744 0.293060
O O14 0.325713 0.303463 0.767486
O O15 0.401079 0.434174 0.760103
O O16 0.345289 0.421987 0.000000
O O17 0.826531 0.270543 0.500000
O O18 0.934332 0.009154 0.500000
O O19 0.927856 0.877263 0.274541
O O20 0.000000 0.000000 0.291384
O O21 0.546734 0.322346 0.000000
#
# Coordination Sequence:
#
# PCOD9426973 Si02
#       8
#     8   8   8   8   8   8   8   8
#     4   9  18  33  56  85 117 157 206 258 309 366
#     4  10  20  35  58  88 119 153 196 254 316 371
#     4  11  23  40  65  90 120 164 215 263 310 375
#     4   9  19  37  59  84 118 158 203 254 307 368
#     4  12  26  44  66  96 134 171 213 271 335 392
#     4  10  24  43  63  90 125 170 218 262 316 383
#     4  11  24  42  66  93 123 168 221 268 319 387
#     4  10  20  35  56  85 120 157 200 255 316 375
#
# _framework density 20.544785999999998
#
# number of rings (size 3 to 8) (size 9 to 14) (size 15 to 20)
#    0.000    1.750    1.250    2.625    1.750    4.750 
#    0.000    2.500    0.000    0.000    0.000    0.000 
#    0.000    0.000    0.000    0.000    0.000    0.000 
#
# Total GULP energy -356999.514858 kJ/mol
# GULP energy per Si atom -5578.117420 kJ/mol
# Density = 2.049803 g / cm^3
# Si number density = 20.544786 Si / 1000 Ang^3
#
#
#
# Elastic Constant Matrix: (Units=GPa)
#
#
# Indices 1 2 3 4 5 6 
#
# 1 40.4673 21.8138 40.5893 0.0000 0.0000 0.0000
# 2 21.8138 102.9820 53.6845 0.0000 0.0000 0.0000
# 3 40.5893 53.6845 111.6250 0.0000 0.0000 0.0000
# 4 0.0000 0.0000 0.0000 15.3490 0.0000 0.0000
# 5 0.0000 0.0000 0.0000 0.0000 4.7457 0.0000
# 6 0.0000 0.0000 0.0000 0.0000 0.0000 27.9396
#
#
#
# Elastic Compliance Matrix: (Units=1/GPa)
#
#
# Indices 1 2 3 4 5 6 
#
# 1 0.039002 -0.001159 -0.013624 0.000000 0.000000 0.000000
# 2 -0.001159 0.012994 -0.005828 0.000000 0.000000 0.000000
# 3 -0.013624 -0.005828 0.016716 0.000000 0.000000 0.000000
# 4 0.000000 0.000000 0.000000 0.065151 0.000000 0.000000
# 5 0.000000 0.000000 0.000000 0.000000 0.210718 0.000000
# 6 0.000000 0.000000 0.000000 0.000000 0.000000 0.035791
#
#
# Mechanical properties :
#
#
# Convention : Reuss Voigt Hill
#
# Bulk Modulus (GPa) = 36.37870 54.13882 45.25876
# Shear Modulus (GPa) = 11.60747 18.87264 15.24006
#
# Velocity S-wave (km/s) = 2.37952 3.03415 2.72655
# Velocity P-wave (km/s) = 5.02941 6.21961 5.65590
#
# Compressibility (1/GPa) = 0.02748861
#
# Stress axis : x y z
#
# Youngs Moduli (GPa) = 25.63999 76.95864 59.82456
#
# Poissons Ratio (x) = 0.08919 0.81508
# Poissons Ratio (y) = 0.02972 0.34865
# Poissons Ratio (z) = 0.34933 0.44850
#
# Static dielectric constant tensor:
#      x y z
#    x 1.946230 0.000000 0.000000 
#    y 0.000000 1.745040 0.000000 
#    z 0.000000 0.000000 1.747960 
# 
# From -- ./inp_files/10818.got.cif
#   From: 2010.05.17/outbox.cif.g08.bks.cpg/sg55_6_cif.got.tgz:10818.got - 2010.06.03 13:27:54.
