data_PCOD9426597
_publ_section_title
;
Structure prediction by ZEFSAII (Michael W. Deem and Ramdas Pophale) SiO2 
 PCOD9426597
Probable space group: P B A M
;
_chemical_formula_sum "Si O2"
_cell_formula_units_Z 40
_cell_length_a 34.708446
_cell_length_b 5.181232
_cell_length_c 12.418651
_cell_angle_alpha 90.000000
_cell_angle_beta 90.000000
_cell_angle_gamma 90.000000
_cell_volume 2233.277194
_symmetry_space_group_name_H-M "P B A M"
_symmetry_group_IT_number 55
_symmetry_cell_setting 'orthorhombic'
loop_
_space_group_symop_operation_xyz
x,y,z
-x,-y,z
1/2+x,1/2-y,-z
1/2-x,1/2+y,-z
-x,-y,-z
x,y,-z
1/2-x,1/2+y,z
1/2+x,1/2-y,z
loop_
_atom_site_type_symbol
_atom_site_label
_atom_site_fract_x
_atom_site_fract_y
_atom_site_fract_z
Si Si1 0.774883 0.878018 0.628385
Si Si2 0.378755 0.024196 0.873361
Si Si3 0.145007 0.020035 0.254435
Si Si4 0.457707 0.060475 0.245067
Si Si5 0.565605 0.443673 0.373363
O O1 0.782580 0.888793 0.500000
O O2 0.755950 0.602224 0.653067
O O3 0.814141 0.928481 0.691364
O O4 0.357231 0.248494 0.807189
O O5 0.423918 0.055561 0.843100
O O6 0.365244 0.748292 0.828641
O O7 0.372697 0.047772 0.000000
O O8 0.110749 0.023544 0.342922
O O9 0.455912 0.332743 0.306746
O O10 0.500000 0.000000 0.201414
O O11 0.447347 0.834965 0.330176
O O12 0.559237 0.469366 0.500000
#
# Coordination Sequence:
#
# PCOD9426597 Si02
#       5
#     8   8   8   8   8
#     4  10  20  34  56  85 113 140 167 202 254 308
#     4  10  21  37  57  76  98 137 180 220 264 301
#     4  10  20  36  56  78 106 135 174 217 252 307
#     4  10  21  34  50  76 104 133 174 218 260 307
#     4  10  20  33  51  75 105 141 172 204 254 313
#
# _framework density 17.910899000000001
#
# number of rings (size 3 to 8) (size 9 to 14) (size 15 to 20)
#    0.000    2.000    0.000    3.600    0.000    2.800 
#    0.000    6.000    0.000   19.200    0.000    0.000 
#    0.000    0.000    0.000    0.000    0.000    0.000 
#
# Total GULP energy -223422.920164 kJ/mol
# GULP energy per Si atom -5585.573004 kJ/mol
# Density = 1.787013 g / cm^3
# Si number density = 17.910899 Si / 1000 Ang^3
#
#
#
# Elastic Constant Matrix: (Units=GPa)
#
#
# Indices 1 2 3 4 5 6 
#
# 1 58.5966 -27.8322 6.3590 0.0000 0.0000 0.0000
# 2 -27.8322 58.7420 -9.9845 0.0000 0.0000 0.0000
# 3 6.3590 -9.9845 29.1408 0.0000 0.0000 0.0000
# 4 0.0000 0.0000 0.0000 10.6560 0.0000 0.0000
# 5 0.0000 0.0000 0.0000 0.0000 2.4797 0.0000
# 6 0.0000 0.0000 0.0000 0.0000 0.0000 16.9520
#
#
#
# Elastic Compliance Matrix: (Units=1/GPa)
#
#
# Indices 1 2 3 4 5 6 
#
# 1 0.022069 0.010234 -0.001309 0.000000 0.000000 0.000000
# 2 0.010234 0.022822 0.005586 0.000000 0.000000 0.000000
# 3 -0.001309 0.005586 0.036516 0.000000 0.000000 0.000000
# 4 0.000000 0.000000 0.000000 0.093844 0.000000 0.000000
# 5 0.000000 0.000000 0.000000 0.000000 0.403277 0.000000
# 6 0.000000 0.000000 0.000000 0.000000 0.000000 0.058990
#
#
# Mechanical properties :
#
#
# Convention : Reuss Voigt Hill
#
# Bulk Modulus (GPa) = 9.05571 9.28490 9.17030
# Shear Modulus (GPa) = 7.74827 17.88000 12.81414
#
# Velocity S-wave (km/s) = 2.08216 3.16298 2.67767
# Velocity P-wave (km/s) = 3.29355 4.30516 3.83288
#
# Compressibility (1/GPa) = 0.11042756
#
# Stress axis : x y z
#
# Youngs Moduli (GPa) = 45.31293 43.81762 27.38537
#
# Poissons Ratio (x) = -0.44842 0.03586
# Poissons Ratio (y) = -0.46372 -0.15298
# Poissons Ratio (z) = 0.05933 -0.24478
#
# Static dielectric constant tensor:
#      x y z
#    x 1.606050 0.000000 0.000000 
#    y 0.000000 1.600880 0.000000 
#    z 0.000000 0.000000 1.556580 
# 
# From -- ./inp_files/11316.got.cif
#   From: 2010.05.17/outbox.cif.g08.bks.cpg/sg55_6_cif.got.tgz:11316.got - 2010.06.03 13:27:54.
