data_PCOD9426868
_publ_section_title
;
Structure prediction by ZEFSAII (Michael W. Deem and Ramdas Pophale) SiO2 
 PCOD9426868
Probable space group: P B A M
;
_chemical_formula_sum "Si O2"
_cell_formula_units_Z 32
_cell_length_a 17.104838
_cell_length_b 9.251340
_cell_length_c 8.679327
_cell_angle_alpha 90.000000
_cell_angle_beta 90.000000
_cell_angle_gamma 90.000000
_cell_volume 1373.439895
_symmetry_space_group_name_H-M "P B A M"
_symmetry_group_IT_number 55
_symmetry_cell_setting 'orthorhombic'
loop_
_space_group_symop_operation_xyz
x,y,z
-x,-y,z
1/2+x,1/2-y,-z
1/2-x,1/2+y,-z
-x,-y,-z
x,y,-z
1/2-x,1/2+y,z
1/2+x,1/2-y,z
loop_
_atom_site_type_symbol
_atom_site_label
_atom_site_fract_x
_atom_site_fract_y
_atom_site_fract_z
Si Si1 0.464941 0.642939 0.726504
Si Si2 0.255835 0.788359 0.000000
Si Si3 0.640977 0.476642 0.000000
Si Si4 0.832763 0.623463 0.669803
Si Si5 0.425676 0.106819 0.824201
O O1 0.500000 0.500000 0.648895
O O2 0.404665 0.761631 0.659327
O O3 0.537843 0.739134 0.784107
O O4 0.412227 0.572221 0.859389
O O5 0.280366 0.620864 0.000000
O O6 0.289704 0.838256 0.168666
O O7 0.171121 0.861049 0.000000
O O8 0.793071 0.627254 0.500000
O O9 0.865341 0.461954 0.703828
O O10 0.500000 0.000000 0.818399
O O11 0.397129 0.093865 0.000000
#
# Coordination Sequence:
#
# PCOD9426868 Si02
#       5
#     8   4   4   8   8
#     4  10  20  34  59  94 124 151 193 251 311 364
#     4  10  22  41  61  87 117 160 217 248 288 356
#     4  10  21  37  59  87 118 160 201 250 304 348
#     4  10  21  39  63  89 123 163 201 246 297 360
#     4   9  16  30  55  87 122 153 193 236 290 362
#
# _framework density 23.299161000000002
#
# number of rings (size 3 to 8) (size 9 to 14) (size 15 to 20)
#    0.000    2.250    2.500    0.375    0.000    7.000 
#    0.000    5.000    0.000    0.000    0.000    0.000 
#    0.000    0.000    0.000    0.000    0.000    0.000 
#
# Total GULP energy -178160.841451 kJ/mol
# GULP energy per Si atom -5567.526295 kJ/mol
# Density = 2.324613 g / cm^3
# Si number density = 23.299161 Si / 1000 Ang^3
#
#
#
# Elastic Constant Matrix: (Units=GPa)
#
#
# Indices 1 2 3 4 5 6 
#
# 1 48.3023 31.0927 38.6459 0.0000 0.0000 0.0000
# 2 31.0927 134.9629 26.6617 0.0000 0.0000 0.0000
# 3 38.6459 26.6617 175.2678 0.0000 0.0000 0.0000
# 4 0.0000 0.0000 0.0000 -31.1657 0.0000 0.0000
# 5 0.0000 0.0000 0.0000 0.0000 3.1479 0.0000
# 6 0.0000 0.0000 0.0000 0.0000 0.0000 41.2210
#
#
#
# Elastic Compliance Matrix: (Units=1/GPa)
#
#
# Indices 1 2 3 4 5 6 
#
# 1 0.028633 -0.005515 -0.005475 0.000000 0.000000 0.000000
# 2 -0.005515 0.008701 -0.000108 0.000000 0.000000 0.000000
# 3 -0.005475 -0.000108 0.006929 0.000000 0.000000 0.000000
# 4 0.000000 0.000000 0.000000 -0.032087 0.000000 0.000000
# 5 0.000000 0.000000 0.000000 0.000000 0.317676 0.000000
# 6 0.000000 0.000000 0.000000 0.000000 0.000000 0.024259
#
#
# Mechanical properties :
#
#
# Convention : Reuss Voigt Hill
#
# Bulk Modulus (GPa) = 45.31225 61.25931 53.28578
# Shear Modulus (GPa) = 13.03227 20.11613 16.57420
#
# Velocity S-wave (km/s) = 2.36761 2.94153 2.67004
# Velocity P-wave (km/s) = 5.19272 6.15519 5.69433
#
# Compressibility (1/GPa) = 0.02206909
#
# Stress axis : x y z
#
# Youngs Moduli (GPa) = 34.92463 114.92613 144.32005
#
# Poissons Ratio (x) = 0.63382 0.79009
# Poissons Ratio (y) = 0.19261 0.01553
# Poissons Ratio (z) = 0.19120 0.01237
#
# Static dielectric constant tensor:
#      x y z
#    x 1.923530 0.000000 0.000000 
#    y 0.000000 1.865600 0.000000 
#    z 0.000000 0.000000 1.895240 
# 
# From -- ./inp_files/8315.got.cif
#   From: 2010.05.17/outbox.cif.g08.bks.cpg/sg55_5_cif.got.tgz:8315.got - 2010.06.03 13:27:54.
