data_PCOD9426184
_publ_section_title
;
Structure prediction by ZEFSAII (Michael W. Deem and Ramdas Pophale) SiO2 
 PCOD9426184
Probable space group: P B A M
;
_chemical_formula_sum "Si O2"
_cell_formula_units_Z 56
_cell_length_a 19.921495
_cell_length_b 8.959172
_cell_length_c 18.173289
_cell_angle_alpha 90.000000
_cell_angle_beta 90.000000
_cell_angle_gamma 90.000000
_cell_volume 3243.570442
_symmetry_space_group_name_H-M "P B A M"
_symmetry_group_IT_number 55
_symmetry_cell_setting 'orthorhombic'
loop_
_space_group_symop_operation_xyz
x,y,z
-x,-y,z
1/2+x,1/2-y,-z
1/2-x,1/2+y,-z
-x,-y,-z
x,y,-z
1/2-x,1/2+y,z
1/2+x,1/2-y,z
loop_
_atom_site_type_symbol
_atom_site_label
_atom_site_fract_x
_atom_site_fract_y
_atom_site_fract_z
Si Si1 0.738670 0.150870 0.742786
Si Si2 0.653144 0.892932 0.695502
Si Si3 0.839029 0.903036 0.797688
Si Si4 0.961924 0.844675 0.295238
Si Si5 0.033298 0.663337 0.415443
Si Si6 0.573593 0.572715 0.083586
Si Si7 0.541964 0.855872 0.820062
O O1 0.788665 0.268376 0.703657
O O2 0.697567 0.244891 0.803319
O O3 0.688398 0.054984 0.691428
O O4 0.784586 0.028332 0.781226
O O5 0.602577 0.849577 0.630091
O O6 0.605915 0.895575 0.768613
O O7 0.885879 0.880357 0.725686
O O8 0.882757 0.964940 0.864419
O O9 0.982760 0.773718 0.372653
O O10 0.990927 0.731326 0.234332
O O11 0.000000 0.000000 0.286424
O O12 0.043762 0.706678 0.500000
O O13 0.000000 0.500000 0.412917
O O14 0.500000 0.500000 0.082596
O O15 0.566156 0.736718 0.119580
O O16 0.598940 0.580731 0.000000
O O17 0.500000 0.000000 0.846695
#
# Coordination Sequence:
#
# PCOD9426184 Si02
#       7
#     8   8   8   8   8   8   8
#     4  10  21  31  59  79 105 144 200 229 270 320
#     4  10  19  35  54  84 107 145 192 239 267 339
#     4  11  18  37  53  82 108 144 188 237 269 335
#     4  11  18  33  60  83 108 142 188 239 288 329
#     4  10  21  36  55  84 118 147 180 235 302 347
#     4  11  22  37  57  83 113 146 180 233 302 344
#     4  11  19  33  58  84 109 143 187 235 291 334
#
# _framework density 17.264925999999999
#
# number of rings (size 3 to 8) (size 9 to 14) (size 15 to 20)
#    0.000    1.429    4.286    4.286    0.000    0.571 
#    0.000    1.429    0.000    3.429    0.000    0.000 
#    0.000    0.000    0.000    0.000    0.000    0.000 
#
# Total GULP energy -312241.648825 kJ/mol
# GULP energy per Si atom -5575.743729 kJ/mol
# Density = 1.722563 g / cm^3
# Si number density = 17.264926 Si / 1000 Ang^3
#
#
#
# Elastic Constant Matrix: (Units=GPa)
#
#
# Indices 1 2 3 4 5 6 
#
# 1 81.7777 45.0399 43.8051 0.0000 0.0000 0.0000
# 2 45.0399 106.2554 37.0551 0.0000 0.0000 0.0000
# 3 43.8051 37.0551 109.6968 0.0000 0.0000 0.0000
# 4 0.0000 0.0000 0.0000 12.2939 0.0000 0.0000
# 5 0.0000 0.0000 0.0000 0.0000 2.4905 0.0000
# 6 0.0000 0.0000 0.0000 0.0000 0.0000 47.0988
#
#
#
# Elastic Compliance Matrix: (Units=1/GPa)
#
#
# Indices 1 2 3 4 5 6 
#
# 1 0.018339 -0.005917 -0.005325 0.000000 0.000000 0.000000
# 2 -0.005917 0.012577 -0.001886 0.000000 0.000000 0.000000
# 3 -0.005325 -0.001886 0.011879 0.000000 0.000000 0.000000
# 4 0.000000 0.000000 0.000000 0.081341 0.000000 0.000000
# 5 0.000000 0.000000 0.000000 0.000000 0.401518 0.000000
# 6 0.000000 0.000000 0.000000 0.000000 0.000000 0.021232
#
#
# Mechanical properties :
#
#
# Convention : Reuss Voigt Hill
#
# Bulk Modulus (GPa) = 60.45545 61.05891 60.75718
# Shear Modulus (GPa) = 8.64073 23.83196 16.23634
#
# Velocity S-wave (km/s) = 2.23956 3.71936 3.06996
# Velocity P-wave (km/s) = 6.46374 7.34081 6.91619
#
# Compressibility (1/GPa) = 0.01654111
#
# Stress axis : x y z
#
# Youngs Moduli (GPa) = 54.52788 79.51078 84.17979
#
# Poissons Ratio (x) = 0.47045 0.44824
# Poissons Ratio (y) = 0.32263 0.15874
# Poissons Ratio (z) = 0.29035 0.14993
#
# Static dielectric constant tensor:
#      x y z
#    x 1.625030 0.000000 0.000000 
#    y 0.000000 1.610020 0.000000 
#    z 0.000000 0.000000 1.575440 
# 
# From -- ./inp_files/21902.got.cif
#   From: 2010.05.17/outbox.cif.g08.bks.cpg/sg55_11_cif.got.tgz:21902.got - 2010.06.03 13:27:54.
