data_PCOD9426707
_publ_section_title
;
Structure prediction by ZEFSAII (Michael W. Deem and Ramdas Pophale) SiO2 
 PCOD9426707
Probable space group: P B A M
;
_chemical_formula_sum "Si O2"
_cell_formula_units_Z 56
_cell_length_a 13.656869
_cell_length_b 24.943406
_cell_length_c 7.692555
_cell_angle_alpha 90.000000
_cell_angle_beta 90.000000
_cell_angle_gamma 90.000000
_cell_volume 2620.459846
_symmetry_space_group_name_H-M "P B A M"
_symmetry_group_IT_number 55
_symmetry_cell_setting 'orthorhombic'
loop_
_space_group_symop_operation_xyz
x,y,z
-x,-y,z
1/2+x,1/2-y,-z
1/2-x,1/2+y,-z
-x,-y,-z
x,y,-z
1/2-x,1/2+y,z
1/2+x,1/2-y,z
loop_
_atom_site_type_symbol
_atom_site_label
_atom_site_fract_x
_atom_site_fract_y
_atom_site_fract_z
Si Si1 0.610471 0.868134 0.701045
Si Si2 0.429764 0.665658 0.794951
Si Si3 0.202594 0.069230 0.204086
Si Si4 0.239612 0.729911 0.288480
Si Si5 0.647637 0.662438 0.298364
Si Si6 0.052268 0.444930 0.712636
Si Si7 0.721319 0.550090 0.710255
O O1 0.589039 0.855713 0.500000
O O2 0.695256 0.913643 0.707800
O O3 0.661856 0.815082 0.775774
O O4 0.512813 0.894808 0.775928
O O5 0.381050 0.609827 0.731196
O O6 0.347101 0.710172 0.762718
O O7 0.533561 0.676593 0.710003
O O8 0.447602 0.661105 0.000000
O O9 0.181146 0.006988 0.228305
O O10 0.215854 0.080425 0.000000
O O11 0.235924 0.729338 0.500000
O O12 0.209715 0.788422 0.223294
O O13 0.677871 0.658870 0.500000
O O14 0.665845 0.603117 0.225601
O O15 0.050053 0.444005 0.500000
O O16 0.165128 0.444756 0.764628
O O17 0.000000 0.500000 0.767378
O O18 0.717985 0.547836 0.500000
#
# Coordination Sequence:
#
# PCOD9426707 Si02
#       7
#     8   8   8   8   8   8   8
#     4   9  16  30  54  79 105 142 179 216 268 329
#     4  10  22  39  59  80 108 148 185 223 273 333
#     4  10  20  34  52  77 108 142 184 228 270 321
#     4   9  19  36  59  84 108 138 182 231 275 324
#     4  10  22  38  57  84 113 141 180 235 282 323
#     4   9  15  26  48  77 105 134 171 213 262 326
#     4  10  20  34  53  78 110 145 182 226 279 332
#
# _framework density 21.370294999999999
#
# number of rings (size 3 to 8) (size 9 to 14) (size 15 to 20)
#    0.000    2.429    1.429    0.857    0.000    4.571 
#    0.000    8.571    0.000    0.000    0.000    0.000 
#    0.000    0.000    0.000    0.000    0.000    0.000 
#
# Total GULP energy -312587.103457 kJ/mol
# GULP energy per Si atom -5581.912562 kJ/mol
# Density = 2.132166 g / cm^3
# Si number density = 21.370295 Si / 1000 Ang^3
#
#
#
# Elastic Constant Matrix: (Units=GPa)
#
#
# Indices 1 2 3 4 5 6 
#
# 1 60.7778 30.8931 -10.6821 0.0000 0.0000 0.0000
# 2 30.8931 122.5559 -4.0368 0.0000 0.0000 0.0000
# 3 -10.6821 -4.0368 39.3095 0.0000 0.0000 0.0000
# 4 0.0000 0.0000 0.0000 5.0057 0.0000 0.0000
# 5 0.0000 0.0000 0.0000 0.0000 -120.0356 0.0000
# 6 0.0000 0.0000 0.0000 0.0000 0.0000 21.1173
#
#
#
# Elastic Compliance Matrix: (Units=1/GPa)
#
#
# Indices 1 2 3 4 5 6 
#
# 1 0.019760 -0.004821 0.004875 0.000000 0.000000 0.000000
# 2 -0.004821 0.009363 -0.000348 0.000000 0.000000 0.000000
# 3 0.004875 -0.000348 0.026728 0.000000 0.000000 0.000000
# 4 0.000000 0.000000 0.000000 0.199771 0.000000 0.000000
# 5 0.000000 0.000000 0.000000 0.000000 -0.008331 0.000000
# 6 0.000000 0.000000 0.000000 0.000000 0.000000 0.047355
#
#
# Mechanical properties :
#
#
# Convention : Reuss Voigt Hill
#
# Bulk Modulus (GPa) = 18.09519 28.33239 23.21379
# Shear Modulus (GPa) = 15.94103 -5.01791 5.46156
#
# Velocity S-wave (km/s) = 2.73416 -1.53401 1.60038
# Velocity P-wave (km/s) = 4.29573 3.18576 3.78169
#
# Compressibility (1/GPa) = 0.05526329
#
# Stress axis : x y z
#
# Youngs Moduli (GPa) = 50.60630 106.80126 37.41386
#
# Poissons Ratio (x) = 0.51484 -0.18238
# Poissons Ratio (y) = 0.24395 0.01304
# Poissons Ratio (z) = -0.24669 0.03721
#
# Static dielectric constant tensor:
#      x y z
#    x 1.736960 0.000000 0.000000 
#    y 0.000000 1.789960 0.000000 
#    z 0.000000 0.000000 1.810840 
# 
# From -- ./inp_files/6096.got.cif
#   From: 2010.05.17/outbox.cif.g08.bks.cpg/sg55_4_cif.got.tgz:6096.got - 2010.06.03 13:27:54.
