data_PCOD9426527
_publ_section_title
;
Structure prediction by ZEFSAII (Michael W. Deem and Ramdas Pophale) SiO2 
 PCOD9426527
Probable space group: P B A M
;
_chemical_formula_sum "Si O2"
_cell_formula_units_Z 56
_cell_length_a 18.974874
_cell_length_b 21.373059
_cell_length_c 8.909742
_cell_angle_alpha 90.000000
_cell_angle_beta 90.000000
_cell_angle_gamma 90.000000
_cell_volume 3613.355682
_symmetry_space_group_name_H-M "P B A M"
_symmetry_group_IT_number 55
_symmetry_cell_setting 'orthorhombic'
loop_
_space_group_symop_operation_xyz
x,y,z
-x,-y,z
1/2+x,1/2-y,-z
1/2-x,1/2+y,-z
-x,-y,-z
x,y,-z
1/2-x,1/2+y,z
1/2+x,1/2-y,z
loop_
_atom_site_type_symbol
_atom_site_label
_atom_site_fract_x
_atom_site_fract_y
_atom_site_fract_z
Si Si1 0.840393 0.374748 0.819527
Si Si2 0.284035 0.688297 0.679972
Si Si3 0.216802 0.813561 0.820049
Si Si4 0.843529 0.624177 0.679722
Si Si5 0.075224 0.247658 0.320385
Si Si6 0.922816 0.248017 0.819886
Si Si7 0.917793 0.504221 0.819450
O O1 0.764296 0.367202 0.742195
O O2 0.889158 0.315307 0.774262
O O3 0.878941 0.439270 0.782376
O O4 0.831610 0.371062 0.000000
O O5 0.277036 0.692903 0.500000
O O6 0.250565 0.749473 0.757595
O O7 0.366855 0.694279 0.716713
O O8 0.265450 0.866647 0.748037
O O9 0.134464 0.805497 0.779884
O O10 0.222563 0.815592 0.000000
O O11 0.838990 0.623835 0.500000
O O12 0.890127 0.685360 0.723958
O O13 0.880655 0.562459 0.740712
O O14 0.067616 0.248824 0.500000
O O15 0.999443 0.239149 0.248052
O O16 0.928263 0.249290 0.000000
O O17 0.000000 0.500000 0.777723
O O18 0.914193 0.512749 0.000000
#
# Coordination Sequence:
#
# PCOD9426527 Si02
#       7
#     8   8   8   8   8   8   8
#     4   9  18  31  45  64  89 119 155 186 217 262
#     4   9  17  29  44  64  89 117 149 184 224 267
#     4   9  17  30  46  64  87 116 150 186 224 267
#     4  10  20  32  45  65  92 122 156 188 222 266
#     4   9  18  29  42  64  92 118 145 180 222 268
#     4   9  17  28  45  68  90 114 147 185 223 265
#     4  10  20  33  48  66  91 124 158 189 221 260
#
# _framework density 15.498059
#
# number of rings (size 3 to 8) (size 9 to 14) (size 15 to 20)
#    0.000    2.714    0.000    3.857    0.000    8.286 
#    0.000    0.000    0.000    0.000    0.000    1.000 
#    0.000    8.000    0.000    0.000    0.000    0.000 
#
# Total GULP energy -311873.376706 kJ/mol
# GULP energy per Si atom -5569.167441 kJ/mol
# Density = 1.546278 g / cm^3
# Si number density = 15.498059 Si / 1000 Ang^3
#
#
#
# Elastic Constant Matrix: (Units=GPa)
#
#
# Indices 1 2 3 4 5 6 
#
# 1 171.0839 68.1310 52.6200 0.0000 0.0000 0.0000
# 2 68.1310 70.9347 33.0580 0.0000 0.0000 0.0000
# 3 52.6200 33.0580 32.1151 0.0000 0.0000 0.0000
# 4 0.0000 0.0000 0.0000 20.0898 0.0000 0.0000
# 5 0.0000 0.0000 0.0000 0.0000 34.5029 0.0000
# 6 0.0000 0.0000 0.0000 0.0000 0.0000 26.5784
#
#
#
# Elastic Compliance Matrix: (Units=1/GPa)
#
#
# Indices 1 2 3 4 5 6 
#
# 1 0.012566 -0.004755 -0.015694 0.000000 0.000000 0.000000
# 2 -0.004755 0.028895 -0.021952 0.000000 0.000000 0.000000
# 3 -0.015694 -0.021952 0.079449 0.000000 0.000000 0.000000
# 4 0.000000 0.000000 0.000000 0.049776 0.000000 0.000000
# 5 0.000000 0.000000 0.000000 0.000000 0.028983 0.000000
# 6 0.000000 0.000000 0.000000 0.000000 0.000000 0.037624
#
#
# Mechanical properties :
#
#
# Convention : Reuss Voigt Hill
#
# Bulk Modulus (GPa) = 27.69540 64.63907 46.16724
# Shear Modulus (GPa) = 14.96412 24.25588 19.61000
#
# Velocity S-wave (km/s) = 3.11070 3.96042 3.56099
# Velocity P-wave (km/s) = 5.55076 7.91906 6.83822
#
# Compressibility (1/GPa) = 0.03610707
#
# Stress axis : x y z
#
# Youngs Moduli (GPa) = 79.58202 34.60771 12.58669
#
# Poissons Ratio (x) = 0.16456 0.19753
# Poissons Ratio (y) = 0.37842 0.27631
# Poissons Ratio (z) = 1.24895 0.75973
#
# Static dielectric constant tensor:
#      x y z
#    x 1.536120 0.000000 0.000000 
#    y 0.000000 1.514260 0.000000 
#    z 0.000000 0.000000 1.500370 
# 
# From -- ./inp_files/7817.got.cif
#   From: 2010.05.17/outbox.cif.g08.bks.cpg/sg55_4_cif.got.tgz:7817.got - 2010.06.03 13:27:54.
