data_PCOD9426363
_publ_section_title
;
Structure prediction by ZEFSAII (Michael W. Deem and Ramdas Pophale) SiO2 
 PCOD9426363
Probable space group: P B A M
;
_chemical_formula_sum "Si O2"
_cell_formula_units_Z 58
_cell_length_a 23.396185
_cell_length_b 15.693273
_cell_length_c 7.778962
_cell_angle_alpha 90.000000
_cell_angle_beta 90.000000
_cell_angle_gamma 90.000000
_cell_volume 2856.144834
_symmetry_space_group_name_H-M "P B A M"
_symmetry_group_IT_number 55
_symmetry_cell_setting 'orthorhombic'
loop_
_space_group_symop_operation_xyz
x,y,z
-x,-y,z
1/2+x,1/2-y,-z
1/2-x,1/2+y,-z
-x,-y,-z
x,y,-z
1/2-x,1/2+y,z
1/2+x,1/2-y,z
loop_
_atom_site_type_symbol
_atom_site_label
_atom_site_fract_x
_atom_site_fract_y
_atom_site_fract_z
Si Si1 0.905525 0.383903 0.203203
Si Si2 0.978716 0.698525 0.198950
Si Si3 0.500000 0.500000 0.000000
Si Si4 0.619850 0.075418 0.300043
Si Si5 0.292345 0.215816 0.290958
Si Si6 0.250011 0.399548 0.289310
Si Si7 0.799196 0.922560 0.702584
Si Si8 0.577388 0.366430 0.809913
O O1 0.891344 0.474799 0.285824
O O2 0.852628 0.320754 0.230262
O O3 0.963547 0.341632 0.273839
O O4 0.913138 0.400527 0.000000
O O5 0.929113 0.628427 0.206606
O O6 0.954078 0.786175 0.275700
O O7 0.993328 0.719291 0.000000
O O8 0.466756 0.558217 0.147261
O O9 0.617166 0.100680 0.500000
O O10 0.683724 0.095166 0.236411
O O11 0.292762 0.216026 0.500000
O O12 0.278833 0.311642 0.233429
O O13 0.242592 0.151343 0.230121
O O14 0.250294 0.399390 0.500000
O O15 0.282492 0.484385 0.227725
O O16 0.786994 0.926643 0.500000
O O17 0.865227 0.899637 0.724048
O O18 0.597376 0.334945 0.000000
#
# Coordination Sequence:
#
# PCOD9426363 Si02
#       8
#     8   8   2   8   8   8   8   8
#     4  11  23  38  56  83 122 157 194 241 298 353
#     4  10  22  39  57  82 117 156 194 249 298 343
#     4   8  20  40  62  80 110 160 194 242 296 342
#     4  11  21  38  62  87 117 157 199 240 297 361
#     4  10  20  37  59  83 117 154 193 245 298 353
#     4   9  19  35  57  85 116 151 187 239 301 348
#     4  10  19  36  59  86 119 150 191 249 302 347
#     4   9  20  39  61  83 113 155 201 242 291 353
#
# _framework density 20.307095
#
# number of rings (size 3 to 8) (size 9 to 14) (size 15 to 20)
#    0.414    1.655    1.379    2.069    0.000    6.069 
#    0.000    1.724    0.000    0.000    0.000    0.000 
#    0.000    0.000    0.000    0.000    0.000    0.000 
#
# Total GULP energy -323087.969615 kJ/mol
# GULP energy per Si atom -5570.482235 kJ/mol
# Density = 2.026088 g / cm^3
# Si number density = 20.307095 Si / 1000 Ang^3
#
#
#
# Elastic Constant Matrix: (Units=GPa)
#
#
# Indices 1 2 3 4 5 6 
#
# 1 109.1933 58.2441 -16.4551 0.0000 0.0000 0.0000
# 2 58.2441 113.7400 -10.8112 0.0000 0.0000 0.0000
# 3 -16.4551 -10.8112 25.4788 0.0000 0.0000 0.0000
# 4 0.0000 0.0000 0.0000 -105.9581 0.0000 0.0000
# 5 0.0000 0.0000 0.0000 0.0000 17.7317 0.0000
# 6 0.0000 0.0000 0.0000 0.0000 0.0000 32.8861
#
#
#
# Elastic Compliance Matrix: (Units=1/GPa)
#
#
# Indices 1 2 3 4 5 6 
#
# 1 0.013424 -0.006305 0.005995 0.000000 0.000000 0.000000
# 2 -0.006305 0.012122 0.001072 0.000000 0.000000 0.000000
# 3 0.005995 0.001072 0.043575 0.000000 0.000000 0.000000
# 4 0.000000 0.000000 0.000000 -0.009438 0.000000 0.000000
# 5 0.000000 0.000000 0.000000 0.000000 0.056396 0.000000
# 6 0.000000 0.000000 0.000000 0.000000 0.000000 0.030408
#
#
# Mechanical properties :
#
#
# Convention : Reuss Voigt Hill
#
# Bulk Modulus (GPa) = 14.15507 34.48530 24.32019
# Shear Modulus (GPa) = 29.67145 3.42755 16.54950
#
# Velocity S-wave (km/s) = 3.82663 1.30058 2.85785
# Velocity P-wave (km/s) = 5.14876 4.39023 4.78455
#
# Compressibility (1/GPa) = 0.07064607
#
# Stress axis : x y z
#
# Youngs Moduli (GPa) = 74.49159 82.49244 22.94902
#
# Poissons Ratio (x) = 0.52008 -0.13757
# Poissons Ratio (y) = 0.46964 -0.02460
# Poissons Ratio (z) = -0.44656 -0.08844
#
# Static dielectric constant tensor:
#      x y z
#    x 1.691210 0.000000 0.000000 
#    y 0.000000 1.713300 0.000000 
#    z 0.000000 0.000000 1.776630 
# 
# From -- ./inp_files/9625.got.cif
#   From: 2010.05.17/outbox.cif.g08.bks.cpg/sg55_5_cif.got.tgz:9625.got - 2010.06.03 13:27:54.
