data_PCOD9426718
_publ_section_title
;
Structure prediction by ZEFSAII (Michael W. Deem and Ramdas Pophale) SiO2 
 PCOD9426718
Probable space group: P B A M
;
_chemical_formula_sum "Si O2"
_cell_formula_units_Z 48
_cell_length_a 19.494831
_cell_length_b 15.707081
_cell_length_c 7.570968
_cell_angle_alpha 90.000000
_cell_angle_beta 90.000000
_cell_angle_gamma 90.000000
_cell_volume 2318.282563
_symmetry_space_group_name_H-M "P B A M"
_symmetry_group_IT_number 55
_symmetry_cell_setting 'orthorhombic'
loop_
_space_group_symop_operation_xyz
x,y,z
-x,-y,z
1/2+x,1/2-y,-z
1/2-x,1/2+y,-z
-x,-y,-z
x,y,-z
1/2-x,1/2+y,z
1/2+x,1/2-y,z
loop_
_atom_site_type_symbol
_atom_site_label
_atom_site_fract_x
_atom_site_fract_y
_atom_site_fract_z
Si Si1 0.076160 0.011121 0.292900
Si Si2 0.669694 0.648172 0.785443
Si Si3 0.579013 0.000462 0.783312
Si Si4 0.680908 0.349258 0.292885
Si Si5 0.662172 0.838622 0.794874
Si Si6 0.173851 0.345418 0.786517
O O1 0.066927 0.032609 0.500000
O O2 0.118194 0.923732 0.277612
O O3 0.124448 0.085994 0.218127
O O4 0.000000 0.000000 0.216137
O O5 0.652373 0.743625 0.720872
O O6 0.748494 0.631058 0.731215
O O7 0.668476 0.648188 0.000000
O O8 0.618580 0.916170 0.719855
O O9 0.500000 0.000000 0.730078
O O10 0.619804 0.084553 0.725759
O O11 0.580938 0.000732 0.000000
O O12 0.689598 0.367629 0.500000
O O13 0.756693 0.358449 0.212252
O O14 0.659473 0.250984 0.271451
O O15 0.642296 0.832450 0.000000
O O16 0.173704 0.344580 0.000000
#
# Coordination Sequence:
#
# PCOD9426718 Si02
#       6
#     8   8   8   8   8   8
#     4  10  22  37  50  69 101 137 168 203 250 297
#     4   9  18  32  52  77  99 126 166 207 247 289
#     4   9  17  30  51  78 105 133 163 197 243 298
#     4  10  20  34  53  74  96 129 171 208 246 294
#     4   9  18  34  54  76 103 130 161 205 249 291
#     4   9  18  33  54  78 102 129 163 205 249 290
#
# _framework density 20.704984
#
# number of rings (size 3 to 8) (size 9 to 14) (size 15 to 20)
#    0.000    2.667    0.000    2.500    0.000    7.000 
#    0.000    2.500    0.000    2.000    0.000    0.000 
#    0.000    0.000    0.000    0.000    0.000    0.000 
#
# Total GULP energy -267927.191922 kJ/mol
# GULP energy per Si atom -5581.816498 kJ/mol
# Density = 2.065786 g / cm^3
# Si number density = 20.704984 Si / 1000 Ang^3
#
#
#
# Elastic Constant Matrix: (Units=GPa)
#
#
# Indices 1 2 3 4 5 6 
#
# 1 142.3930 121.2651 -12.7692 0.0000 0.0000 0.0000
# 2 121.2651 143.1310 -13.3986 0.0000 0.0000 0.0000
# 3 -12.7692 -13.3986 41.5675 0.0000 0.0000 0.0000
# 4 0.0000 0.0000 0.0000 -1.9950 0.0000 0.0000
# 5 0.0000 0.0000 0.0000 0.0000 14.8941 0.0000
# 6 0.0000 0.0000 0.0000 0.0000 0.0000 -10.5996
#
#
#
# Elastic Compliance Matrix: (Units=1/GPa)
#
#
# Indices 1 2 3 4 5 6 
#
# 1 0.025250 -0.021310 0.000888 0.000000 0.000000 0.000000
# 2 -0.021310 0.025188 0.001573 0.000000 0.000000 0.000000
# 3 0.000888 0.001573 0.024837 0.000000 0.000000 0.000000
# 4 0.000000 0.000000 0.000000 -0.501244 0.000000 0.000000
# 5 0.000000 0.000000 0.000000 0.000000 0.067141 0.000000
# 6 0.000000 0.000000 0.000000 0.000000 0.000000 -0.094343
#
#
# Mechanical properties :
#
#
# Convention : Reuss Voigt Hill
#
# Bulk Modulus (GPa) = 26.61190 57.47623 42.04407
# Shear Modulus (GPa) = -12.40858 15.92616 1.75879
#
# Velocity S-wave (km/s) = -2.45072 2.77644 0.92266
# Velocity P-wave (km/s) = 2.20743 6.17236 4.63523
#
# Compressibility (1/GPa) = 0.03757717
#
# Stress axis : x y z
#
# Youngs Moduli (GPa) = 39.60349 39.70125 40.26260
#
# Poissons Ratio (x) = 0.84602 -0.03575
# Poissons Ratio (y) = 0.84394 -0.06332
# Poissons Ratio (z) = -0.03516 -0.06244
#
# Static dielectric constant tensor:
#      x y z
#    x 1.708940 0.000000 0.000000 
#    y 0.000000 1.723330 0.000000 
#    z 0.000000 0.000000 1.791210 
# 
# From -- ./inp_files/5611.got.cif
#   From: 2010.05.17/outbox.cif.g08.bks.cpg/sg55_3_cif.got.tgz:5611.got - 2010.06.03 13:27:54.
