data_PCOD9426638
_publ_section_title
;
Structure prediction by ZEFSAII (Michael W. Deem and Ramdas Pophale) SiO2 
 PCOD9426638
Probable space group: P B A M
;
_chemical_formula_sum "Si O2"
_cell_formula_units_Z 64
_cell_length_a 19.543226
_cell_length_b 16.704700
_cell_length_c 8.736879
_cell_angle_alpha 90.000000
_cell_angle_beta 90.000000
_cell_angle_gamma 90.000000
_cell_volume 2852.274084
_symmetry_space_group_name_H-M "P B A M"
_symmetry_group_IT_number 55
_symmetry_cell_setting 'orthorhombic'
loop_
_space_group_symop_operation_xyz
x,y,z
-x,-y,z
1/2+x,1/2-y,-z
1/2-x,1/2+y,-z
-x,-y,-z
x,y,-z
1/2-x,1/2+y,z
1/2+x,1/2-y,z
loop_
_atom_site_type_symbol
_atom_site_label
_atom_site_fract_x
_atom_site_fract_y
_atom_site_fract_z
Si Si1 0.530715 0.419078 0.176358
Si Si2 0.594445 0.261018 0.818431
Si Si3 0.072792 0.539257 0.684177
Si Si4 0.310737 0.341358 0.672286
Si Si5 0.270250 0.632331 0.828406
Si Si6 0.652679 0.476614 0.335346
Si Si7 0.840796 0.610973 0.315498
Si Si8 0.881054 0.297474 0.826274
O O1 0.500000 0.500000 0.252793
O O2 0.537803 0.327319 0.234233
O O3 0.609173 0.446944 0.192222
O O4 0.507253 0.415298 0.000000
O O5 0.668877 0.303773 0.801898
O O6 0.603188 0.177885 0.731452
O O7 0.583838 0.248363 0.000000
O O8 0.076535 0.543426 0.500000
O O9 0.131233 0.475655 0.737823
O O10 0.079961 0.629051 0.747879
O O11 0.000000 0.500000 0.725802
O O12 0.300308 0.308410 0.500000
O O13 0.341154 0.429877 0.663061
O O14 0.234411 0.358609 0.740663
O O15 0.369493 0.288699 0.750861
O O16 0.275664 0.566074 0.696650
O O17 0.198145 0.675101 0.822369
O O18 0.275121 0.598814 0.000000
O O19 0.624966 0.448519 0.500000
O O20 0.835494 0.607524 0.500000
O O21 0.905408 0.288929 0.000000
#
# Coordination Sequence:
#
# PCOD9426638 Si02
#       8
#     8   8   8   8   8   8   8   8
#     4   9  19  37  56  75 110 154 191 227 282 346
#     4   9  17  32  54  81 112 145 183 233 286 340
#     4  10  23  44  64  83 117 164 205 245 300 355
#     4  10  21  36  55  85 121 148 181 233 295 353
#     4   9  18  33  53  81 115 146 178 223 289 351
#     4  10  20  33  53  82 113 146 185 230 277 336
#     4  10  20  36  60  87 112 149 196 238 287 349
#     4  11  22  37  60  87 114 147 193 243 290 347
#
# _framework density 22.438237000000001
#
# number of rings (size 3 to 8) (size 9 to 14) (size 15 to 20)
#    0.000    2.250    1.250    2.250    0.000    6.000 
#    2.250    0.000    0.000    0.000    0.000    0.000 
#    0.000    0.000    0.000    0.000    0.000    0.000 
#
# Total GULP energy -356287.746156 kJ/mol
# GULP energy per Si atom -5566.996034 kJ/mol
# Density = 2.238717 g / cm^3
# Si number density = 22.438237 Si / 1000 Ang^3
#
#
#
# Elastic Constant Matrix: (Units=GPa)
#
#
# Indices 1 2 3 4 5 6 
#
# 1 45.2852 -6.8583 -0.2188 0.0000 0.0000 0.0000
# 2 -6.8583 73.4400 19.5473 0.0000 0.0000 0.0000
# 3 -0.2188 19.5473 20.4165 0.0000 0.0000 0.0000
# 4 0.0000 0.0000 0.0000 14.2559 0.0000 0.0000
# 5 0.0000 0.0000 0.0000 0.0000 12.8230 0.0000
# 6 0.0000 0.0000 0.0000 0.0000 0.0000 29.7525
#
#
#
# Elastic Compliance Matrix: (Units=1/GPa)
#
#
# Indices 1 2 3 4 5 6 
#
# 1 0.022485 0.002732 -0.002374 0.000000 0.000000 0.000000
# 2 0.002732 0.018605 -0.017784 0.000000 0.000000 0.000000
# 3 -0.002374 -0.017784 0.065981 0.000000 0.000000 0.000000
# 4 0.000000 0.000000 0.000000 0.070146 0.000000 0.000000
# 5 0.000000 0.000000 0.000000 0.000000 0.077985 0.000000
# 6 0.000000 0.000000 0.000000 0.000000 0.000000 0.033611
#
#
# Mechanical properties :
#
#
# Convention : Reuss Voigt Hill
#
# Bulk Modulus (GPa) = 13.84701 18.23135 16.03918
# Shear Modulus (GPa) = 14.37866 19.81106 17.09486
#
# Velocity S-wave (km/s) = 2.53417 2.97461 2.76318
# Velocity P-wave (km/s) = 3.84022 4.46548 4.16460
#
# Compressibility (1/GPa) = 0.07221778
#
# Stress axis : x y z
#
# Youngs Moduli (GPa) = 44.47503 53.74878 15.15588
#
# Poissons Ratio (x) = -0.14683 0.03599
# Poissons Ratio (y) = -0.12149 0.26953
# Poissons Ratio (z) = 0.10561 0.95585
#
# Static dielectric constant tensor:
#      x y z
#    x 1.984650 0.000000 0.000000 
#    y 0.000000 0.319610 0.000000 
#    z 0.000000 0.000000 1.862600 
# 
# From -- ./inp_files/9805.got.cif
#   From: 2010.05.17/outbox.cif.g08.bks.cpg/sg55_5_cif.got.tgz:9805.got - 2010.06.03 13:27:54.
