data_PCOD9426600
_publ_section_title
;
Structure prediction by ZEFSAII (Michael W. Deem and Ramdas Pophale) SiO2 
 PCOD9426600
Probable space group: P B A M
;
_chemical_formula_sum "Si O2"
_cell_formula_units_Z 56
_cell_length_a 14.860134
_cell_length_b 22.782683
_cell_length_c 8.971732
_cell_angle_alpha 90.000000
_cell_angle_beta 90.000000
_cell_angle_gamma 90.000000
_cell_volume 3037.413264
_symmetry_space_group_name_H-M "P B A M"
_symmetry_group_IT_number 55
_symmetry_cell_setting 'orthorhombic'
loop_
_space_group_symop_operation_xyz
x,y,z
-x,-y,z
1/2+x,1/2-y,-z
1/2-x,1/2+y,-z
-x,-y,-z
x,y,-z
1/2-x,1/2+y,z
1/2+x,1/2-y,z
loop_
_atom_site_type_symbol
_atom_site_label
_atom_site_fract_x
_atom_site_fract_y
_atom_site_fract_z
Si Si1 0.105917 0.782630 0.324278
Si Si2 0.102286 0.224407 0.323518
Si Si3 0.595099 0.853518 0.679524
Si Si4 0.895437 0.997815 0.819748
Si Si5 0.906218 0.648868 0.178086
Si Si6 0.713635 0.612888 0.820726
Si Si7 0.711961 0.390582 0.679659
O O1 0.127028 0.785743 0.500000
O O2 0.114335 0.714573 0.278189
O O3 0.167963 0.828019 0.239111
O O4 0.000397 0.797544 0.303897
O O5 0.113982 0.237503 0.500000
O O6 0.111551 0.284572 0.233796
O O7 0.169900 0.172823 0.280600
O O8 0.585626 0.854117 0.500000
O O9 0.500480 0.870872 0.751092
O O10 0.682756 0.890687 0.721338
O O11 0.845071 0.941618 0.754319
O O12 0.843108 0.056538 0.770576
O O13 0.892748 0.995098 0.000000
O O14 0.000000 0.000000 0.774327
O O15 0.818434 0.611864 0.223729
O O16 0.913987 0.648377 0.000000
O O17 0.710675 0.614325 0.000000
O O18 0.705716 0.395362 0.500000
#
# Coordination Sequence:
#
# PCOD9426600 Si02
#       7
#     8   8   8   8   8   8   8
#     4   9  17  30  52  79 104 134 167 201 250 308
#     4   9  18  33  52  77 109 137 163 205 260 308
#     4   9  19  35  53  77 108 136 167 212 262 306
#     4  10  22  39  56  75 103 137 170 210 260 307
#     4  10  20  33  51  76 104 136 174 210 248 303
#     4  10  21  35  50  73 105 137 171 212 255 300
#     4  10  20  35  56  79 103 135 175 216 257 305
#
# _framework density 18.436741999999999
#
# number of rings (size 3 to 8) (size 9 to 14) (size 15 to 20)
#    0.000    2.429    0.000    3.000    0.000    6.571 
#    0.000    0.714    0.000    4.286    0.000    0.000 
#    0.000    0.000    0.000    0.000    0.000    0.000 
#
# Total GULP energy -312525.324896 kJ/mol
# GULP energy per Si atom -5580.809373 kJ/mol
# Density = 1.839478 g / cm^3
# Si number density = 18.436742 Si / 1000 Ang^3
#
#
#
# Elastic Constant Matrix: (Units=GPa)
#
#
# Indices 1 2 3 4 5 6 
#
# 1 178.3801 75.2333 44.0858 0.0000 0.0000 0.0000
# 2 75.2333 45.6886 19.5086 0.0000 0.0000 0.0000
# 3 44.0858 19.5086 15.5762 0.0000 0.0000 0.0000
# 4 0.0000 0.0000 0.0000 21.1926 0.0000 0.0000
# 5 0.0000 0.0000 0.0000 0.0000 14.0417 0.0000
# 6 0.0000 0.0000 0.0000 0.0000 0.0000 32.3783
#
#
#
# Elastic Compliance Matrix: (Units=1/GPa)
#
#
# Indices 1 2 3 4 5 6 
#
# 1 0.028777 -0.027101 -0.047504 0.000000 0.000000 0.000000
# 2 -0.027101 0.072572 -0.014188 0.000000 0.000000 0.000000
# 3 -0.047504 -0.014188 0.216422 0.000000 0.000000 0.000000
# 4 0.000000 0.000000 0.000000 0.047186 0.000000 0.000000
# 5 0.000000 0.000000 0.000000 0.000000 0.071217 0.000000
# 6 0.000000 0.000000 0.000000 0.000000 0.000000 0.030885
#
#
# Mechanical properties :
#
#
# Convention : Reuss Voigt Hill
#
# Bulk Modulus (GPa) = 7.13347 57.47782 32.30565
# Shear Modulus (GPa) = 7.23199 20.24367 13.73783
#
# Velocity S-wave (km/s) = 1.98270 3.31721 2.73267
# Velocity P-wave (km/s) = 3.01978 6.77608 5.24568
#
# Compressibility (1/GPa) = 0.14018423
#
# Stress axis : x y z
#
# Youngs Moduli (GPa) = 34.75042 13.77938 4.62061
#
# Poissons Ratio (x) = 0.37344 0.21950
# Poissons Ratio (y) = 0.94179 0.06556
# Poissons Ratio (z) = 1.65078 0.19550
#
# Static dielectric constant tensor:
#      x y z
#    x 1.657220 0.000000 0.000000 
#    y 0.000000 1.606020 0.000000 
#    z 0.000000 0.000000 1.618370 
# 
# From -- ./inp_files/6187.got.cif
#   From: 2010.05.17/outbox.cif.g08.bks.cpg/sg55_4_cif.got.tgz:6187.got - 2010.06.03 13:27:54.
