data_PCOD9426971
_publ_section_title
;
Structure prediction by ZEFSAII (Michael W. Deem and Ramdas Pophale) SiO2 
 PCOD9426971
Probable space group: P B A M
;
_chemical_formula_sum "Si O2"
_cell_formula_units_Z 56
_cell_length_a 18.768387
_cell_length_b 9.800716
_cell_length_c 14.085274
_cell_angle_alpha 90.000000
_cell_angle_beta 90.000000
_cell_angle_gamma 90.000000
_cell_volume 2590.896440
_symmetry_space_group_name_H-M "P B A M"
_symmetry_group_IT_number 55
_symmetry_cell_setting 'orthorhombic'
loop_
_space_group_symop_operation_xyz
x,y,z
-x,-y,z
1/2+x,1/2-y,-z
1/2-x,1/2+y,-z
-x,-y,-z
x,y,-z
1/2-x,1/2+y,z
1/2+x,1/2-y,z
loop_
_atom_site_type_symbol
_atom_site_label
_atom_site_fract_x
_atom_site_fract_y
_atom_site_fract_z
Si Si1 0.660170 0.345219 0.386871
Si Si2 0.460215 0.133820 0.240239
Si Si3 0.997682 0.836006 0.387470
Si Si4 0.292169 0.335258 0.113114
Si Si5 0.309326 0.056940 0.795474
Si Si6 0.039657 0.864985 0.112593
Si Si7 0.737764 0.069824 0.612682
O O1 0.650709 0.351294 0.500000
O O2 0.582736 0.300301 0.352053
O O3 0.686712 0.497684 0.361138
O O4 0.719392 0.228112 0.370135
O O5 0.449486 0.241190 0.326740
O O6 0.392016 0.076427 0.183869
O O7 0.494640 0.234069 0.162725
O O8 0.500000 0.000000 0.275237
O O9 0.006740 0.808466 0.500000
O O10 0.000000 0.000000 0.376192
O O11 0.236113 0.446500 0.148128
O O12 0.276310 0.200443 0.173686
O O13 0.375182 0.373870 0.132255
O O14 0.285938 0.311269 0.000000
O O15 0.310764 0.015117 0.684756
O O16 0.031509 0.854745 0.000000
O O17 0.000000 0.000000 0.146796
O O18 0.726154 0.045930 0.500000
#
# Coordination Sequence:
#
# PCOD9426971 Si02
#       7
#     8   8   8   8   8   8   8
#     4   9  19  35  55  82 116 157 202 248 305 367
#     4  11  24  39  59  90 125 159 199 259 319 370
#     4  10  22  40  61  84 117 167 220 260 302 369
#     4  10  22  41  62  86 119 153 197 256 305 360
#     4  11  23  38  60  90 118 159 206 245 309 378
#     4   9  20  40  64  89 118 157 202 248 305 373
#     4  10  20  35  56  84 120 154 190 246 304 366
#
# _framework density 21.614139999999999
#
# number of rings (size 3 to 8) (size 9 to 14) (size 15 to 20)
#    0.000    2.000    0.000    2.571    0.000    7.429 
#    0.000    4.286    0.000    0.000    0.000    0.000 
#    0.000    0.000    0.000    0.000    0.000    0.000 
#
# Total GULP energy -311976.965971 kJ/mol
# GULP energy per Si atom -5571.017249 kJ/mol
# Density = 2.156495 g / cm^3
# Si number density = 21.614140 Si / 1000 Ang^3
#
#
#
# Elastic Constant Matrix: (Units=GPa)
#
#
# Indices 1 2 3 4 5 6 
#
# 1 20.2940 28.0264 12.3989 0.0000 0.0000 0.0000
# 2 28.0264 116.2281 35.5756 0.0000 0.0000 0.0000
# 3 12.3989 35.5756 89.2639 0.0000 0.0000 0.0000
# 4 0.0000 0.0000 0.0000 18.5523 0.0000 0.0000
# 5 0.0000 0.0000 0.0000 0.0000 24.5044 0.0000
# 6 0.0000 0.0000 0.0000 0.0000 0.0000 31.4190
#
#
#
# Elastic Compliance Matrix: (Units=1/GPa)
#
#
# Indices 1 2 3 4 5 6 
#
# 1 0.074908 -0.016945 -0.003652 0.000000 0.000000 0.000000
# 2 -0.016945 0.013632 -0.003079 0.000000 0.000000 0.000000
# 3 -0.003652 -0.003079 0.012937 0.000000 0.000000 0.000000
# 4 0.000000 0.000000 0.000000 0.053902 0.000000 0.000000
# 5 0.000000 0.000000 0.000000 0.000000 0.040809 0.000000
# 6 0.000000 0.000000 0.000000 0.000000 0.000000 0.031828
#
#
# Mechanical properties :
#
#
# Convention : Reuss Voigt Hill
#
# Bulk Modulus (GPa) = 18.47549 41.97641 30.22595
# Shear Modulus (GPa) = 17.04098 24.88083 20.96090
#
# Velocity S-wave (km/s) = 2.81092 3.39652 3.11750
# Velocity P-wave (km/s) = 4.37053 5.90295 5.19357
#
# Compressibility (1/GPa) = 0.05412575
#
# Stress axis : x y z
#
# Youngs Moduli (GPa) = 13.34965 73.35496 77.29642
#
# Poissons Ratio (x) = 1.24301 0.28225
# Poissons Ratio (y) = 0.22621 0.23802
# Poissons Ratio (z) = 0.04875 0.22589
#
# Static dielectric constant tensor:
#      x y z
#    x 1.868730 0.000000 0.000000 
#    y 0.000000 1.776790 0.000000 
#    z 0.000000 0.000000 1.793830 
# 
# From -- ./inp_files/19752.got.cif
#   From: 2010.05.17/outbox.cif.g08.bks.cpg/sg55_10_cif.got.tgz:19752.got - 2010.06.03 13:27:54.
