data_PCOD9426475
_publ_section_title
;
Structure prediction by ZEFSAII (Michael W. Deem and Ramdas Pophale) SiO2 
 PCOD9426475
Probable space group: P B A M
;
_chemical_formula_sum "Si O2"
_cell_formula_units_Z 48
_cell_length_a 28.059839
_cell_length_b 10.434055
_cell_length_c 7.661455
_cell_angle_alpha 90.000000
_cell_angle_beta 90.000000
_cell_angle_gamma 90.000000
_cell_volume 2243.104732
_symmetry_space_group_name_H-M "P B A M"
_symmetry_group_IT_number 55
_symmetry_cell_setting 'orthorhombic'
loop_
_space_group_symop_operation_xyz
x,y,z
-x,-y,z
1/2+x,1/2-y,-z
1/2-x,1/2+y,-z
-x,-y,-z
x,y,-z
1/2-x,1/2+y,z
1/2+x,1/2-y,z
loop_
_atom_site_type_symbol
_atom_site_label
_atom_site_fract_x
_atom_site_fract_y
_atom_site_fract_z
Si Si1 0.357144 0.995250 0.713448
Si Si2 0.532337 0.388148 0.701043
Si Si3 0.460623 0.897451 0.714012
Si Si4 0.680592 0.731899 0.288481
Si Si5 0.789601 0.732601 0.710096
Si Si6 0.637022 0.457324 0.798325
O O1 0.356798 0.995130 0.500000
O O2 0.408320 0.942824 0.769346
O O3 0.316752 0.895107 0.771166
O O4 0.346338 0.139669 0.769878
O O5 0.500000 0.500000 0.781668
O O6 0.515868 0.375142 0.500000
O O7 0.528590 0.245850 0.777623
O O8 0.587829 0.427093 0.700782
O O9 0.459889 0.894188 0.500000
O O10 0.500000 0.000000 0.766859
O O11 0.681147 0.732925 0.500000
O O12 0.735389 0.738336 0.226538
O O13 0.655752 0.600290 0.234509
O O14 0.787387 0.726017 0.500000
O O15 0.821588 0.855999 0.752799
O O16 0.625309 0.441510 0.000000
#
# Coordination Sequence:
#
# PCOD9426475 Si02
#       6
#     8   8   8   8   8   8
#     4   9  17  31  55  84 113 142 181 246 303 337
#     4  10  21  38  63  88 112 150 202 255 301 350
#     4   9  17  30  53  86 115 135 174 241 304 346
#     4  10  21  36  61  90 115 150 200 249 291 342
#     4  10  19  38  63  87 114 149 200 252 292 341
#     4  12  25  39  57  85 127 167 194 235 297 365
#
# _framework density 21.398913
#
# number of rings (size 3 to 8) (size 9 to 14) (size 15 to 20)
#    0.000    2.000    1.667    2.500    2.333    3.667 
#    0.000    0.833    0.000    0.500    0.000    0.000 
#    0.000    0.000    0.000    0.000    0.000    0.000 
#
# Total GULP energy -268251.697074 kJ/mol
# GULP energy per Si atom -5588.577022 kJ/mol
# Density = 2.135021 g / cm^3
# Si number density = 21.398913 Si / 1000 Ang^3
#
#
#
# Elastic Constant Matrix: (Units=GPa)
#
#
# Indices 1 2 3 4 5 6 
#
# 1 96.4781 76.5874 -4.0899 0.0000 0.0000 0.0000
# 2 76.5874 215.5219 -4.5387 0.0000 0.0000 0.0000
# 3 -4.0899 -4.5387 42.5382 0.0000 0.0000 0.0000
# 4 0.0000 0.0000 0.0000 33.1993 0.0000 0.0000
# 5 0.0000 0.0000 0.0000 0.0000 74.2679 0.0000
# 6 0.0000 0.0000 0.0000 0.0000 0.0000 44.9409
#
#
#
# Elastic Compliance Matrix: (Units=1/GPa)
#
#
# Indices 1 2 3 4 5 6 
#
# 1 0.014468 -0.005124 0.000844 0.000000 0.000000 0.000000
# 2 -0.005124 0.006465 0.000197 0.000000 0.000000 0.000000
# 3 0.000844 0.000197 0.023610 0.000000 0.000000 0.000000
# 4 0.000000 0.000000 0.000000 0.030121 0.000000 0.000000
# 5 0.000000 0.000000 0.000000 0.000000 0.013465 0.000000
# 6 0.000000 0.000000 0.000000 0.000000 0.000000 0.022251
#
#
# Mechanical properties :
#
#
# Convention : Reuss Voigt Hill
#
# Bulk Modulus (GPa) = 27.48817 54.49508 40.99163
# Shear Modulus (GPa) = 38.26400 49.58692 43.92546
#
# Velocity S-wave (km/s) = 4.23321 4.81902 4.53558
# Velocity P-wave (km/s) = 6.06358 7.51568 6.82834
#
# Compressibility (1/GPa) = 0.03637928
#
# Stress axis : x y z
#
# Youngs Moduli (GPa) = 69.11758 154.68497 42.35407
#
# Poissons Ratio (x) = 0.79254 -0.03576
# Poissons Ratio (y) = 0.35413 -0.00835
# Poissons Ratio (z) = -0.05836 -0.03050
#
# Static dielectric constant tensor:
#      x y z
#    x 1.741970 0.000000 0.000000 
#    y 0.000000 1.743080 0.000000 
#    z 0.000000 0.000000 1.794220 
# 
# From -- ./inp_files/10535.got.cif
#   From: 2010.05.17/outbox.cif.g08.bks.cpg/sg55_6_cif.got.tgz:10535.got - 2010.06.03 13:27:54.
