data_PCOD9426229
_publ_section_title
;
Structure prediction by ZEFSAII (Michael W. Deem and Ramdas Pophale) SiO2 
 PCOD9426229
Probable space group: P B A M
;
_chemical_formula_sum "Si O2"
_cell_formula_units_Z 64
_cell_length_a 16.018344
_cell_length_b 23.309770
_cell_length_c 9.204829
_cell_angle_alpha 90.000000
_cell_angle_beta 90.000000
_cell_angle_gamma 90.000000
_cell_volume 3436.935084
_symmetry_space_group_name_H-M "P B A M"
_symmetry_group_IT_number 55
_symmetry_cell_setting 'orthorhombic'
loop_
_space_group_symop_operation_xyz
x,y,z
-x,-y,z
1/2+x,1/2-y,-z
1/2-x,1/2+y,-z
-x,-y,-z
x,y,-z
1/2-x,1/2+y,z
1/2+x,1/2-y,z
loop_
_atom_site_type_symbol
_atom_site_label
_atom_site_fract_x
_atom_site_fract_y
_atom_site_fract_z
Si Si1 0.081186 0.253618 0.170884
Si Si2 0.463737 0.348713 0.168915
Si Si3 0.256737 0.072417 0.175719
Si Si4 0.429223 0.545009 0.176217
Si Si5 0.903772 0.517065 0.172850
Si Si6 0.377157 0.863464 0.669380
Si Si7 0.809836 0.185768 0.667595
Si Si8 0.760680 0.804795 0.324210
O O1 0.071920 0.315961 0.240677
O O2 0.152938 0.218814 0.256456
O O3 0.999331 0.215043 0.184100
O O4 0.103443 0.257544 0.000000
O O5 0.533465 0.393398 0.220683
O O6 0.375980 0.351229 0.246112
O O7 0.451468 0.361536 0.000000
O O8 0.168137 0.042497 0.219697
O O9 0.260778 0.134072 0.254263
O O10 0.336371 0.032480 0.209135
O O11 0.254289 0.081219 0.000000
O O12 0.500000 0.500000 0.226480
O O13 0.427558 0.541148 0.000000
O O14 0.885001 0.574277 0.261979
O O15 0.000000 0.500000 0.199500
O O16 0.894986 0.528396 0.000000
O O17 0.400722 0.863102 0.500000
O O18 0.281772 0.841442 0.680432
O O19 0.834589 0.185379 0.500000
O O20 0.802608 0.252558 0.712958
O O21 0.766599 0.808171 0.500000
#
# Coordination Sequence:
#
# PCOD9426229 Si02
#       8
#     8   8   8   8   8   8   8   8
#     4  10  19  35  58  84 115 148 190 240 287 344
#     4  10  20  33  55  87 116 145 189 233 280 342
#     4  10  20  37  61  84 116 156 192 242 292 336
#     4   9  18  33  54  83 116 148 189 233 278 342
#     4  10  23  41  61  88 116 149 199 249 294 347
#     4  10  22  40  60  83 114 154 196 237 293 353
#     4   9  21  37  53  80 117 151 186 230 282 348
#     4  10  20  36  56  81 113 150 192 235 285 345
#
# _framework density 18.621241999999999
#
# number of rings (size 3 to 8) (size 9 to 14) (size 15 to 20)
#    0.000    2.250    1.250    1.875    1.750    5.750 
#    0.000    3.750    0.000    0.750    0.000    0.000 
#    0.000    0.000    0.000    0.000    0.000    0.000 
#
# Total GULP energy -356818.694930 kJ/mol
# GULP energy per Si atom -5575.292108 kJ/mol
# Density = 1.857886 g / cm^3
# Si number density = 18.621242 Si / 1000 Ang^3
#
#
#
# Elastic Constant Matrix: (Units=GPa)
#
#
# Indices 1 2 3 4 5 6 
#
# 1 68.4707 34.0008 27.8975 0.0000 0.0000 0.0000
# 2 34.0008 115.9515 46.7465 0.0000 0.0000 0.0000
# 3 27.8975 46.7465 42.8033 0.0000 0.0000 0.0000
# 4 0.0000 0.0000 0.0000 26.7249 0.0000 0.0000
# 5 0.0000 0.0000 0.0000 0.0000 -26.3168 0.0000
# 6 0.0000 0.0000 0.0000 0.0000 0.0000 13.6095
#
#
#
# Elastic Compliance Matrix: (Units=1/GPa)
#
#
# Indices 1 2 3 4 5 6 
#
# 1 0.019962 -0.001087 -0.011823 0.000000 0.000000 0.000000
# 2 -0.001087 0.015468 -0.016184 0.000000 0.000000 0.000000
# 3 -0.011823 -0.016184 0.048744 0.000000 0.000000 0.000000
# 4 0.000000 0.000000 0.000000 0.037418 0.000000 0.000000
# 5 0.000000 0.000000 0.000000 0.000000 -0.037999 0.000000
# 6 0.000000 0.000000 0.000000 0.000000 0.000000 0.073478
#
#
# Mechanical properties :
#
#
# Convention : Reuss Voigt Hill
#
# Bulk Modulus (GPa) = 38.48456 49.39057 43.93756
# Shear Modulus (GPa) = 22.32920 10.70892 16.51906
#
# Velocity S-wave (km/s) = 3.46660 2.40071 2.98167
# Velocity P-wave (km/s) = 6.06093 5.85371 5.95822
#
# Compressibility (1/GPa) = 0.02598445
#
# Stress axis : x y z
#
# Youngs Moduli (GPa) = 50.09586 64.65032 20.51530
#
# Poissons Ratio (x) = 0.07026 0.24256
# Poissons Ratio (y) = 0.05444 0.33203
# Poissons Ratio (z) = 0.59230 1.04633
#
# Static dielectric constant tensor:
#      x y z
#    x 1.648640 0.000000 0.000000 
#    y 0.000000 1.650930 0.000000 
#    z 0.000000 0.000000 1.627470 
# 
# From -- ./inp_files/6639.got.cif
#   From: 2010.05.17/outbox.cif.g08.bks.cpg/sg55_4_cif.got.tgz:6639.got - 2010.06.03 13:27:54.
