data_PCOD9426289
_publ_section_title
;
Structure prediction by ZEFSAII (Michael W. Deem and Ramdas Pophale) SiO2 
 PCOD9426289
Probable space group: P B A M
;
_chemical_formula_sum "Si O2"
_cell_formula_units_Z 48
_cell_length_a 9.244440
_cell_length_b 15.240052
_cell_length_c 17.433688
_cell_angle_alpha 90.000000
_cell_angle_beta 90.000000
_cell_angle_gamma 90.000000
_cell_volume 2456.158145
_symmetry_space_group_name_H-M "P B A M"
_symmetry_group_IT_number 55
_symmetry_cell_setting 'orthorhombic'
loop_
_space_group_symop_operation_xyz
x,y,z
-x,-y,z
1/2+x,1/2-y,-z
1/2-x,1/2+y,-z
-x,-y,-z
x,y,-z
1/2-x,1/2+y,z
1/2+x,1/2-y,z
loop_
_atom_site_type_symbol
_atom_site_label
_atom_site_fract_x
_atom_site_fract_y
_atom_site_fract_z
Si Si1 0.362848 0.172574 0.000000
Si Si2 0.979234 0.246264 0.382615
Si Si3 0.569115 0.901889 0.500000
Si Si4 0.156750 0.610299 0.831396
Si Si5 0.419802 0.596761 0.500000
Si Si6 0.810252 0.582692 0.168092
Si Si7 0.292204 0.856731 0.000000
Si Si8 0.231604 0.264014 0.275974
O O1 0.310400 0.128972 0.920903
O O2 0.537379 0.168632 0.000000
O O3 0.305579 0.270949 0.000000
O O4 0.034171 0.161204 0.429382
O O5 0.067479 0.256138 0.303826
O O6 0.979592 0.338181 0.429398
O O7 0.815773 0.231152 0.356095
O O8 0.744575 0.912491 0.500000
O O9 0.500000 0.000000 0.500000
O O10 0.215446 0.516080 0.807385
O O11 0.221033 0.682926 0.776079
O O12 0.982328 0.603426 0.827838
O O13 0.500000 0.500000 0.500000
O O14 0.766664 0.593171 0.079375
O O15 0.738338 0.651576 0.224298
#
# Coordination Sequence:
#
# PCOD9426289 Si02
#       8
#     4   8   4   8   4   8   4   8
#     4  10  19  35  61  84 120 160 215 265 307 364
#     4  11  26  44  66  95 133 162 206 258 311 376
#     4  11  26  46  73  99 125 169 209 249 310 378
#     4  10  21  37  60  90 121 166 217 261 309 371
#     4  11  26  46  71 101 129 163 209 253 308 376
#     4  10  21  37  61  88 122 167 216 260 312 370
#     4  10  19  35  61  86 116 164 215 263 311 362
#     4  12  22  40  64  92 128 168 204 259 317 371
#
# _framework density 19.542715000000001
#
# number of rings (size 3 to 8) (size 9 to 14) (size 15 to 20)
#    0.000    1.333    5.000    0.500    2.333    4.667 
#    0.000    0.000    0.000    1.000    0.000    0.000 
#    0.000    0.000    0.000    0.000    0.000    0.000 
#
# Total GULP energy -267752.292379 kJ/mol
# GULP energy per Si atom -5578.172758 kJ/mol
# Density = 1.949823 g / cm^3
# Si number density = 19.542715 Si / 1000 Ang^3
#
#
#
# Elastic Constant Matrix: (Units=GPa)
#
#
# Indices 1 2 3 4 5 6 
#
# 1 31.4412 41.2187 10.8819 0.0000 0.0000 0.0000
# 2 41.2187 165.5426 66.0246 0.0000 0.0000 0.0000
# 3 10.8819 66.0246 89.6592 0.0000 0.0000 0.0000
# 4 0.0000 0.0000 0.0000 248.2915 0.0000 0.0000
# 5 0.0000 0.0000 0.0000 0.0000 21.7125 0.0000
# 6 0.0000 0.0000 0.0000 0.0000 0.0000 29.9000
#
#
#
# Elastic Compliance Matrix: (Units=1/GPa)
#
#
# Indices 1 2 3 4 5 6 
#
# 1 0.048332 -0.013726 0.004242 0.000000 0.000000 0.000000
# 2 -0.013726 0.012451 -0.007503 0.000000 0.000000 0.000000
# 3 0.004242 -0.007503 0.016164 0.000000 0.000000 0.000000
# 4 0.000000 0.000000 0.000000 0.004028 0.000000 0.000000
# 5 0.000000 0.000000 0.000000 0.000000 0.046056 0.000000
# 6 0.000000 0.000000 0.000000 0.000000 0.000000 0.033445
#
#
# Mechanical properties :
#
#
# Convention : Reuss Voigt Hill
#
# Bulk Modulus (GPa) = 23.27097 58.09926 40.68512
# Shear Modulus (GPa) = 23.94949 71.21532 47.58240
#
# Velocity S-wave (km/s) = 3.50450 6.04317 4.93971
# Velocity P-wave (km/s) = 5.32062 8.85930 7.30740
#
# Compressibility (1/GPa) = 0.04297199
#
# Stress axis : x y z
#
# Youngs Moduli (GPa) = 20.69035 80.31640 61.86767
#
# Poissons Ratio (x) = 1.10242 -0.26242
# Poissons Ratio (y) = 0.28399 0.46418
# Poissons Ratio (z) = -0.08776 0.60259
#
# Static dielectric constant tensor:
#      x y z
#    x 1.676220 0.000000 0.000000 
#    y 0.000000 1.649440 0.000000 
#    z 0.000000 0.000000 1.695400 
# 
# From -- ./inp_files/20862.got.cif
#   From: 2010.05.17/outbox.cif.g08.bks.cpg/sg55_11_cif.got.tgz:20862.got - 2010.06.03 13:27:54.
