data_PCOD9426209
_publ_section_title
;
Structure prediction by ZEFSAII (Michael W. Deem and Ramdas Pophale) SiO2 
 PCOD9426209
Probable space group: P B A M
;
_chemical_formula_sum "Si O2"
_cell_formula_units_Z 48
_cell_length_a 22.734282
_cell_length_b 8.021522
_cell_length_c 12.725942
_cell_angle_alpha 90.000000
_cell_angle_beta 90.000000
_cell_angle_gamma 90.000000
_cell_volume 2320.747874
_symmetry_space_group_name_H-M "P B A M"
_symmetry_group_IT_number 55
_symmetry_cell_setting 'orthorhombic'
loop_
_space_group_symop_operation_xyz
x,y,z
-x,-y,z
1/2+x,1/2-y,-z
1/2-x,1/2+y,-z
-x,-y,-z
x,y,-z
1/2-x,1/2+y,z
1/2+x,1/2-y,z
loop_
_atom_site_type_symbol
_atom_site_label
_atom_site_fract_x
_atom_site_fract_y
_atom_site_fract_z
Si Si1 0.178192 0.051229 0.885623
Si Si2 0.113669 0.492964 0.125430
Si Si3 0.415999 0.647943 0.241200
Si Si4 0.216748 0.723415 0.199687
Si Si5 0.468003 0.169511 0.720991
Si Si6 0.363190 0.369903 0.378013
O O1 0.110441 0.030892 0.850934
O O2 0.217091 0.158351 0.804353
O O3 0.207138 0.871082 0.882625
O O4 0.182437 0.127978 0.000000
O O5 0.105410 0.325657 0.194049
O O6 0.174782 0.575358 0.160385
O O7 0.062632 0.615014 0.169644
O O8 0.109974 0.469478 0.000000
O O9 0.483584 0.687358 0.262478
O O10 0.386149 0.552306 0.339391
O O11 0.190932 0.801635 0.307133
O O12 0.416809 0.242681 0.647834
O O13 0.500000 0.000000 0.680589
O O14 0.349051 0.371492 0.500000
#
# Coordination Sequence:
#
# PCOD9426209 Si02
#       6
#     8   8   8   8   8   8
#     4  11  20  33  56  84 119 154 184 227 285 347
#     4  10  19  35  57  82 120 158 188 235 295 350
#     4  10  21  34  54  87 117 149 197 239 279 346
#     4  10  22  38  57  88 116 147 198 239 279 349
#     4   9  20  36  57  87 118 149 196 245 288 353
#     4  10  22  42  63  82 114 156 198 252 302 335
#
# _framework density 20.682988000000002
#
# number of rings (size 3 to 8) (size 9 to 14) (size 15 to 20)
#    0.000    2.000    0.000    3.500    0.000    5.333 
#    0.000   10.833    0.000   14.000    0.000    0.000 
#    0.000    0.000    0.000    0.000    0.000    0.000 
#
# Total GULP energy -267391.535217 kJ/mol
# GULP energy per Si atom -5570.656984 kJ/mol
# Density = 2.063591 g / cm^3
# Si number density = 20.682988 Si / 1000 Ang^3
#
#
#
# Elastic Constant Matrix: (Units=GPa)
#
#
# Indices 1 2 3 4 5 6 
#
# 1 47.1181 -7.0597 34.4702 0.0000 0.0000 0.0000
# 2 -7.0597 72.0397 31.3577 0.0000 0.0000 0.0000
# 3 34.4702 31.3577 151.7311 0.0000 0.0000 0.0000
# 4 0.0000 0.0000 0.0000 20.9217 0.0000 0.0000
# 5 0.0000 0.0000 0.0000 0.0000 7.5248 0.0000
# 6 0.0000 0.0000 0.0000 0.0000 0.0000 36.1312
#
#
#
# Elastic Compliance Matrix: (Units=1/GPa)
#
#
# Indices 1 2 3 4 5 6 
#
# 1 0.027610 0.005973 -0.007507 0.000000 0.000000 0.000000
# 2 0.005973 0.016546 -0.004776 0.000000 0.000000 0.000000
# 3 -0.007507 -0.004776 0.009283 0.000000 0.000000 0.000000
# 4 0.000000 0.000000 0.000000 0.047797 0.000000 0.000000
# 5 0.000000 0.000000 0.000000 0.000000 0.132894 0.000000
# 6 0.000000 0.000000 0.000000 0.000000 0.000000 0.027677
#
#
# Mechanical properties :
#
#
# Convention : Reuss Voigt Hill
#
# Bulk Modulus (GPa) = 24.49844 43.15836 33.82840
# Shear Modulus (GPa) = 17.35906 27.05691 22.20798
#
# Velocity S-wave (km/s) = 2.90020 3.62079 3.28034
# Velocity P-wave (km/s) = 4.80472 6.19613 5.54425
#
# Compressibility (1/GPa) = 0.04081893
#
# Stress axis : x y z
#
# Youngs Moduli (GPa) = 36.21860 60.43854 107.72188
#
# Poissons Ratio (x) = -0.36102 0.80866
# Poissons Ratio (y) = -0.21635 0.51453
# Poissons Ratio (z) = 0.27189 0.28868
#
# Static dielectric constant tensor:
#      x y z
#    x 1.791460 0.000000 0.000000 
#    y 0.000000 1.823300 0.000000 
#    z 0.000000 0.000000 1.716600 
# 
# From -- ./inp_files/15611.got.cif
#   From: 2010.05.17/outbox.cif.g08.bks.cpg/sg55_8_cif.got.tgz:15611.got - 2010.06.03 13:27:54.
