data_PCOD9426324
_publ_section_title
;
Structure prediction by ZEFSAII (Michael W. Deem and Ramdas Pophale) SiO2 
 PCOD9426324
Probable space group: P B A M
;
_chemical_formula_sum "Si O2"
_cell_formula_units_Z 64
_cell_length_a 10.536214
_cell_length_b 19.380751
_cell_length_c 13.899448
_cell_angle_alpha 90.000000
_cell_angle_beta 90.000000
_cell_angle_gamma 90.000000
_cell_volume 2838.263668
_symmetry_space_group_name_H-M "P B A M"
_symmetry_group_IT_number 55
_symmetry_cell_setting 'orthorhombic'
loop_
_space_group_symop_operation_xyz
x,y,z
-x,-y,z
1/2+x,1/2-y,-z
1/2-x,1/2+y,-z
-x,-y,-z
x,y,-z
1/2-x,1/2+y,z
1/2+x,1/2-y,z
loop_
_atom_site_type_symbol
_atom_site_label
_atom_site_fract_x
_atom_site_fract_y
_atom_site_fract_z
Si Si1 0.113488 0.658818 0.390316
Si Si2 0.537489 0.577543 0.776549
Si Si3 0.601773 0.896663 0.179509
Si Si4 0.448322 0.689636 0.115339
Si Si5 0.406186 0.323000 0.391621
Si Si6 0.824004 0.546375 0.194624
Si Si7 0.657566 0.086287 0.601013
Si Si8 0.802385 0.257855 0.109136
O O1 0.171908 0.649941 0.500000
O O2 0.153414 0.626043 0.286554
O O3 0.101462 0.741263 0.374121
O O4 0.975182 0.624752 0.398838
O O5 0.500000 0.500000 0.751411
O O6 0.442905 0.610447 0.854492
O O7 0.524493 0.628346 0.685126
O O8 0.682408 0.575494 0.818340
O O9 0.447204 0.905435 0.175187
O O10 0.646766 0.835909 0.110683
O O11 0.653915 0.971519 0.150567
O O12 0.335540 0.736837 0.155568
O O13 0.584032 0.714941 0.153465
O O14 0.444952 0.695962 0.000000
O O15 0.457736 0.331975 0.500000
O O16 0.264929 0.355459 0.390071
O O17 0.833332 0.535863 0.309919
O O18 0.675089 0.048608 0.500000
O O19 0.787108 0.232290 0.000000
#
# Coordination Sequence:
#
# PCOD9426324 Si02
#       8
#     8   8   8   8   8   8   8   8
#     4   9  17  31  52  80 109 146 195 243 293 342
#     4  11  22  38  57  84 117 160 201 239 297 355
#     4  10  19  36  56  83 118 153 194 245 290 343
#     4  10  23  42  66  93 119 151 194 244 296 354
#     4   9  18  34  52  77 111 149 195 243 292 347
#     4   9  20  34  53  81 116 155 198 238 288 352
#     4   8  15  30  51  71 104 148 190 240 287 333
#     4  10  22  41  65  92 119 150 191 239 294 351
#
# _framework density 22.548997
#
# number of rings (size 3 to 8) (size 9 to 14) (size 15 to 20)
#    0.000    2.500    0.000    1.500    1.750    1.000 
#    9.000    4.375    0.000    0.000    0.000    0.000 
#    0.000    0.000    0.000    0.000    0.000    0.000 
#
# Total GULP energy -356654.625459 kJ/mol
# GULP energy per Si atom -5572.728523 kJ/mol
# Density = 2.249767 g / cm^3
# Si number density = 22.548997 Si / 1000 Ang^3
#
#
#
# Elastic Constant Matrix: (Units=GPa)
#
#
# Indices 1 2 3 4 5 6 
#
# 1 68.8743 10.5888 10.0564 0.0000 0.0000 0.0000
# 2 10.5888 87.6342 -0.0758 0.0000 0.0000 0.0000
# 3 10.0564 -0.0758 30.0257 0.0000 0.0000 0.0000
# 4 0.0000 0.0000 0.0000 17.0432 0.0000 0.0000
# 5 0.0000 0.0000 0.0000 0.0000 12.5642 0.0000
# 6 0.0000 0.0000 0.0000 0.0000 0.0000 -12.0501
#
#
#
# Elastic Compliance Matrix: (Units=1/GPa)
#
#
# Indices 1 2 3 4 5 6 
#
# 1 0.015571 -0.001886 -0.005220 0.000000 0.000000 0.000000
# 2 -0.001886 0.011640 0.000661 0.000000 0.000000 0.000000
# 3 -0.005220 0.000661 0.035055 0.000000 0.000000 0.000000
# 4 0.000000 0.000000 0.000000 0.058675 0.000000 0.000000
# 5 0.000000 0.000000 0.000000 0.000000 0.079591 0.000000
# 6 0.000000 0.000000 0.000000 0.000000 0.000000 -0.082987
#
#
# Mechanical properties :
#
#
# Convention : Reuss Voigt Hill
#
# Bulk Modulus (GPa) = 20.25284 25.29699 22.77492
# Shear Modulus (GPa) = 34.03834 14.57577 24.30706
#
# Velocity S-wave (km/s) = 3.88948 2.54521 3.28680
# Velocity P-wave (km/s) = 5.40110 4.45875 4.95239
#
# Compressibility (1/GPa) = 0.04937579
#
# Stress axis : x y z
#
# Youngs Moduli (GPa) = 64.22059 85.91415 28.52678
#
# Poissons Ratio (x) = 0.16203 0.14891
# Poissons Ratio (y) = 0.12112 -0.01886
# Poissons Ratio (z) = 0.33523 -0.05680
#
# Static dielectric constant tensor:
#      x y z
#    x 1.879510 0.000000 0.000000 
#    y 0.000000 1.847790 0.000000 
#    z 0.000000 0.000000 1.896030 
# 
# From -- ./inp_files/18588.got.cif
#   From: 2010.05.17/outbox.cif.g08.bks.cpg/sg55_10_cif.got.tgz:18588.got - 2010.06.03 13:27:54.
