data_PCOD9426699
_publ_section_title
;
Structure prediction by ZEFSAII (Michael W. Deem and Ramdas Pophale) SiO2 
 PCOD9426699
Probable space group: P B A M
;
_chemical_formula_sum "Si O2"
_cell_formula_units_Z 64
_cell_length_a 19.476535
_cell_length_b 23.528994
_cell_length_c 8.808615
_cell_angle_alpha 90.000000
_cell_angle_beta 90.000000
_cell_angle_gamma 90.000000
_cell_volume 4036.664759
_symmetry_space_group_name_H-M "P B A M"
_symmetry_group_IT_number 55
_symmetry_cell_setting 'orthorhombic'
loop_
_space_group_symop_operation_xyz
x,y,z
-x,-y,z
1/2+x,1/2-y,-z
1/2-x,1/2+y,-z
-x,-y,-z
x,y,-z
1/2-x,1/2+y,z
1/2+x,1/2-y,z
loop_
_atom_site_type_symbol
_atom_site_label
_atom_site_fract_x
_atom_site_fract_y
_atom_site_fract_z
Si Si1 0.491467 0.382270 0.181840
Si Si2 0.503836 0.752233 0.181683
Si Si3 0.354771 0.436208 0.680243
Si Si4 0.780160 0.839034 0.319401
Si Si5 0.859901 0.721806 0.681432
Si Si6 0.137412 0.060116 0.819405
Si Si7 0.350941 0.232447 0.681932
Si Si8 0.267948 0.338356 0.181274
O O1 0.497231 0.315420 0.217927
O O2 0.427644 0.410244 0.266626
O O3 0.562501 0.413847 0.219213
O O4 0.480070 0.387309 0.000000
O O5 0.435934 0.779893 0.251788
O O6 0.573815 0.776450 0.251500
O O7 0.503675 0.757876 0.000000
O O8 0.348701 0.432247 0.500000
O O9 0.351615 0.500965 0.735009
O O10 0.296472 0.397807 0.758161
O O11 0.784922 0.849996 0.500000
O O12 0.828435 0.784514 0.285405
O O13 0.807032 0.892976 0.229079
O O14 0.703227 0.817757 0.284491
O O15 0.859879 0.714771 0.500000
O O16 0.807042 0.677755 0.756165
O O17 0.139067 0.050943 0.000000
O O18 0.353180 0.239743 0.500000
O O19 0.318823 0.289477 0.754506
O O20 0.269086 0.336734 0.000000
#
# Coordination Sequence:
#
# PCOD9426699 Si02
#       8
#     8   8   8   8   8   8   8   8
#     4  10  21  35  49  72 105 140 178 216 252 299
#     4  11  20  32  52  79 107 140 174 212 259 310
#     4  12  24  36  52  73 101 138 180 218 260 306
#     4   9  19  34  51  73 101 132 171 213 257 305
#     4  10  20  34  53  76 105 136 170 214 261 311
#     4  11  22  36  53  72 101 138 178 217 258 303
#     4  10  20  34  52  76 104 136 171 214 263 310
#     4  11  21  35  53  74 101 134 174 217 261 309
#
# _framework density 15.854673999999999
#
# number of rings (size 3 to 8) (size 9 to 14) (size 15 to 20)
#    0.000    1.500    2.500    4.875    0.000    5.500 
#    0.000    0.000    0.000    0.000    0.000    0.875 
#    0.000    7.000    0.000    0.000    0.000    0.000 
#
# Total GULP energy -357550.909689 kJ/mol
# GULP energy per Si atom -5586.732964 kJ/mol
# Density = 1.581859 g / cm^3
# Si number density = 15.854674 Si / 1000 Ang^3
#
#
#
# Elastic Constant Matrix: (Units=GPa)
#
#
# Indices 1 2 3 4 5 6 
#
# 1 135.3916 44.9169 58.6044 0.0000 0.0000 0.0000
# 2 44.9169 63.9724 44.3155 0.0000 0.0000 0.0000
# 3 58.6044 44.3155 79.7376 0.0000 0.0000 0.0000
# 4 0.0000 0.0000 0.0000 25.7377 0.0000 0.0000
# 5 0.0000 0.0000 0.0000 0.0000 30.8798 0.0000
# 6 0.0000 0.0000 0.0000 0.0000 0.0000 17.5825
#
#
#
# Elastic Compliance Matrix: (Units=1/GPa)
#
#
# Indices 1 2 3 4 5 6 
#
# 1 0.011306 -0.003548 -0.006338 0.000000 0.000000 0.000000
# 2 -0.003548 0.026531 -0.012137 0.000000 0.000000 0.000000
# 3 -0.006338 -0.012137 0.023945 0.000000 0.000000 0.000000
# 4 0.000000 0.000000 0.000000 0.038853 0.000000 0.000000
# 5 0.000000 0.000000 0.000000 0.000000 0.032384 0.000000
# 6 0.000000 0.000000 0.000000 0.000000 0.000000 0.056875
#
#
# Mechanical properties :
#
#
# Convention : Reuss Voigt Hill
#
# Bulk Modulus (GPa) = 56.38408 63.86391 60.12400
# Shear Modulus (GPa) = 20.84621 23.59100 22.21860
#
# Velocity S-wave (km/s) = 3.62999 3.86158 3.74758
# Velocity P-wave (km/s) = 7.29448 7.76213 7.53194
#
# Compressibility (1/GPa) = 0.01773550
#
# Stress axis : x y z
#
# Youngs Moduli (GPa) = 88.44483 37.69221 41.76296
#
# Poissons Ratio (x) = 0.13374 0.26469
# Poissons Ratio (y) = 0.31382 0.50688
# Poissons Ratio (z) = 0.56056 0.45747
#
# Static dielectric constant tensor:
#      x y z
#    x 1.523870 0.000000 0.000000 
#    y 0.000000 1.504900 0.000000 
#    z 0.000000 0.000000 1.527170 
# 
# From -- ./inp_files/7998.got.cif
#   From: 2010.05.17/outbox.cif.g08.bks.cpg/sg55_4_cif.got.tgz:7998.got - 2010.06.03 13:27:54.
