data_PCOD9426860
_publ_section_title
;
Structure prediction by ZEFSAII (Michael W. Deem and Ramdas Pophale) SiO2 
 PCOD9426860
Probable space group: P B A M
;
_chemical_formula_sum "Si O2"
_cell_formula_units_Z 56
_cell_length_a 8.309114
_cell_length_b 19.805305
_cell_length_c 14.305858
_cell_angle_alpha 90.000000
_cell_angle_beta 90.000000
_cell_angle_gamma 90.000000
_cell_volume 2354.236899
_symmetry_space_group_name_H-M "P B A M"
_symmetry_group_IT_number 55
_symmetry_cell_setting 'orthorhombic'
loop_
_space_group_symop_operation_xyz
x,y,z
-x,-y,z
1/2+x,1/2-y,-z
1/2-x,1/2+y,-z
-x,-y,-z
x,y,-z
1/2-x,1/2+y,z
1/2+x,1/2-y,z
loop_
_atom_site_type_symbol
_atom_site_label
_atom_site_fract_x
_atom_site_fract_y
_atom_site_fract_z
Si Si1 0.235770 0.120827 0.101993
Si Si2 0.905363 0.905536 0.296245
Si Si3 0.610987 0.086457 0.105274
Si Si4 0.892095 0.657513 0.389886
Si Si5 0.184553 0.777300 0.103142
Si Si6 0.434261 0.277351 0.309808
Si Si7 0.237876 0.467650 0.297842
O O1 0.127045 0.096119 0.185656
O O2 0.419825 0.096219 0.114406
O O3 0.243761 0.202226 0.104195
O O4 0.178267 0.098936 0.000000
O O5 0.921855 0.829786 0.334455
O O6 0.082831 0.936493 0.308843
O O7 0.766115 0.955762 0.330837
O O8 0.688311 0.161525 0.110432
O O9 0.682556 0.043105 0.190310
O O10 0.644801 0.060364 0.000000
O O11 0.910023 0.661993 0.500000
O O12 0.725990 0.693803 0.357351
O O13 0.026808 0.701760 0.339065
O O14 0.878350 0.580572 0.356255
O O15 0.084960 0.781404 0.198215
O O16 0.105353 0.784408 0.000000
#
# Coordination Sequence:
#
# PCOD9426860 Si02
#       7
#     8   8   8   8   8   8   8
#     4  10  22  34  53  86 125 166 213 256 299 360
#     4  10  22  38  58  86 122 163 208 258 310 367
#     4  10  20  36  56  84 123 168 207 246 299 365
#     4  11  23  42  68  94 121 156 203 261 321 374
#     4  10  20  34  58  91 128 165 202 251 308 366
#     4  11  22  41  64  95 126 158 207 258 309 374
#     4  10  22  41  60  85 124 166 208 252 313 376
#
# _framework density 23.786901
#
# number of rings (size 3 to 8) (size 9 to 14) (size 15 to 20)
#    0.000    1.714    2.857    2.143    2.000    2.286 
#    0.000    9.286    0.000    0.000    0.000    7.000 
#    0.000    0.000    0.000    0.000    0.000    0.000 
#
# Total GULP energy -313297.742528 kJ/mol
# GULP energy per Si atom -5594.602545 kJ/mol
# Density = 2.373276 g / cm^3
# Si number density = 23.786901 Si / 1000 Ang^3
#
#
#
# Elastic Constant Matrix: (Units=GPa)
#
#
# Indices 1 2 3 4 5 6 
#
# 1 49.4463 2.3556 13.6588 0.0000 0.0000 0.0000
# 2 2.3556 77.8713 5.4251 0.0000 0.0000 0.0000
# 3 13.6588 5.4251 84.1059 0.0000 0.0000 0.0000
# 4 0.0000 0.0000 0.0000 -1.7089 0.0000 0.0000
# 5 0.0000 0.0000 0.0000 0.0000 9.5535 0.0000
# 6 0.0000 0.0000 0.0000 0.0000 0.0000 34.3271
#
#
#
# Elastic Compliance Matrix: (Units=1/GPa)
#
#
# Indices 1 2 3 4 5 6 
#
# 1 0.021186 -0.000403 -0.003415 0.000000 0.000000 0.000000
# 2 -0.000403 0.012907 -0.000767 0.000000 0.000000 0.000000
# 3 -0.003415 -0.000767 0.012494 0.000000 0.000000 0.000000
# 4 0.000000 0.000000 0.000000 -0.585180 0.000000 0.000000
# 5 0.000000 0.000000 0.000000 0.000000 0.104673 0.000000
# 6 0.000000 0.000000 0.000000 0.000000 0.000000 0.029131
#
#
# Mechanical properties :
#
#
# Convention : Reuss Voigt Hill
#
# Bulk Modulus (GPa) = 26.72512 28.25583 27.49048
# Shear Modulus (GPa) = -13.04987 21.09995 4.02504
#
# Velocity S-wave (km/s) = -2.34480 2.98155 1.30223
# Velocity P-wave (km/s) = 1.98214 4.87416 3.72064
#
# Compressibility (1/GPa) = 0.03741797
#
# Stress axis : x y z
#
# Youngs Moduli (GPa) = 47.20001 77.47528 80.03970
#
# Poissons Ratio (x) = 0.03122 0.27331
# Poissons Ratio (y) = 0.01902 0.06140
# Poissons Ratio (z) = 0.16117 0.05943
#
# Static dielectric constant tensor:
#      x y z
#    x 1.914400 0.000000 0.000000 
#    y 0.000000 1.970460 0.000000 
#    z 0.000000 0.000000 1.883650 
# 
# From -- ./inp_files/17638.got.cif
#   From: 2010.05.17/outbox.cif.g08.bks.cpg/sg55_9_cif.got.tgz:17638.got - 2010.06.03 13:27:54.
