data_PCOD9426717
_publ_section_title
;
Structure prediction by ZEFSAII (Michael W. Deem and Ramdas Pophale) SiO2 
 PCOD9426717
Probable space group: P B A M
;
_chemical_formula_sum "Si O2"
_cell_formula_units_Z 64
_cell_length_a 24.430567
_cell_length_b 15.468740
_cell_length_c 7.978173
_cell_angle_alpha 90.000000
_cell_angle_beta 90.000000
_cell_angle_gamma 90.000000
_cell_volume 3015.032068
_symmetry_space_group_name_H-M "P B A M"
_symmetry_group_IT_number 55
_symmetry_cell_setting 'orthorhombic'
loop_
_space_group_symop_operation_xyz
x,y,z
-x,-y,z
1/2+x,1/2-y,-z
1/2-x,1/2+y,-z
-x,-y,-z
x,y,-z
1/2-x,1/2+y,z
1/2+x,1/2-y,z
loop_
_atom_site_type_symbol
_atom_site_label
_atom_site_fract_x
_atom_site_fract_y
_atom_site_fract_z
Si Si1 0.367005 0.191173 0.701540
Si Si2 0.244034 0.222883 0.697628
Si Si3 0.521985 0.741902 0.200881
Si Si4 0.542314 0.425439 0.205322
Si Si5 0.640682 0.001422 0.301648
Si Si6 0.167948 0.063060 0.798843
Si Si7 0.966616 0.583574 0.203026
Si Si8 0.249835 0.917687 0.806189
O O1 0.366218 0.195491 0.500000
O O2 0.305617 0.207060 0.764736
O O3 0.413676 0.256439 0.760223
O O4 0.381261 0.092783 0.752324
O O5 0.245037 0.206218 0.500000
O O6 0.200748 0.152787 0.766125
O O7 0.235530 0.325301 0.725154
O O8 0.486226 0.662624 0.263390
O O9 0.495682 0.830472 0.265450
O O10 0.517292 0.741965 0.000000
O O11 0.500000 0.500000 0.255001
O O12 0.605171 0.434291 0.262258
O O13 0.544100 0.425212 0.000000
O O14 0.652029 0.997954 0.500000
O O15 0.595069 0.072207 0.263448
O O16 0.696345 0.023570 0.208911
O O17 0.201374 0.978675 0.734231
O O18 0.166437 0.053684 0.000000
O O19 0.000000 0.500000 0.261385
O O20 0.966475 0.583952 0.000000
O O21 0.237415 0.899155 0.000000
#
# Coordination Sequence:
#
# PCOD9426717 Si02
#       8
#     8   8   8   8   8   8   8   8
#     4  10  22  39  59  85 122 158 199 250 302 367
#     4  11  24  42  63  90 125 165 204 252 314 375
#     4  10  21  36  60  87 117 158 202 249 301 359
#     4   9  20  39  62  88 120 157 202 256 304 350
#     4  11  22  38  59  85 120 162 200 242 304 372
#     4  10  22  41  65  95 126 160 207 261 312 366
#     4  10  20  34  52  84 123 157 195 243 298 357
#     4  11  24  40  63  92 121 157 206 259 310 372
#
# _framework density 21.226973000000001
#
# number of rings (size 3 to 8) (size 9 to 14) (size 15 to 20)
#    0.000    1.750    2.500    1.125    3.500    2.750 
#    0.000    0.625    0.000    0.750    0.000    0.000 
#    0.000    0.000    0.000    0.000    0.000    0.000 
#
# Total GULP energy -357333.209606 kJ/mol
# GULP energy per Si atom -5583.331400 kJ/mol
# Density = 2.117866 g / cm^3
# Si number density = 21.226973 Si / 1000 Ang^3
#
#
#
# Elastic Constant Matrix: (Units=GPa)
#
#
# Indices 1 2 3 4 5 6 
#
# 1 158.1847 50.2424 1.3875 0.0000 0.0000 0.0000
# 2 50.2424 100.3252 4.3376 0.0000 0.0000 0.0000
# 3 1.3875 4.3376 17.9439 0.0000 0.0000 0.0000
# 4 0.0000 0.0000 0.0000 -11.8896 0.0000 0.0000
# 5 0.0000 0.0000 0.0000 0.0000 -20.9527 0.0000
# 6 0.0000 0.0000 0.0000 0.0000 0.0000 32.2343
#
#
#
# Elastic Compliance Matrix: (Units=1/GPa)
#
#
# Indices 1 2 3 4 5 6 
#
# 1 0.007519 -0.003780 0.000332 0.000000 0.000000 0.000000
# 2 -0.003780 0.011973 -0.002602 0.000000 0.000000 0.000000
# 3 0.000332 -0.002602 0.056333 0.000000 0.000000 0.000000
# 4 0.000000 0.000000 0.000000 -0.084107 0.000000 0.000000
# 5 0.000000 0.000000 0.000000 0.000000 -0.047727 0.000000
# 6 0.000000 0.000000 0.000000 0.000000 0.000000 0.031023
#
#
# Mechanical properties :
#
#
# Convention : Reuss Voigt Hill
#
# Bulk Modulus (GPa) = 15.69224 43.15431 29.42328
# Shear Modulus (GPa) = 598.40093 14.57748 306.48921
#
# Velocity S-wave (km/s) = 16.80827 2.62342 12.02914
# Velocity P-wave (km/s) = 19.59845 5.43604 14.38141
#
# Compressibility (1/GPa) = 0.06372576
#
# Stress axis : x y z
#
# Youngs Moduli (GPa) = 132.98880 83.52041 17.75168
#
# Poissons Ratio (x) = 0.31571 -0.00590
# Poissons Ratio (y) = 0.50271 0.04619
# Poissons Ratio (z) = -0.04420 0.21732
#
# Static dielectric constant tensor:
#      x y z
#    x 1.762480 0.000000 0.000000 
#    y 0.000000 1.783640 0.000000 
#    z 0.000000 0.000000 1.755680 
# 
# From -- ./inp_files/9733.got.cif
#   From: 2010.05.17/outbox.cif.g08.bks.cpg/sg55_5_cif.got.tgz:9733.got - 2010.06.03 13:27:54.
