data_PCOD9426376
_publ_section_title
;
Structure prediction by ZEFSAII (Michael W. Deem and Ramdas Pophale) SiO2 
 PCOD9426376
Probable space group: P B A M
;
_chemical_formula_sum "Si O2"
_cell_formula_units_Z 64
_cell_length_a 14.489317
_cell_length_b 25.564826
_cell_length_c 8.631725
_cell_angle_alpha 90.000000
_cell_angle_beta 90.000000
_cell_angle_gamma 90.000000
_cell_volume 3197.336540
_symmetry_space_group_name_H-M "P B A M"
_symmetry_group_IT_number 55
_symmetry_cell_setting 'orthorhombic'
loop_
_space_group_symop_operation_xyz
x,y,z
-x,-y,z
1/2+x,1/2-y,-z
1/2-x,1/2+y,-z
-x,-y,-z
x,y,-z
1/2-x,1/2+y,z
1/2+x,1/2-y,z
loop_
_atom_site_type_symbol
_atom_site_label
_atom_site_fract_x
_atom_site_fract_y
_atom_site_fract_z
Si Si1 0.046852 0.672984 0.685722
Si Si2 0.045367 0.787464 0.319373
Si Si3 0.346889 0.559636 0.185104
Si Si4 0.530869 0.597294 0.687840
Si Si5 0.726287 0.546306 0.685120
Si Si6 0.268604 0.779687 0.321064
Si Si7 0.251673 0.668754 0.815103
Si Si8 0.873636 0.623158 0.818406
O O1 0.058595 0.675687 0.500000
O O2 0.970234 0.631297 0.731297
O O3 0.014367 0.731080 0.742383
O O4 0.145583 0.662944 0.762157
O O5 0.018011 0.788742 0.500000
O O6 0.157330 0.785670 0.313572
O O7 0.016284 0.843226 0.251794
O O8 0.451447 0.560602 0.246133
O O9 0.289964 0.512673 0.260275
O O10 0.304552 0.615961 0.228147
O O11 0.345246 0.554330 0.000000
O O12 0.525991 0.597303 0.500000
O O13 0.632904 0.577738 0.729995
O O14 0.734342 0.548979 0.500000
O O15 0.813729 0.574498 0.759726
O O16 0.296862 0.786951 0.500000
O O17 0.290061 0.721074 0.265627
O O18 0.314438 0.824938 0.221271
O O19 0.255932 0.675687 0.000000
O O20 0.890078 0.619415 0.000000
#
# Coordination Sequence:
#
# PCOD9426376 Si02
#       8
#     8   8   8   8   8   8   8   8
#     4  10  21  38  62  90 121 161 204 250 300 366
#     4   8  16  33  56  85 118 152 193 241 292 343
#     4  11  25  41  59  87 124 161 201 250 308 366
#     4  10  20  37  60  88 120 158 202 248 297 353
#     4  11  23  42  65  88 118 158 209 257 299 359
#     4  10  19  36  60  86 119 160 204 248 295 357
#     4  10  22  41  60  87 125 161 200 253 312 364
#     4  12  24  38  60  91 126 161 198 250 313 367
#
# _framework density 20.016660000000002
#
# number of rings (size 3 to 8) (size 9 to 14) (size 15 to 20)
#    0.000    1.750    1.250    4.125    1.750    4.500 
#    0.000    1.250    0.000    3.750    0.000    0.000 
#    0.000    0.000    0.000    0.000    0.000    0.000 
#
# Total GULP energy -357719.916968 kJ/mol
# GULP energy per Si atom -5589.373703 kJ/mol
# Density = 1.997110 g / cm^3
# Si number density = 20.016660 Si / 1000 Ang^3
#
#
#
# Elastic Constant Matrix: (Units=GPa)
#
#
# Indices 1 2 3 4 5 6 
#
# 1 33.0448 4.9374 -2.7406 0.0000 0.0000 0.0000
# 2 4.9374 75.6084 15.1040 0.0000 0.0000 0.0000
# 3 -2.7406 15.1040 25.6734 0.0000 0.0000 0.0000
# 4 0.0000 0.0000 0.0000 30.7549 0.0000 0.0000
# 5 0.0000 0.0000 0.0000 0.0000 26.8534 0.0000
# 6 0.0000 0.0000 0.0000 0.0000 0.0000 32.5121
#
#
#
# Elastic Compliance Matrix: (Units=1/GPa)
#
#
# Indices 1 2 3 4 5 6 
#
# 1 0.031144 -0.003057 0.005123 0.000000 0.000000 0.000000
# 2 -0.003057 0.015288 -0.009320 0.000000 0.000000 0.000000
# 3 0.005123 -0.009320 0.044981 0.000000 0.000000 0.000000
# 4 0.000000 0.000000 0.000000 0.032515 0.000000 0.000000
# 5 0.000000 0.000000 0.000000 0.000000 0.037239 0.000000
# 6 0.000000 0.000000 0.000000 0.000000 0.000000 0.030758
#
#
# Mechanical properties :
#
#
# Convention : Reuss Voigt Hill
#
# Bulk Modulus (GPa) = 13.00332 18.76982 15.88657
# Shear Modulus (GPa) = 21.54547 25.82579 23.68563
#
# Velocity S-wave (km/s) = 3.28438 3.59585 3.44364
# Velocity P-wave (km/s) = 4.57091 5.16117 4.87498
#
# Compressibility (1/GPa) = 0.07690343
#
# Stress axis : x y z
#
# Youngs Moduli (GPa) = 32.10933 65.41271 22.23165
#
# Poissons Ratio (x) = 0.19998 -0.11389
# Poissons Ratio (y) = 0.09816 0.20720
# Poissons Ratio (z) = -0.16450 0.60966
#
# Static dielectric constant tensor:
#      x y z
#    x 1.711240 0.000000 0.000000 
#    y 0.000000 1.717060 0.000000 
#    z 0.000000 0.000000 1.670090 
# 
# From -- ./inp_files/6626.got.cif
#   From: 2010.05.17/outbox.cif.g08.bks.cpg/sg55_4_cif.got.tgz:6626.got - 2010.06.03 13:27:54.
