data_PCOD9426781
_publ_section_title
;
Structure prediction by ZEFSAII (Michael W. Deem and Ramdas Pophale) SiO2 
 PCOD9426781
Probable space group: P B A M
;
_chemical_formula_sum "Si O2"
_cell_formula_units_Z 64
_cell_length_a 31.348933
_cell_length_b 9.543441
_cell_length_c 11.271896
_cell_angle_alpha 90.000000
_cell_angle_beta 90.000000
_cell_angle_gamma 90.000000
_cell_volume 3372.288563
_symmetry_space_group_name_H-M "P B A M"
_symmetry_group_IT_number 55
_symmetry_cell_setting 'orthorhombic'
loop_
_space_group_symop_operation_xyz
x,y,z
-x,-y,z
1/2+x,1/2-y,-z
1/2-x,1/2+y,-z
-x,-y,-z
x,y,-z
1/2-x,1/2+y,z
1/2+x,1/2-y,z
loop_
_atom_site_type_symbol
_atom_site_label
_atom_site_fract_x
_atom_site_fract_y
_atom_site_fract_z
Si Si1 0.914829 0.847954 0.638311
Si Si2 0.665574 0.190323 0.641110
Si Si3 0.125693 0.802006 0.868359
Si Si4 0.960129 0.089598 0.214012
Si Si5 0.003945 0.337669 0.638907
Si Si6 0.344170 0.135225 0.362161
Si Si7 0.752855 0.308681 0.266166
Si Si8 0.787432 0.060541 0.132200
O O1 0.909462 0.882510 0.500000
O O2 0.869860 0.797143 0.690349
O O3 0.947424 0.717019 0.645843
O O4 0.937039 0.979907 0.698169
O O5 0.664125 0.204872 0.500000
O O6 0.712885 0.226940 0.680568
O O7 0.653387 0.029988 0.664966
O O8 0.077850 0.859250 0.868736
O O9 0.132087 0.712894 0.746836
O O10 0.161634 0.922912 0.856703
O O11 0.134044 0.735775 0.000000
O O12 0.977799 0.225434 0.283939
O O13 0.000000 0.000000 0.163157
O O14 0.990795 0.328833 0.500000
O O15 0.000000 0.500000 0.675763
O O16 0.357979 0.161583 0.500000
O O17 0.293982 0.175453 0.350199
O O18 0.769826 0.216084 0.156824
O O19 0.734433 0.456826 0.224382
O O20 0.776975 0.013624 0.000000
#
# Coordination Sequence:
#
# PCOD9426781 Si02
#       8
#     8   8   8   8   8   8   8   8
#     4   9  18  32  51  82 120 153 189 238 293 351
#     4  10  20  34  54  82 117 152 193 243 294 347
#     4  10  23  41  60  87 120 157 201 248 300 356
#     4  10  20  36  59  86 113 153 195 245 296 365
#     4   9  18  31  52  83 118 155 190 236 293 358
#     4  10  22  38  58  87 119 158 199 243 299 354
#     4  11  19  37  55  83 115 154 198 247 293 342
#     4  10  21  36  57  82 116 158 203 244 288 350
#
# _framework density 18.978209
#
# number of rings (size 3 to 8) (size 9 to 14) (size 15 to 20)
#    0.000    2.125    1.250    1.875    1.750    3.250 
#    0.000    1.875    0.000    1.125    0.000    0.000 
#    0.000    0.000    0.000    0.000    0.000    0.000 
#
# Total GULP energy -356574.727783 kJ/mol
# GULP energy per Si atom -5571.480122 kJ/mol
# Density = 1.893501 g / cm^3
# Si number density = 18.978209 Si / 1000 Ang^3
#
#
#
# Elastic Constant Matrix: (Units=GPa)
#
#
# Indices 1 2 3 4 5 6 
#
# 1 94.4666 32.7905 23.0981 0.0000 0.0000 0.0000
# 2 32.7905 86.8860 39.7075 0.0000 0.0000 0.0000
# 3 23.0981 39.7075 64.6254 0.0000 0.0000 0.0000
# 4 0.0000 0.0000 0.0000 16.9642 0.0000 0.0000
# 5 0.0000 0.0000 0.0000 0.0000 10.8773 0.0000
# 6 0.0000 0.0000 0.0000 0.0000 0.0000 17.8069
#
#
#
# Elastic Compliance Matrix: (Units=1/GPa)
#
#
# Indices 1 2 3 4 5 6 
#
# 1 0.012395 -0.003689 -0.002164 0.000000 0.000000 0.000000
# 2 -0.003689 0.017101 -0.009189 0.000000 0.000000 0.000000
# 3 -0.002164 -0.009189 0.021893 0.000000 0.000000 0.000000
# 4 0.000000 0.000000 0.000000 0.058948 0.000000 0.000000
# 5 0.000000 0.000000 0.000000 0.000000 0.091935 0.000000
# 6 0.000000 0.000000 0.000000 0.000000 0.000000 0.056158
#
#
# Mechanical properties :
#
#
# Convention : Reuss Voigt Hill
#
# Bulk Modulus (GPa) = 46.93457 48.57446 47.75452
# Shear Modulus (GPa) = 16.91394 19.15514 18.03454
#
# Velocity S-wave (km/s) = 2.98859 3.18043 3.08600
# Velocity P-wave (km/s) = 6.05750 6.25598 6.15754
#
# Compressibility (1/GPa) = 0.02130626
#
# Stress axis : x y z
#
# Youngs Moduli (GPa) = 80.67555 58.47639 45.67712
#
# Poissons Ratio (x) = 0.21573 0.09882
# Poissons Ratio (y) = 0.29763 0.41971
# Poissons Ratio (z) = 0.17454 0.53732
#
# Static dielectric constant tensor:
#      x y z
#    x 1.737270 0.000000 0.000000 
#    y 0.000000 1.654160 0.000000 
#    z 0.000000 0.000000 1.655630 
# 
# From -- ./inp_files/16243.got.cif
#   From: 2010.05.17/outbox.cif.g08.bks.cpg/sg55_9_cif.got.tgz:16243.got - 2010.06.03 13:27:54.
