data_PCOD9426487
_publ_section_title
;
Structure prediction by ZEFSAII (Michael W. Deem and Ramdas Pophale) SiO2 
 PCOD9426487
Probable space group: P B A M
;
_chemical_formula_sum "Si O2"
_cell_formula_units_Z 64
_cell_length_a 9.389426
_cell_length_b 18.071666
_cell_length_c 19.345264
_cell_angle_alpha 90.000000
_cell_angle_beta 90.000000
_cell_angle_gamma 90.000000
_cell_volume 3282.554125
_symmetry_space_group_name_H-M "P B A M"
_symmetry_group_IT_number 55
_symmetry_cell_setting 'orthorhombic'
loop_
_space_group_symop_operation_xyz
x,y,z
-x,-y,z
1/2+x,1/2-y,-z
1/2-x,1/2+y,-z
-x,-y,-z
x,y,-z
1/2-x,1/2+y,z
1/2+x,1/2-y,z
loop_
_atom_site_type_symbol
_atom_site_label
_atom_site_fract_x
_atom_site_fract_y
_atom_site_fract_z
Si Si1 0.338432 0.671714 0.079612
Si Si2 0.487611 0.192635 0.867971
Si Si3 0.877418 0.945944 0.184997
Si Si4 0.884161 0.567616 0.672757
Si Si5 0.824270 0.848257 0.318520
Si Si6 0.968601 0.279795 0.297109
Si Si7 0.167190 0.017043 0.580970
Si Si8 0.861447 0.550061 0.171083
O O1 0.175637 0.680728 0.107882
O O2 0.429508 0.745827 0.089230
O O3 0.420254 0.613541 0.128196
O O4 0.331931 0.649807 0.000000
O O5 0.485585 0.212995 0.786131
O O6 0.586211 0.119791 0.871434
O O7 0.816794 0.900120 0.250017
O O8 0.763325 0.997649 0.146420
O O9 0.000000 0.000000 0.210484
O O10 0.763407 0.544581 0.618802
O O11 0.819717 0.569921 0.750178
O O12 0.000000 0.500000 0.669515
O O13 0.957405 0.648132 0.667296
O O14 0.696740 0.789699 0.313731
O O15 0.807454 0.904409 0.381666
O O16 0.965596 0.798430 0.319004
O O17 0.201605 0.020035 0.500000
O O18 0.000000 0.000000 0.589223
O O19 0.000000 0.500000 0.177943
#
# Coordination Sequence:
#
# PCOD9426487 Si02
#       8
#     8   8   8   8   8   8   8   8
#     4  12  26  45  63  92 136 176 216 263 331 406
#     4  11  22  42  66  94 128 171 215 267 331 394
#     4  12  24  40  67  97 127 168 223 282 320 375
#     4  10  19  38  65  96 127 167 212 267 321 380
#     4  12  23  43  64 102 133 167 217 273 328 388
#     4  11  22  38  70 101 128 162 221 277 329 382
#     4  11  25  44  65  94 138 180 217 262 323 393
#     4  10  19  38  66  95 124 157 213 274 321 374
#
# _framework density 19.497012999999999
#
# number of rings (size 3 to 8) (size 9 to 14) (size 15 to 20)
#    0.000    0.875    6.250    1.500    3.500    1.500 
#    0.000    3.125    0.000    0.000    0.000    0.000 
#    0.000    0.000    0.000    0.000    0.000    0.000 
#
# Total GULP energy -357316.573159 kJ/mol
# GULP energy per Si atom -5583.071456 kJ/mol
# Density = 1.945264 g / cm^3
# Si number density = 19.497013 Si / 1000 Ang^3
#
#
#
# Elastic Constant Matrix: (Units=GPa)
#
#
# Indices 1 2 3 4 5 6 
#
# 1 49.0144 5.3432 -0.6051 0.0000 0.0000 0.0000
# 2 5.3432 45.4676 4.2079 0.0000 0.0000 0.0000
# 3 -0.6051 4.2079 62.6240 0.0000 0.0000 0.0000
# 4 0.0000 0.0000 0.0000 20.0185 0.0000 0.0000
# 5 0.0000 0.0000 0.0000 0.0000 24.0822 0.0000
# 6 0.0000 0.0000 0.0000 0.0000 0.0000 41.1502
#
#
#
# Elastic Compliance Matrix: (Units=1/GPa)
#
#
# Indices 1 2 3 4 5 6 
#
# 1 0.020675 -0.002464 0.000365 0.000000 0.000000 0.000000
# 2 -0.002464 0.022425 -0.001531 0.000000 0.000000 0.000000
# 3 0.000365 -0.001531 0.016075 0.000000 0.000000 0.000000
# 4 0.000000 0.000000 0.000000 0.049954 0.000000 0.000000
# 5 0.000000 0.000000 0.000000 0.000000 0.041524 0.000000
# 6 0.000000 0.000000 0.000000 0.000000 0.000000 0.024301
#
#
# Mechanical properties :
#
#
# Convention : Reuss Voigt Hill
#
# Bulk Modulus (GPa) = 19.26145 19.44422 19.35283
# Shear Modulus (GPa) = 25.06044 26.92751 25.99398
#
# Velocity S-wave (km/s) = 3.58906 3.72036 3.65530
# Velocity P-wave (km/s) = 5.20344 5.33379 5.26902
#
# Compressibility (1/GPa) = 0.05191718
#
# Stress axis : x y z
#
# Youngs Moduli (GPa) = 48.36700 44.59340 62.20956
#
# Poissons Ratio (x) = 0.10986 -0.02273
# Poissons Ratio (y) = 0.11915 0.09522
# Poissons Ratio (z) = -0.01767 0.06825
#
# Static dielectric constant tensor:
#      x y z
#    x 1.713420 0.000000 0.000000 
#    y 0.000000 1.694780 0.000000 
#    z 0.000000 0.000000 1.657520 
# 
# From -- ./inp_files/22700.got.cif
#   From: 2010.05.17/outbox.cif.g08.bks.cpg/sg55_12_cif.got.tgz:22700.got - 2010.06.03 13:27:54.
