data_PCOD9426652
_publ_section_title
;
Structure prediction by ZEFSAII (Michael W. Deem and Ramdas Pophale) SiO2 
 PCOD9426652
Probable space group: P B A M
;
_chemical_formula_sum "Si O2"
_cell_formula_units_Z 56
_cell_length_a 20.223552
_cell_length_b 9.089750
_cell_length_c 16.090643
_cell_angle_alpha 90.000000
_cell_angle_beta 90.000000
_cell_angle_gamma 90.000000
_cell_volume 2957.895142
_symmetry_space_group_name_H-M "P B A M"
_symmetry_group_IT_number 55
_symmetry_cell_setting 'orthorhombic'
loop_
_space_group_symop_operation_xyz
x,y,z
-x,-y,z
1/2+x,1/2-y,-z
1/2-x,1/2+y,-z
-x,-y,-z
x,y,-z
1/2-x,1/2+y,z
1/2+x,1/2-y,z
loop_
_atom_site_type_symbol
_atom_site_label
_atom_site_fract_x
_atom_site_fract_y
_atom_site_fract_z
Si Si1 0.746608 0.798207 0.180936
Si Si2 0.576684 0.452941 0.596225
Si Si3 0.892329 0.729713 0.745914
Si Si4 0.813891 0.487240 0.674604
Si Si5 0.446883 0.627544 0.904044
Si Si6 0.303711 0.323154 0.595466
Si Si7 0.807152 0.034479 0.089331
O O1 0.819047 0.763198 0.217397
O O2 0.709322 0.901585 0.244103
O O3 0.707048 0.652312 0.159935
O O4 0.757900 0.898424 0.100559
O O5 0.500000 0.500000 0.600254
O O6 0.588618 0.399980 0.500000
O O7 0.590059 0.339371 0.670735
O O8 0.628857 0.585586 0.610445
O O9 0.880569 0.573097 0.700325
O O10 0.939433 0.757848 0.826739
O O11 0.757036 0.603164 0.646124
O O12 0.816166 0.349749 0.611457
O O13 0.500000 0.500000 0.887029
O O14 0.378694 0.536934 0.905273
O O15 0.457048 0.684893 0.000000
O O16 0.285064 0.342938 0.500000
O O17 0.798289 0.105357 0.000000
#
# Coordination Sequence:
#
# PCOD9426652 Si02
#       7
#     8   8   8   8   8   8   8
#     4  11  19  34  52  80 117 147 181 230 292 347
#     4  10  22  41  64  87 115 154 201 246 291 355
#     4  11  21  36  59  86 117 155 189 243 297 354
#     4  12  21  36  56  84 122 151 189 245 299 360
#     4   9  20  39  63  88 114 154 208 250 286 348
#     4  11  22  37  59  86 115 156 201 245 302 358
#     4  10  20  33  55  83 112 147 188 234 290 347
#
# _framework density 18.932382
#
# number of rings (size 3 to 8) (size 9 to 14) (size 15 to 20)
#    0.000    1.429    4.286    1.286    2.000    2.857 
#    0.000    0.714    0.000    2.571    0.000    3.000 
#    0.000    0.000    0.000    0.000    0.000    0.000 
#
# Total GULP energy -311810.882748 kJ/mol
# GULP energy per Si atom -5568.051478 kJ/mol
# Density = 1.888929 g / cm^3
# Si number density = 18.932382 Si / 1000 Ang^3
#
#
#
# Elastic Constant Matrix: (Units=GPa)
#
#
# Indices 1 2 3 4 5 6 
#
# 1 18.2965 -7.0055 11.3560 0.0000 0.0000 0.0000
# 2 -7.0055 60.9499 19.8910 0.0000 0.0000 0.0000
# 3 11.3560 19.8910 88.4217 0.0000 0.0000 0.0000
# 4 0.0000 0.0000 0.0000 36.1036 0.0000 0.0000
# 5 0.0000 0.0000 0.0000 0.0000 20.2402 0.0000
# 6 0.0000 0.0000 0.0000 0.0000 0.0000 16.4025
#
#
#
# Elastic Compliance Matrix: (Units=1/GPa)
#
#
# Indices 1 2 3 4 5 6 
#
# 1 0.065704 0.011122 -0.010940 0.000000 0.000000 0.000000
# 2 0.011122 0.019590 -0.005835 0.000000 0.000000 0.000000
# 3 -0.010940 -0.005835 0.014027 0.000000 0.000000 0.000000
# 4 0.000000 0.000000 0.000000 0.027698 0.000000 0.000000
# 5 0.000000 0.000000 0.000000 0.000000 0.049407 0.000000
# 6 0.000000 0.000000 0.000000 0.000000 0.000000 0.060966
#
#
# Mechanical properties :
#
#
# Convention : Reuss Voigt Hill
#
# Bulk Modulus (GPa) = 11.36176 24.01678 17.68927
# Shear Modulus (GPa) = 17.98323 24.11104 21.04714
#
# Velocity S-wave (km/s) = 3.08533 3.57253 3.33783
# Velocity P-wave (km/s) = 4.32512 5.45256 4.92123
#
# Compressibility (1/GPa) = 0.08801454
#
# Stress axis : x y z
#
# Youngs Moduli (GPa) = 15.21970 51.04738 71.29009
#
# Poissons Ratio (x) = -0.56777 0.77994
# Poissons Ratio (y) = -0.16928 0.41600
# Poissons Ratio (z) = 0.16651 0.29787
#
# Static dielectric constant tensor:
#      x y z
#    x 1.665120 0.000000 0.000000 
#    y 0.000000 1.695350 0.000000 
#    z 0.000000 0.000000 1.727990 
# 
# From -- ./inp_files/19736.got.cif
#   From: 2010.05.17/outbox.cif.g08.bks.cpg/sg55_10_cif.got.tgz:19736.got - 2010.06.03 13:27:54.
