data_PCOD9426309
_publ_section_title
;
Structure prediction by ZEFSAII (Michael W. Deem and Ramdas Pophale) SiO2 
 PCOD9426309
Probable space group: P B A M
;
_chemical_formula_sum "Si O2"
_cell_formula_units_Z 64
_cell_length_a 31.196948
_cell_length_b 12.084256
_cell_length_c 8.491022
_cell_angle_alpha 90.000000
_cell_angle_beta 90.000000
_cell_angle_gamma 90.000000
_cell_volume 3201.046568
_symmetry_space_group_name_H-M "P B A M"
_symmetry_group_IT_number 55
_symmetry_cell_setting 'orthorhombic'
loop_
_space_group_symop_operation_xyz
x,y,z
-x,-y,z
1/2+x,1/2-y,-z
1/2-x,1/2+y,-z
-x,-y,-z
x,y,-z
1/2-x,1/2+y,z
1/2+x,1/2-y,z
loop_
_atom_site_type_symbol
_atom_site_label
_atom_site_fract_x
_atom_site_fract_y
_atom_site_fract_z
Si Si1 0.706170 0.285624 0.688499
Si Si2 0.840234 0.011541 0.688200
Si Si3 0.433568 0.492331 0.814500
Si Si4 0.376701 0.836936 0.815113
Si Si5 0.039481 0.220148 0.683851
Si Si6 0.451168 0.240338 0.813395
Si Si7 0.377476 0.083842 0.688061
Si Si8 0.196927 0.750568 0.308380
O O1 0.704864 0.264947 0.500000
O O2 0.693312 0.413283 0.713569
O O3 0.669367 0.211434 0.765501
O O4 0.754308 0.263744 0.745780
O O5 0.850122 0.014570 0.500000
O O6 0.883536 0.986802 0.781114
O O7 0.821817 0.130193 0.736440
O O8 0.458716 0.590836 0.730499
O O9 0.442209 0.366979 0.760124
O O10 0.443099 0.498574 0.000000
O O11 0.414673 0.772586 0.725784
O O12 0.378996 0.965736 0.770996
O O13 0.383222 0.820301 0.000000
O O14 0.031148 0.231491 0.500000
O O15 0.001033 0.278879 0.777074
O O16 0.419176 0.156925 0.727846
O O17 0.443143 0.234222 0.000000
O O18 0.374845 0.067227 0.500000
O O19 0.335936 0.154776 0.740775
O O20 0.197771 0.747950 0.500000
#
# Coordination Sequence:
#
# PCOD9426309 Si02
#       8
#     8   8   8   8   8   8   8   8
#     4  10  21  38  64  95 125 164 211 258 305 366
#     4  10  19  35  62  93 126 164 209 256 306 360
#     4  11  22  38  62  93 132 167 200 249 315 372
#     4  12  26  44  63  89 126 165 205 259 321 377
#     4  12  25  42  66  94 122 161 213 261 305 368
#     4  11  24  42  64  94 131 167 202 251 314 374
#     4  11  23  42  67  93 123 165 214 260 306 368
#     4   9  20  37  63  96 127 162 209 260 307 357
#
# _framework density 19.993459999999999
#
# number of rings (size 3 to 8) (size 9 to 14) (size 15 to 20)
#    0.000    1.250    2.500    3.750    1.750    3.500 
#    0.000    4.375    0.000    0.000    0.000    0.000 
#    0.000    0.000    0.000    0.000    0.000    0.000 
#
# Total GULP energy -357916.227633 kJ/mol
# GULP energy per Si atom -5592.441057 kJ/mol
# Density = 1.994795 g / cm^3
# Si number density = 19.993460 Si / 1000 Ang^3
#
#
#
# Elastic Constant Matrix: (Units=GPa)
#
#
# Indices 1 2 3 4 5 6 
#
# 1 82.3798 6.3934 -14.8594 0.0000 0.0000 0.0000
# 2 6.3934 86.1156 0.6848 0.0000 0.0000 0.0000
# 3 -14.8594 0.6848 21.3205 0.0000 0.0000 0.0000
# 4 0.0000 0.0000 0.0000 28.3899 0.0000 0.0000
# 5 0.0000 0.0000 0.0000 0.0000 234.6971 0.0000
# 6 0.0000 0.0000 0.0000 0.0000 0.0000 16.1087
#
#
#
# Elastic Compliance Matrix: (Units=1/GPa)
#
#
# Indices 1 2 3 4 5 6 
#
# 1 0.013991 -0.001117 0.009787 0.000000 0.000000 0.000000
# 2 -0.001117 0.011704 -0.001154 0.000000 0.000000 0.000000
# 3 0.009787 -0.001154 0.053761 0.000000 0.000000 0.000000
# 4 0.000000 0.000000 0.000000 0.035224 0.000000 0.000000
# 5 0.000000 0.000000 0.000000 0.000000 0.004261 0.000000
# 6 0.000000 0.000000 0.000000 0.000000 0.000000 0.062078
#
#
# Mechanical properties :
#
#
# Convention : Reuss Voigt Hill
#
# Bulk Modulus (GPa) = 10.58327 19.36152 14.97239
# Shear Modulus (GPa) = 25.31860 69.01228 47.16544
#
# Velocity S-wave (km/s) = 3.56243 5.88153 4.86227
# Velocity P-wave (km/s) = 4.71446 7.47182 6.24717
#
# Compressibility (1/GPa) = 0.09448878
#
# Stress axis : x y z
#
# Youngs Moduli (GPa) = 71.47524 85.43813 18.60077
#
# Poissons Ratio (x) = 0.09540 -0.18204
# Poissons Ratio (y) = 0.07981 0.02147
# Poissons Ratio (z) = -0.69952 0.09861
#
# Static dielectric constant tensor:
#      x y z
#    x 1.689900 0.000000 0.000000 
#    y 0.000000 1.683080 0.000000 
#    z 0.000000 0.000000 1.679260 
# 
# From -- ./inp_files/10729.got.cif
#   From: 2010.05.17/outbox.cif.g08.bks.cpg/sg55_6_cif.got.tgz:10729.got - 2010.06.03 13:27:54.
