data_PCOD9426915
_publ_section_title
;
Structure prediction by ZEFSAII (Michael W. Deem and Ramdas Pophale) SiO2 
 PCOD9426915
Probable space group: P B A M
;
_chemical_formula_sum "Si O2"
_cell_formula_units_Z 48
_cell_length_a 20.587888
_cell_length_b 15.355787
_cell_length_c 8.475928
_cell_angle_alpha 90.000000
_cell_angle_beta 90.000000
_cell_angle_gamma 90.000000
_cell_volume 2679.607195
_symmetry_space_group_name_H-M "P B A M"
_symmetry_group_IT_number 55
_symmetry_cell_setting 'orthorhombic'
loop_
_space_group_symop_operation_xyz
x,y,z
-x,-y,z
1/2+x,1/2-y,-z
1/2-x,1/2+y,-z
-x,-y,-z
x,y,-z
1/2-x,1/2+y,z
1/2+x,1/2-y,z
loop_
_atom_site_type_symbol
_atom_site_label
_atom_site_fract_x
_atom_site_fract_y
_atom_site_fract_z
Si Si1 0.044020 0.080367 0.690993
Si Si2 0.187572 0.110833 0.811083
Si Si3 0.558467 0.936000 0.692233
Si Si4 0.835972 0.693411 0.188833
Si Si5 0.802989 0.509490 0.311043
Si Si6 0.520123 0.225486 0.309491
O O1 0.046794 0.078820 0.500000
O O2 0.117175 0.077863 0.754503
O O3 0.014652 0.174037 0.739745
O O4 0.000000 0.000000 0.743985
O O5 0.192141 0.212521 0.759761
O O6 0.244289 0.050761 0.744781
O O7 0.189596 0.108992 0.000000
O O8 0.560192 0.937503 0.500000
O O9 0.628300 0.969258 0.747116
O O10 0.536852 0.839356 0.742132
O O11 0.500000 0.000000 0.740520
O O12 0.799366 0.608712 0.251802
O O13 0.910298 0.691270 0.249680
O O14 0.836488 0.691468 0.000000
O O15 0.804234 0.510871 0.500000
O O16 0.522294 0.223101 0.500000
#
# Coordination Sequence:
#
# PCOD9426915 Si02
#       6
#     8   8   8   8   8   8
#     4   9  18  34  57  83 108 137 183 231 271 322
#     4  10  22  39  56  77 111 148 184 225 275 335
#     4   9  16  29  51  80 107 134 171 217 272 321
#     4  10  20  35  55  77 106 144 182 219 273 331
#     4  11  21  35  57  81 108 143 186 230 274 327
#     4   9  16  31  54  76 105 139 175 220 269 323
#
# _framework density 17.913073000000001
#
# number of rings (size 3 to 8) (size 9 to 14) (size 15 to 20)
#    0.000    2.333    1.667    1.500    0.000    2.333 
#    3.000    2.500    0.000    0.000    0.000    0.000 
#    0.000    0.000    0.000    0.000    0.000    0.000 
#
# Total GULP energy -267749.384170 kJ/mol
# GULP energy per Si atom -5578.112170 kJ/mol
# Density = 1.787230 g / cm^3
# Si number density = 17.913073 Si / 1000 Ang^3
#
#
#
# Elastic Constant Matrix: (Units=GPa)
#
#
# Indices 1 2 3 4 5 6 
#
# 1 106.4219 102.1394 18.5587 0.0000 0.0000 0.0000
# 2 102.1394 170.1406 28.4593 0.0000 0.0000 0.0000
# 3 18.5587 28.4593 16.5538 0.0000 0.0000 0.0000
# 4 0.0000 0.0000 0.0000 21.2580 0.0000 0.0000
# 5 0.0000 0.0000 0.0000 0.0000 -4.7267 0.0000
# 6 0.0000 0.0000 0.0000 0.0000 0.0000 35.7811
#
#
#
# Elastic Compliance Matrix: (Units=1/GPa)
#
#
# Indices 1 2 3 4 5 6 
#
# 1 0.022261 -0.012899 -0.002782 0.000000 0.000000 0.000000
# 2 -0.012899 0.015724 -0.012571 0.000000 0.000000 0.000000
# 3 -0.002782 -0.012571 0.085140 0.000000 0.000000 0.000000
# 4 0.000000 0.000000 0.000000 0.047041 0.000000 0.000000
# 5 0.000000 0.000000 0.000000 0.000000 -0.211564 0.000000
# 6 0.000000 0.000000 0.000000 0.000000 0.000000 0.027948
#
#
# Mechanical properties :
#
#
# Convention : Reuss Voigt Hill
#
# Bulk Modulus (GPa) = 15.01018 65.71457 40.36237
# Shear Modulus (GPa) = 76.61502 20.05973 48.33738
#
# Velocity S-wave (km/s) = 6.54701 3.35003 5.20029
# Velocity P-wave (km/s) = 8.09622 7.19225 7.65758
#
# Compressibility (1/GPa) = 0.06662147
#
# Stress axis : x y z
#
# Youngs Moduli (GPa) = 44.92101 63.59855 11.74530
#
# Poissons Ratio (x) = 0.82033 0.03268
# Poissons Ratio (y) = 0.57942 0.14765
# Poissons Ratio (z) = 0.12497 0.79951
#
# Static dielectric constant tensor:
#      x y z
#    x 1.573780 0.000000 0.000000 
#    y 0.000000 1.636910 0.000000 
#    z 0.000000 0.000000 1.606000 
# 
# From -- ./inp_files/8562.got.cif
#   From: 2010.05.17/outbox.cif.g08.bks.cpg/sg55_5_cif.got.tgz:8562.got - 2010.06.03 13:27:54.
