data_PCOD9426167
_publ_section_title
;
Structure prediction by ZEFSAII (Michael W. Deem and Ramdas Pophale) SiO2 
 PCOD9426167
Probable space group: P B A M
;
_chemical_formula_sum "Si O2"
_cell_formula_units_Z 48
_cell_length_a 23.354942
_cell_length_b 10.470641
_cell_length_c 8.755041
_cell_angle_alpha 90.000000
_cell_angle_beta 90.000000
_cell_angle_gamma 90.000000
_cell_volume 2140.968348
_symmetry_space_group_name_H-M "P B A M"
_symmetry_group_IT_number 55
_symmetry_cell_setting 'orthorhombic'
loop_
_space_group_symop_operation_xyz
x,y,z
-x,-y,z
1/2+x,1/2-y,-z
1/2-x,1/2+y,-z
-x,-y,-z
x,y,-z
1/2-x,1/2+y,z
1/2+x,1/2-y,z
loop_
_atom_site_type_symbol
_atom_site_label
_atom_site_fract_x
_atom_site_fract_y
_atom_site_fract_z
Si Si1 0.647108 0.796726 0.319781
Si Si2 0.375473 0.470527 0.170086
Si Si3 0.316469 0.828564 0.331501
Si Si4 0.568058 0.288863 0.314556
Si Si5 0.033432 0.632415 0.177834
Si Si6 0.755349 0.923940 0.760502
O O1 0.662545 0.809417 0.500000
O O2 0.633180 0.651550 0.277049
O O3 0.590066 0.873374 0.279739
O O4 0.696898 0.846951 0.206223
O O5 0.416524 0.571722 0.251563
O O6 0.312565 0.534152 0.154066
O O7 0.395795 0.437156 0.000000
O O8 0.330941 0.873591 0.500000
O O9 0.378224 0.800039 0.257129
O O10 0.284995 0.690914 0.338033
O O11 0.273090 0.937849 0.276492
O O12 0.567061 0.289017 0.500000
O O13 0.509268 0.238244 0.245724
O O14 0.000000 0.500000 0.186301
O O15 0.047377 0.657274 0.000000
#
# Coordination Sequence:
#
# PCOD9426167 Si02
#       6
#     8   8   8   8   8   8
#     4  12  25  42  70 101 134 176 231 289 339 403
#     4  11  25  44  66  98 139 180 224 277 349 422
#     4  10  19  34  60  93 130 168 214 275 336 393
#     4  10  22  42  68  97 131 175 230 284 338 400
#     4  11  25  45  68  98 138 182 226 280 346 416
#     4  11  22  38  61  96 132 177 218 276 337 408
#
# _framework density 22.419761000000001
#
# number of rings (size 3 to 8) (size 9 to 14) (size 15 to 20)
#    0.000    1.167    1.667    4.500    0.000    7.333 
#    0.000    4.167    0.000    0.000    0.000    0.000 
#    0.000    0.000    0.000    0.000    0.000    0.000 
#
# Total GULP energy -267325.507970 kJ/mol
# GULP energy per Si atom -5569.281416 kJ/mol
# Density = 2.236873 g / cm^3
# Si number density = 22.419761 Si / 1000 Ang^3
#
#
#
# Elastic Constant Matrix: (Units=GPa)
#
#
# Indices 1 2 3 4 5 6 
#
# 1 59.8784 -16.6458 -0.4911 0.0000 0.0000 0.0000
# 2 -16.6458 102.9243 22.2563 0.0000 0.0000 0.0000
# 3 -0.4911 22.2563 64.0878 0.0000 0.0000 0.0000
# 4 0.0000 0.0000 0.0000 4.7662 0.0000 0.0000
# 5 0.0000 0.0000 0.0000 0.0000 2.8135 0.0000
# 6 0.0000 0.0000 0.0000 0.0000 0.0000 45.5232
#
#
#
# Elastic Compliance Matrix: (Units=1/GPa)
#
#
# Indices 1 2 3 4 5 6 
#
# 1 0.017537 0.003035 -0.000920 0.000000 0.000000 0.000000
# 2 0.003035 0.011030 -0.003807 0.000000 0.000000 0.000000
# 3 -0.000920 -0.003807 0.016919 0.000000 0.000000 0.000000
# 4 0.000000 0.000000 0.000000 0.209812 0.000000 0.000000
# 5 0.000000 0.000000 0.000000 0.000000 0.355432 0.000000
# 6 0.000000 0.000000 0.000000 0.000000 0.000000 0.021967
#
#
# Mechanical properties :
#
#
# Convention : Reuss Voigt Hill
#
# Bulk Modulus (GPa) = 23.75192 26.34768 25.04980
# Shear Modulus (GPa) = 7.69096 25.40532 16.54814
#
# Velocity S-wave (km/s) = 1.85415 3.36991 2.71976
# Velocity P-wave (km/s) = 3.89885 5.18837 4.58913
#
# Compressibility (1/GPa) = 0.04210185
#
# Stress axis : x y z
#
# Youngs Moduli (GPa) = 57.02325 90.66184 59.10615
#
# Poissons Ratio (x) = -0.27516 0.05435
# Poissons Ratio (y) = -0.17307 0.22503
# Poissons Ratio (z) = 0.05244 0.34517
#
# Static dielectric constant tensor:
#      x y z
#    x 1.841570 0.000000 0.000000 
#    y 0.000000 1.860310 0.000000 
#    z 0.000000 0.000000 1.548170 
# 
# From -- ./inp_files/9437.got.cif
#   From: 2010.05.17/outbox.cif.g08.bks.cpg/sg55_5_cif.got.tgz:9437.got - 2010.06.03 13:27:54.
