data_PCOD9426723
_publ_section_title
;
Structure prediction by ZEFSAII (Michael W. Deem and Ramdas Pophale) SiO2 
 PCOD9426723
Probable space group: P B A M
;
_chemical_formula_sum "Si O2"
_cell_formula_units_Z 56
_cell_length_a 13.656125
_cell_length_b 9.328175
_cell_length_c 21.139142
_cell_angle_alpha 90.000000
_cell_angle_beta 90.000000
_cell_angle_gamma 90.000000
_cell_volume 2692.846044
_symmetry_space_group_name_H-M "P B A M"
_symmetry_group_IT_number 55
_symmetry_cell_setting 'orthorhombic'
loop_
_space_group_symop_operation_xyz
x,y,z
-x,-y,z
1/2+x,1/2-y,-z
1/2-x,1/2+y,-z
-x,-y,-z
x,y,-z
1/2-x,1/2+y,z
1/2+x,1/2-y,z
loop_
_atom_site_type_symbol
_atom_site_label
_atom_site_fract_x
_atom_site_fract_y
_atom_site_fract_z
Si Si1 0.363167 0.247733 0.638147
Si Si2 0.757736 0.980770 0.425408
Si Si3 0.215853 0.135782 0.152676
Si Si4 0.400881 0.069870 0.071627
Si Si5 0.541304 0.337529 0.430480
Si Si6 0.993893 0.837183 0.111721
Si Si7 0.645188 0.641447 0.780778
O O1 0.303802 0.367932 0.596807
O O2 0.323107 0.090620 0.619858
O O3 0.477013 0.253664 0.618996
O O4 0.357157 0.306262 0.709163
O O5 0.730166 0.989229 0.500000
O O6 0.845467 0.864171 0.419727
O O7 0.299065 0.061161 0.108975
O O8 0.121384 0.194916 0.115110
O O9 0.272351 0.263035 0.186116
O O10 0.174556 0.021988 0.203779
O O11 0.436558 0.234770 0.071740
O O12 0.500000 0.000000 0.101089
O O13 0.389570 0.015746 0.000000
O O14 0.500000 0.500000 0.431255
O O15 0.525155 0.274242 0.500000
O O16 0.043410 0.831955 0.181787
O O17 0.000000 0.000000 0.089205
#
# Coordination Sequence:
#
# PCOD9426723 Si02
#       7
#     8   8   8   8   8   8   8
#     4  11  20  33  54  79 103 136 179 220 263 321
#     4  10  20  34  53  76 103 135 173 220 271 319
#     4  10  20  38  56  78 112 145 175 223 277 314
#     4  10  21  37  58  84 112 146 185 219 264 327
#     4   8  16  31  49  69  96 131 168 208 258 312
#     4   9  20  37  56  79 109 143 181 227 271 312
#     4  10  21  34  54  79 106 141 180 221 270 327
#
# _framework density 20.795842
#
# number of rings (size 3 to 8) (size 9 to 14) (size 15 to 20)
#    0.000    2.286    0.000    3.857    0.000    7.143 
#    0.000    9.286    0.000    6.000    0.000    0.000 
#    0.000    0.000    0.000    0.000    0.000    0.000 
#
# Total GULP energy -312140.733492 kJ/mol
# GULP energy per Si atom -5573.941670 kJ/mol
# Density = 2.074851 g / cm^3
# Si number density = 20.795842 Si / 1000 Ang^3
#
#
#
# Elastic Constant Matrix: (Units=GPa)
#
#
# Indices 1 2 3 4 5 6 
#
# 1 94.1226 -1.1578 18.4714 0.0000 0.0000 0.0000
# 2 -1.1578 26.9959 0.8345 0.0000 0.0000 0.0000
# 3 18.4714 0.8345 45.9338 0.0000 0.0000 0.0000
# 4 0.0000 0.0000 0.0000 20.6284 0.0000 0.0000
# 5 0.0000 0.0000 0.0000 0.0000 1.8395 0.0000
# 6 0.0000 0.0000 0.0000 0.0000 0.0000 33.8093
#
#
#
# Elastic Compliance Matrix: (Units=1/GPa)
#
#
# Indices 1 2 3 4 5 6 
#
# 1 0.011546 0.000639 -0.004655 0.000000 0.000000 0.000000
# 2 0.000639 0.037099 -0.000931 0.000000 0.000000 0.000000
# 3 -0.004655 -0.000931 0.023659 0.000000 0.000000 0.000000
# 4 0.000000 0.000000 0.000000 0.048477 0.000000 0.000000
# 5 0.000000 0.000000 0.000000 0.000000 0.543640 0.000000
# 6 0.000000 0.000000 0.000000 0.000000 0.000000 0.029578
#
#
# Mechanical properties :
#
#
# Convention : Reuss Voigt Hill
#
# Bulk Modulus (GPa) = 16.02286 22.59428 19.30857
# Shear Modulus (GPa) = 6.89945 21.18235 14.04090
#
# Velocity S-wave (km/s) = 1.82343 3.19499 2.60124
# Velocity P-wave (km/s) = 3.48637 4.94965 4.28099
#
# Compressibility (1/GPa) = 0.06241084
#
# Stress axis : x y z
#
# Youngs Moduli (GPa) = 86.61199 26.95497 42.26700
#
# Poissons Ratio (x) = -0.01723 0.19673
# Poissons Ratio (y) = -0.05535 0.03935
# Poissons Ratio (z) = 0.40314 0.02510
#
# Static dielectric constant tensor:
#      x y z
#    x 1.781350 0.000000 0.000000 
#    y 0.000000 1.781710 0.000000 
#    z 0.000000 0.000000 1.766090 
# 
# From -- ./inp_files/22973.got.cif
#   From: 2010.05.17/outbox.cif.g08.bks.cpg/sg55_12_cif.got.tgz:22973.got - 2010.06.03 13:27:54.
