data_PCOD9426896
_publ_section_title
;
Structure prediction by ZEFSAII (Michael W. Deem and Ramdas Pophale) SiO2 
 PCOD9426896
Probable space group: P B A M
;
_chemical_formula_sum "Si O2"
_cell_formula_units_Z 64
_cell_length_a 28.545763
_cell_length_b 13.152470
_cell_length_c 7.683021
_cell_angle_alpha 90.000000
_cell_angle_beta 90.000000
_cell_angle_gamma 90.000000
_cell_volume 2884.569425
_symmetry_space_group_name_H-M "P B A M"
_symmetry_group_IT_number 55
_symmetry_cell_setting 'orthorhombic'
loop_
_space_group_symop_operation_xyz
x,y,z
-x,-y,z
1/2+x,1/2-y,-z
1/2-x,1/2+y,-z
-x,-y,-z
x,y,-z
1/2-x,1/2+y,z
1/2+x,1/2-y,z
loop_
_atom_site_type_symbol
_atom_site_label
_atom_site_fract_x
_atom_site_fract_y
_atom_site_fract_z
Si Si1 0.129414 0.394729 0.697613
Si Si2 0.949707 0.454897 0.286533
Si Si3 0.519857 0.607731 0.790601
Si Si4 0.076801 0.195034 0.211451
Si Si5 0.158007 0.052914 0.797211
Si Si6 0.402440 0.249705 0.299834
Si Si7 0.708907 0.243949 0.297268
Si Si8 0.192690 0.838072 0.200045
O O1 0.139986 0.428422 0.500000
O O2 0.095124 0.479203 0.775202
O O3 0.097472 0.294206 0.701342
O O4 0.177552 0.350033 0.776134
O O5 0.951012 0.459502 0.500000
O O6 0.936347 0.340224 0.233929
O O7 0.000000 0.500000 0.228039
O O8 0.500000 0.500000 0.732433
O O9 0.477345 0.683020 0.748042
O O10 0.567707 0.647392 0.713521
O O11 0.525839 0.602958 0.000000
O O12 0.108809 0.099323 0.268464
O O13 0.081648 0.203040 0.000000
O O14 0.193563 0.148654 0.784739
O O15 0.178514 0.948460 0.721454
O O16 0.149240 0.029281 0.000000
O O17 0.391565 0.226758 0.500000
O O18 0.353333 0.268088 0.207671
O O19 0.695754 0.253530 0.500000
O O20 0.762969 0.215956 0.284892
O O21 0.206579 0.854107 0.000000
#
# Coordination Sequence:
#
# PCOD9426896 Si02
#       8
#     8   8   8   8   8   8   8   8
#     4   9  18  34  55  78 106 142 183 227 278 333
#     4   9  18  34  56  82 116 155 188 223 276 342
#     4  10  20  35  54  76 107 146 181 217 270 333
#     4   9  17  31  53  79 105 135 177 225 268 317
#     4   9  19  37  59  81 108 146 187 228 279 338
#     4  11  23  37  56  84 114 146 188 236 285 338
#     4  10  21  36  57  86 115 145 189 245 297 346
#     4  11  23  40  60  81 112 152 192 235 288 350
#
# _framework density 22.187021000000001
#
# number of rings (size 3 to 8) (size 9 to 14) (size 15 to 20)
#    0.000    2.250    0.000    2.625    0.000    6.250 
#    0.000    5.000    0.000    3.375    0.000    0.000 
#    0.000    0.000    0.000    0.000    0.000    0.000 
#
# Total GULP energy -357151.930018 kJ/mol
# GULP energy per Si atom -5580.498907 kJ/mol
# Density = 2.213652 g / cm^3
# Si number density = 22.187021 Si / 1000 Ang^3
#
#
#
# Elastic Constant Matrix: (Units=GPa)
#
#
# Indices 1 2 3 4 5 6 
#
# 1 128.9662 37.2077 -3.9285 0.0000 0.0000 0.0000
# 2 37.2077 83.7369 -8.1656 0.0000 0.0000 0.0000
# 3 -3.9285 -8.1656 36.6789 0.0000 0.0000 0.0000
# 4 0.0000 0.0000 0.0000 12.4506 0.0000 0.0000
# 5 0.0000 0.0000 0.0000 0.0000 22.1643 0.0000
# 6 0.0000 0.0000 0.0000 0.0000 0.0000 29.2718
#
#
#
# Elastic Compliance Matrix: (Units=1/GPa)
#
#
# Indices 1 2 3 4 5 6 
#
# 1 0.008894 -0.003945 0.000074 0.000000 0.000000 0.000000
# 2 -0.003945 0.013957 0.002685 0.000000 0.000000 0.000000
# 3 0.000074 0.002685 0.027869 0.000000 0.000000 0.000000
# 4 0.000000 0.000000 0.000000 0.080318 0.000000 0.000000
# 5 0.000000 0.000000 0.000000 0.000000 0.045118 0.000000
# 6 0.000000 0.000000 0.000000 0.000000 0.000000 0.034163
#
#
# Mechanical properties :
#
#
# Convention : Reuss Voigt Hill
#
# Bulk Modulus (GPa) = 20.68307 33.28993 26.98650
# Shear Modulus (GPa) = 21.85255 27.72855 24.79055
#
# Velocity S-wave (km/s) = 3.14176 3.53904 3.34630
# Velocity P-wave (km/s) = 4.74376 5.63352 5.20767
#
# Compressibility (1/GPa) = 0.04834872
#
# Stress axis : x y z
#
# Youngs Moduli (GPa) = 112.43073 71.64958 35.88180
#
# Poissons Ratio (x) = 0.28265 -0.00267
# Poissons Ratio (y) = 0.44353 -0.09633
# Poissons Ratio (z) = -0.00836 -0.19235
#
# Static dielectric constant tensor:
#      x y z
#    x 1.793020 0.000000 0.000000 
#    y 0.000000 1.850820 0.000000 
#    z 0.000000 0.000000 1.960420 
# 
# From -- ./inp_files/10765.got.cif
#   From: 2010.05.17/outbox.cif.g08.bks.cpg/sg55_6_cif.got.tgz:10765.got - 2010.06.03 13:27:54.
