data_PCOD9426064
_publ_section_title
;
Structure prediction by ZEFSAII (Michael W. Deem and Ramdas Pophale) SiO2 
 PCOD9426064
Probable space group: P B A M
;
_chemical_formula_sum "Si O2"
_cell_formula_units_Z 64
_cell_length_a 16.209989
_cell_length_b 23.584678
_cell_length_c 8.686499
_cell_angle_alpha 90.000000
_cell_angle_beta 90.000000
_cell_angle_gamma 90.000000
_cell_volume 3320.912595
_symmetry_space_group_name_H-M "P B A M"
_symmetry_group_IT_number 55
_symmetry_cell_setting 'orthorhombic'
loop_
_space_group_symop_operation_xyz
x,y,z
-x,-y,z
1/2+x,1/2-y,-z
1/2-x,1/2+y,-z
-x,-y,-z
x,y,-z
1/2-x,1/2+y,z
1/2+x,1/2-y,z
loop_
_atom_site_type_symbol
_atom_site_label
_atom_site_fract_x
_atom_site_fract_y
_atom_site_fract_z
Si Si1 0.088251 0.252040 0.179740
Si Si2 0.470377 0.349117 0.179330
Si Si3 0.257058 0.067051 0.184904
Si Si4 0.427443 0.543097 0.186989
Si Si5 0.904777 0.509293 0.313837
Si Si6 0.365847 0.862344 0.685626
Si Si7 0.808302 0.188630 0.683726
Si Si8 0.750931 0.806374 0.683638
O O1 0.075066 0.315067 0.242073
O O2 0.160043 0.220647 0.275553
O O3 0.008961 0.212830 0.194228
O O4 0.112682 0.252968 0.000000
O O5 0.537412 0.395125 0.230092
O O6 0.385296 0.348443 0.267276
O O7 0.454003 0.360981 0.000000
O O8 0.168332 0.040002 0.238097
O O9 0.336258 0.033297 0.247566
O O10 0.259359 0.132819 0.237511
O O11 0.257662 0.065406 0.000000
O O12 0.500000 0.500000 0.238895
O O13 0.424671 0.538822 0.000000
O O14 0.901614 0.504751 0.500000
O O15 0.882045 0.573516 0.269021
O O16 0.000000 0.500000 0.266774
O O17 0.370915 0.858910 0.500000
O O18 0.275466 0.841477 0.737193
O O19 0.804544 0.191007 0.500000
O O20 0.808974 0.254545 0.736100
O O21 0.743458 0.813947 0.500000
#
# Coordination Sequence:
#
# PCOD9426064 Si02
#       8
#     8   8   8   8   8   8   8   8
#     4  10  19  34  56  83 114 145 187 240 286 338
#     4  10  20  34  54  84 119 150 187 232 285 345
#     4  11  22  38  63  90 120 154 197 251 295 347
#     4   9  19  36  56  82 120 159 192 231 289 355
#     4  10  23  43  63  84 115 155 201 250 299 356
#     4   9  20  39  59  80 112 152 193 237 291 351
#     4   9  20  35  53  81 113 146 186 232 279 341
#     4  10  20  37  58  81 113 154 194 232 289 351
#
# _framework density 19.271811
#
# number of rings (size 3 to 8) (size 9 to 14) (size 15 to 20)
#    0.000    2.250    1.250    1.875    1.750    5.250 
#    0.000    3.750    0.000    1.875    0.000    0.000 
#    0.000    0.000    0.000    0.000    0.000    0.000 
#
# Total GULP energy -356791.907690 kJ/mol
# GULP energy per Si atom -5574.873558 kJ/mol
# Density = 1.922795 g / cm^3
# Si number density = 19.271811 Si / 1000 Ang^3
#
#
#
# Elastic Constant Matrix: (Units=GPa)
#
#
# Indices 1 2 3 4 5 6 
#
# 1 110.2206 62.6218 26.0352 0.0000 0.0000 0.0000
# 2 62.6218 127.8563 25.4219 0.0000 0.0000 0.0000
# 3 26.0352 25.4219 11.7193 0.0000 0.0000 0.0000
# 4 0.0000 0.0000 0.0000 26.1578 0.0000 0.0000
# 5 0.0000 0.0000 0.0000 0.0000 30.2851 0.0000
# 6 0.0000 0.0000 0.0000 0.0000 0.0000 16.7606
#
#
#
# Elastic Compliance Matrix: (Units=1/GPa)
#
#
# Indices 1 2 3 4 5 6 
#
# 1 0.019282 -0.001630 -0.039301 0.000000 0.000000 0.000000
# 2 -0.001630 0.013891 -0.026513 0.000000 0.000000 0.000000
# 3 -0.039301 -0.026513 0.230152 0.000000 0.000000 0.000000
# 4 0.000000 0.000000 0.000000 0.038230 0.000000 0.000000
# 5 0.000000 0.000000 0.000000 0.000000 0.033020 0.000000
# 6 0.000000 0.000000 0.000000 0.000000 0.000000 0.059664
#
#
# Mechanical properties :
#
#
# Convention : Reuss Voigt Hill
#
# Bulk Modulus (GPa) = 7.78585 53.10601 30.44593
# Shear Modulus (GPa) = 8.74222 23.68850 16.21536
#
# Velocity S-wave (km/s) = 2.13216 3.50977 2.90384
# Velocity P-wave (km/s) = 3.17967 6.63632 5.20341
#
# Compressibility (1/GPa) = 0.12843813
#
# Stress axis : x y z
#
# Youngs Moduli (GPa) = 51.86211 71.98918 4.34496
#
# Poissons Ratio (x) = 0.11732 0.17076
# Poissons Ratio (y) = 0.08452 0.11520
# Poissons Ratio (z) = 2.03824 1.90862
#
# Static dielectric constant tensor:
#      x y z
#    x 1.681630 0.000000 0.000000 
#    y 0.000000 1.681380 0.000000 
#    z 0.000000 0.000000 1.663440 
# 
# From -- ./inp_files/6638.got.cif
#   From: 2010.05.17/outbox.cif.g08.bks.cpg/sg55_4_cif.got.tgz:6638.got - 2010.06.03 13:27:54.
