data_PCOD9426980
_publ_section_title
;
Structure prediction by ZEFSAII (Michael W. Deem and Ramdas Pophale) SiO2 
 PCOD9426980
Probable space group: P B A M
;
_chemical_formula_sum "Si O2"
_cell_formula_units_Z 64
_cell_length_a 8.230869
_cell_length_b 16.834093
_cell_length_c 21.547878
_cell_angle_alpha 90.000000
_cell_angle_beta 90.000000
_cell_angle_gamma 90.000000
_cell_volume 2985.657044
_symmetry_space_group_name_H-M "P B A M"
_symmetry_group_IT_number 55
_symmetry_cell_setting 'orthorhombic'
loop_
_space_group_symop_operation_xyz
x,y,z
-x,-y,z
1/2+x,1/2-y,-z
1/2-x,1/2+y,-z
-x,-y,-z
x,y,-z
1/2-x,1/2+y,z
1/2+x,1/2-y,z
loop_
_atom_site_type_symbol
_atom_site_label
_atom_site_fract_x
_atom_site_fract_y
_atom_site_fract_z
Si Si1 0.308030 0.521498 0.429726
Si Si2 0.794334 0.367868 0.813665
Si Si3 0.396342 0.795233 0.848625
Si Si4 0.168659 0.348351 0.570816
Si Si5 0.578275 0.740478 0.643103
Si Si6 0.184743 0.133294 0.312901
Si Si7 0.147018 0.060166 0.930631
Si Si8 0.390419 0.302793 0.931544
O O1 0.500000 0.500000 0.428313
O O2 0.272531 0.551280 0.500000
O O3 0.205316 0.441197 0.419476
O O4 0.279311 0.582851 0.374477
O O5 0.682031 0.286870 0.821954
O O6 0.723849 0.408172 0.751622
O O7 0.767268 0.423939 0.873661
O O8 0.984688 0.344746 0.804395
O O9 0.530981 0.774885 0.901498
O O10 0.245240 0.834752 0.884106
O O11 0.117339 0.337610 0.500000
O O12 0.334725 0.301011 0.584792
O O13 0.044298 0.306237 0.616823
O O14 0.494533 0.669299 0.680537
O O15 0.704042 0.788245 0.684506
O O16 0.044929 0.141051 0.936290
O O17 0.213539 0.040395 0.000000
O O18 0.000000 0.000000 0.916241
O O19 0.320491 0.289960 0.000000
#
# Coordination Sequence:
#
# PCOD9426980 Si02
#       8
#     8   8   8   8   8   8   8   8
#     4  10  21  38  59  85 117 149 187 239 287 337
#     4  10  20  35  57  79 110 145 181 224 276 329
#     4   9  18  31  51  81 110 136 178 223 277 325
#     4  10  20  37  60  87 117 149 188 234 289 342
#     4  10  22  36  57  87 115 149 192 236 282 337
#     4  11  22  38  59  82 116 153 194 235 283 343
#     4   9  19  36  55  78 107 142 186 229 271 326
#     4   9  16  28  51  80 110 139 171 221 275 329
#
# _framework density 21.435817
#
# number of rings (size 3 to 8) (size 9 to 14) (size 15 to 20)
#    0.000    2.250    1.250    1.500    0.000    7.000 
#    0.000    1.875    2.750    2.250    0.000    0.000 
#    0.000    0.000    0.000    0.000    0.000    0.000 
#
# Total GULP energy -356635.372386 kJ/mol
# GULP energy per Si atom -5572.427694 kJ/mol
# Density = 2.138703 g / cm^3
# Si number density = 21.435817 Si / 1000 Ang^3
#
#
#
# Elastic Constant Matrix: (Units=GPa)
#
#
# Indices 1 2 3 4 5 6 
#
# 1 47.1054 -12.0213 12.2654 0.0000 0.0000 0.0000
# 2 -12.0213 21.6287 11.4574 0.0000 0.0000 0.0000
# 3 12.2654 11.4574 95.5175 0.0000 0.0000 0.0000
# 4 0.0000 0.0000 0.0000 5.0114 0.0000 0.0000
# 5 0.0000 0.0000 0.0000 0.0000 15.2741 0.0000
# 6 0.0000 0.0000 0.0000 0.0000 0.0000 17.1835
#
#
#
# Elastic Compliance Matrix: (Units=1/GPa)
#
#
# Indices 1 2 3 4 5 6 
#
# 1 0.027366 0.018230 -0.005701 0.000000 0.000000 0.000000
# 2 0.018230 0.061516 -0.009720 0.000000 0.000000 0.000000
# 3 -0.005701 -0.009720 0.012367 0.000000 0.000000 0.000000
# 4 0.000000 0.000000 0.000000 0.199544 0.000000 0.000000
# 5 0.000000 0.000000 0.000000 0.000000 0.065470 0.000000
# 6 0.000000 0.000000 0.000000 0.000000 0.000000 0.058195
#
#
# Mechanical properties :
#
#
# Convention : Reuss Voigt Hill
#
# Bulk Modulus (GPa) = 9.35743 20.85053 15.10398
# Shear Modulus (GPa) = 11.00201 17.66380 14.33291
#
# Velocity S-wave (km/s) = 2.26797 2.87371 2.58862
# Velocity P-wave (km/s) = 3.35157 4.55621 3.99950
#
# Compressibility (1/GPa) = 0.10686689
#
# Stress axis : x y z
#
# Youngs Moduli (GPa) = 36.54233 16.25601 80.85905
#
# Poissons Ratio (x) = -0.29634 0.46095
# Poissons Ratio (y) = -0.66615 0.78593
# Poissons Ratio (z) = 0.20832 0.15800
#
# Static dielectric constant tensor:
#      x y z
#    x 1.816870 0.000000 0.000000 
#    y 0.000000 1.839030 0.000000 
#    z 0.000000 0.000000 1.853950 
# 
# From -- ./inp_files/22727.got.cif
#   From: 2010.05.17/outbox.cif.g08.bks.cpg/sg55_12_cif.got.tgz:22727.got - 2010.06.03 13:27:54.
