data_PCOD9426035
_publ_section_title
;
Structure prediction by ZEFSAII (Michael W. Deem and Ramdas Pophale) SiO2 
 PCOD9426035
Probable space group: P B A M
;
_chemical_formula_sum "Si O2"
_cell_formula_units_Z 52
_cell_length_a 25.293356
_cell_length_b 5.163036
_cell_length_c 20.304226
_cell_angle_alpha 90.000000
_cell_angle_beta 90.000000
_cell_angle_gamma 90.000000
_cell_volume 2651.539180
_symmetry_space_group_name_H-M "P B A M"
_symmetry_group_IT_number 55
_symmetry_cell_setting 'orthorhombic'
loop_
_space_group_symop_operation_xyz
x,y,z
-x,-y,z
1/2+x,1/2-y,-z
1/2-x,1/2+y,-z
-x,-y,-z
x,y,-z
1/2-x,1/2+y,z
1/2+x,1/2-y,z
loop_
_atom_site_type_symbol
_atom_site_label
_atom_site_fract_x
_atom_site_fract_y
_atom_site_fract_z
Si Si1 0.302302 0.292292 0.500000
Si Si2 0.713394 0.698480 0.143503
Si Si3 0.720791 0.653976 0.349270
Si Si4 0.372368 0.419266 0.254809
Si Si5 0.373852 0.787810 0.500000
Si Si6 0.555793 0.089420 0.255728
Si Si7 0.715554 0.601551 0.000000
Si Si8 0.967542 0.743595 0.596657
O O1 0.274914 0.317137 0.428680
O O2 0.339562 0.536238 0.500000
O O3 0.336865 0.035002 0.500000
O O4 0.758659 0.477351 0.149084
O O5 0.669849 0.650593 0.198493
O O6 0.689228 0.663510 0.069919
O O7 0.762285 0.438051 0.324884
O O8 0.663688 0.566356 0.321507
O O9 0.404603 0.678481 0.233565
O O10 0.411496 0.175855 0.263833
O O11 0.411175 0.773439 0.436851
O O12 0.538264 0.209261 0.325671
O O13 0.500000 0.000000 0.222045
O O14 0.734824 0.303960 0.000000
O O15 0.000000 0.500000 0.571992
O O16 0.000000 0.000000 0.581005
#
# Coordination Sequence:
#
# PCOD9426035 Si02
#       8
#     4   8   8   8   4   8   4   8
#     4  12  24  38  54  72 104 144 177 216 262 323
#     4  10  19  34  55  87 121 151 182 222 269 327
#     4  12  24  40  57  79 108 143 183 227 272 327
#     4  12  22  37  59  84 109 145 185 229 277 325
#     4  12  22  36  54  78  98 128 178 222 271 339
#     4  11  23  39  56  79 109 143 183 230 280 332
#     4   8  16  30  52  80 119 154 179 214 268 324
#     4  11  21  36  54  74 100 131 170 230 289 331
#
# _framework density 19.611250999999999
#
# number of rings (size 3 to 8) (size 9 to 14) (size 15 to 20)
#    0.000    0.923    0.000    9.692    0.000    0.000 
#    0.000    0.000    0.000    0.000    0.000    3.231 
#    0.000    0.000    0.000    0.000    0.000    0.000 
#
# Total GULP energy -290300.052781 kJ/mol
# GULP energy per Si atom -5582.693323 kJ/mol
# Density = 1.956662 g / cm^3
# Si number density = 19.611251 Si / 1000 Ang^3
#
#
#
# Elastic Constant Matrix: (Units=GPa)
#
#
# Indices 1 2 3 4 5 6 
#
# 1 76.0342 38.4743 9.7300 0.0000 0.0000 0.0000
# 2 38.4743 143.1718 -7.5027 0.0000 0.0000 0.0000
# 3 9.7300 -7.5027 71.8097 0.0000 0.0000 0.0000
# 4 0.0000 0.0000 0.0000 5.6991 0.0000 0.0000
# 5 0.0000 0.0000 0.0000 0.0000 13.8840 0.0000
# 6 0.0000 0.0000 0.0000 0.0000 0.0000 53.7008
#
#
#
# Elastic Compliance Matrix: (Units=1/GPa)
#
#
# Indices 1 2 3 4 5 6 
#
# 1 0.015683 -0.004350 -0.002579 0.000000 0.000000 0.000000
# 2 -0.004350 0.008229 0.001449 0.000000 0.000000 0.000000
# 3 -0.002579 0.001449 0.014427 0.000000 0.000000 0.000000
# 4 0.000000 0.000000 0.000000 0.175465 0.000000 0.000000
# 5 0.000000 0.000000 0.000000 0.000000 0.072025 0.000000
# 6 0.000000 0.000000 0.000000 0.000000 0.000000 0.018622
#
#
# Mechanical properties :
#
#
# Convention : Reuss Voigt Hill
#
# Bulk Modulus (GPa) = 36.52403 41.37987 38.95195
# Shear Modulus (GPa) = 15.40654 31.34440 23.37547
#
# Velocity S-wave (km/s) = 2.80589 4.00220 3.45620
# Velocity P-wave (km/s) = 5.40017 6.51940 5.98600
#
# Compressibility (1/GPa) = 0.02737923
#
# Stress axis : x y z
#
# Youngs Moduli (GPa) = 63.76308 121.51507 69.31631
#
# Poissons Ratio (x) = 0.52855 0.17880
# Poissons Ratio (y) = 0.27735 -0.10045
# Poissons Ratio (z) = 0.16447 -0.17610
#
# Static dielectric constant tensor:
#      x y z
#    x 1.690780 0.000000 0.000000 
#    y 0.000000 1.689010 0.000000 
#    z 0.000000 0.000000 1.746360 
# 
# From -- ./inp_files/22369.got.cif
#   From: 2010.05.17/outbox.cif.g08.bks.cpg/sg55_12_cif.got.tgz:22369.got - 2010.06.03 13:27:54.
