data_PCOD9426848
_publ_section_title
;
Structure prediction by ZEFSAII (Michael W. Deem and Ramdas Pophale) SiO2 
 PCOD9426848
Probable space group: P B A M
;
_chemical_formula_sum "Si O2"
_cell_formula_units_Z 48
_cell_length_a 24.722919
_cell_length_b 10.664907
_cell_length_c 9.558817
_cell_angle_alpha 90.000000
_cell_angle_beta 90.000000
_cell_angle_gamma 90.000000
_cell_volume 2520.350642
_symmetry_space_group_name_H-M "P B A M"
_symmetry_group_IT_number 55
_symmetry_cell_setting 'orthorhombic'
loop_
_space_group_symop_operation_xyz
x,y,z
-x,-y,z
1/2+x,1/2-y,-z
1/2-x,1/2+y,-z
-x,-y,-z
x,y,-z
1/2-x,1/2+y,z
1/2+x,1/2-y,z
loop_
_atom_site_type_symbol
_atom_site_label
_atom_site_fract_x
_atom_site_fract_y
_atom_site_fract_z
Si Si1 0.225242 0.128078 0.330490
Si Si2 0.909263 0.225182 0.161268
Si Si3 0.004319 0.147838 0.348532
Si Si4 0.563071 0.010361 0.837319
Si Si5 0.693995 0.650643 0.330527
Si Si6 0.118185 0.274856 0.661959
O O1 0.225802 0.125966 0.500000
O O2 0.272995 0.223587 0.289011
O O3 0.170095 0.198494 0.286689
O O4 0.223282 0.981058 0.289148
O O5 0.968027 0.193869 0.222293
O O6 0.908252 0.375735 0.169541
O O7 0.864021 0.160869 0.256944
O O8 0.903426 0.187248 0.000000
O O9 0.984737 0.199604 0.500000
O O10 0.066395 0.184730 0.335287
O O11 0.000000 0.000000 0.352796
O O12 0.598733 0.106683 0.749847
O O13 0.500000 0.000000 0.787599
O O14 0.559938 0.050085 0.000000
O O15 0.688426 0.649580 0.500000
O O16 0.128618 0.311906 0.500000
#
# Coordination Sequence:
#
# PCOD9426848 Si02
#       6
#     8   8   8   8   8   8
#     4   9  20  38  62  91 118 148 190 243 296 347
#     4  11  23  38  57  83 117 155 196 238 288 349
#     4  10  20  35  57  85 116 149 186 237 295 349
#     4  10  21  38  56  80 118 158 192 233 288 343
#     4  10  21  40  64  88 117 152 194 243 295 347
#     4  10  20  34  57  87 116 146 191 239 285 345
#
# _framework density 19.044968000000001
#
# number of rings (size 3 to 8) (size 9 to 14) (size 15 to 20)
#    0.000    2.000    1.667    1.500    2.333    4.667 
#    0.000    4.167    0.000    0.000    0.000    0.000 
#    0.000    0.000    0.000    0.000    0.000    0.000 
#
# Total GULP energy -267677.670094 kJ/mol
# GULP energy per Si atom -5576.618127 kJ/mol
# Density = 1.900162 g / cm^3
# Si number density = 19.044968 Si / 1000 Ang^3
#
#
#
# Elastic Constant Matrix: (Units=GPa)
#
#
# Indices 1 2 3 4 5 6 
#
# 1 43.0206 -7.8995 10.3017 0.0000 0.0000 0.0000
# 2 -7.8995 36.2597 12.7721 0.0000 0.0000 0.0000
# 3 10.3017 12.7721 37.7870 0.0000 0.0000 0.0000
# 4 0.0000 0.0000 0.0000 -76.2036 0.0000 0.0000
# 5 0.0000 0.0000 0.0000 0.0000 -10.2712 0.0000
# 6 0.0000 0.0000 0.0000 0.0000 0.0000 30.6552
#
#
#
# Elastic Compliance Matrix: (Units=1/GPa)
#
#
# Indices 1 2 3 4 5 6 
#
# 1 0.027657 0.009855 -0.010871 0.000000 0.000000 0.000000
# 2 0.009855 0.034817 -0.014455 0.000000 0.000000 0.000000
# 3 -0.010871 -0.014455 0.034314 0.000000 0.000000 0.000000
# 4 0.000000 0.000000 0.000000 -0.013123 0.000000 0.000000
# 5 0.000000 0.000000 0.000000 0.000000 -0.097359 0.000000
# 6 0.000000 0.000000 0.000000 0.000000 0.000000 0.032621
#
#
# Mechanical properties :
#
#
# Convention : Reuss Voigt Hill
#
# Bulk Modulus (GPa) = 15.18705 16.37956 15.78330
# Shear Modulus (GPa) = 69.62005 -4.37106 32.62450
#
# Velocity S-wave (km/s) = 6.05268 -1.51661 4.14336
# Velocity P-wave (km/s) = 7.53912 2.35634 5.58527
#
# Compressibility (1/GPa) = 0.06584556
#
# Stress axis : x y z
#
# Youngs Moduli (GPa) = 36.15677 28.72135 29.14292
#
# Poissons Ratio (x) = -0.28304 0.31681
# Poissons Ratio (y) = -0.35631 0.42126
# Poissons Ratio (z) = 0.39306 0.41517
#
# Static dielectric constant tensor:
#      x y z
#    x 1.312780 0.000000 0.000000 
#    y 0.000000 1.669920 0.000000 
#    z 0.000000 0.000000 1.665430 
# 
# From -- ./inp_files/15610.got.cif
#   From: 2010.05.17/outbox.cif.g08.bks.cpg/sg55_8_cif.got.tgz:15610.got - 2010.06.03 13:27:54.
