data_PCOD9426396
_publ_section_title
;
Structure prediction by ZEFSAII (Michael W. Deem and Ramdas Pophale) SiO2 
 PCOD9426396
Probable space group: P B A M
;
_chemical_formula_sum "Si O2"
_cell_formula_units_Z 64
_cell_length_a 12.594995
_cell_length_b 29.768640
_cell_length_c 8.533852
_cell_angle_alpha 90.000000
_cell_angle_beta 90.000000
_cell_angle_gamma 90.000000
_cell_volume 3199.647241
_symmetry_space_group_name_H-M "P B A M"
_symmetry_group_IT_number 55
_symmetry_cell_setting 'orthorhombic'
loop_
_space_group_symop_operation_xyz
x,y,z
-x,-y,z
1/2+x,1/2-y,-z
1/2-x,1/2+y,-z
-x,-y,-z
x,y,-z
1/2-x,1/2+y,z
1/2+x,1/2-y,z
loop_
_atom_site_type_symbol
_atom_site_label
_atom_site_fract_x
_atom_site_fract_y
_atom_site_fract_z
Si Si1 0.005449 0.553132 0.189187
Si Si2 0.623578 0.493979 0.189739
Si Si3 0.627558 0.230072 0.676498
Si Si4 0.423382 0.240302 0.819671
Si Si5 0.232843 0.586937 0.686500
Si Si6 0.792452 0.816558 0.821872
Si Si7 0.731266 0.079076 0.808438
Si Si8 0.192642 0.826169 0.183702
O O1 0.113716 0.574442 0.254987
O O2 0.000000 0.500000 0.228016
O O3 0.892163 0.574288 0.240625
O O4 0.011119 0.556740 0.000000
O O5 0.500000 0.500000 0.237493
O O6 0.683441 0.450564 0.256070
O O7 0.696875 0.536507 0.235080
O O8 0.624636 0.490987 0.000000
O O9 0.663717 0.222528 0.500000
O O10 0.506920 0.217604 0.706429
O O11 0.636663 0.282532 0.721208
O O12 0.698080 0.200762 0.792742
O O13 0.318826 0.210211 0.825353
O O14 0.392622 0.289957 0.758097
O O15 0.463532 0.243348 0.000000
O O16 0.231427 0.588296 0.500000
O O17 0.271159 0.634681 0.753201
O O18 0.832919 0.820082 0.000000
O O19 0.787821 0.124515 0.749913
O O20 0.728915 0.080610 0.000000
O O21 0.169605 0.831161 0.000000
#
# Coordination Sequence:
#
# PCOD9426396 Si02
#       8
#     8   8   8   8   8   8   8   8
#     4  10  19  36  62  87 118 157 202 250 293 346
#     4  10  21  40  65  90 117 156 207 252 290 345
#     4  11  22  36  56  84 119 151 186 238 301 356
#     4   9  19  36  58  82 111 150 195 239 285 343
#     4  12  25  39  58  89 128 158 194 246 311 370
#     4  10  22  41  63  84 111 153 206 248 283 340
#     4   9  18  35  60  89 116 148 198 252 292 335
#     4   9  19  36  57  82 112 151 200 243 282 338
#
# _framework density 20.002205
#
# number of rings (size 3 to 8) (size 9 to 14) (size 15 to 20)
#    0.000    2.000    1.250    3.375    1.750    4.000 
#    0.000    3.125    0.000    0.000    0.000    0.000 
#    0.000    0.000    0.000    0.000    0.000    0.000 
#
# Total GULP energy -357004.406439 kJ/mol
# GULP energy per Si atom -5578.193851 kJ/mol
# Density = 1.995668 g / cm^3
# Si number density = 20.002205 Si / 1000 Ang^3
#
#
#
# Elastic Constant Matrix: (Units=GPa)
#
#
# Indices 1 2 3 4 5 6 
#
# 1 76.4838 5.3480 3.2186 0.0000 0.0000 0.0000
# 2 5.3480 108.8333 5.1394 0.0000 0.0000 0.0000
# 3 3.2186 5.1394 15.7884 0.0000 0.0000 0.0000
# 4 0.0000 0.0000 0.0000 8.4229 0.0000 0.0000
# 5 0.0000 0.0000 0.0000 0.0000 -21.1370 0.0000
# 6 0.0000 0.0000 0.0000 0.0000 0.0000 12.8263
#
#
#
# Elastic Compliance Matrix: (Units=1/GPa)
#
#
# Indices 1 2 3 4 5 6 
#
# 1 0.013218 -0.000530 -0.002522 0.000000 0.000000 0.000000
# 2 -0.000530 0.009353 -0.002936 0.000000 0.000000 0.000000
# 3 -0.002522 -0.002936 0.064808 0.000000 0.000000 0.000000
# 4 0.000000 0.000000 0.000000 0.118725 0.000000 0.000000
# 5 0.000000 0.000000 0.000000 0.000000 -0.047310 0.000000
# 6 0.000000 0.000000 0.000000 0.000000 0.000000 0.077965
#
#
# Mechanical properties :
#
#
# Convention : Reuss Voigt Hill
#
# Bulk Modulus (GPa) = 13.26243 25.39082 19.32663
# Shear Modulus (GPa) = 18.25691 12.51572 15.38631
#
# Velocity S-wave (km/s) = 3.02444 2.50415 2.77651
# Velocity P-wave (km/s) = 4.34065 4.59158 4.46787
#
# Compressibility (1/GPa) = 0.07540098
#
# Stress axis : x y z
#
# Youngs Moduli (GPa) = 75.65505 106.91648 15.43031
#
# Poissons Ratio (x) = 0.05671 0.03891
# Poissons Ratio (y) = 0.04013 0.04531
# Poissons Ratio (z) = 0.19079 0.31395
#
# Static dielectric constant tensor:
#      x y z
#    x 1.720850 0.000000 0.000000 
#    y 0.000000 1.706250 0.000000 
#    z 0.000000 0.000000 1.722270 
# 
# From -- ./inp_files/4584.got.cif
#   From: 2010.05.17/outbox.cif.g08.bks.cpg/sg55_3_cif.got.tgz:4584.got - 2010.06.03 13:27:54.
