data_PCOD9426613
_publ_section_title
;
Structure prediction by ZEFSAII (Michael W. Deem and Ramdas Pophale) SiO2 
 PCOD9426613
Probable space group: P B A M
;
_chemical_formula_sum "Si O2"
_cell_formula_units_Z 40
_cell_length_a 13.518631
_cell_length_b 7.711696
_cell_length_c 14.848721
_cell_angle_alpha 90.000000
_cell_angle_beta 90.000000
_cell_angle_gamma 90.000000
_cell_volume 1548.002515
_symmetry_space_group_name_H-M "P B A M"
_symmetry_group_IT_number 55
_symmetry_cell_setting 'orthorhombic'
loop_
_space_group_symop_operation_xyz
x,y,z
-x,-y,z
1/2+x,1/2-y,-z
1/2-x,1/2+y,-z
-x,-y,-z
x,y,-z
1/2-x,1/2+y,z
1/2+x,1/2-y,z
loop_
_atom_site_type_symbol
_atom_site_label
_atom_site_fract_x
_atom_site_fract_y
_atom_site_fract_z
Si Si1 0.782845 0.746998 0.287382
Si Si2 0.944508 0.181750 0.283566
Si Si3 0.295027 0.579132 0.901247
Si Si4 0.588209 0.786575 0.097152
Si Si5 0.140973 0.544505 0.603688
O O1 0.675086 0.660032 0.270423
O O2 0.816221 0.822884 0.192021
O O3 0.748344 0.872278 0.369299
O O4 0.860217 0.614258 0.327439
O O5 0.972393 0.273901 0.189012
O O6 0.939261 0.311338 0.368349
O O7 0.000000 0.000000 0.296224
O O8 0.354753 0.400040 0.906273
O O9 0.174895 0.569909 0.895721
O O10 0.312457 0.664326 0.000000
O O11 0.537382 0.804912 0.000000
O O12 0.136118 0.499167 0.500000
#
# Coordination Sequence:
#
# PCOD9426613 Si02
#       5
#     8   8   8   8   8
#     4   9  18  32  52  77  98 131 171 211 252 300
#     4   9  20  33  50  77 106 136 167 209 256 307
#     4   9  16  28  47  78 105 129 167 214 253 295
#     4   9  17  28  49  76 104 134 167 208 254 304
#     4  10  20  33  52  75 100 130 173 218 254 298
#
# _framework density 25.839751
#
# number of rings (size 3 to 8) (size 9 to 14) (size 15 to 20)
#    1.200    1.600    0.000    3.000    0.000    0.800 
#    0.000    0.000    0.000    4.800    0.000    9.800 
#    0.000    0.000    0.000    0.000    0.000    0.000 
#
# Total GULP energy -222987.488495 kJ/mol
# GULP energy per Si atom -5574.687212 kJ/mol
# Density = 2.578094 g / cm^3
# Si number density = 25.839751 Si / 1000 Ang^3
#
#
#
# Elastic Constant Matrix: (Units=GPa)
#
#
# Indices 1 2 3 4 5 6 
#
# 1 94.4031 12.9111 2.3882 0.0000 0.0000 0.0000
# 2 12.9111 69.3567 45.1766 0.0000 0.0000 0.0000
# 3 2.3882 45.1766 216.6015 0.0000 0.0000 0.0000
# 4 0.0000 0.0000 0.0000 38.8099 0.0000 0.0000
# 5 0.0000 0.0000 0.0000 0.0000 5.3435 0.0000
# 6 0.0000 0.0000 0.0000 0.0000 0.0000 43.4784
#
#
#
# Elastic Compliance Matrix: (Units=1/GPa)
#
#
# Indices 1 2 3 4 5 6 
#
# 1 0.010893 -0.002256 0.000350 0.000000 0.000000 0.000000
# 2 -0.002256 0.017152 -0.003553 0.000000 0.000000 0.000000
# 3 0.000350 -0.003553 0.005354 0.000000 0.000000 0.000000
# 4 0.000000 0.000000 0.000000 0.025767 0.000000 0.000000
# 5 0.000000 0.000000 0.000000 0.000000 0.187145 0.000000
# 6 0.000000 0.000000 0.000000 0.000000 0.000000 0.023000
#
#
# Mechanical properties :
#
#
# Convention : Reuss Voigt Hill
#
# Bulk Modulus (GPa) = 44.47924 55.70148 50.09036
# Shear Modulus (GPa) = 17.37800 38.85205 28.11502
#
# Velocity S-wave (km/s) = 2.59613 3.88180 3.30214
# Velocity P-wave (km/s) = 5.12224 6.45713 5.82803
#
# Compressibility (1/GPa) = 0.02248240
#
# Stress axis : x y z
#
# Youngs Moduli (GPa) = 91.80594 58.30159 186.78080
#
# Poissons Ratio (x) = 0.13153 -0.06545
# Poissons Ratio (y) = 0.20711 0.66355
# Poissons Ratio (z) = -0.03217 0.20712
#
# Static dielectric constant tensor:
#      x y z
#    x 2.107650 0.000000 0.000000 
#    y 0.000000 2.190370 0.000000 
#    z 0.000000 0.000000 1.965920 
# 
# From -- ./inp_files/17208.got.cif
#   From: 2010.05.17/outbox.cif.g08.bks.cpg/sg55_9_cif.got.tgz:17208.got - 2010.06.03 13:27:54.
