data_PCOD9426066
_publ_section_title
;
Structure prediction by ZEFSAII (Michael W. Deem and Ramdas Pophale) SiO2 
 PCOD9426066
Probable space group: P B A M
;
_chemical_formula_sum "Si O2"
_cell_formula_units_Z 64
_cell_length_a 15.084390
_cell_length_b 24.876707
_cell_length_c 8.165813
_cell_angle_alpha 90.000000
_cell_angle_beta 90.000000
_cell_angle_gamma 90.000000
_cell_volume 3064.220922
_symmetry_space_group_name_H-M "P B A M"
_symmetry_group_IT_number 55
_symmetry_cell_setting 'orthorhombic'
loop_
_space_group_symop_operation_xyz
x,y,z
-x,-y,z
1/2+x,1/2-y,-z
1/2-x,1/2+y,-z
-x,-y,-z
x,y,-z
1/2-x,1/2+y,z
1/2+x,1/2-y,z
loop_
_atom_site_type_symbol
_atom_site_label
_atom_site_fract_x
_atom_site_fract_y
_atom_site_fract_z
Si Si1 0.430477 0.546398 0.304012
Si Si2 0.053397 0.552589 0.305030
Si Si3 0.748464 0.598657 0.314575
Si Si4 0.139536 0.753964 0.800259
Si Si5 0.003790 0.667748 0.199162
Si Si6 0.178322 0.294686 0.811750
Si Si7 0.734706 0.983894 0.190475
Si Si8 0.063041 0.868970 0.803741
O O1 0.500000 0.500000 0.245659
O O2 0.426882 0.543099 0.500000
O O3 0.331377 0.537995 0.238277
O O4 0.472634 0.603208 0.251022
O O5 0.062621 0.548293 0.500000
O O6 0.002978 0.607328 0.262304
O O7 0.151487 0.554060 0.227708
O O8 0.000000 0.500000 0.245191
O O9 0.765434 0.616244 0.500000
O O10 0.788486 0.643411 0.195665
O O11 0.783043 0.539071 0.287579
O O12 0.643394 0.598229 0.279535
O O13 0.091331 0.699842 0.749387
O O14 0.239607 0.762059 0.737482
O O15 0.082010 0.806987 0.757212
O O16 0.143558 0.754212 0.000000
O O17 0.919443 0.702102 0.259888
O O18 0.000309 0.666223 0.000000
O O19 0.169198 0.276962 0.000000
O O20 0.736509 0.997519 0.000000
O O21 0.070950 0.873082 0.000000
#
# Coordination Sequence:
#
# PCOD9426066 Si02
#       8
#     8   8   8   8   8   8   8   8
#     4  11  22  36  56  85 125 165 200 246 306 364
#     4  11  25  44  64  88 122 159 197 251 315 375
#     4  11  20  32  53  82 116 152 194 244 297 350
#     4   8  17  35  57  86 118 149 195 251 298 345
#     4  10  20  38  63  89 118 155 201 250 301 361
#     4   9  18  34  58  84 112 151 196 245 295 350
#     4  12  24  38  59  86 117 157 202 246 297 362
#     4  10  19  34  56  83 116 156 206 249 289 347
#
# _framework density 20.886220999999999
#
# number of rings (size 3 to 8) (size 9 to 14) (size 15 to 20)
#    0.000    1.750    1.250    4.875    0.000    4.000 
#    2.250    3.125    0.000    0.000    0.000    0.000 
#    0.000    0.000    0.000    0.000    0.000    0.000 
#
# Total GULP energy -357393.713558 kJ/mol
# GULP energy per Si atom -5584.276774 kJ/mol
# Density = 2.083868 g / cm^3
# Si number density = 20.886221 Si / 1000 Ang^3
#
#
#
# Elastic Constant Matrix: (Units=GPa)
#
#
# Indices 1 2 3 4 5 6 
#
# 1 117.7201 31.3525 8.6256 0.0000 0.0000 0.0000
# 2 31.3525 67.6174 0.8048 0.0000 0.0000 0.0000
# 3 8.6256 0.8048 47.1622 0.0000 0.0000 0.0000
# 4 0.0000 0.0000 0.0000 -13.0670 0.0000 0.0000
# 5 0.0000 0.0000 0.0000 0.0000 14.5920 0.0000
# 6 0.0000 0.0000 0.0000 0.0000 0.0000 30.5082
#
#
#
# Elastic Compliance Matrix: (Units=1/GPa)
#
#
# Indices 1 2 3 4 5 6 
#
# 1 0.009829 -0.004537 -0.001720 0.000000 0.000000 0.000000
# 2 -0.004537 0.016886 0.000542 0.000000 0.000000 0.000000
# 3 -0.001720 0.000542 0.021509 0.000000 0.000000 0.000000
# 4 0.000000 0.000000 0.000000 -0.076529 0.000000 0.000000
# 5 0.000000 0.000000 0.000000 0.000000 0.068531 0.000000
# 6 0.000000 0.000000 0.000000 0.000000 0.000000 0.032778
#
#
# Mechanical properties :
#
#
# Convention : Reuss Voigt Hill
#
# Bulk Modulus (GPa) = 27.17913 34.89620 31.03766
# Shear Modulus (GPa) = 51.70644 19.18777 35.44710
#
# Velocity S-wave (km/s) = 4.98096 3.03426 4.12412
# Velocity P-wave (km/s) = 6.79126 5.38699 6.12947
#
# Compressibility (1/GPa) = 0.03679294
#
# Stress axis : x y z
#
# Youngs Moduli (GPa) = 101.73838 59.21937 46.49258
#
# Poissons Ratio (x) = 0.26868 0.07998
# Poissons Ratio (y) = 0.46159 -0.02518
# Poissons Ratio (z) = 0.17502 -0.03207
#
# Static dielectric constant tensor:
#      x y z
#    x 1.862980 0.000000 0.000000 
#    y 0.000000 1.728390 0.000000 
#    z 0.000000 0.000000 1.726910 
# 
# From -- ./inp_files/6714.got.cif
#   From: 2010.05.17/outbox.cif.g08.bks.cpg/sg55_4_cif.got.tgz:6714.got - 2010.06.03 13:27:54.
