data_PCOD9426969
_publ_section_title
;
Structure prediction by ZEFSAII (Michael W. Deem and Ramdas Pophale) SiO2 
 PCOD9426969
Probable space group: P B A M
;
_chemical_formula_sum "Si O2"
_cell_formula_units_Z 56
_cell_length_a 14.964119
_cell_length_b 21.886901
_cell_length_c 8.276612
_cell_angle_alpha 90.000000
_cell_angle_beta 90.000000
_cell_angle_gamma 90.000000
_cell_volume 2710.740991
_symmetry_space_group_name_H-M "P B A M"
_symmetry_group_IT_number 55
_symmetry_cell_setting 'orthorhombic'
loop_
_space_group_symop_operation_xyz
x,y,z
-x,-y,z
1/2+x,1/2-y,-z
1/2-x,1/2+y,-z
-x,-y,-z
x,y,-z
1/2-x,1/2+y,z
1/2+x,1/2-y,z
loop_
_atom_site_type_symbol
_atom_site_label
_atom_site_fract_x
_atom_site_fract_y
_atom_site_fract_z
Si Si1 0.904844 0.434329 0.686145
Si Si2 0.085857 0.801525 0.803977
Si Si3 0.803797 0.316311 0.195900
Si Si4 0.905259 0.568843 0.814536
Si Si5 0.098180 0.025631 0.305000
Si Si6 0.286362 0.410583 0.306745
Si Si7 0.608857 0.335919 0.193081
O O1 0.888958 0.450752 0.500000
O O2 0.840604 0.380290 0.739557
O O3 0.893333 0.495932 0.788941
O O4 0.007818 0.414074 0.710814
O O5 0.132630 0.738890 0.751871
O O6 0.145187 0.858246 0.745938
O O7 0.984315 0.808981 0.743827
O O8 0.085143 0.802542 0.000000
O O9 0.701702 0.307165 0.251631
O O10 0.804880 0.318614 0.000000
O O11 0.811952 0.598613 0.764767
O O12 0.926006 0.582400 0.000000
O O13 0.101427 0.031039 0.500000
O O14 0.111550 0.092083 0.231284
O O15 0.171641 0.975743 0.254350
O O16 0.000000 0.000000 0.261875
O O17 0.280097 0.411601 0.500000
O O18 0.607196 0.328152 0.000000
#
# Coordination Sequence:
#
# PCOD9426969 Si02
#       7
#     8   8   8   8   8   8   8
#     4  11  22  39  61  89 120 152 196 246 298 354
#     4  10  22  39  58  83 117 158 205 249 293 350
#     4  10  22  40  60  84 118 161 206 249 297 356
#     4  11  22  38  62  89 120 156 194 240 299 359
#     4  10  20  35  56  84 117 155 188 236 303 360
#     4  11  22  37  58  87 122 155 197 248 302 360
#     4  10  21  37  59  86 115 152 200 250 295 350
#
# _framework density 20.658556999999998
#
# number of rings (size 3 to 8) (size 9 to 14) (size 15 to 20)
#    0.000    1.571    1.429    4.714    0.000    6.000 
#    0.000    2.857    0.000    0.000    0.000    0.000 
#    0.000    0.000    0.000    0.000    0.000    0.000 
#
# Total GULP energy -313085.730800 kJ/mol
# GULP energy per Si atom -5590.816621 kJ/mol
# Density = 2.061154 g / cm^3
# Si number density = 20.658557 Si / 1000 Ang^3
#
#
#
# Elastic Constant Matrix: (Units=GPa)
#
#
# Indices 1 2 3 4 5 6 
#
# 1 136.5484 33.6003 2.2144 0.0000 0.0000 0.0000
# 2 33.6003 44.7945 -1.4103 0.0000 0.0000 0.0000
# 3 2.2144 -1.4103 21.7153 0.0000 0.0000 0.0000
# 4 0.0000 0.0000 0.0000 171.4693 0.0000 0.0000
# 5 0.0000 0.0000 0.0000 0.0000 22.1492 0.0000
# 6 0.0000 0.0000 0.0000 0.0000 0.0000 16.4616
#
#
#
# Elastic Compliance Matrix: (Units=1/GPa)
#
#
# Indices 1 2 3 4 5 6 
#
# 1 0.009021 -0.006810 -0.001362 0.000000 0.000000 0.000000
# 2 -0.006810 0.027510 0.002481 0.000000 0.000000 0.000000
# 3 -0.001362 0.002481 0.046351 0.000000 0.000000 0.000000
# 4 0.000000 0.000000 0.000000 0.005832 0.000000 0.000000
# 5 0.000000 0.000000 0.000000 0.000000 0.045148 0.000000
# 6 0.000000 0.000000 0.000000 0.000000 0.000000 0.060748
#
#
# Mechanical properties :
#
#
# Convention : Reuss Voigt Hill
#
# Bulk Modulus (GPa) = 13.98593 30.20745 22.09669
# Shear Modulus (GPa) = 21.75571 53.25959 37.50765
#
# Velocity S-wave (km/s) = 3.24868 5.08300 4.26561
# Velocity P-wave (km/s) = 4.56691 7.00736 5.91438
#
# Compressibility (1/GPa) = 0.07150042
#
# Stress axis : x y z
#
# Youngs Moduli (GPa) = 110.85067 36.35016 21.57472
#
# Poissons Ratio (x) = 0.24753 0.02939
# Poissons Ratio (y) = 0.75485 -0.05353
# Poissons Ratio (z) = 0.15100 -0.09019
#
# Static dielectric constant tensor:
#      x y z
#    x 1.756940 0.000000 0.000000 
#    y 0.000000 1.693140 0.000000 
#    z 0.000000 0.000000 1.709100 
# 
# From -- ./inp_files/6104.got.cif
#   From: 2010.05.17/outbox.cif.g08.bks.cpg/sg55_4_cif.got.tgz:6104.got - 2010.06.03 13:27:54.
