data_PCOD9426384
_publ_section_title
;
Structure prediction by ZEFSAII (Michael W. Deem and Ramdas Pophale) SiO2 
 PCOD9426384
Probable space group: P B A M
;
_chemical_formula_sum "Si O2"
_cell_formula_units_Z 48
_cell_length_a 29.293324
_cell_length_b 10.509486
_cell_length_c 7.638477
_cell_angle_alpha 90.000000
_cell_angle_beta 90.000000
_cell_angle_gamma 90.000000
_cell_volume 2351.564560
_symmetry_space_group_name_H-M "P B A M"
_symmetry_group_IT_number 55
_symmetry_cell_setting 'orthorhombic'
loop_
_space_group_symop_operation_xyz
x,y,z
-x,-y,z
1/2+x,1/2-y,-z
1/2-x,1/2+y,-z
-x,-y,-z
x,y,-z
1/2-x,1/2+y,z
1/2+x,1/2-y,z
loop_
_atom_site_type_symbol
_atom_site_label
_atom_site_fract_x
_atom_site_fract_y
_atom_site_fract_z
Si Si1 0.201761 0.467586 0.205367
Si Si2 0.303402 0.490620 0.795749
Si Si3 0.452755 0.844326 0.213233
Si Si4 0.859264 0.768153 0.784797
Si Si5 0.445639 0.139918 0.211801
Si Si6 0.152502 0.727083 0.297381
O O1 0.252521 0.481293 0.282062
O O2 0.171370 0.351607 0.274852
O O3 0.174885 0.599784 0.219669
O O4 0.207567 0.437219 0.000000
O O5 0.335436 0.602391 0.723684
O O6 0.327739 0.354842 0.785137
O O7 0.297026 0.524668 0.000000
O O8 0.411334 0.755834 0.272135
O O9 0.504321 0.813009 0.269315
O O10 0.442493 0.990914 0.263456
O O11 0.453404 0.843459 0.000000
O O12 0.860671 0.767811 0.000000
O O13 0.401907 0.214939 0.277879
O O14 0.444123 0.143453 0.000000
O O15 0.164894 0.730062 0.500000
#
# Coordination Sequence:
#
# PCOD9426384 Si02
#       6
#     8   8   8   8   8   8
#     4  10  19  36  61  83 104 136 184 233 271 315
#     4  10  21  36  57  82 108 142 181 225 271 316
#     4   8  14  27  54  85 105 130 174 236 288 313
#     4   9  16  30  55  84 107 129 174 234 280 318
#     4   9  16  31  56  80 104 137 181 230 276 321
#     4  12  24  36  52  79 116 152 179 213 266 327
#
# _framework density 20.411943999999998
#
# number of rings (size 3 to 8) (size 9 to 14) (size 15 to 20)
#    0.000    2.333    1.667    3.500    0.000    3.333 
#    0.000    3.333    0.000    5.000    0.000    0.000 
#    0.000    0.000    0.000    0.000    0.000    0.000 
#
# Total GULP energy -267906.939876 kJ/mol
# GULP energy per Si atom -5581.394581 kJ/mol
# Density = 2.036549 g / cm^3
# Si number density = 20.411944 Si / 1000 Ang^3
#
#
#
# Elastic Constant Matrix: (Units=GPa)
#
#
# Indices 1 2 3 4 5 6 
#
# 1 173.8256 60.8921 -11.7845 0.0000 0.0000 0.0000
# 2 60.8921 103.1253 -20.6695 0.0000 0.0000 0.0000
# 3 -11.7845 -20.6695 32.0774 0.0000 0.0000 0.0000
# 4 0.0000 0.0000 0.0000 -179.4395 0.0000 0.0000
# 5 0.0000 0.0000 0.0000 0.0000 101.4432 0.0000
# 6 0.0000 0.0000 0.0000 0.0000 0.0000 6.4218
#
#
#
# Elastic Compliance Matrix: (Units=1/GPa)
#
#
# Indices 1 2 3 4 5 6 
#
# 1 0.007253 -0.004305 -0.000109 0.000000 0.000000 0.000000
# 2 -0.004305 0.013690 0.007240 0.000000 0.000000 0.000000
# 3 -0.000109 0.007240 0.035800 0.000000 0.000000 0.000000
# 4 0.000000 0.000000 0.000000 -0.005573 0.000000 0.000000
# 5 0.000000 0.000000 0.000000 0.000000 0.009858 0.000000
# 6 0.000000 0.000000 0.000000 0.000000 0.000000 0.155721
#
#
# Mechanical properties :
#
#
# Convention : Reuss Voigt Hill
#
# Bulk Modulus (GPa) = 16.02701 40.65604 28.34152
# Shear Modulus (GPa) = 21.56149 4.39110 12.97629
#
# Velocity S-wave (km/s) = 3.25363 1.46830 2.52409
# Velocity P-wave (km/s) = 4.68867 4.77866 4.73388
#
# Compressibility (1/GPa) = 0.06239469
#
# Stress axis : x y z
#
# Youngs Moduli (GPa) = 137.86450 73.04670 27.93327
#
# Poissons Ratio (x) = 0.31445 0.00305
# Poissons Ratio (y) = 0.59348 -0.20223
# Poissons Ratio (z) = 0.01504 -0.52884
#
# Static dielectric constant tensor:
#      x y z
#    x 1.735840 0.000000 0.000000 
#    y 0.000000 1.684880 0.000000 
#    z 0.000000 0.000000 1.763840 
# 
# From -- ./inp_files/2848.got.cif
#   From: 2010.05.17/outbox.cif.g08.bks.cpg/sg55_2_cif.got.tgz:2848.got - 2010.06.03 13:27:54.
