data_PCOD9426409
_publ_section_title
;
Structure prediction by ZEFSAII (Michael W. Deem and Ramdas Pophale) SiO2 
 PCOD9426409
Probable space group: P B A M
;
_chemical_formula_sum "Si O2"
_cell_formula_units_Z 64
_cell_length_a 12.350053
_cell_length_b 18.582743
_cell_length_c 14.389493
_cell_angle_alpha 90.000000
_cell_angle_beta 90.000000
_cell_angle_gamma 90.000000
_cell_volume 3302.357863
_symmetry_space_group_name_H-M "P B A M"
_symmetry_group_IT_number 55
_symmetry_cell_setting 'orthorhombic'
loop_
_space_group_symop_operation_xyz
x,y,z
-x,-y,z
1/2+x,1/2-y,-z
1/2-x,1/2+y,-z
-x,-y,-z
x,y,-z
1/2-x,1/2+y,z
1/2+x,1/2-y,z
loop_
_atom_site_type_symbol
_atom_site_label
_atom_site_fract_x
_atom_site_fract_y
_atom_site_fract_z
Si Si1 0.284730 0.954318 0.609936
Si Si2 0.061148 0.343561 0.714135
Si Si3 0.339407 0.119685 0.388939
Si Si4 0.987169 0.415318 0.106735
Si Si5 0.385679 0.457535 0.101396
Si Si6 0.732273 0.394977 0.106774
Si Si7 0.365219 0.679979 0.711490
Si Si8 0.938829 0.076601 0.703933
O O1 0.299583 0.949460 0.500000
O O2 0.362108 0.898677 0.660531
O O3 0.162255 0.934235 0.636874
O O4 0.314977 0.036248 0.637342
O O5 0.053002 0.369492 0.820002
O O6 0.105727 0.263253 0.711324
O O7 0.943584 0.351581 0.665906
O O8 0.355986 0.123442 0.500000
O O9 0.233747 0.163082 0.357140
O O10 0.000000 0.500000 0.128654
O O11 0.861540 0.392012 0.114987
O O12 0.021460 0.405551 0.000000
O O13 0.500000 0.500000 0.095819
O O14 0.299782 0.521056 0.118162
O O15 0.393396 0.408537 0.191905
O O16 0.366506 0.423786 0.000000
O O17 0.672193 0.350080 0.186877
O O18 0.701174 0.375440 0.000000
O O19 0.471541 0.635496 0.680978
O O20 0.000000 0.000000 0.707277
#
# Coordination Sequence:
#
# PCOD9426409 Si02
#       8
#     8   8   8   8   8   8   8   8
#     4  11  25  45  70  96 122 167 228 276 324 386
#     4  12  27  42  67  94 137 170 216 272 333 395
#     4  11  24  46  71  93 122 167 221 276 330 389
#     4  10  22  40  67  97 125 167 221 272 324 385
#     4   9  16  29  55  93 122 155 208 255 299 362
#     4  10  19  36  64  92 129 171 210 258 316 379
#     4  12  25  42  62  99 136 172 211 263 334 398
#     4  11  21  38  65  95 133 169 214 266 321 380
#
# _framework density 19.380092999999999
#
# number of rings (size 3 to 8) (size 9 to 14) (size 15 to 20)
#    0.000    1.250    5.000    1.500    3.500    3.250 
#    0.000    0.000    0.000    0.000    0.000    0.000 
#    0.000    0.000    0.000    0.000    0.000    0.000 
#
# Total GULP energy -357623.930278 kJ/mol
# GULP energy per Si atom -5587.873911 kJ/mol
# Density = 1.933598 g / cm^3
# Si number density = 19.380093 Si / 1000 Ang^3
#
#
#
# Elastic Constant Matrix: (Units=GPa)
#
#
# Indices 1 2 3 4 5 6 
#
# 1 77.7003 52.2293 24.8774 0.0000 0.0000 0.0000
# 2 52.2293 116.9166 32.4582 0.0000 0.0000 0.0000
# 3 24.8774 32.4582 35.4711 0.0000 0.0000 0.0000
# 4 0.0000 0.0000 0.0000 14.8896 0.0000 0.0000
# 5 0.0000 0.0000 0.0000 0.0000 16.5347 0.0000
# 6 0.0000 0.0000 0.0000 0.0000 0.0000 16.1903
#
#
#
# Elastic Compliance Matrix: (Units=1/GPa)
#
#
# Indices 1 2 3 4 5 6 
#
# 1 0.019881 -0.006717 -0.007797 0.000000 0.000000 0.000000
# 2 -0.006717 0.013735 -0.007858 0.000000 0.000000 0.000000
# 3 -0.007797 -0.007858 0.040851 0.000000 0.000000 0.000000
# 4 0.000000 0.000000 0.000000 0.067161 0.000000 0.000000
# 5 0.000000 0.000000 0.000000 0.000000 0.060479 0.000000
# 6 0.000000 0.000000 0.000000 0.000000 0.000000 0.061765
#
#
# Mechanical properties :
#
#
# Convention : Reuss Voigt Hill
#
# Bulk Modulus (GPa) = 33.64328 49.91308 41.77818
# Shear Modulus (GPa) = 15.69742 17.55782 16.62762
#
# Velocity S-wave (km/s) = 2.84910 3.01320 2.93230
# Velocity P-wave (km/s) = 5.31230 6.15764 5.75053
#
# Compressibility (1/GPa) = 0.02972362
#
# Stress axis : x y z
#
# Youngs Moduli (GPa) = 50.29827 72.80641 24.47931
#
# Poissons Ratio (x) = 0.48902 0.19088
# Poissons Ratio (y) = 0.33784 0.19235
# Poissons Ratio (z) = 0.39220 0.57209
#
# Static dielectric constant tensor:
#      x y z
#    x 1.706250 0.000000 0.000000 
#    y 0.000000 1.623430 0.000000 
#    z 0.000000 0.000000 1.707390 
# 
# From -- ./inp_files/18575.got.cif
#   From: 2010.05.17/outbox.cif.g08.bks.cpg/sg55_10_cif.got.tgz:18575.got - 2010.06.03 13:27:54.
