data_PCOD9426294
_publ_section_title
;
Structure prediction by ZEFSAII (Michael W. Deem and Ramdas Pophale) SiO2 
 PCOD9426294
Probable space group: P B A M
;
_chemical_formula_sum "Si O2"
_cell_formula_units_Z 64
_cell_length_a 28.383505
_cell_length_b 12.988938
_cell_length_c 8.502904
_cell_angle_alpha 90.000000
_cell_angle_beta 90.000000
_cell_angle_gamma 90.000000
_cell_volume 3134.779109
_symmetry_space_group_name_H-M "P B A M"
_symmetry_group_IT_number 55
_symmetry_cell_setting 'orthorhombic'
loop_
_space_group_symop_operation_xyz
x,y,z
-x,-y,z
1/2+x,1/2-y,-z
1/2-x,1/2+y,-z
-x,-y,-z
x,y,-z
1/2-x,1/2+y,z
1/2+x,1/2-y,z
loop_
_atom_site_type_symbol
_atom_site_label
_atom_site_fract_x
_atom_site_fract_y
_atom_site_fract_z
Si Si1 0.163877 0.643697 0.184476
Si Si2 0.194291 0.442179 0.684647
Si Si3 0.962603 0.193886 0.309697
Si Si4 0.211257 0.860385 0.186365
Si Si5 0.379481 0.457921 0.687887
Si Si6 0.063544 0.585785 0.684378
Si Si7 0.939000 0.852681 0.811817
Si Si8 0.093199 0.375963 0.812055
O O1 0.198030 0.548441 0.219027
O O2 0.188387 0.750138 0.224890
O O3 0.117712 0.620827 0.287254
O O4 0.150374 0.644328 0.000000
O O5 0.192089 0.463535 0.500000
O O6 0.239853 0.375882 0.725188
O O7 0.144899 0.392515 0.738177
O O8 0.963893 0.194684 0.500000
O O9 0.914898 0.134790 0.261753
O O10 0.963773 0.313194 0.254372
O O11 0.007497 0.133924 0.244903
O O12 0.171360 0.942232 0.235095
O O13 0.219606 0.864870 0.000000
O O14 0.374636 0.452878 0.500000
O O15 0.404777 0.563350 0.736476
O O16 0.053845 0.574176 0.500000
O O17 0.060889 0.473127 0.761114
O O18 0.925196 0.736100 0.764907
O O19 0.936451 0.861030 0.000000
O O20 0.097536 0.379489 0.000000
#
# Coordination Sequence:
#
# PCOD9426294 Si02
#       8
#     8   8   8   8   8   8   8   8
#     4  10  20  36  59  85 116 153 191 241 298 352
#     4  11  23  38  61  89 118 155 198 245 299 359
#     4  10  22  39  61  90 122 158 199 251 307 359
#     4  11  23  39  62  90 119 155 198 244 297 358
#     4  11  23  41  63  88 122 158 200 252 303 359
#     4  10  19  35  61  89 118 152 197 247 295 355
#     4  11  25  41  60  87 123 165 206 251 302 362
#     4  10  22  41  60  84 121 160 200 250 305 358
#
# _framework density 20.416112999999999
#
# number of rings (size 3 to 8) (size 9 to 14) (size 15 to 20)
#    0.000    1.500    1.250    5.250    0.000    8.500 
#    0.000    3.750    0.000    0.000    0.000    0.000 
#    0.000    0.000    0.000    0.000    0.000    0.000 
#
# Total GULP energy -357733.804761 kJ/mol
# GULP energy per Si atom -5589.590699 kJ/mol
# Density = 2.036964 g / cm^3
# Si number density = 20.416113 Si / 1000 Ang^3
#
#
#
# Elastic Constant Matrix: (Units=GPa)
#
#
# Indices 1 2 3 4 5 6 
#
# 1 53.2844 11.3918 4.7589 0.0000 0.0000 0.0000
# 2 11.3918 87.9532 5.5816 0.0000 0.0000 0.0000
# 3 4.7589 5.5816 16.1529 0.0000 0.0000 0.0000
# 4 0.0000 0.0000 0.0000 22.4073 0.0000 0.0000
# 5 0.0000 0.0000 0.0000 0.0000 23.1910 0.0000
# 6 0.0000 0.0000 0.0000 0.0000 0.0000 24.3852
#
#
#
# Elastic Compliance Matrix: (Units=1/GPa)
#
#
# Indices 1 2 3 4 5 6 
#
# 1 0.019694 -0.002231 -0.005031 0.000000 0.000000 0.000000
# 2 -0.002231 0.011877 -0.003447 0.000000 0.000000 0.000000
# 3 -0.005031 -0.003447 0.064582 0.000000 0.000000 0.000000
# 4 0.000000 0.000000 0.000000 0.044628 0.000000 0.000000
# 5 0.000000 0.000000 0.000000 0.000000 0.043120 0.000000
# 6 0.000000 0.000000 0.000000 0.000000 0.000000 0.041009
#
#
# Mechanical properties :
#
#
# Convention : Reuss Voigt Hill
#
# Bulk Modulus (GPa) = 13.38074 22.31724 17.84899
# Shear Modulus (GPa) = 18.43386 23.04056 20.73721
#
# Velocity S-wave (km/s) = 3.00810 3.36303 3.19051
# Velocity P-wave (km/s) = 4.31661 5.10244 4.72589
#
# Compressibility (1/GPa) = 0.07473428
#
# Stress axis : x y z
#
# Youngs Moduli (GPa) = 50.77784 84.19322 15.48425
#
# Poissons Ratio (x) = 0.18787 0.07790
# Poissons Ratio (y) = 0.11331 0.05337
# Poissons Ratio (z) = 0.25546 0.29020
#
# Static dielectric constant tensor:
#      x y z
#    x 1.705180 0.000000 0.000000 
#    y 0.000000 1.751330 0.000000 
#    z 0.000000 0.000000 1.687820 
# 
# From -- ./inp_files/10861.got.cif
#   From: 2010.05.17/outbox.cif.g08.bks.cpg/sg55_6_cif.got.tgz:10861.got - 2010.06.03 13:27:54.
