data_PCOD9426905
_publ_section_title
;
Structure prediction by ZEFSAII (Michael W. Deem and Ramdas Pophale) SiO2 
 PCOD9426905
Probable space group: P B A M
;
_chemical_formula_sum "Si O2"
_cell_formula_units_Z 58
_cell_length_a 12.346255
_cell_length_b 26.556096
_cell_length_c 9.076809
_cell_angle_alpha 90.000000
_cell_angle_beta 90.000000
_cell_angle_gamma 90.000000
_cell_volume 2975.998236
_symmetry_space_group_name_H-M "P B A M"
_symmetry_group_IT_number 55
_symmetry_cell_setting 'orthorhombic'
loop_
_space_group_symop_operation_xyz
x,y,z
-x,-y,z
1/2+x,1/2-y,-z
1/2-x,1/2+y,-z
-x,-y,-z
x,y,-z
1/2-x,1/2+y,z
1/2+x,1/2-y,z
loop_
_atom_site_type_symbol
_atom_site_label
_atom_site_fract_x
_atom_site_fract_y
_atom_site_fract_z
Si Si1 0.098372 0.075297 0.825200
Si Si2 0.615394 0.210102 0.671353
Si Si3 0.727765 0.009968 0.161502
Si Si4 0.601035 0.794109 0.828226
Si Si5 0.179331 0.174852 0.327004
Si Si6 0.381567 0.421535 0.673479
Si Si7 0.669695 0.678873 0.830107
Si Si8 0.000000 0.500000 0.000000
O O1 0.204265 0.040384 0.799743
O O2 0.119716 0.129284 0.751603
O O3 0.986719 0.055831 0.754740
O O4 0.084914 0.080532 0.000000
O O5 0.633982 0.197370 0.500000
O O6 0.501843 0.191283 0.732267
O O7 0.620682 0.270963 0.683170
O O8 0.708676 0.188707 0.775219
O O9 0.770630 0.051676 0.274199
O O10 0.771491 0.026478 0.000000
O O11 0.599754 0.002274 0.127545
O O12 0.707508 0.817471 0.756863
O O13 0.613686 0.733444 0.820684
O O14 0.590125 0.808127 0.000000
O O15 0.194859 0.164139 0.500000
O O16 0.394650 0.425677 0.500000
O O17 0.376992 0.363664 0.725131
O O18 0.665634 0.662307 0.000000
#
# Coordination Sequence:
#
# PCOD9426905 Si02
#       8
#     8   8   8   8   8   8   8   2
#     4  11  22  38  62  93 122 156 202 251 305 365
#     4  10  20  35  54  79 113 157 203 252 308 365
#     4   9  21  43  68  90 117 157 199 245 298 362
#     4  10  20  35  55  80 112 157 209 255 300 360
#     4  10  21  36  55  82 120 158 196 250 314 365
#     4  12  24  38  61  95 129 159 196 251 312 371
#     4  10  21  37  57  83 116 157 206 252 301 358
#     4   8  20  48  72  88 116 160 206 246 304 356
#
# _framework density 19.489258
#
# number of rings (size 3 to 8) (size 9 to 14) (size 15 to 20)
#    0.414    1.379    0.000    4.552    0.000    8.276 
#    2.483    0.345    0.000    0.000    0.000    0.000 
#    0.000    0.000    0.000    0.000    0.000    0.000 
#
# Total GULP energy -323100.676343 kJ/mol
# GULP energy per Si atom -5570.701316 kJ/mol
# Density = 1.944490 g / cm^3
# Si number density = 19.489258 Si / 1000 Ang^3
#
#
#
# Elastic Constant Matrix: (Units=GPa)
#
#
# Indices 1 2 3 4 5 6 
#
# 1 104.6579 8.0856 11.7301 0.0000 0.0000 0.0000
# 2 8.0856 47.2923 15.8202 0.0000 0.0000 0.0000
# 3 11.7301 15.8202 68.9644 0.0000 0.0000 0.0000
# 4 0.0000 0.0000 0.0000 11.8546 0.0000 0.0000
# 5 0.0000 0.0000 0.0000 0.0000 15.7803 0.0000
# 6 0.0000 0.0000 0.0000 0.0000 0.0000 -8.7137
#
#
#
# Elastic Compliance Matrix: (Units=1/GPa)
#
#
# Indices 1 2 3 4 5 6 
#
# 1 0.009804 -0.001211 -0.001390 0.000000 0.000000 0.000000
# 2 -0.001211 0.023052 -0.005082 0.000000 0.000000 0.000000
# 3 -0.001390 -0.005082 0.015902 0.000000 0.000000 0.000000
# 4 0.000000 0.000000 0.000000 0.084356 0.000000 0.000000
# 5 0.000000 0.000000 0.000000 0.000000 0.063370 0.000000
# 6 0.000000 0.000000 0.000000 0.000000 0.000000 -0.114762
#
#
# Mechanical properties :
#
#
# Convention : Reuss Voigt Hill
#
# Bulk Modulus (GPa) = 29.94671 32.46517 31.20594
# Shear Modulus (GPa) = 46.20225 16.13615 31.16920
#
# Velocity S-wave (km/s) = 4.87422 2.88053 4.00347
# Velocity P-wave (km/s) = 6.86123 5.26853 6.11694
#
# Compressibility (1/GPa) = 0.03339265
#
# Stress axis : x y z
#
# Youngs Moduli (GPa) = 101.99621 43.37976 62.88345
#
# Poissons Ratio (x) = 0.05255 0.08739
# Poissons Ratio (y) = 0.12355 0.31958
# Poissons Ratio (z) = 0.14175 0.22046
#
# Static dielectric constant tensor:
#      x y z
#    x 1.707940 0.000000 0.000000 
#    y 0.000000 1.716120 0.000000 
#    z 0.000000 0.000000 1.646730 
# 
# From -- ./inp_files/4290.got.cif
#   From: 2010.05.17/outbox.cif.g08.bks.cpg/sg55_3_cif.got.tgz:4290.got - 2010.06.03 13:27:54.
