data_PCOD9426647
_publ_section_title
;
Structure prediction by ZEFSAII (Michael W. Deem and Ramdas Pophale) SiO2 
 PCOD9426647
Probable space group: P B A M
;
_chemical_formula_sum "Si O2"
_cell_formula_units_Z 64
_cell_length_a 8.207803
_cell_length_b 23.515903
_cell_length_c 14.603562
_cell_angle_alpha 90.000000
_cell_angle_beta 90.000000
_cell_angle_gamma 90.000000
_cell_volume 2818.690444
_symmetry_space_group_name_H-M "P B A M"
_symmetry_group_IT_number 55
_symmetry_cell_setting 'orthorhombic'
loop_
_space_group_symop_operation_xyz
x,y,z
-x,-y,z
1/2+x,1/2-y,-z
1/2-x,1/2+y,-z
-x,-y,-z
x,y,-z
1/2-x,1/2+y,z
1/2+x,1/2-y,z
loop_
_atom_site_type_symbol
_atom_site_label
_atom_site_fract_x
_atom_site_fract_y
_atom_site_fract_z
Si Si1 0.194903 0.212013 0.896254
Si Si2 0.684879 0.791532 0.600529
Si Si3 0.833302 0.174310 0.844803
Si Si4 0.131479 0.937660 0.601606
Si Si5 0.144109 0.544522 0.603639
Si Si6 0.686458 0.173307 0.642757
Si Si7 0.010858 0.934475 0.190552
Si Si8 0.777302 0.365524 0.245843
O O1 0.232531 0.278951 0.899798
O O2 0.328714 0.180626 0.830972
O O3 0.018435 0.199178 0.850784
O O4 0.194044 0.190004 0.000000
O O5 0.729664 0.811290 0.500000
O O6 0.499232 0.808118 0.624936
O O7 0.705781 0.724181 0.602216
O O8 0.794380 0.822767 0.676461
O O9 0.740445 0.173765 0.748071
O O10 0.864276 0.106987 0.862832
O O11 0.054090 0.930826 0.500000
O O12 0.270818 0.888615 0.603712
O O13 0.045922 0.928562 0.699631
O O14 0.201285 0.001799 0.607453
O O15 0.135883 0.568266 0.500000
O O16 0.135472 0.589606 0.685964
O O17 0.000000 0.500000 0.614151
O O18 0.834946 0.906091 0.185009
O O19 0.000000 0.000000 0.165000
#
# Coordination Sequence:
#
# PCOD9426647 Si02
#       8
#     8   8   8   8   8   8   8   8
#     4  11  23  43  69  99 127 158 211 272 336 402
#     4  12  24  37  57  87 132 177 218 264 324 397
#     4  10  22  41  69  94 127 167 209 270 339 398
#     4  10  20  33  54  81 117 164 215 267 311 367
#     4  10  20  36  56  84 121 169 223 265 311 379
#     4  11  23  40  57  87 126 168 217 270 323 390
#     4  10  21  39  59  89 124 169 220 269 324 389
#     4  11  23  38  60  89 124 171 209 269 328 382
#
# _framework density 22.705580000000001
#
# number of rings (size 3 to 8) (size 9 to 14) (size 15 to 20)
#    0.000    1.375    2.500    3.375    3.500    2.250 
#    0.000    0.000    0.000    9.750    0.000    0.000 
#    0.000    0.000    0.000    0.000    0.000    0.000 
#
# Total GULP energy -356564.573129 kJ/mol
# GULP energy per Si atom -5571.321455 kJ/mol
# Density = 2.265390 g / cm^3
# Si number density = 22.705580 Si / 1000 Ang^3
#
#
#
# Elastic Constant Matrix: (Units=GPa)
#
#
# Indices 1 2 3 4 5 6 
#
# 1 32.9896 19.5935 -1.0627 0.0000 0.0000 0.0000
# 2 19.5935 143.8905 23.7574 0.0000 0.0000 0.0000
# 3 -1.0627 23.7574 105.5916 0.0000 0.0000 0.0000
# 4 0.0000 0.0000 0.0000 12.4455 0.0000 0.0000
# 5 0.0000 0.0000 0.0000 0.0000 -0.1671 0.0000
# 6 0.0000 0.0000 0.0000 0.0000 0.0000 37.8411
#
#
#
# Elastic Compliance Matrix: (Units=1/GPa)
#
#
# Indices 1 2 3 4 5 6 
#
# 1 0.033179 -0.004749 0.001403 0.000000 0.000000 0.000000
# 2 -0.004749 0.007898 -0.001825 0.000000 0.000000 0.000000
# 3 0.001403 -0.001825 0.009895 0.000000 0.000000 0.000000
# 4 0.000000 0.000000 0.000000 0.080350 0.000000 0.000000
# 5 0.000000 0.000000 0.000000 0.000000 -5.984501 0.000000
# 6 0.000000 0.000000 0.000000 0.000000 0.000000 0.026426
#
#
# Mechanical properties :
#
#
# Convention : Reuss Voigt Hill
#
# Bulk Modulus (GPa) = 24.61355 40.78313 32.69834
# Shear Modulus (GPa) = -0.86164 26.03614 12.58725
#
# Velocity S-wave (km/s) = -0.61669 3.38995 2.35706
# Velocity P-wave (km/s) = 3.21819 5.77261 4.67332
#
# Compressibility (1/GPa) = 0.04062803
#
# Stress axis : x y z
#
# Youngs Moduli (GPa) = 30.13993 126.61847 101.05992
#
# Poissons Ratio (x) = 0.60137 -0.14174
# Poissons Ratio (y) = 0.14315 0.18441
# Poissons Ratio (z) = -0.04227 0.23105
#
# Static dielectric constant tensor:
#      x y z
#    x 1.998890 0.000000 0.000000 
#    y 0.000000 1.898530 0.000000 
#    z 0.000000 0.000000 1.819810 
# 
# From -- ./inp_files/17858.got.cif
#   From: 2010.05.17/outbox.cif.g08.bks.cpg/sg55_9_cif.got.tgz:17858.got - 2010.06.03 13:27:54.
