data_PCOD9426039
_publ_section_title
;
Structure prediction by ZEFSAII (Michael W. Deem and Ramdas Pophale) SiO2 
 PCOD9426039
Probable space group: P B A M
;
_chemical_formula_sum "Si O2"
_cell_formula_units_Z 48
_cell_length_a 8.209200
_cell_length_b 31.160551
_cell_length_c 10.114275
_cell_angle_alpha 90.000000
_cell_angle_beta 90.000000
_cell_angle_gamma 90.000000
_cell_volume 2587.263863
_symmetry_space_group_name_H-M "P B A M"
_symmetry_group_IT_number 55
_symmetry_cell_setting 'orthorhombic'
loop_
_space_group_symop_operation_xyz
x,y,z
-x,-y,z
1/2+x,1/2-y,-z
1/2-x,1/2+y,-z
-x,-y,-z
x,y,-z
1/2-x,1/2+y,z
1/2+x,1/2-y,z
loop_
_atom_site_type_symbol
_atom_site_label
_atom_site_fract_x
_atom_site_fract_y
_atom_site_fract_z
Si Si1 0.852985 0.885697 0.356994
Si Si2 0.502699 0.843491 0.653174
Si Si3 0.998946 0.049461 0.153200
Si Si4 0.339737 0.225516 0.844791
Si Si5 0.761412 0.617313 0.142307
Si Si6 0.013948 0.812627 0.213775
O O1 0.893775 0.903950 0.500000
O O2 0.665201 0.872281 0.351130
O O3 0.894170 0.919833 0.244955
O O4 0.953150 0.841111 0.337356
O O5 0.463237 0.831763 0.500000
O O6 0.550596 0.804311 0.750330
O O7 0.363670 0.869064 0.730809
O O8 0.819513 0.070773 0.157815
O O9 0.052964 0.051680 0.000000
O O10 0.000000 0.000000 0.194167
O O11 0.361675 0.272901 0.783175
O O12 0.154917 0.207519 0.840423
O O13 0.390277 0.226294 0.000000
O O14 0.610981 0.650792 0.135406
O O15 0.850205 0.619949 0.000000
#
# Coordination Sequence:
#
# PCOD9426039 Si02
#       6
#     8   8   8   8   8   8
#     4   9  20  38  57  78 107 143 180 216 261 316
#     4  10  22  37  52  75 108 143 179 220 263 308
#     4   9  19  36  59  86 111 135 169 215 264 316
#     4  11  20  33  54  78 105 138 180 223 266 314
#     4  10  19  34  56  79 104 136 175 215 262 316
#     4  10  21  34  53  79 106 136 177 224 265 309
#
# _framework density 18.552416999999998
#
# number of rings (size 3 to 8) (size 9 to 14) (size 15 to 20)
#    0.000    2.167    0.000    3.000    0.000    9.000 
#    0.000    4.167    0.000    5.000    0.000    0.000 
#    0.000    0.000    0.000    0.000    0.000    0.000 
#
# Total GULP energy -267225.247521 kJ/mol
# GULP energy per Si atom -5567.192657 kJ/mol
# Density = 1.851019 g / cm^3
# Si number density = 18.552417 Si / 1000 Ang^3
#
#
#
# Elastic Constant Matrix: (Units=GPa)
#
#
# Indices 1 2 3 4 5 6 
#
# 1 49.7742 17.9192 45.5736 0.0000 0.0000 0.0000
# 2 17.9192 116.4340 48.2996 0.0000 0.0000 0.0000
# 3 45.5736 48.2996 100.7131 0.0000 0.0000 0.0000
# 4 0.0000 0.0000 0.0000 14.5710 0.0000 0.0000
# 5 0.0000 0.0000 0.0000 0.0000 13.4932 0.0000
# 6 0.0000 0.0000 0.0000 0.0000 0.0000 15.7671
#
#
#
# Elastic Compliance Matrix: (Units=1/GPa)
#
#
# Indices 1 2 3 4 5 6 
#
# 1 0.034500 0.001456 -0.016310 0.000000 0.000000 0.000000
# 2 0.001456 0.010783 -0.005830 0.000000 0.000000 0.000000
# 3 -0.016310 -0.005830 0.020106 0.000000 0.000000 0.000000
# 4 0.000000 0.000000 0.000000 0.068629 0.000000 0.000000
# 5 0.000000 0.000000 0.000000 0.000000 0.074111 0.000000
# 6 0.000000 0.000000 0.000000 0.000000 0.000000 0.063423
#
#
# Mechanical properties :
#
#
# Convention : Reuss Voigt Hill
#
# Bulk Modulus (GPa) = 41.63077 54.50070 48.06573
# Shear Modulus (GPa) = 15.57986 19.10818 17.34402
#
# Velocity S-wave (km/s) = 2.90103 3.21278 3.06087
# Velocity P-wave (km/s) = 5.80599 6.57289 6.20131
#
# Compressibility (1/GPa) = 0.02402069
#
# Stress axis : x y z
#
# Youngs Moduli (GPa) = 28.98556 92.73897 49.73740
#
# Poissons Ratio (x) = -0.13505 0.81121
# Poissons Ratio (y) = -0.04221 0.28998
# Poissons Ratio (z) = 0.47275 0.54069
#
# Static dielectric constant tensor:
#      x y z
#    x 1.667290 0.000000 0.000000 
#    y 0.000000 1.624900 0.000000 
#    z 0.000000 0.000000 1.663620 
# 
# From -- ./inp_files/2832.got.cif
#   From: 2010.05.17/outbox.cif.g08.bks.cpg/sg55_2_cif.got.tgz:2832.got - 2010.06.03 13:27:54.
