data_PCOD9426439
_publ_section_title
;
Structure prediction by ZEFSAII (Michael W. Deem and Ramdas Pophale) SiO2 
 PCOD9426439
Probable space group: P B A M
;
_chemical_formula_sum "Si O2"
_cell_formula_units_Z 64
_cell_length_a 20.221659
_cell_length_b 19.281446
_cell_length_c 7.804676
_cell_angle_alpha 90.000000
_cell_angle_beta 90.000000
_cell_angle_gamma 90.000000
_cell_volume 3043.065229
_symmetry_space_group_name_H-M "P B A M"
_symmetry_group_IT_number 55
_symmetry_cell_setting 'orthorhombic'
loop_
_space_group_symop_operation_xyz
x,y,z
-x,-y,z
1/2+x,1/2-y,-z
1/2-x,1/2+y,-z
-x,-y,-z
x,y,-z
1/2-x,1/2+y,z
1/2+x,1/2-y,z
loop_
_atom_site_type_symbol
_atom_site_label
_atom_site_fract_x
_atom_site_fract_y
_atom_site_fract_z
Si Si1 0.698568 0.457406 0.793075
Si Si2 0.843327 0.696619 0.798710
Si Si3 0.176520 0.458282 0.791789
Si Si4 0.260857 0.189916 0.789791
Si Si5 0.465196 0.712982 0.698556
Si Si6 0.049248 0.057870 0.702355
Si Si7 0.411218 0.204705 0.801399
Si Si8 0.055339 0.552878 0.299601
O O1 0.749679 0.517819 0.745411
O O2 0.730597 0.384066 0.737381
O O3 0.625058 0.464308 0.723293
O O4 0.694094 0.455921 0.000000
O O5 0.840817 0.618739 0.728683
O O6 0.787623 0.748986 0.730018
O O7 0.913936 0.733460 0.781504
O O8 0.828654 0.689291 0.000000
O O9 0.124807 0.513943 0.721401
O O10 0.171114 0.461334 0.000000
O O11 0.336327 0.200605 0.732946
O O12 0.261709 0.188906 0.000000
O O13 0.445437 0.709942 0.500000
O O14 0.458842 0.635733 0.774299
O O15 0.538883 0.742529 0.712836
O O16 0.033744 0.063793 0.500000
O O17 0.000000 0.000000 0.775765
O O18 0.440962 0.127313 0.788019
O O19 0.407820 0.224983 0.000000
O O20 0.041139 0.565362 0.500000
O O21 0.000000 0.500000 0.230805
#
# Coordination Sequence:
#
# PCOD9426439 Si02
#       8
#     8   8   8   8   8   8   8   8
#     4  10  19  37  62  87 116 148 194 248 295 349
#     4  10  20  37  61  86 114 153 196 240 298 358
#     4  10  21  36  57  86 116 150 193 243 296 352
#     4   9  18  35  59  85 113 146 189 242 291 346
#     4  11  23  39  58  85 121 157 198 246 292 349
#     4  10  23  42  62  86 120 161 202 244 296 354
#     4  11  22  38  61  87 117 154 194 240 294 351
#     4  11  23  37  54  80 117 156 194 238 286 343
#
# _framework density 21.031427000000001
#
# number of rings (size 3 to 8) (size 9 to 14) (size 15 to 20)
#    0.000    1.750    2.500    1.875    0.000    5.750 
#    0.000    2.500    0.000    0.000    0.000    0.000 
#    0.000    0.000    0.000    0.000    0.000    0.000 
#
# Total GULP energy -357625.582549 kJ/mol
# GULP energy per Si atom -5587.899727 kJ/mol
# Density = 2.098356 g / cm^3
# Si number density = 21.031427 Si / 1000 Ang^3
#
#
#
# Elastic Constant Matrix: (Units=GPa)
#
#
# Indices 1 2 3 4 5 6 
#
# 1 111.7724 32.4551 -16.5540 0.0000 0.0000 0.0000
# 2 32.4551 103.5197 -1.6703 0.0000 0.0000 0.0000
# 3 -16.5540 -1.6703 22.4540 0.0000 0.0000 0.0000
# 4 0.0000 0.0000 0.0000 10.7936 0.0000 0.0000
# 5 0.0000 0.0000 0.0000 0.0000 24.2157 0.0000
# 6 0.0000 0.0000 0.0000 0.0000 0.0000 40.6932
#
#
#
# Elastic Compliance Matrix: (Units=1/GPa)
#
#
# Indices 1 2 3 4 5 6 
#
# 1 0.011094 -0.003350 0.007930 0.000000 0.000000 0.000000
# 2 -0.003350 0.010683 -0.001675 0.000000 0.000000 0.000000
# 3 0.007930 -0.001675 0.050257 0.000000 0.000000 0.000000
# 4 0.000000 0.000000 0.000000 0.092647 0.000000 0.000000
# 5 0.000000 0.000000 0.000000 0.000000 0.041296 0.000000
# 6 0.000000 0.000000 0.000000 0.000000 0.000000 0.024574
#
#
# Mechanical properties :
#
#
# Convention : Reuss Voigt Hill
#
# Bulk Modulus (GPa) = 12.84640 29.57867 21.21253
# Shear Modulus (GPa) = 19.94495 30.04152 24.99324
#
# Velocity S-wave (km/s) = 3.08285 3.78353 3.45102
# Velocity P-wave (km/s) = 4.33514 5.76033 5.09779
#
# Compressibility (1/GPa) = 0.07784285
#
# Stress axis : x y z
#
# Youngs Moduli (GPa) = 90.13913 93.60399 19.89773
#
# Poissons Ratio (x) = 0.31359 -0.15778
# Poissons Ratio (y) = 0.30198 0.03333
# Poissons Ratio (z) = -0.71478 0.15681
#
# Static dielectric constant tensor:
#      x y z
#    x 1.723080 0.000000 0.000000 
#    y 0.000000 1.751580 0.000000 
#    z 0.000000 0.000000 1.790620 
# 
# From -- ./inp_files/8025.got.cif
#   From: 2010.05.17/outbox.cif.g08.bks.cpg/sg55_5_cif.got.tgz:8025.got - 2010.06.03 13:27:54.
