data_PCOD9426034
_publ_section_title
;
Structure prediction by ZEFSAII (Michael W. Deem and Ramdas Pophale) SiO2 
 PCOD9426034
Probable space group: P B A M
;
_chemical_formula_sum "Si O2"
_cell_formula_units_Z 48
_cell_length_a 8.564947
_cell_length_b 22.919719
_cell_length_c 12.983606
_cell_angle_alpha 90.000000
_cell_angle_beta 90.000000
_cell_angle_gamma 90.000000
_cell_volume 2548.762077
_symmetry_space_group_name_H-M "P B A M"
_symmetry_group_IT_number 55
_symmetry_cell_setting 'orthorhombic'
loop_
_space_group_symop_operation_xyz
x,y,z
-x,-y,z
1/2+x,1/2-y,-z
1/2-x,1/2+y,-z
-x,-y,-z
x,y,-z
1/2-x,1/2+y,z
1/2+x,1/2-y,z
loop_
_atom_site_type_symbol
_atom_site_label
_atom_site_fract_x
_atom_site_fract_y
_atom_site_fract_z
Si Si1 0.832378 0.091720 0.611454
Si Si2 0.331027 0.029523 0.384601
Si Si3 0.439579 0.678763 0.880265
Si Si4 0.172764 0.740152 0.246701
Si Si5 0.091555 0.312435 0.621281
Si Si6 0.082966 0.063479 0.771773
O O1 0.882176 0.114610 0.500000
O O2 0.673724 0.125240 0.637705
O O3 0.971772 0.095890 0.689541
O O4 0.789108 0.024203 0.604340
O O5 0.337116 0.058672 0.500000
O O6 0.251840 0.060301 0.285790
O O7 0.500000 0.000000 0.366855
O O8 0.577937 0.709435 0.814143
O O9 0.283419 0.707231 0.833203
O O10 0.423285 0.608955 0.865045
O O11 0.459930 0.692686 0.000000
O O12 0.278607 0.767754 0.336723
O O13 0.054138 0.697490 0.304993
O O14 0.057955 0.304968 0.500000
O O15 0.000000 0.000000 0.792382
#
# Coordination Sequence:
#
# PCOD9426034 Si02
#       6
#     8   8   8   8   8   8
#     4   9  17  31  51  78 114 149 179 216 270 347
#     4   9  18  31  51  81 112 148 188 223 272 342
#     4  11  23  41  62  83 108 150 203 251 292 334
#     4  10  22  38  58  83 115 150 192 238 290 343
#     4  10  19  34  55  85 120 148 180 224 287 356
#     4  10  20  36  57  83 115 151 187 239 291 348
#
# _framework density 18.832673
#
# number of rings (size 3 to 8) (size 9 to 14) (size 15 to 20)
#    0.000    2.167    1.667    1.500    2.333    2.333 
#    0.000    1.667    0.000    0.500    0.000    0.000 
#    0.000    0.000    0.000    0.000    0.000    0.000 
#
# Total GULP energy -267330.557541 kJ/mol
# GULP energy per Si atom -5569.386615 kJ/mol
# Density = 1.878981 g / cm^3
# Si number density = 18.832673 Si / 1000 Ang^3
#
#
#
# Elastic Constant Matrix: (Units=GPa)
#
#
# Indices 1 2 3 4 5 6 
#
# 1 70.5524 6.5004 25.9407 0.0000 0.0000 0.0000
# 2 6.5004 63.3863 14.3410 0.0000 0.0000 0.0000
# 3 25.9407 14.3410 61.4663 0.0000 0.0000 0.0000
# 4 0.0000 0.0000 0.0000 22.5530 0.0000 0.0000
# 5 0.0000 0.0000 0.0000 0.0000 11.6257 0.0000
# 6 0.0000 0.0000 0.0000 0.0000 0.0000 16.8262
#
#
#
# Elastic Compliance Matrix: (Units=1/GPa)
#
#
# Indices 1 2 3 4 5 6 
#
# 1 0.016778 -0.000125 -0.007052 0.000000 0.000000 0.000000
# 2 -0.000125 0.016656 -0.003833 0.000000 0.000000 0.000000
# 3 -0.007052 -0.003833 0.020139 0.000000 0.000000 0.000000
# 4 0.000000 0.000000 0.000000 0.044340 0.000000 0.000000
# 5 0.000000 0.000000 0.000000 0.000000 0.086016 0.000000
# 6 0.000000 0.000000 0.000000 0.000000 0.000000 0.059431
#
#
# Mechanical properties :
#
#
# Convention : Reuss Voigt Hill
#
# Bulk Modulus (GPa) = 31.69214 32.10768 31.89991
# Shear Modulus (GPa) = 18.12254 20.10919 19.11586
#
# Velocity S-wave (km/s) = 3.10545 3.27124 3.18942
# Velocity P-wave (km/s) = 5.45190 5.59946 5.52617
#
# Compressibility (1/GPa) = 0.03155356
#
# Stress axis : x y z
#
# Youngs Moduli (GPa) = 59.60129 60.03696 49.65374
#
# Poissons Ratio (x) = 0.00752 0.35014
# Poissons Ratio (y) = 0.00746 0.19034
# Poissons Ratio (z) = 0.42029 0.23014
#
# Static dielectric constant tensor:
#      x y z
#    x 1.664720 0.000000 0.000000 
#    y 0.000000 1.703210 0.000000 
#    z 0.000000 0.000000 1.661900 
# 
# From -- ./inp_files/12215.got.cif
#   From: 2010.05.17/outbox.cif.g08.bks.cpg/sg55_7_cif.got.tgz:12215.got - 2010.06.03 13:27:54.
