data_PCOD9426266
_publ_section_title
;
Structure prediction by ZEFSAII (Michael W. Deem and Ramdas Pophale) SiO2 
 PCOD9426266
Probable space group: P B A M
;
_chemical_formula_sum "Si O2"
_cell_formula_units_Z 48
_cell_length_a 10.097953
_cell_length_b 30.907927
_cell_length_c 7.647393
_cell_angle_alpha 90.000000
_cell_angle_beta 90.000000
_cell_angle_gamma 90.000000
_cell_volume 2386.803313
_symmetry_space_group_name_H-M "P B A M"
_symmetry_group_IT_number 55
_symmetry_cell_setting 'orthorhombic'
loop_
_space_group_symop_operation_xyz
x,y,z
-x,-y,z
1/2+x,1/2-y,-z
1/2-x,1/2+y,-z
-x,-y,-z
x,y,-z
1/2-x,1/2+y,z
1/2+x,1/2-y,z
loop_
_atom_site_type_symbol
_atom_site_label
_atom_site_fract_x
_atom_site_fract_y
_atom_site_fract_z
Si Si1 0.008643 0.635540 0.798555
Si Si2 0.047300 0.295601 0.500000
Si Si3 0.650316 0.716249 0.500000
Si Si4 0.285526 0.928291 0.211197
Si Si5 0.802564 0.887159 0.702343
Si Si6 0.415284 0.351888 0.798480
Si Si7 0.350296 0.514139 0.787854
O O1 0.968505 0.673804 0.669106
O O2 0.925563 0.592933 0.741768
O O3 0.164281 0.626803 0.785726
O O4 0.972649 0.644995 0.000000
O O5 0.193163 0.275249 0.500000
O O6 0.935472 0.259338 0.500000
O O7 0.615028 0.687198 0.668890
O O8 0.173181 0.893202 0.259334
O O9 0.246854 0.975863 0.274215
O O10 0.282020 0.931339 0.000000
O O11 0.799740 0.874116 0.500000
O O12 0.931861 0.865807 0.786803
O O13 0.817627 0.938829 0.716452
O O14 0.381566 0.342012 0.000000
O O15 0.500000 0.500000 0.743531
O O16 0.343935 0.517322 0.000000
#
# Coordination Sequence:
#
# PCOD9426266 Si02
#       7
#     8   4   4   8   8   8   8
#     4  11  24  46  70  93 134 182 221 270 333 397
#     4  12  28  48  72 103 136 166 211 273 335 403
#     4  12  28  46  72 103 137 167 210 274 330 402
#     4   9  19  38  66  92 125 179 226 264 321 381
#     4  12  24  39  62  99 137 177 226 280 327 382
#     4  11  22  43  70  95 130 179 222 262 326 395
#     4  10  19  35  59  93 134 174 226 281 323 378
#
# _framework density 20.110581
#
# number of rings (size 3 to 8) (size 9 to 14) (size 15 to 20)
#    0.000    1.167    5.000    1.500    2.333    1.667 
#    3.000    3.333    0.000    0.000    0.000    0.000 
#    0.000    0.000    0.000    0.000    0.000    0.000 
#
# Total GULP energy -268401.824722 kJ/mol
# GULP energy per Si atom -5591.704682 kJ/mol
# Density = 2.006481 g / cm^3
# Si number density = 20.110581 Si / 1000 Ang^3
#
#
#
# Elastic Constant Matrix: (Units=GPa)
#
#
# Indices 1 2 3 4 5 6 
#
# 1 123.6739 12.5831 7.2864 0.0000 0.0000 0.0000
# 2 12.5831 57.2805 23.9289 0.0000 0.0000 0.0000
# 3 7.2864 23.9289 95.1589 0.0000 0.0000 0.0000
# 4 0.0000 0.0000 0.0000 19.1616 0.0000 0.0000
# 5 0.0000 0.0000 0.0000 0.0000 10.5831 0.0000
# 6 0.0000 0.0000 0.0000 0.0000 0.0000 34.6134
#
#
#
# Elastic Compliance Matrix: (Units=1/GPa)
#
#
# Indices 1 2 3 4 5 6 
#
# 1 0.008274 -0.001735 -0.000197 0.000000 0.000000 0.000000
# 2 -0.001735 0.019871 -0.004864 0.000000 0.000000 0.000000
# 3 -0.000197 -0.004864 0.011747 0.000000 0.000000 0.000000
# 4 0.000000 0.000000 0.000000 0.052188 0.000000 0.000000
# 5 0.000000 0.000000 0.000000 0.000000 0.094490 0.000000
# 6 0.000000 0.000000 0.000000 0.000000 0.000000 0.028891
#
#
# Mechanical properties :
#
#
# Convention : Reuss Voigt Hill
#
# Bulk Modulus (GPa) = 38.02397 40.41225 39.21811
# Shear Modulus (GPa) = 21.02434 28.35927 24.69181
#
# Velocity S-wave (km/s) = 3.23683 3.75929 3.50780
# Velocity P-wave (km/s) = 5.73741 6.24353 5.99581
#
# Compressibility (1/GPa) = 0.02629920
#
# Stress axis : x y z
#
# Youngs Moduli (GPa) = 120.86131 50.32450 85.12851
#
# Poissons Ratio (x) = 0.08732 0.01679
# Poissons Ratio (y) = 0.20972 0.41406
# Poissons Ratio (z) = 0.02383 0.24478
#
# Static dielectric constant tensor:
#      x y z
#    x 1.705710 0.000000 0.000000 
#    y 0.000000 1.671160 0.000000 
#    z 0.000000 0.000000 1.727250 
# 
# From -- ./inp_files/2931.got.cif
#   From: 2010.05.17/outbox.cif.g08.bks.cpg/sg55_2_cif.got.tgz:2931.got - 2010.06.03 13:27:54.
