data_PCOD9426612
_publ_section_title
;
Structure prediction by ZEFSAII (Michael W. Deem and Ramdas Pophale) SiO2 
 PCOD9426612
Probable space group: P B A M
;
_chemical_formula_sum "Si O2"
_cell_formula_units_Z 64
_cell_length_a 19.774781
_cell_length_b 23.960411
_cell_length_c 8.531355
_cell_angle_alpha 90.000000
_cell_angle_beta 90.000000
_cell_angle_gamma 90.000000
_cell_volume 4042.257353
_symmetry_space_group_name_H-M "P B A M"
_symmetry_group_IT_number 55
_symmetry_cell_setting 'orthorhombic'
loop_
_space_group_symop_operation_xyz
x,y,z
-x,-y,z
1/2+x,1/2-y,-z
1/2-x,1/2+y,-z
-x,-y,-z
x,y,-z
1/2-x,1/2+y,z
1/2+x,1/2-y,z
loop_
_atom_site_type_symbol
_atom_site_label
_atom_site_fract_x
_atom_site_fract_y
_atom_site_fract_z
Si Si1 0.496477 0.378676 0.813316
Si Si2 0.859983 0.064554 0.689833
Si Si3 0.151382 0.730001 0.309666
Si Si4 0.497976 0.252350 0.688065
Si Si5 0.237957 0.838958 0.688832
Si Si6 0.720081 0.333694 0.689321
Si Si7 0.860041 0.726406 0.185704
Si Si8 0.868665 0.936439 0.310093
O O1 0.427625 0.408202 0.758825
O O2 0.500738 0.317046 0.739452
O O3 0.560236 0.414717 0.755719
O O4 0.498088 0.373668 0.000000
O O5 0.865253 0.067080 0.500000
O O6 0.796217 0.102894 0.735257
O O7 0.854656 0.000043 0.736829
O O8 0.149634 0.728729 0.500000
O O9 0.185770 0.789199 0.266551
O O10 0.204316 0.682654 0.257242
O O11 0.074170 0.728138 0.255902
O O12 0.500099 0.250316 0.500000
O O13 0.563636 0.221720 0.754423
O O14 0.244364 0.837396 0.500000
O O15 0.309792 0.822706 0.760777
O O16 0.720349 0.333177 0.500000
O O17 0.671545 0.283381 0.743298
O O18 0.688767 0.392347 0.740664
O O19 0.859455 0.731169 0.000000
O O20 0.872438 0.934894 0.500000
#
# Coordination Sequence:
#
# PCOD9426612 Si02
#       8
#     8   8   8   8   8   8   8   8
#     4  12  23  32  44  68 102 135 166 203 242 282
#     4  10  20  35  52  70  93 130 175 205 234 285
#     4   8  15  28  49  70  89 118 157 196 236 284
#     4  11  19  32  51  70  94 130 165 198 238 290
#     4   9  17  33  51  68  92 125 163 201 240 286
#     4   9  17  32  50  70  94 125 159 196 242 289
#     4  11  21  31  46  72  99 123 156 199 247 294
#     4  10  20  33  52  71  94 131 170 204 238 285
#
# _framework density 15.832737
#
# number of rings (size 3 to 8) (size 9 to 14) (size 15 to 20)
#    0.000    2.000    2.500    3.750    0.000    2.500 
#    0.000    0.625    0.000    0.000    0.000    0.875 
#    0.000    7.000    0.000    0.000    0.000    0.000 
#
# Total GULP energy -357040.140765 kJ/mol
# GULP energy per Si atom -5578.752199 kJ/mol
# Density = 1.579670 g / cm^3
# Si number density = 15.832737 Si / 1000 Ang^3
#
#
#
# Elastic Constant Matrix: (Units=GPa)
#
#
# Indices 1 2 3 4 5 6 
#
# 1 131.7575 51.6959 20.7804 0.0000 0.0000 0.0000
# 2 51.6959 72.0939 18.2087 0.0000 0.0000 0.0000
# 3 20.7804 18.2087 15.6212 0.0000 0.0000 0.0000
# 4 0.0000 0.0000 0.0000 -1.2285 0.0000 0.0000
# 5 0.0000 0.0000 0.0000 0.0000 -7.5927 0.0000
# 6 0.0000 0.0000 0.0000 0.0000 0.0000 18.0870
#
#
#
# Elastic Compliance Matrix: (Units=1/GPa)
#
#
# Indices 1 2 3 4 5 6 
#
# 1 0.011201 -0.006050 -0.007849 0.000000 0.000000 0.000000
# 2 -0.006050 0.022926 -0.018675 0.000000 0.000000 0.000000
# 3 -0.007849 -0.018675 0.096226 0.000000 0.000000 0.000000
# 4 0.000000 0.000000 0.000000 -0.814016 0.000000 0.000000
# 5 0.000000 0.000000 0.000000 0.000000 -0.131705 0.000000
# 6 0.000000 0.000000 0.000000 0.000000 0.000000 0.055288
#
#
# Mechanical properties :
#
#
# Convention : Reuss Voigt Hill
#
# Bulk Modulus (GPa) = 15.33637 44.53809 29.93723
# Shear Modulus (GPa) = -7.42724 10.43900 1.50588
#
# Velocity S-wave (km/s) = -2.16824 2.57053 0.97631
# Velocity P-wave (km/s) = 1.85451 6.08289 4.49671
#
# Compressibility (1/GPa) = 0.06520446
#
# Stress axis : x y z
#
# Youngs Moduli (GPa) = 89.27602 43.61946 10.39224
#
# Poissons Ratio (x) = 0.26388 0.08157
# Poissons Ratio (y) = 0.54008 0.19408
# Poissons Ratio (z) = 0.70073 0.81461
#
# Static dielectric constant tensor:
#      x y z
#    x 1.536500 0.000000 0.000000 
#    y 0.000000 1.516500 0.000000 
#    z 0.000000 0.000000 1.530690 
# 
# From -- ./inp_files/8189.got.cif
#   From: 2010.05.17/outbox.cif.g08.bks.cpg/sg55_5_cif.got.tgz:8189.got - 2010.06.03 13:27:54.
