data_PCOD9426041
_publ_section_title
;
Structure prediction by ZEFSAII (Michael W. Deem and Ramdas Pophale) SiO2 
 PCOD9426041
Probable space group: P B A M
;
_chemical_formula_sum "Si O2"
_cell_formula_units_Z 48
_cell_length_a 18.403724
_cell_length_b 17.027426
_cell_length_c 8.825783
_cell_angle_alpha 90.000000
_cell_angle_beta 90.000000
_cell_angle_gamma 90.000000
_cell_volume 2765.718395
_symmetry_space_group_name_H-M "P B A M"
_symmetry_group_IT_number 55
_symmetry_cell_setting 'orthorhombic'
loop_
_space_group_symop_operation_xyz
x,y,z
-x,-y,z
1/2+x,1/2-y,-z
1/2-x,1/2+y,-z
-x,-y,-z
x,y,-z
1/2-x,1/2+y,z
1/2+x,1/2-y,z
loop_
_atom_site_type_symbol
_atom_site_label
_atom_site_fract_x
_atom_site_fract_y
_atom_site_fract_z
Si Si1 0.585718 0.496511 0.182213
Si Si2 0.444721 0.239344 0.181152
Si Si3 0.667616 0.169600 0.682150
Si Si4 0.098105 0.180141 0.818368
Si Si5 0.168412 0.855665 0.681700
Si Si6 0.018207 0.410948 0.683272
O O1 0.500000 0.500000 0.216776
O O2 0.611690 0.409482 0.226822
O O3 0.628419 0.566277 0.261064
O O4 0.592763 0.505106 0.000000
O O5 0.515169 0.293930 0.217329
O O6 0.374954 0.281206 0.251940
O O7 0.464331 0.153928 0.246891
O O8 0.437870 0.235725 0.000000
O O9 0.667174 0.170395 0.500000
O O10 0.649460 0.256326 0.741452
O O11 0.747523 0.143937 0.732086
O O12 0.599963 0.114621 0.730162
O O13 0.105380 0.185355 0.000000
O O14 0.165937 0.852205 0.500000
O O15 0.013785 0.405958 0.500000
O O16 0.000000 0.500000 0.727841
#
# Coordination Sequence:
#
# PCOD9426041 Si02
#       6
#     8   8   8   8   8   8
#     4  10  19  35  56  80 111 142 176 221 270 318
#     4  10  19  34  56  79 106 139 178 223 266 318
#     4   9  20  37  54  76 108 142 177 222 270 318
#     4   9  18  34  56  78 102 138 177 214 264 320
#     4  11  22  35  52  79 112 145 181 221 270 323
#     4   9  18  36  60  81 105 140 182 225 271 323
#
# _framework density 17.355346000000001
#
# number of rings (size 3 to 8) (size 9 to 14) (size 15 to 20)
#    0.000    2.333    1.667    1.000    0.000    3.333 
#    3.000    0.000    0.000    0.000    0.000    0.000 
#    0.000    0.000    0.000    0.000    0.000    0.000 
#
# Total GULP energy -267771.415980 kJ/mol
# GULP energy per Si atom -5578.571166 kJ/mol
# Density = 1.731584 g / cm^3
# Si number density = 17.355346 Si / 1000 Ang^3
#
#
#
# Elastic Constant Matrix: (Units=GPa)
#
#
# Indices 1 2 3 4 5 6 
#
# 1 117.8065 84.8637 35.1239 0.0000 0.0000 0.0000
# 2 84.8637 165.0789 39.5716 0.0000 0.0000 0.0000
# 3 35.1239 39.5716 22.3243 0.0000 0.0000 0.0000
# 4 0.0000 0.0000 0.0000 30.4830 0.0000 0.0000
# 5 0.0000 0.0000 0.0000 0.0000 16.4927 0.0000
# 6 0.0000 0.0000 0.0000 0.0000 0.0000 19.2566
#
#
#
# Elastic Compliance Matrix: (Units=1/GPa)
#
#
# Indices 1 2 3 4 5 6 
#
# 1 0.017494 -0.004165 -0.020141 0.000000 0.000000 0.000000
# 2 -0.004165 0.011525 -0.013876 0.000000 0.000000 0.000000
# 3 -0.020141 -0.013876 0.101079 0.000000 0.000000 0.000000
# 4 0.000000 0.000000 0.000000 0.032805 0.000000 0.000000
# 5 0.000000 0.000000 0.000000 0.000000 0.060633 0.000000
# 6 0.000000 0.000000 0.000000 0.000000 0.000000 0.051930
#
#
# Mechanical properties :
#
#
# Convention : Reuss Voigt Hill
#
# Bulk Modulus (GPa) = 18.61011 69.36980 43.98996
# Shear Modulus (GPa) = 13.52291 22.95650 18.23971
#
# Velocity S-wave (km/s) = 2.79441 3.64089 3.24536
# Velocity P-wave (km/s) = 4.59977 7.59814 6.28051
#
# Compressibility (1/GPa) = 0.05373422
#
# Stress axis : x y z
#
# Youngs Moduli (GPa) = 57.16243 86.76587 9.89321
#
# Poissons Ratio (x) = 0.36140 0.19926
# Poissons Ratio (y) = 0.23810 0.13728
# Poissons Ratio (z) = 1.15130 1.20397
#
# Static dielectric constant tensor:
#      x y z
#    x 1.583060 0.000000 0.000000 
#    y 0.000000 1.572510 0.000000 
#    z 0.000000 0.000000 1.582100 
# 
# From -- ./inp_files/5642.got.cif
#   From: 2010.05.17/outbox.cif.g08.bks.cpg/sg55_3_cif.got.tgz:5642.got - 2010.06.03 13:27:54.
