data_PCOD9426747
_publ_section_title
;
Structure prediction by ZEFSAII (Michael W. Deem and Ramdas Pophale) SiO2 
 PCOD9426747
Probable space group: P B A M
;
_chemical_formula_sum "Si O2"
_cell_formula_units_Z 52
_cell_length_a 26.717633
_cell_length_b 10.508127
_cell_length_c 9.231300
_cell_angle_alpha 90.000000
_cell_angle_beta 90.000000
_cell_angle_gamma 90.000000
_cell_volume 2591.708529
_symmetry_space_group_name_H-M "P B A M"
_symmetry_group_IT_number 55
_symmetry_cell_setting 'orthorhombic'
loop_
_space_group_symop_operation_xyz
x,y,z
-x,-y,z
1/2+x,1/2-y,-z
1/2-x,1/2+y,-z
-x,-y,-z
x,y,-z
1/2-x,1/2+y,z
1/2+x,1/2-y,z
loop_
_atom_site_type_symbol
_atom_site_label
_atom_site_fract_x
_atom_site_fract_y
_atom_site_fract_z
Si Si1 0.123840 0.887760 0.824298
Si Si2 0.769701 0.218115 0.176100
Si Si3 0.109180 0.426014 0.664826
Si Si4 0.500000 0.000000 0.750642
Si Si5 0.799582 0.489870 0.174611
Si Si6 0.089248 0.167314 0.825157
Si Si7 0.519961 0.717036 0.165118
O O1 0.176078 0.830965 0.772329
O O2 0.073261 0.819800 0.768312
O O3 0.118126 0.037502 0.795041
O O4 0.125000 0.872213 0.000000
O O5 0.766417 0.366674 0.213160
O O6 0.727312 0.119640 0.223405
O O7 0.768979 0.211693 0.000000
O O8 0.125819 0.414625 0.500000
O O9 0.051652 0.472190 0.668083
O O10 0.146105 0.517565 0.753205
O O11 0.110588 0.290940 0.747140
O O12 0.510991 0.868705 0.834356
O O13 0.805401 0.491191 0.000000
O O14 0.031148 0.156509 0.774933
O O15 0.089459 0.188021 0.000000
O O16 0.522430 0.670127 0.000000
#
# Coordination Sequence:
#
# PCOD9426747 Si02
#       7
#     8   8   8   4   8   8   8
#     4   9  16  28  50  80 115 147 181 226 278 327
#     4   9  19  33  56  86 113 143 183 229 275 325
#     4  11  23  38  56  79 111 147 186 231 281 333
#     4  10  20  34  54  76 107 150 187 220 277 346
#     4  10  21  38  60  87 114 146 187 232 277 329
#     4   9  18  31  53  82 111 147 184 226 276 330
#     4   9  16  27  48  83 116 140 177 230 278 325
#
# _framework density 20.063984999999999
#
# number of rings (size 3 to 8) (size 9 to 14) (size 15 to 20)
#    0.000    2.462    0.000    2.308    2.154    4.923 
#    0.000    0.769    0.000   11.077    0.000    0.000 
#    0.000    0.000    0.000    0.000    0.000    0.000 
#
# Total GULP energy -289873.715593 kJ/mol
# GULP energy per Si atom -5574.494531 kJ/mol
# Density = 2.001832 g / cm^3
# Si number density = 20.063985 Si / 1000 Ang^3
#
#
#
# Elastic Constant Matrix: (Units=GPa)
#
#
# Indices 1 2 3 4 5 6 
#
# 1 79.8394 34.6628 14.0480 0.0000 0.0000 0.0000
# 2 34.6628 80.1565 20.8671 0.0000 0.0000 0.0000
# 3 14.0480 20.8671 28.4460 0.0000 0.0000 0.0000
# 4 0.0000 0.0000 0.0000 -2.3443 0.0000 0.0000
# 5 0.0000 0.0000 0.0000 0.0000 4.0727 0.0000
# 6 0.0000 0.0000 0.0000 0.0000 0.0000 33.9154
#
#
#
# Elastic Compliance Matrix: (Units=1/GPa)
#
#
# Indices 1 2 3 4 5 6 
#
# 1 0.015686 -0.005892 -0.003424 0.000000 0.000000 0.000000
# 2 -0.005892 0.017633 -0.010026 0.000000 0.000000 0.000000
# 3 -0.003424 -0.010026 0.044200 0.000000 0.000000 0.000000
# 4 0.000000 0.000000 0.000000 -0.426575 0.000000 0.000000
# 5 0.000000 0.000000 0.000000 0.000000 0.245536 0.000000
# 6 0.000000 0.000000 0.000000 0.000000 0.000000 0.029485
#
#
# Mechanical properties :
#
#
# Convention : Reuss Voigt Hill
#
# Bulk Modulus (GPa) = 25.74963 36.39975 31.07469
# Shear Modulus (GPa) = -223.14787 15.05304 -104.04742
#
# Velocity S-wave (km/s) = -10.55744 2.74204 -7.20905
# Velocity P-wave (km/s) = 11.65123 5.31096 7.33297
#
# Compressibility (1/GPa) = 0.03883550
#
# Stress axis : x y z
#
# Youngs Moduli (GPa) = 63.75303 56.71075 22.62439
#
# Poissons Ratio (x) = 0.33411 0.07748
# Poissons Ratio (y) = 0.37560 0.22683
# Poissons Ratio (z) = 0.21832 0.56857
#
# Static dielectric constant tensor:
#      x y z
#    x 1.749170 0.000000 0.000000 
#    y 0.000000 1.724270 0.000000 
#    z 0.000000 0.000000 1.670920 
# 
# From -- ./inp_files/16149.got.cif
#   From: 2010.05.17/outbox.cif.g08.bks.cpg/sg55_9_cif.got.tgz:16149.got - 2010.06.03 13:27:54.
