data_PCOD9426891
_publ_section_title
;
Structure prediction by ZEFSAII (Michael W. Deem and Ramdas Pophale) SiO2 
 PCOD9426891
Probable space group: P B A M
;
_chemical_formula_sum "Si O2"
_cell_formula_units_Z 56
_cell_length_a 13.581701
_cell_length_b 9.017150
_cell_length_c 20.215032
_cell_angle_alpha 90.000000
_cell_angle_beta 90.000000
_cell_angle_gamma 90.000000
_cell_volume 2475.699293
_symmetry_space_group_name_H-M "P B A M"
_symmetry_group_IT_number 55
_symmetry_cell_setting 'orthorhombic'
loop_
_space_group_symop_operation_xyz
x,y,z
-x,-y,z
1/2+x,1/2-y,-z
1/2-x,1/2+y,-z
-x,-y,-z
x,y,-z
1/2-x,1/2+y,z
1/2+x,1/2-y,z
loop_
_atom_site_type_symbol
_atom_site_label
_atom_site_fract_x
_atom_site_fract_y
_atom_site_fract_z
Si Si1 0.385511 0.055418 0.073853
Si Si2 0.393861 0.685553 0.352127
Si Si3 0.714967 0.007187 0.342657
Si Si4 0.501817 0.676212 0.926999
Si Si5 0.383045 0.657815 0.201648
Si Si6 0.059525 0.656902 0.574436
Si Si7 0.758327 0.571988 0.807207
O O1 0.396316 0.234064 0.077560
O O2 0.317186 0.990932 0.130341
O O3 0.500000 0.000000 0.079996
O O4 0.349768 0.018628 0.000000
O O5 0.326199 0.540304 0.360931
O O6 0.425531 0.682911 0.274614
O O7 0.486904 0.717090 0.397970
O O8 0.323555 0.830211 0.362793
O O9 0.646397 0.883259 0.375672
O O10 0.704611 0.007717 0.263359
O O11 0.500000 0.500000 0.929006
O O12 0.444701 0.713522 0.860072
O O13 0.460292 0.721549 0.000000
O O14 0.353047 0.487077 0.190760
O O15 0.282952 0.755267 0.198296
O O16 0.093443 0.689953 0.500000
O O17 0.000000 0.500000 0.572092
#
# Coordination Sequence:
#
# PCOD9426891 Si02
#       7
#     8   8   8   8   8   8   8
#     4  10  20  35  54  75 101 139 183 224 271 326
#     4   9  19  36  55  81 113 144 184 230 274 325
#     4   9  19  35  55  80 112 145 183 230 275 326
#     4  10  22  38  54  76 107 141 181 229 279 330
#     4  10  21  36  53  79 106 141 179 224 274 327
#     4   9  18  33  57  85 110 147 189 220 270 339
#     4  10  21  34  54  77 106 138 181 224 274 326
#
# _framework density 22.619872000000001
#
# number of rings (size 3 to 8) (size 9 to 14) (size 15 to 20)
#    0.000    2.429    1.429    0.000    4.000    1.714 
#    0.000    0.714    0.000    0.857    0.000    0.000 
#    0.000    0.000    0.000    0.000    0.000    0.000 
#
# Total GULP energy -312306.742451 kJ/mol
# GULP energy per Si atom -5576.906115 kJ/mol
# Density = 2.256839 g / cm^3
# Si number density = 22.619872 Si / 1000 Ang^3
#
#
#
# Elastic Constant Matrix: (Units=GPa)
#
#
# Indices 1 2 3 4 5 6 
#
# 1 25.3623 -1.0630 24.3572 0.0000 0.0000 0.0000
# 2 -1.0630 74.3101 1.1065 0.0000 0.0000 0.0000
# 3 24.3572 1.1065 68.2679 0.0000 0.0000 0.0000
# 4 0.0000 0.0000 0.0000 21.6342 0.0000 0.0000
# 5 0.0000 0.0000 0.0000 0.0000 1.1492 0.0000
# 6 0.0000 0.0000 0.0000 0.0000 0.0000 30.2970
#
#
#
# Elastic Compliance Matrix: (Units=1/GPa)
#
#
# Indices 1 2 3 4 5 6 
#
# 1 0.060084 0.001179 -0.021456 0.000000 0.000000 0.000000
# 2 0.001179 0.013484 -0.000639 0.000000 0.000000 0.000000
# 3 -0.021456 -0.000639 0.022314 0.000000 0.000000 0.000000
# 4 0.000000 0.000000 0.000000 0.046223 0.000000 0.000000
# 5 0.000000 0.000000 0.000000 0.000000 0.870140 0.000000
# 6 0.000000 0.000000 0.000000 0.000000 0.000000 0.033007
#
#
# Mechanical properties :
#
#
# Convention : Reuss Voigt Hill
#
# Bulk Modulus (GPa) = 18.50199 24.08241 21.29220
# Shear Modulus (GPa) = 4.52448 20.18540 12.35494
#
# Velocity S-wave (km/s) = 1.41583 2.99050 2.33962
# Velocity P-wave (km/s) = 3.29697 4.75330 4.09047
#
# Compressibility (1/GPa) = 0.05404825
#
# Stress axis : x y z
#
# Youngs Moduli (GPa) = 16.64336 74.16469 44.81509
#
# Poissons Ratio (x) = -0.08744 0.96157
# Poissons Ratio (y) = -0.01962 0.02865
# Poissons Ratio (z) = 0.35711 0.04740
#
# Static dielectric constant tensor:
#      x y z
#    x 1.849440 0.000000 0.000000 
#    y 0.000000 1.899770 0.000000 
#    z 0.000000 0.000000 1.807930 
# 
# From -- ./inp_files/22962.got.cif
#   From: 2010.05.17/outbox.cif.g08.bks.cpg/sg55_12_cif.got.tgz:22962.got - 2010.06.03 13:27:54.
