data_PCOD9426144
_publ_section_title
;
Structure prediction by ZEFSAII (Michael W. Deem and Ramdas Pophale) SiO2 
 PCOD9426144
Probable space group: P B A M
;
_chemical_formula_sum "Si O2"
_cell_formula_units_Z 64
_cell_length_a 17.177239
_cell_length_b 21.389499
_cell_length_c 8.190499
_cell_angle_alpha 90.000000
_cell_angle_beta 90.000000
_cell_angle_gamma 90.000000
_cell_volume 3009.292012
_symmetry_space_group_name_H-M "P B A M"
_symmetry_group_IT_number 55
_symmetry_cell_setting 'orthorhombic'
loop_
_space_group_symop_operation_xyz
x,y,z
-x,-y,z
1/2+x,1/2-y,-z
1/2-x,1/2+y,-z
-x,-y,-z
x,y,-z
1/2-x,1/2+y,z
1/2+x,1/2-y,z
loop_
_atom_site_type_symbol
_atom_site_label
_atom_site_fract_x
_atom_site_fract_y
_atom_site_fract_z
Si Si1 0.219357 0.627164 0.195187
Si Si2 0.943197 0.335261 0.305085
Si Si3 0.349859 0.706587 0.687585
Si Si4 0.471306 0.611960 0.187617
Si Si5 0.770845 0.105078 0.805988
Si Si6 0.607201 0.697225 0.691083
Si Si7 0.386950 0.843970 0.194733
Si Si8 0.155768 0.021183 0.800945
O O1 0.131300 0.624344 0.254826
O O2 0.261557 0.686884 0.276106
O O3 0.273754 0.568409 0.240957
O O4 0.220745 0.633467 0.000000
O O5 0.950415 0.332771 0.500000
O O6 0.925192 0.263808 0.245775
O O7 0.024329 0.359788 0.234875
O O8 0.369186 0.691350 0.500000
O O9 0.402954 0.663977 0.804246
O O10 0.368605 0.777921 0.721272
O O11 0.541696 0.644187 0.281030
O O12 0.426362 0.550857 0.253498
O O13 0.496331 0.601191 0.000000
O O14 0.815627 0.169517 0.772276
O O15 0.681628 0.109518 0.749208
O O16 0.820381 0.046874 0.739199
O O17 0.768527 0.095617 0.000000
O O18 0.622412 0.704775 0.500000
O O19 0.379472 0.836114 0.000000
O O20 0.150268 0.020870 0.000000
#
# Coordination Sequence:
#
# PCOD9426144 Si02
#       8
#     8   8   8   8   8   8   8   8
#     4  10  20  36  60  85 110 146 193 238 277 337
#     4  11  23  38  57  84 119 152 183 233 294 344
#     4  11  20  33  54  82 117 149 180 227 289 344
#     4  10  19  34  59  85 112 150 192 233 276 335
#     4  10  22  40  60  82 111 150 193 239 283 334
#     4  11  23  37  55  85 121 153 185 229 290 346
#     4  11  22  36  58  84 111 147 192 235 282 343
#     4   8  18  38  60  83 111 147 194 240 284 328
#
# _framework density 21.26746
#
# number of rings (size 3 to 8) (size 9 to 14) (size 15 to 20)
#    0.000    1.750    1.250    4.500    0.000    5.000 
#    0.000    6.875    0.000    3.750    0.000    0.000 
#    0.000    0.000    0.000    0.000    0.000    0.000 
#
# Total GULP energy -357529.675361 kJ/mol
# GULP energy per Si atom -5586.401178 kJ/mol
# Density = 2.121905 g / cm^3
# Si number density = 21.267460 Si / 1000 Ang^3
#
#
#
# Elastic Constant Matrix: (Units=GPa)
#
#
# Indices 1 2 3 4 5 6 
#
# 1 66.7827 0.1996 -7.1633 0.0000 0.0000 0.0000
# 2 0.1996 47.8546 -0.9627 0.0000 0.0000 0.0000
# 3 -7.1633 -0.9627 27.0040 0.0000 0.0000 0.0000
# 4 0.0000 0.0000 0.0000 -14.9962 0.0000 0.0000
# 5 0.0000 0.0000 0.0000 0.0000 46.1766 0.0000
# 6 0.0000 0.0000 0.0000 0.0000 0.0000 26.4574
#
#
#
# Elastic Compliance Matrix: (Units=1/GPa)
#
#
# Indices 1 2 3 4 5 6 
#
# 1 0.015413 0.000018 0.004089 0.000000 0.000000 0.000000
# 2 0.000018 0.020912 0.000750 0.000000 0.000000 0.000000
# 3 0.004089 0.000750 0.038143 0.000000 0.000000 0.000000
# 4 0.000000 0.000000 0.000000 -0.066684 0.000000 0.000000
# 5 0.000000 0.000000 0.000000 0.000000 0.021656 0.000000
# 6 0.000000 0.000000 0.000000 0.000000 0.000000 0.037797
#
#
# Mechanical properties :
#
#
# Convention : Reuss Voigt Hill
#
# Bulk Modulus (GPa) = 11.87904 13.97649 12.92776
# Shear Modulus (GPa) = 58.42347 21.49874 39.96110
#
# Velocity S-wave (km/s) = 5.24695 3.18288 4.33942
# Velocity P-wave (km/s) = 6.50423 4.48259 5.58563
#
# Compressibility (1/GPa) = 0.08418192
#
# Stress axis : x y z
#
# Youngs Moduli (GPa) = 64.88238 47.82026 26.21708
#
# Poissons Ratio (x) = -0.00086 -0.10720
# Poissons Ratio (y) = -0.00117 -0.01967
# Poissons Ratio (z) = -0.26531 -0.03588
#
# Static dielectric constant tensor:
#      x y z
#    x 1.800510 0.000000 0.000000 
#    y 0.000000 1.783530 0.000000 
#    z 0.000000 0.000000 1.734840 
# 
# From -- ./inp_files/6499.got.cif
#   From: 2010.05.17/outbox.cif.g08.bks.cpg/sg55_4_cif.got.tgz:6499.got - 2010.06.03 13:27:54.
