data_PCOD9426395
_publ_section_title
;
Structure prediction by ZEFSAII (Michael W. Deem and Ramdas Pophale) SiO2 
 PCOD9426395
Probable space group: P B A M
;
_chemical_formula_sum "Si O2"
_cell_formula_units_Z 64
_cell_length_a 20.553565
_cell_length_b 19.096982
_cell_length_c 7.599556
_cell_angle_alpha 90.000000
_cell_angle_beta 90.000000
_cell_angle_gamma 90.000000
_cell_volume 2982.909787
_symmetry_space_group_name_H-M "P B A M"
_symmetry_group_IT_number 55
_symmetry_cell_setting 'orthorhombic'
loop_
_space_group_symop_operation_xyz
x,y,z
-x,-y,z
1/2+x,1/2-y,-z
1/2-x,1/2+y,-z
-x,-y,-z
x,y,-z
1/2-x,1/2+y,z
1/2+x,1/2-y,z
loop_
_atom_site_type_symbol
_atom_site_label
_atom_site_fract_x
_atom_site_fract_y
_atom_site_fract_z
Si Si1 0.698326 0.041046 0.287199
Si Si2 0.153424 0.200171 0.715269
Si Si3 0.739176 0.688544 0.284665
Si Si4 0.406727 0.295359 0.702728
Si Si5 0.821995 0.957591 0.713365
Si Si6 0.050154 0.442993 0.205680
Si Si7 0.444436 0.447838 0.794409
Si Si8 0.527695 0.216824 0.293089
O O1 0.696560 0.041643 0.500000
O O2 0.727585 0.115862 0.228538
O O3 0.624572 0.032964 0.226649
O O4 0.750221 0.982428 0.231784
O O5 0.152484 0.200010 0.500000
O O6 0.215035 0.247164 0.766776
O O7 0.159912 0.120204 0.773015
O O8 0.088117 0.238496 0.778827
O O9 0.737784 0.685363 0.500000
O O10 0.665423 0.697106 0.219611
O O11 0.395642 0.274136 0.500000
O O12 0.439435 0.372103 0.707112
O O13 0.458486 0.241396 0.782690
O O14 0.823444 0.958667 0.500000
O O15 0.875774 0.012909 0.774656
O O16 0.041719 0.365264 0.280969
O O17 0.000000 0.500000 0.280913
O O18 0.035544 0.435565 0.000000
O O19 0.500000 0.500000 0.723396
O O20 0.458391 0.435713 0.000000
O O21 0.524878 0.234657 0.500000
#
# Coordination Sequence:
#
# PCOD9426395 Si02
#       8
#     8   8   8   8   8   8   8   8
#     4  10  19  36  62  87 113 146 191 246 298 352
#     4   9  17  31  54  83 113 144 183 235 292 345
#     4   9  16  31  55  83 113 141 177 235 292 341
#     4  10  20  35  59  88 114 146 190 239 291 345
#     4  10  20  35  59  88 113 146 193 244 297 348
#     4  11  25  42  60  84 118 160 201 242 291 349
#     4  11  23  36  51  77 118 162 196 232 281 341
#     4  10  20  36  60  88 116 150 193 243 293 345
#
# _framework density 21.455559000000001
#
# number of rings (size 3 to 8) (size 9 to 14) (size 15 to 20)
#    0.000    2.000    2.500    1.500    0.000    5.000 
#    0.000    3.125    0.000    0.000    0.000    0.000 
#    0.000    0.000    0.000    0.000    0.000    0.000 
#
# Total GULP energy -357563.777788 kJ/mol
# GULP energy per Si atom -5586.934028 kJ/mol
# Density = 2.140673 g / cm^3
# Si number density = 21.455559 Si / 1000 Ang^3
#
#
#
# Elastic Constant Matrix: (Units=GPa)
#
#
# Indices 1 2 3 4 5 6 
#
# 1 149.8462 41.1282 -5.6925 0.0000 0.0000 0.0000
# 2 41.1282 93.5703 -7.5584 0.0000 0.0000 0.0000
# 3 -5.6925 -7.5584 43.0480 0.0000 0.0000 0.0000
# 4 0.0000 0.0000 0.0000 158.3515 0.0000 0.0000
# 5 0.0000 0.0000 0.0000 0.0000 9.9435 0.0000
# 6 0.0000 0.0000 0.0000 0.0000 0.0000 43.9263
#
#
#
# Elastic Compliance Matrix: (Units=1/GPa)
#
#
# Indices 1 2 3 4 5 6 
#
# 1 0.007597 -0.003305 0.000424 0.000000 0.000000 0.000000
# 2 -0.003305 0.012279 0.001719 0.000000 0.000000 0.000000
# 3 0.000424 0.001719 0.023588 0.000000 0.000000 0.000000
# 4 0.000000 0.000000 0.000000 0.006315 0.000000 0.000000
# 5 0.000000 0.000000 0.000000 0.000000 0.100568 0.000000
# 6 0.000000 0.000000 0.000000 0.000000 0.000000 0.022765
#
#
# Mechanical properties :
#
#
# Convention : Reuss Voigt Hill
#
# Bulk Modulus (GPa) = 24.30734 38.02432 31.16583
# Shear Modulus (GPa) = 26.43430 59.68340 43.05885
#
# Velocity S-wave (km/s) = 3.51386 5.27993 4.48469
# Velocity P-wave (km/s) = 5.27416 7.41154 6.43225
#
# Compressibility (1/GPa) = 0.04113984
#
# Stress axis : x y z
#
# Youngs Moduli (GPa) = 131.63619 81.44255 42.39482
#
# Poissons Ratio (x) = 0.26915 -0.01799
# Poissons Ratio (y) = 0.43503 -0.07287
# Poissons Ratio (z) = -0.05585 -0.13999
#
# Static dielectric constant tensor:
#      x y z
#    x 1.772210 0.000000 0.000000 
#    y 0.000000 1.732380 0.000000 
#    z 0.000000 0.000000 1.822020 
# 
# From -- ./inp_files/8953.got.cif
#   From: 2010.05.17/outbox.cif.g08.bks.cpg/sg55_5_cif.got.tgz:8953.got - 2010.06.03 13:27:54.
