data_PCOD9426585
_publ_section_title
;
Structure prediction by ZEFSAII (Michael W. Deem and Ramdas Pophale) SiO2 
 PCOD9426585
Probable space group: P B A M
;
_chemical_formula_sum "Si O2"
_cell_formula_units_Z 64
_cell_length_a 11.003992
_cell_length_b 29.300343
_cell_length_c 10.091177
_cell_angle_alpha 90.000000
_cell_angle_beta 90.000000
_cell_angle_gamma 90.000000
_cell_volume 3253.604756
_symmetry_space_group_name_H-M "P B A M"
_symmetry_group_IT_number 55
_symmetry_cell_setting 'orthorhombic'
loop_
_space_group_symop_operation_xyz
x,y,z
-x,-y,z
1/2+x,1/2-y,-z
1/2-x,1/2+y,-z
-x,-y,-z
x,y,-z
1/2-x,1/2+y,z
1/2+x,1/2-y,z
loop_
_atom_site_type_symbol
_atom_site_label
_atom_site_fract_x
_atom_site_fract_y
_atom_site_fract_z
Si Si1 0.816996 0.212969 0.845698
Si Si2 0.381643 0.930855 0.355926
Si Si3 0.335154 0.367006 0.643766
Si Si4 0.968334 0.712330 0.157055
Si Si5 0.723423 0.404802 0.846519
Si Si6 0.911757 0.363448 0.659148
Si Si7 0.145197 0.499392 0.861529
Si Si8 0.528148 0.446647 0.348405
O O1 0.850667 0.169526 0.757348
O O2 0.674036 0.226484 0.818065
O O3 0.924551 0.250005 0.826835
O O4 0.818996 0.200460 0.000000
O O5 0.378123 0.952512 0.500000
O O6 0.301472 0.885407 0.355041
O O7 0.516219 0.911766 0.332185
O O8 0.324105 0.966554 0.256994
O O9 0.361774 0.345608 0.500000
O O10 0.412767 0.413238 0.651541
O O11 0.007729 0.673470 0.261318
O O12 0.973557 0.697774 0.000000
O O13 0.790727 0.369236 0.748780
O O14 0.806775 0.449810 0.856352
O O15 0.609858 0.424640 0.765907
O O16 0.702393 0.389151 0.000000
O O17 0.895132 0.354154 0.500000
O O18 0.000000 0.500000 0.861845
O O19 0.189225 0.478477 0.000000
O O20 0.500000 0.500000 0.323388
O O21 0.580597 0.444312 0.500000
#
# Coordination Sequence:
#
# PCOD9426585 Si02
#       8
#     8   8   8   8   8   8   8   8
#     4  10  22  40  64  92 123 162 207 254 311 379
#     4  10  20  34  56  84 114 149 193 243 293 352
#     4  10  21  39  62  89 118 154 203 251 301 360
#     4  10  22  41  63  90 125 164 206 257 316 377
#     4  11  23  38  57  84 122 161 203 255 307 366
#     4  11  22  37  60  89 119 154 198 248 306 367
#     4  10  20  33  50  77 113 152 194 240 293 347
#     4  10  22  41  63  86 122 167 211 260 311 367
#
# _framework density 19.670490000000001
#
# number of rings (size 3 to 8) (size 9 to 14) (size 15 to 20)
#    0.000    1.750    2.500    1.500    0.000    5.500 
#    0.000    1.250    0.000    0.000    0.000    0.000 
#    0.000    0.000    0.000    0.000    0.000    0.000 
#
# Total GULP energy -356319.698001 kJ/mol
# GULP energy per Si atom -5567.495281 kJ/mol
# Density = 1.962572 g / cm^3
# Si number density = 19.670490 Si / 1000 Ang^3
#
#
#
# Elastic Constant Matrix: (Units=GPa)
#
#
# Indices 1 2 3 4 5 6 
#
# 1 80.9962 26.2491 51.5267 0.0000 0.0000 0.0000
# 2 26.2491 56.3184 58.7005 0.0000 0.0000 0.0000
# 3 51.5267 58.7005 139.2636 0.0000 0.0000 0.0000
# 4 0.0000 0.0000 0.0000 45.9326 0.0000 0.0000
# 5 0.0000 0.0000 0.0000 0.0000 20.8293 0.0000
# 6 0.0000 0.0000 0.0000 0.0000 0.0000 27.1800
#
#
#
# Elastic Compliance Matrix: (Units=1/GPa)
#
#
# Indices 1 2 3 4 5 6 
#
# 1 0.016318 -0.002341 -0.005051 0.000000 0.000000 0.000000
# 2 -0.002341 0.032006 -0.012624 0.000000 0.000000 0.000000
# 3 -0.005051 -0.012624 0.014371 0.000000 0.000000 0.000000
# 4 0.000000 0.000000 0.000000 0.021771 0.000000 0.000000
# 5 0.000000 0.000000 0.000000 0.000000 0.048009 0.000000
# 6 0.000000 0.000000 0.000000 0.000000 0.000000 0.036792
#
#
# Mechanical properties :
#
#
# Convention : Reuss Voigt Hill
#
# Bulk Modulus (GPa) = 44.12718 61.05897 52.59307
# Shear Modulus (GPa) = 23.05707 28.12851 25.59279
#
# Velocity S-wave (km/s) = 3.42740 3.78562 3.61096
# Velocity P-wave (km/s) = 6.17614 7.08634 6.64683
#
# Compressibility (1/GPa) = 0.02266177
#
# Stress axis : x y z
#
# Youngs Moduli (GPa) = 61.28162 31.24437 69.58622
#
# Poissons Ratio (x) = 0.07315 0.35146
# Poissons Ratio (y) = 0.14347 0.87849
# Poissons Ratio (z) = 0.30952 0.39444
#
# Static dielectric constant tensor:
#      x y z
#    x 1.790920 0.000000 0.000000 
#    y 0.000000 1.663790 0.000000 
#    z 0.000000 0.000000 1.745820 
# 
# From -- ./inp_files/4661.got.cif
#   From: 2010.05.17/outbox.cif.g08.bks.cpg/sg55_3_cif.got.tgz:4661.got - 2010.06.03 13:27:54.
