data_PCOD9426105
_publ_section_title
;
Structure prediction by ZEFSAII (Michael W. Deem and Ramdas Pophale) SiO2 
 PCOD9426105
Probable space group: P B A M
;
_chemical_formula_sum "Si O2"
_cell_formula_units_Z 64
_cell_length_a 35.013312
_cell_length_b 8.861942
_cell_length_c 11.005454
_cell_angle_alpha 90.000000
_cell_angle_beta 90.000000
_cell_angle_gamma 90.000000
_cell_volume 3414.837641
_symmetry_space_group_name_H-M "P B A M"
_symmetry_group_IT_number 55
_symmetry_cell_setting 'orthorhombic'
loop_
_space_group_symop_operation_xyz
x,y,z
-x,-y,z
1/2+x,1/2-y,-z
1/2-x,1/2+y,-z
-x,-y,-z
x,y,-z
1/2-x,1/2+y,z
1/2+x,1/2-y,z
loop_
_atom_site_type_symbol
_atom_site_label
_atom_site_fract_x
_atom_site_fract_y
_atom_site_fract_z
Si Si1 0.958776 0.063566 0.859610
Si Si2 0.141758 0.464229 0.144751
Si Si3 0.461286 0.932737 0.637481
Si Si4 0.858766 0.034988 0.365744
Si Si5 0.720776 0.914956 0.856227
Si Si6 0.589755 0.803122 0.284717
Si Si7 0.091288 0.194454 0.759929
Si Si8 0.200339 0.937946 0.854495
O O1 0.927383 0.930439 0.847055
O O2 0.942047 0.201335 0.782126
O O3 0.962768 0.108579 0.000000
O O4 0.000000 0.000000 0.818115
O O5 0.184769 0.490580 0.193796
O O6 0.115910 0.603061 0.190802
O O7 0.122150 0.308308 0.183452
O O8 0.143067 0.469423 0.000000
O O9 0.469435 0.882916 0.500000
O O10 0.431096 0.069165 0.637885
O O11 0.500000 0.000000 0.692043
O O12 0.442964 0.797909 0.711900
O O13 0.840449 0.026612 0.500000
O O14 0.888195 0.897435 0.347349
O O15 0.832278 0.031439 0.245155
O O16 0.883056 0.188810 0.356026
O O17 0.762764 0.963929 0.816348
O O18 0.711900 0.738170 0.843026
O O19 0.721807 0.947602 0.000000
O O20 0.190838 0.964249 0.000000
#
# Coordination Sequence:
#
# PCOD9426105 Si02
#       8
#     8   8   8   8   8   8   8   8
#     4  10  20  34  52  79 114 148 185 233 288 343
#     4  10  19  34  57  85 112 143 189 237 282 339
#     4  10  20  36  57  78 102 138 188 239 286 337
#     4  11  23  39  58  83 120 157 194 236 285 343
#     4   9  19  35  58  87 114 142 182 234 284 331
#     4  10  20  35  56  78 109 148 188 230 285 343
#     4  10  22  35  54  81 113 149 190 234 287 342
#     4  10  21  38  62  87 116 149 190 236 285 338
#
# _framework density 18.74174
#
# number of rings (size 3 to 8) (size 9 to 14) (size 15 to 20)
#    0.000    2.000    1.250    2.250    1.750    2.500 
#    0.000    0.625    0.000   12.000    0.000    0.000 
#    0.000    0.000    0.000    0.000    0.000    0.000 
#
# Total GULP energy -356815.919689 kJ/mol
# GULP energy per Si atom -5575.248745 kJ/mol
# Density = 1.869908 g / cm^3
# Si number density = 18.741740 Si / 1000 Ang^3
#
#
#
# Elastic Constant Matrix: (Units=GPa)
#
#
# Indices 1 2 3 4 5 6 
#
# 1 63.9855 8.2625 15.9236 0.0000 0.0000 0.0000
# 2 8.2625 54.6922 12.4130 0.0000 0.0000 0.0000
# 3 15.9236 12.4130 64.7407 0.0000 0.0000 0.0000
# 4 0.0000 0.0000 0.0000 -2.3153 0.0000 0.0000
# 5 0.0000 0.0000 0.0000 0.0000 18.0468 0.0000
# 6 0.0000 0.0000 0.0000 0.0000 0.0000 30.8456
#
#
#
# Elastic Compliance Matrix: (Units=1/GPa)
#
#
# Indices 1 2 3 4 5 6 
#
# 1 0.016793 -0.001672 -0.003810 0.000000 0.000000 0.000000
# 2 -0.001672 0.019283 -0.003286 0.000000 0.000000 0.000000
# 3 -0.003810 -0.003286 0.017013 0.000000 0.000000 0.000000
# 4 0.000000 0.000000 0.000000 -0.431912 0.000000 0.000000
# 5 0.000000 0.000000 0.000000 0.000000 0.055411 0.000000
# 6 0.000000 0.000000 0.000000 0.000000 0.000000 0.032420
#
#
# Mechanical properties :
#
#
# Convention : Reuss Voigt Hill
#
# Bulk Modulus (GPa) = 28.12711 28.51296 28.32003
# Shear Modulus (GPa) = -19.11268 19.10338 -0.00465
#
# Velocity S-wave (km/s) = -3.19688 3.19611 -0.04986
# Velocity P-wave (km/s) = 1.18894 5.37278 3.89104
#
# Compressibility (1/GPa) = 0.03555289
#
# Stress axis : x y z
#
# Youngs Moduli (GPa) = 59.55015 51.86041 58.77772
#
# Poissons Ratio (x) = 0.08672 0.22392
# Poissons Ratio (y) = 0.09958 0.19313
# Poissons Ratio (z) = 0.22687 0.17040
#
# Static dielectric constant tensor:
#      x y z
#    x 1.687250 0.000000 0.000000 
#    y 0.000000 1.639100 0.000000 
#    z 0.000000 0.000000 1.640670 
# 
# From -- ./inp_files/16222.got.cif
#   From: 2010.05.17/outbox.cif.g08.bks.cpg/sg55_9_cif.got.tgz:16222.got - 2010.06.03 13:27:54.
