data_PCOD9426993
_publ_section_title
;
Structure prediction by ZEFSAII (Michael W. Deem and Ramdas Pophale) SiO2 
 PCOD9426993
Probable space group: P B A M
;
_chemical_formula_sum "Si O2"
_cell_formula_units_Z 64
_cell_length_a 25.460773
_cell_length_b 15.012229
_cell_length_c 8.738784
_cell_angle_alpha 90.000000
_cell_angle_beta 90.000000
_cell_angle_gamma 90.000000
_cell_volume 3340.163842
_symmetry_space_group_name_H-M "P B A M"
_symmetry_group_IT_number 55
_symmetry_cell_setting 'orthorhombic'
loop_
_space_group_symop_operation_xyz
x,y,z
-x,-y,z
1/2+x,1/2-y,-z
1/2-x,1/2+y,-z
-x,-y,-z
x,y,-z
1/2-x,1/2+y,z
1/2+x,1/2-y,z
loop_
_atom_site_type_symbol
_atom_site_label
_atom_site_fract_x
_atom_site_fract_y
_atom_site_fract_z
Si Si1 0.249079 0.143767 0.324210
Si Si2 0.361837 0.854440 0.181760
Si Si3 0.364586 0.656763 0.684470
Si Si4 0.939079 0.500117 0.315440
Si Si5 0.640958 0.644552 0.182851
Si Si6 0.248351 0.360767 0.675470
Si Si7 0.637221 0.841485 0.314471
Si Si8 0.560476 0.489724 0.815532
O O1 0.249082 0.112406 0.500000
O O2 0.192315 0.119769 0.257154
O O3 0.248891 0.252205 0.324536
O O4 0.306081 0.120813 0.257745
O O5 0.370346 0.756684 0.253541
O O6 0.304642 0.887479 0.238919
O O7 0.406561 0.920507 0.240068
O O8 0.361778 0.847759 0.000000
O O9 0.362344 0.659865 0.500000
O O10 0.411021 0.594257 0.740481
O O11 0.936284 0.509971 0.500000
O O12 0.909438 0.408340 0.275343
O O13 0.000000 0.500000 0.270668
O O14 0.696964 0.612191 0.248529
O O15 0.630256 0.742865 0.248749
O O16 0.594887 0.576419 0.224845
O O17 0.644697 0.649901 0.000000
O O18 0.246129 0.390255 0.500000
O O19 0.640600 0.834661 0.500000
O O20 0.500000 0.500000 0.768954
O O21 0.561983 0.479700 0.000000
#
# Coordination Sequence:
#
# PCOD9426993 Si02
#       8
#     8   8   8   8   8   8   8   8
#     4   7  13  28  51  79 106 134 171 218 274 331
#     4  11  22  37  59  86 117 150 185 229 284 343
#     4  10  20  36  59  85 112 144 187 237 286 336
#     4  10  22  39  57  81 114 152 198 245 281 324
#     4  10  20  35  57  84 114 146 184 232 285 341
#     4   9  17  33  57  84 115 146 180 224 278 341
#     4   9  18  35  58  81 110 148 187 230 282 335
#     4  10  23  41  56  77 114 156 196 238 284 334
#
# _framework density 19.160736
#
# number of rings (size 3 to 8) (size 9 to 14) (size 15 to 20)
#    0.000    2.500    0.000    3.750    0.000    4.000 
#    0.000    4.375    0.000    0.000    0.000    0.000 
#    0.000    0.000    0.000    0.000    0.000    0.000 
#
# Total GULP energy -357190.456080 kJ/mol
# GULP energy per Si atom -5581.100876 kJ/mol
# Density = 1.911713 g / cm^3
# Si number density = 19.160736 Si / 1000 Ang^3
#
#
#
# Elastic Constant Matrix: (Units=GPa)
#
#
# Indices 1 2 3 4 5 6 
#
# 1 217.6579 90.5246 63.5817 0.0000 0.0000 0.0000
# 2 90.5246 105.2076 41.3902 0.0000 0.0000 0.0000
# 3 63.5817 41.3902 48.9506 0.0000 0.0000 0.0000
# 4 0.0000 0.0000 0.0000 10.3385 0.0000 0.0000
# 5 0.0000 0.0000 0.0000 0.0000 25.8811 0.0000
# 6 0.0000 0.0000 0.0000 0.0000 0.0000 33.9141
#
#
#
# Elastic Compliance Matrix: (Units=1/GPa)
#
#
# Indices 1 2 3 4 5 6 
#
# 1 0.008634 -0.004521 -0.007392 0.000000 0.000000 0.000000
# 2 -0.004521 0.016610 -0.008173 0.000000 0.000000 0.000000
# 3 -0.007392 -0.008173 0.036940 0.000000 0.000000 0.000000
# 4 0.000000 0.000000 0.000000 0.096726 0.000000 0.000000
# 5 0.000000 0.000000 0.000000 0.000000 0.038638 0.000000
# 6 0.000000 0.000000 0.000000 0.000000 0.000000 0.029486
#
#
# Mechanical properties :
#
#
# Convention : Reuss Voigt Hill
#
# Bulk Modulus (GPa) = 45.42615 84.75655 65.09135
# Shear Modulus (GPa) = 18.21203 25.78140 21.99671
#
# Velocity S-wave (km/s) = 3.08634 3.67213 3.39191
# Velocity P-wave (km/s) = 6.03822 7.89366 7.02745
#
# Compressibility (1/GPa) = 0.02201375
#
# Stress axis : x y z
#
# Youngs Moduli (GPa) = 115.82225 60.20416 27.07058
#
# Poissons Ratio (x) = 0.27217 0.20010
# Poissons Ratio (y) = 0.52362 0.22124
# Poissons Ratio (z) = 0.85615 0.49202
#
# Static dielectric constant tensor:
#      x y z
#    x 1.673210 0.000000 0.000000 
#    y 0.000000 1.663610 0.000000 
#    z 0.000000 0.000000 1.650500 
# 
# From -- ./inp_files/9713.got.cif
#   From: 2010.05.17/outbox.cif.g08.bks.cpg/sg55_5_cif.got.tgz:9713.got - 2010.06.03 13:27:54.
