data_PCOD9426125
_publ_section_title
;
Structure prediction by ZEFSAII (Michael W. Deem and Ramdas Pophale) SiO2 
 PCOD9426125
Probable space group: P B A M
;
_chemical_formula_sum "Si O2"
_cell_formula_units_Z 64
_cell_length_a 11.757279
_cell_length_b 33.408001
_cell_length_c 8.977877
_cell_angle_alpha 90.000000
_cell_angle_beta 90.000000
_cell_angle_gamma 90.000000
_cell_volume 3526.395066
_symmetry_space_group_name_H-M "P B A M"
_symmetry_group_IT_number 55
_symmetry_cell_setting 'orthorhombic'
loop_
_space_group_symop_operation_xyz
x,y,z
-x,-y,z
1/2+x,1/2-y,-z
1/2-x,1/2+y,-z
-x,-y,-z
x,y,-z
1/2-x,1/2+y,z
1/2+x,1/2-y,z
loop_
_atom_site_type_symbol
_atom_site_label
_atom_site_fract_x
_atom_site_fract_y
_atom_site_fract_z
Si Si1 0.906470 0.713584 0.677589
Si Si2 0.214075 0.131830 0.178380
Si Si3 0.800946 0.170236 0.821375
Si Si4 0.329844 0.471956 0.677986
Si Si5 0.330267 0.910746 0.822272
Si Si6 0.047274 0.201671 0.820878
Si Si7 0.919678 0.940518 0.678516
Si Si8 0.460753 0.132225 0.321815
O O1 0.899820 0.716680 0.500000
O O2 0.784376 0.701092 0.743450
O O3 0.946495 0.755148 0.746576
O O4 0.990129 0.676523 0.714647
O O5 0.153612 0.173676 0.220199
O O6 0.132450 0.096381 0.234039
O O7 0.336476 0.127585 0.253515
O O8 0.224533 0.130494 0.000000
O O9 0.756113 0.125871 0.783698
O O10 0.930525 0.179041 0.779365
O O11 0.790844 0.174702 0.000000
O O12 0.314150 0.468246 0.500000
O O13 0.226863 0.450930 0.761834
O O14 0.448863 0.449796 0.715772
O O15 0.350324 0.518667 0.711410
O O16 0.449162 0.898969 0.746679
O O17 0.343165 0.911905 0.000000
O O18 0.047595 0.206341 0.000000
O O19 0.913270 0.933766 0.500000
O O20 0.457713 0.128067 0.500000
#
# Coordination Sequence:
#
# PCOD9426125 Si02
#       8
#     8   8   8   8   8   8   8   8
#     4  10  22  37  55  80 107 137 182 232 275 322
#     4  11  23  38  57  83 113 147 187 231 281 336
#     4   9  19  36  55  77 107 141 178 220 270 329
#     4   9  18  34  58  86 117 151 187 226 277 335
#     4  10  19  34  58  85 111 143 186 233 278 328
#     4  10  22  37  55  79 108 144 181 221 275 334
#     4   9  19  36  57  84 118 154 187 226 277 334
#     4  10  22  40  58  78 110 150 188 231 282 336
#
# _framework density 18.148845000000001
#
# number of rings (size 3 to 8) (size 9 to 14) (size 15 to 20)
#    0.000    2.250    0.000    3.000    1.750    5.500 
#    0.000    1.875    0.000    3.750    0.000    0.000 
#    0.000    0.000    0.000    0.000    0.000    0.000 
#
# Total GULP energy -357359.824925 kJ/mol
# GULP energy per Si atom -5583.747264 kJ/mol
# Density = 1.810754 g / cm^3
# Si number density = 18.148845 Si / 1000 Ang^3
#
#
#
# Elastic Constant Matrix: (Units=GPa)
#
#
# Indices 1 2 3 4 5 6 
#
# 1 39.2751 1.6769 14.3031 0.0000 0.0000 0.0000
# 2 1.6769 41.7656 16.9161 0.0000 0.0000 0.0000
# 3 14.3031 16.9161 24.6434 0.0000 0.0000 0.0000
# 4 0.0000 0.0000 0.0000 31.0345 0.0000 0.0000
# 5 0.0000 0.0000 0.0000 0.0000 25.9511 0.0000
# 6 0.0000 0.0000 0.0000 0.0000 0.0000 15.9879
#
#
#
# Elastic Compliance Matrix: (Units=1/GPa)
#
#
# Indices 1 2 3 4 5 6 
#
# 1 0.034752 0.009383 -0.026611 0.000000 0.000000 0.000000
# 2 0.009383 0.035697 -0.029949 0.000000 0.000000 0.000000
# 3 -0.026611 -0.029949 0.076582 0.000000 0.000000 0.000000
# 4 0.000000 0.000000 0.000000 0.032222 0.000000 0.000000
# 5 0.000000 0.000000 0.000000 0.000000 0.038534 0.000000
# 6 0.000000 0.000000 0.000000 0.000000 0.000000 0.062547
#
#
# Mechanical properties :
#
#
# Convention : Reuss Voigt Hill
#
# Bulk Modulus (GPa) = 18.98396 19.05292 19.01844
# Shear Modulus (GPa) = 12.74705 19.44725 16.09715
#
# Velocity S-wave (km/s) = 2.65309 3.27699 2.98140
# Velocity P-wave (km/s) = 4.45735 4.98389 4.72796
#
# Compressibility (1/GPa) = 0.05267604
#
# Stress axis : x y z
#
# Youngs Moduli (GPa) = 28.77539 28.01379 13.05787
#
# Poissons Ratio (x) = -0.26285 0.34748
# Poissons Ratio (y) = -0.26999 0.39107
# Poissons Ratio (z) = 0.76574 0.83899
#
# Static dielectric constant tensor:
#      x y z
#    x 1.604560 0.000000 0.000000 
#    y 0.000000 1.609460 0.000000 
#    z 0.000000 0.000000 1.599850 
# 
# From -- ./inp_files/4523.got.cif
#   From: 2010.05.17/outbox.cif.g08.bks.cpg/sg55_3_cif.got.tgz:4523.got - 2010.06.03 13:27:54.
