data_PCOD9426568
_publ_section_title
;
Structure prediction by ZEFSAII (Michael W. Deem and Ramdas Pophale) SiO2 
 PCOD9426568
Probable space group: P B A M
;
_chemical_formula_sum "Si O2"
_cell_formula_units_Z 40
_cell_length_a 7.007219
_cell_length_b 29.981399
_cell_length_c 7.894977
_cell_angle_alpha 90.000000
_cell_angle_beta 90.000000
_cell_angle_gamma 90.000000
_cell_volume 1658.625944
_symmetry_space_group_name_H-M "P B A M"
_symmetry_group_IT_number 55
_symmetry_cell_setting 'orthorhombic'
loop_
_space_group_symop_operation_xyz
x,y,z
-x,-y,z
1/2+x,1/2-y,-z
1/2-x,1/2+y,-z
-x,-y,-z
x,y,-z
1/2-x,1/2+y,z
1/2+x,1/2-y,z
loop_
_atom_site_type_symbol
_atom_site_label
_atom_site_fract_x
_atom_site_fract_y
_atom_site_fract_z
Si Si1 0.172528 0.562228 0.000000
Si Si2 0.613126 0.875538 0.693512
Si Si3 0.780119 0.036996 0.000000
Si Si4 0.948486 0.195743 0.310259
Si Si5 0.042880 0.289657 0.808299
Si Si6 0.659803 0.599152 0.695391
O O1 0.201855 0.591948 0.167242
O O2 0.287992 0.516251 0.000000
O O3 0.947382 0.548873 0.000000
O O4 0.675374 0.882181 0.500000
O O5 0.622592 0.823161 0.745839
O O6 0.385350 0.887350 0.699973
O O7 0.861898 0.060573 0.167617
O O8 0.024524 0.201581 0.500000
O O9 0.720117 0.202891 0.313184
O O10 0.007402 0.237042 0.195048
O O11 0.959157 0.143974 0.259644
O O12 0.090467 0.303748 0.000000
O O13 0.618111 0.587042 0.500000
#
# Coordination Sequence:
#
# PCOD9426568 Si02
#       6
#     4   8   4   8   8   8
#     4   9  16  26  37  62  81 117 153 191 230 283
#     4   9  16  28  42  59  88 121 152 189 234 281
#     4   9  16  24  41  56  87 113 151 193 234 273
#     4  10  20  33  48  69  98 132 164 196 239 286
#     4  11  20  31  49  72  97 129 166 199 237 284
#     4   8  16  27  41  60  85 119 153 186 231 282
#
# _framework density 24.116347999999999
#
# number of rings (size 3 to 8) (size 9 to 14) (size 15 to 20)
#    0.000    2.600    1.000    3.600    5.600    0.800 
#    0.000    4.000    0.000    0.000    0.000    0.000 
#    0.000    3.200    0.000    8.400    0.000    7.000 
#
# Total GULP energy -223624.941186 kJ/mol
# GULP energy per Si atom -5590.623530 kJ/mol
# Density = 2.406146 g / cm^3
# Si number density = 24.116348 Si / 1000 Ang^3
#
#
#
# Elastic Constant Matrix: (Units=GPa)
#
#
# Indices 1 2 3 4 5 6 
#
# 1 59.8987 35.1160 20.3606 0.0000 0.0000 0.0000
# 2 35.1160 185.2172 108.8257 0.0000 0.0000 0.0000
# 3 20.3606 108.8257 182.8960 0.0000 0.0000 0.0000
# 4 0.0000 0.0000 0.0000 25.0418 0.0000 0.0000
# 5 0.0000 0.0000 0.0000 0.0000 10.4836 0.0000
# 6 0.0000 0.0000 0.0000 0.0000 0.0000 42.6305
#
#
#
# Elastic Compliance Matrix: (Units=1/GPa)
#
#
# Indices 1 2 3 4 5 6 
#
# 1 0.018783 -0.003586 0.000043 0.000000 0.000000 0.000000
# 2 -0.003586 0.008986 -0.004948 0.000000 0.000000 0.000000
# 3 0.000043 -0.004948 0.008407 0.000000 0.000000 0.000000
# 4 0.000000 0.000000 0.000000 0.039933 0.000000 0.000000
# 5 0.000000 0.000000 0.000000 0.000000 0.095387 0.000000
# 6 0.000000 0.000000 0.000000 0.000000 0.000000 0.023457
#
#
# Mechanical properties :
#
#
# Convention : Reuss Voigt Hill
#
# Bulk Modulus (GPa) = 52.10076 84.06851 68.08464
# Shear Modulus (GPa) = 22.90085 33.21182 28.05634
#
# Velocity S-wave (km/s) = 3.08490 3.71502 3.41453
# Velocity P-wave (km/s) = 5.86000 7.30322 6.62105
#
# Compressibility (1/GPa) = 0.01919358
#
# Stress axis : x y z
#
# Youngs Moduli (GPa) = 53.24028 111.28455 118.95331
#
# Poissons Ratio (x) = 0.39910 -0.00511
# Poissons Ratio (y) = 0.19094 0.58853
# Poissons Ratio (z) = -0.00229 0.55058
#
# Static dielectric constant tensor:
#      x y z
#    x 2.037600 0.000000 0.000000 
#    y 0.000000 1.901230 0.000000 
#    z 0.000000 0.000000 1.800940 
# 
# From -- ./inp_files/2532.got.cif
#   From: 2010.05.17/outbox.cif.g08.bks.cpg/sg55_2_cif.got.tgz:2532.got - 2010.06.03 13:27:54.
