data_PCOD9426580
_publ_section_title
;
Structure prediction by ZEFSAII (Michael W. Deem and Ramdas Pophale) SiO2 
 PCOD9426580
Probable space group: P B A M
;
_chemical_formula_sum "Si O2"
_cell_formula_units_Z 64
_cell_length_a 7.880692
_cell_length_b 16.870892
_cell_length_c 21.098782
_cell_angle_alpha 90.000000
_cell_angle_beta 90.000000
_cell_angle_gamma 90.000000
_cell_volume 2805.173868
_symmetry_space_group_name_H-M "P B A M"
_symmetry_group_IT_number 55
_symmetry_cell_setting 'orthorhombic'
loop_
_space_group_symop_operation_xyz
x,y,z
-x,-y,z
1/2+x,1/2-y,-z
1/2-x,1/2+y,-z
-x,-y,-z
x,y,-z
1/2-x,1/2+y,z
1/2+x,1/2-y,z
loop_
_atom_site_type_symbol
_atom_site_label
_atom_site_fract_x
_atom_site_fract_y
_atom_site_fract_z
Si Si1 0.584144 0.627086 0.928693
Si Si2 0.273848 0.031962 0.928532
Si Si3 0.757082 0.206735 0.572073
Si Si4 0.413812 0.374746 0.308746
Si Si5 0.389198 0.124496 0.571677
Si Si6 0.772710 0.466336 0.309790
Si Si7 0.466505 0.718346 0.810665
Si Si8 0.610027 0.876853 0.810724
O O1 0.405961 0.578999 0.927789
O O2 0.724534 0.559507 0.916474
O O3 0.564333 0.691650 0.874413
O O4 0.609374 0.659025 0.000000
O O5 0.384196 0.071140 0.873959
O O6 0.339897 0.041150 0.000000
O O7 0.819616 0.192064 0.500000
O O8 0.872144 0.170066 0.626604
O O9 0.572693 0.166618 0.577595
O O10 0.759480 0.301703 0.580187
O O11 0.591136 0.421604 0.310903
O O12 0.270041 0.441751 0.300475
O O13 0.434244 0.314549 0.250651
O O14 0.372197 0.093384 0.500000
O O15 0.357739 0.058821 0.624351
O O16 0.875155 0.430676 0.251092
O O17 0.461675 0.812852 0.808071
O O18 0.283848 0.675950 0.811015
#
# Coordination Sequence:
#
# PCOD9426580 Si02
#       8
#     8   8   8   8   8   8   8   8
#     4   8  14  27  49  74  98 128 168 210 249 293
#     4   8  14  27  49  74  98 128 168 210 249 293
#     4  10  21  37  57  80 106 136 170 209 253 303
#     4  10  21  36  54  76 103 136 173 214 259 306
#     4  10  21  37  57  80 106 136 170 209 253 303
#     4  10  21  36  54  76 103 136 173 214 259 306
#     4  10  20  33  50  74 103 133 168 210 254 301
#     4  10  20  33  50  74 103 133 168 210 254 301
#
# _framework density 22.814985
#
# number of rings (size 3 to 8) (size 9 to 14) (size 15 to 20)
#    0.000    2.500    0.000    3.000    0.000    9.000 
#    0.000    2.500    0.000    2.250    0.000    1.750 
#    0.000    0.000    0.000    0.000    0.000    0.000 
#
# Total GULP energy -358094.667397 kJ/mol
# GULP energy per Si atom -5595.229178 kJ/mol
# Density = 2.276306 g / cm^3
# Si number density = 22.814985 Si / 1000 Ang^3
#
#
#
# Elastic Constant Matrix: (Units=GPa)
#
#
# Indices 1 2 3 4 5 6 
#
# 1 79.4574 25.2436 41.1297 0.0000 0.0000 0.0000
# 2 25.2436 65.6895 42.1343 0.0000 0.0000 0.0000
# 3 41.1297 42.1343 105.1738 0.0000 0.0000 0.0000
# 4 0.0000 0.0000 0.0000 34.7150 0.0000 0.0000
# 5 0.0000 0.0000 0.0000 0.0000 27.5857 0.0000
# 6 0.0000 0.0000 0.0000 0.0000 0.0000 40.9070
#
#
#
# Elastic Compliance Matrix: (Units=1/GPa)
#
#
# Indices 1 2 3 4 5 6 
#
# 1 0.016182 -0.002906 -0.005164 0.000000 0.000000 0.000000
# 2 -0.002906 0.021010 -0.007280 0.000000 0.000000 0.000000
# 3 -0.005164 -0.007280 0.014444 0.000000 0.000000 0.000000
# 4 0.000000 0.000000 0.000000 0.028806 0.000000 0.000000
# 5 0.000000 0.000000 0.000000 0.000000 0.036251 0.000000
# 6 0.000000 0.000000 0.000000 0.000000 0.000000 0.024446
#
#
# Mechanical properties :
#
#
# Convention : Reuss Voigt Hill
#
# Bulk Modulus (GPa) = 47.76753 51.92621 49.84687
# Shear Modulus (GPa) = 27.96164 30.09575 29.02870
#
# Velocity S-wave (km/s) = 3.50463 3.63591 3.57087
# Velocity P-wave (km/s) = 6.11220 6.35890 6.23677
#
# Compressibility (1/GPa) = 0.02093472
#
# Stress axis : x y z
#
# Youngs Moduli (GPa) = 61.79861 47.59718 69.23272
#
# Poissons Ratio (x) = 0.13833 0.35750
# Poissons Ratio (y) = 0.17960 0.50403
# Poissons Ratio (z) = 0.31911 0.34652
#
# Static dielectric constant tensor:
#      x y z
#    x 1.894350 0.000000 0.000000 
#    y 0.000000 1.798050 0.000000 
#    z 0.000000 0.000000 1.797340 
# 
# From -- ./inp_files/22728.got.cif
#   From: 2010.05.17/outbox.cif.g08.bks.cpg/sg55_12_cif.got.tgz:22728.got - 2010.06.03 13:27:54.
