data_PCOD9426731
_publ_section_title
;
Structure prediction by ZEFSAII (Michael W. Deem and Ramdas Pophale) SiO2 
 PCOD9426731
Probable space group: P B A M
;
_chemical_formula_sum "Si O2"
_cell_formula_units_Z 58
_cell_length_a 14.606561
_cell_length_b 23.555933
_cell_length_c 7.523442
_cell_angle_alpha 90.000000
_cell_angle_beta 90.000000
_cell_angle_gamma 90.000000
_cell_volume 2588.599508
_symmetry_space_group_name_H-M "P B A M"
_symmetry_group_IT_number 55
_symmetry_cell_setting 'orthorhombic'
loop_
_space_group_symop_operation_xyz
x,y,z
-x,-y,z
1/2+x,1/2-y,-z
1/2-x,1/2+y,-z
-x,-y,-z
x,y,-z
1/2-x,1/2+y,z
1/2+x,1/2-y,z
loop_
_atom_site_type_symbol
_atom_site_label
_atom_site_fract_x
_atom_site_fract_y
_atom_site_fract_z
Si Si1 0.800817 0.813945 0.784939
Si Si2 0.788941 0.994890 0.706902
Si Si3 0.645698 0.612875 0.796847
Si Si4 0.055312 0.089874 0.785032
Si Si5 0.306981 0.814845 0.782835
Si Si6 0.500000 0.000000 0.500000
Si Si7 0.055779 0.414796 0.798250
Si Si8 0.147636 0.600006 0.293643
O O1 0.883412 0.855828 0.734993
O O2 0.818874 0.749904 0.725543
O O3 0.708011 0.843136 0.714798
O O4 0.794294 0.814496 0.000000
O O5 0.770774 0.004096 0.500000
O O6 0.887702 0.964466 0.723230
O O7 0.715126 0.949358 0.775981
O O8 0.794764 0.055447 0.797359
O O9 0.547380 0.597973 0.716854
O O10 0.709599 0.661176 0.717656
O O11 0.626786 0.630153 0.000000
O O12 0.052733 0.085152 0.000000
O O13 0.384337 0.860804 0.737205
O O14 0.305652 0.814378 0.000000
O O15 0.442214 0.965599 0.342189
O O16 0.948999 0.396309 0.799940
O O17 0.082075 0.431073 0.000000
O O18 0.123796 0.585103 0.500000
#
# Coordination Sequence:
#
# PCOD9426731 Si02
#       8
#     8   8   8   8   8   2   8   8
#     4   9  18  37  62  86 116 152 201 252 299 367
#     4  10  21  34  54  79 115 149 187 239 291 349
#     4  10  20  34  53  79 113 146 184 237 295 354
#     4   9  18  33  55  81 109 149 189 232 292 351
#     4   9  21  39  59  88 118 153 204 254 305 371
#     4  12  26  44  64  90 132 162 218 268 314 386
#     4  11  24  42  66  93 126 170 214 261 321 378
#     4  10  21  39  59  89 120 159 205 254 307 367
#
# _framework density 22.405937999999999
#
# number of rings (size 3 to 8) (size 9 to 14) (size 15 to 20)
#    0.000    2.207    0.690    1.448    1.931    4.966 
#    1.241    4.138    0.000    0.000    0.000    0.000 
#    0.000    0.000    0.000    0.000    0.000    0.000 
#
# Total GULP energy -323741.670857 kJ/mol
# GULP energy per Si atom -5581.752946 kJ/mol
# Density = 2.235494 g / cm^3
# Si number density = 22.405938 Si / 1000 Ang^3
#
#
#
# Elastic Constant Matrix: (Units=GPa)
#
#
# Indices 1 2 3 4 5 6 
#
# 1 105.7649 18.3212 5.4889 0.0000 0.0000 0.0000
# 2 18.3212 105.6286 13.1068 0.0000 0.0000 0.0000
# 3 5.4889 13.1068 87.2195 0.0000 0.0000 0.0000
# 4 0.0000 0.0000 0.0000 75.2154 0.0000 0.0000
# 5 0.0000 0.0000 0.0000 0.0000 7.8862 0.0000
# 6 0.0000 0.0000 0.0000 0.0000 0.0000 24.6886
#
#
#
# Elastic Compliance Matrix: (Units=1/GPa)
#
#
# Indices 1 2 3 4 5 6 
#
# 1 0.009759 -0.001647 -0.000367 0.000000 0.000000 0.000000
# 2 -0.001647 0.009925 -0.001388 0.000000 0.000000 0.000000
# 3 -0.000367 -0.001388 0.011697 0.000000 0.000000 0.000000
# 4 0.000000 0.000000 0.000000 0.013295 0.000000 0.000000
# 5 0.000000 0.000000 0.000000 0.000000 0.126804 0.000000
# 6 0.000000 0.000000 0.000000 0.000000 0.000000 0.040504
#
#
# Mechanical properties :
#
#
# Convention : Reuss Voigt Hill
#
# Bulk Modulus (GPa) = 40.68693 41.38297 41.03495
# Shear Modulus (GPa) = 22.02826 39.00445 30.51635
#
# Velocity S-wave (km/s) = 3.13891 4.17683 3.69450
# Velocity P-wave (km/s) = 5.59781 6.46304 6.04592
#
# Compressibility (1/GPa) = 0.02457792
#
# Stress axis : x y z
#
# Youngs Moduli (GPa) = 102.46635 100.75512 85.49236
#
# Poissons Ratio (x) = 0.16597 0.03134
# Poissons Ratio (y) = 0.16879 0.11865
# Poissons Ratio (z) = 0.03757 0.13983
#
# Static dielectric constant tensor:
#      x y z
#    x 2.362590 0.000000 0.000000 
#    y 0.000000 1.946000 0.000000 
#    z 0.000000 0.000000 1.844160 
# 
# From -- ./inp_files/6462.got.cif
#   From: 2010.05.17/outbox.cif.g08.bks.cpg/sg55_4_cif.got.tgz:6462.got - 2010.06.03 13:27:54.
