data_PCOD9426277
_publ_section_title
;
Structure prediction by ZEFSAII (Michael W. Deem and Ramdas Pophale) SiO2 
 PCOD9426277
Probable space group: P B A M
;
_chemical_formula_sum "Si O2"
_cell_formula_units_Z 48
_cell_length_a 5.003223
_cell_length_b 26.035028
_cell_length_c 16.551899
_cell_angle_alpha 90.000000
_cell_angle_beta 90.000000
_cell_angle_gamma 90.000000
_cell_volume 2156.034654
_symmetry_space_group_name_H-M "P B A M"
_symmetry_group_IT_number 55
_symmetry_cell_setting 'orthorhombic'
loop_
_space_group_symop_operation_xyz
x,y,z
-x,-y,z
1/2+x,1/2-y,-z
1/2-x,1/2+y,-z
-x,-y,-z
x,y,-z
1/2-x,1/2+y,z
1/2+x,1/2-y,z
loop_
_atom_site_type_symbol
_atom_site_label
_atom_site_fract_x
_atom_site_fract_y
_atom_site_fract_z
Si Si1 0.142396 0.284654 0.760241
Si Si2 0.500000 0.000000 0.787127
Si Si3 0.245426 0.961166 0.500000
Si Si4 0.644971 0.556509 0.677620
Si Si5 0.613324 0.925164 0.094163
Si Si6 0.088971 0.879820 0.829875
Si Si7 0.254743 0.785287 0.413798
O O1 0.340993 0.235491 0.765568
O O2 0.261667 0.325853 0.820648
O O3 0.177909 0.310181 0.671149
O O4 0.584327 0.044170 0.725485
O O5 0.298408 0.026900 0.849683
O O6 0.211242 0.930763 0.415361
O O7 0.500000 0.000000 0.500000
O O8 0.000000 0.000000 0.500000
O O9 0.500000 0.500000 0.678634
O O10 0.520511 0.597443 0.739917
O O11 0.310609 0.913417 0.122164
O O12 0.816858 0.880406 0.119653
O O13 0.626381 0.935873 0.000000
O O14 0.304046 0.811710 0.500000
O O15 0.452555 0.735609 0.412821
#
# Coordination Sequence:
#
# PCOD9426277 Si02
#       7
#     8   4   4   8   8   8   8
#     4  10  20  37  59  83 112 153 199 243 295 350
#     4  10  19  35  60  86 122 154 196 231 301 356
#     4  10  20  32  56  80 120 168 204 230 272 330
#     4  10  19  36  55  87 123 161 197 237 284 339
#     4  11  23  39  61  88 120 150 190 246 306 366
#     4  11  23  38  62  88 119 155 198 244 299 358
#     4   8  14  26  47  73 102 136 175 226 283 325
#
# _framework density 22.263092
#
# number of rings (size 3 to 8) (size 9 to 14) (size 15 to 20)
#    0.000    2.000    2.500    1.750    0.000    0.000 
#    1.500    2.500    0.000   10.000    0.000    0.000 
#    0.000    0.000    0.000    0.000    0.000    0.000 
#
# Total GULP energy -267257.151265 kJ/mol
# GULP energy per Si atom -5567.857318 kJ/mol
# Density = 2.221242 g / cm^3
# Si number density = 22.263092 Si / 1000 Ang^3
#
#
#
# Elastic Constant Matrix: (Units=GPa)
#
#
# Indices 1 2 3 4 5 6 
#
# 1 84.0630 -11.0535 12.4576 0.0000 0.0000 0.0000
# 2 -11.0535 23.9396 13.4233 0.0000 0.0000 0.0000
# 3 12.4576 13.4233 156.9917 0.0000 0.0000 0.0000
# 4 0.0000 0.0000 0.0000 13.4030 0.0000 0.0000
# 5 0.0000 0.0000 0.0000 0.0000 25.5758 0.0000
# 6 0.0000 0.0000 0.0000 0.0000 0.0000 11.3980
#
#
#
# Elastic Compliance Matrix: (Units=1/GPa)
#
#
# Indices 1 2 3 4 5 6 
#
# 1 0.013050 0.006939 -0.001629 0.000000 0.000000 0.000000
# 2 0.006939 0.047565 -0.004618 0.000000 0.000000 0.000000
# 3 -0.001629 -0.004618 0.006894 0.000000 0.000000 0.000000
# 4 0.000000 0.000000 0.000000 0.074610 0.000000 0.000000
# 5 0.000000 0.000000 0.000000 0.000000 0.039099 0.000000
# 6 0.000000 0.000000 0.000000 0.000000 0.000000 0.087735
#
#
# Mechanical properties :
#
#
# Convention : Reuss Voigt Hill
#
# Bulk Modulus (GPa) = 14.51532 32.73879 23.62705
# Shear Modulus (GPa) = 17.20978 26.75315 21.98146
#
# Velocity S-wave (km/s) = 2.78334 3.47029 3.14562
# Velocity P-wave (km/s) = 4.10650 5.54928 4.88149
#
# Compressibility (1/GPa) = 0.06889271
#
# Stress axis : x y z
#
# Youngs Moduli (GPa) = 76.63080 21.02400 145.05739
#
# Poissons Ratio (x) = -0.14588 0.23627
# Poissons Ratio (y) = -0.53171 0.66981
# Poissons Ratio (z) = 0.12482 0.09708
#
# Static dielectric constant tensor:
#      x y z
#    x 1.856960 0.000000 0.000000 
#    y 0.000000 1.885850 0.000000 
#    z 0.000000 0.000000 1.843160 
# 
# From -- ./inp_files/16677.got.cif
#   From: 2010.05.17/outbox.cif.g08.bks.cpg/sg55_9_cif.got.tgz:16677.got - 2010.06.03 13:27:54.
