data_PCOD9426906
_publ_section_title
;
Structure prediction by ZEFSAII (Michael W. Deem and Ramdas Pophale) SiO2 
 PCOD9426906
Probable space group: P B A M
;
_chemical_formula_sum "Si O2"
_cell_formula_units_Z 56
_cell_length_a 27.279844
_cell_length_b 5.082758
_cell_length_c 21.614818
_cell_angle_alpha 90.000000
_cell_angle_beta 90.000000
_cell_angle_gamma 90.000000
_cell_volume 2997.042476
_symmetry_space_group_name_H-M "P B A M"
_symmetry_group_IT_number 55
_symmetry_cell_setting 'orthorhombic'
loop_
_space_group_symop_operation_xyz
x,y,z
-x,-y,z
1/2+x,1/2-y,-z
1/2-x,1/2+y,-z
-x,-y,-z
x,y,-z
1/2-x,1/2+y,z
1/2+x,1/2-y,z
loop_
_atom_site_type_symbol
_atom_site_label
_atom_site_fract_x
_atom_site_fract_y
_atom_site_fract_z
Si Si1 0.714195 0.971906 0.796560
Si Si2 0.856503 0.397733 0.430182
Si Si3 0.783238 0.392533 0.933068
Si Si4 0.625032 0.014769 0.702412
Si Si5 0.942517 0.000024 0.687229
Si Si6 0.720428 0.497359 0.573991
Si Si7 0.957041 0.673953 0.430384
O O1 0.747563 0.231616 0.788761
O O2 0.693093 0.951302 0.866930
O O3 0.668511 0.968503 0.750532
O O4 0.836481 0.471987 0.500000
O O5 0.848487 0.542784 0.364782
O O6 0.912913 0.467914 0.436341
O O7 0.912729 0.269033 0.302725
O O8 0.762656 0.095927 0.932538
O O9 0.808419 0.435153 0.000000
O O10 0.591383 0.268587 0.715811
O O11 0.665304 0.607209 0.581870
O O12 0.944947 0.911324 0.614922
O O13 0.000000 0.000000 0.707704
O O14 0.724778 0.475826 0.500000
O O15 0.755018 0.733025 0.597596
O O16 0.969180 0.758480 0.500000
O O17 0.000000 0.500000 0.401695
#
# Coordination Sequence:
#
# PCOD9426906 Si02
#       7
#     8   8   8   8   8   8   8
#     4  10  20  35  54  79 114 147 175 213 256 306
#     4   9  19  34  50  68  91 120 158 205 252 302
#     4   8  14  26  47  75 107 143 175 203 245 301
#     4  11  23  36  54  77 101 135 176 214 265 324
#     4  11  22  38  55  73  99 131 172 223 269 316
#     4   9  18  31  45  60  79 107 144 184 223 265
#     4   9  18  34  55  77  97 120 155 208 280 346
#
# _framework density 18.685085999999998
#
# number of rings (size 3 to 8) (size 9 to 14) (size 15 to 20)
#    0.000    2.429    0.000    3.000    0.000    4.286 
#    0.000    4.286    0.000    0.000    0.000    0.000 
#    0.000    3.429    0.000    0.000    0.000    0.286 
#
# Total GULP energy -311838.944164 kJ/mol
# GULP energy per Si atom -5568.552574 kJ/mol
# Density = 1.864256 g / cm^3
# Si number density = 18.685086 Si / 1000 Ang^3
#
#
#
# Elastic Constant Matrix: (Units=GPa)
#
#
# Indices 1 2 3 4 5 6 
#
# 1 104.8469 47.6862 45.8387 0.0000 0.0000 0.0000
# 2 47.6862 119.4779 5.7660 0.0000 0.0000 0.0000
# 3 45.8387 5.7660 109.3963 0.0000 0.0000 0.0000
# 4 0.0000 0.0000 0.0000 11.2132 0.0000 0.0000
# 5 0.0000 0.0000 0.0000 0.0000 4.7580 0.0000
# 6 0.0000 0.0000 0.0000 0.0000 0.0000 35.3655
#
#
#
# Elastic Compliance Matrix: (Units=1/GPa)
#
#
# Indices 1 2 3 4 5 6 
#
# 1 0.014611 -0.005550 -0.005830 0.000000 0.000000 0.000000
# 2 -0.005550 0.010499 0.001772 0.000000 0.000000 0.000000
# 3 -0.005830 0.001772 0.011490 0.000000 0.000000 0.000000
# 4 0.000000 0.000000 0.000000 0.089181 0.000000 0.000000
# 5 0.000000 0.000000 0.000000 0.000000 0.210173 0.000000
# 6 0.000000 0.000000 0.000000 0.000000 0.000000 0.028276
#
#
# Mechanical properties :
#
#
# Convention : Reuss Voigt Hill
#
# Bulk Modulus (GPa) = 57.51939 59.14477 58.33208
# Shear Modulus (GPa) = 12.84553 25.89601 19.37077
#
# Velocity S-wave (km/s) = 2.62482 3.72683 3.22327
# Velocity P-wave (km/s) = 6.32745 7.08810 6.71855
#
# Compressibility (1/GPa) = 0.01738544
#
# Stress axis : x y z
#
# Youngs Moduli (GPa) = 68.44323 95.24373 87.02960
#
# Poissons Ratio (x) = 0.52861 0.50734
# Poissons Ratio (y) = 0.37987 -0.15423
# Poissons Ratio (z) = 0.39899 -0.16879
#
# Static dielectric constant tensor:
#      x y z
#    x 1.704070 0.000000 0.000000 
#    y 0.000000 1.746640 0.000000 
#    z 0.000000 0.000000 1.696820 
# 
# From -- ./inp_files/23184.got.cif
#   From: 2010.05.17/outbox.cif.g08.bks.cpg/sg55_12_cif.got.tgz:23184.got - 2010.06.03 13:27:54.
