data_PCOD9426352
_publ_section_title
;
Structure prediction by ZEFSAII (Michael W. Deem and Ramdas Pophale) SiO2 
 PCOD9426352
Probable space group: P B A M
;
_chemical_formula_sum "Si O2"
_cell_formula_units_Z 48
_cell_length_a 17.029870
_cell_length_b 18.221699
_cell_length_c 8.750478
_cell_angle_alpha 90.000000
_cell_angle_beta 90.000000
_cell_angle_gamma 90.000000
_cell_volume 2715.388525
_symmetry_space_group_name_H-M "P B A M"
_symmetry_group_IT_number 55
_symmetry_cell_setting 'orthorhombic'
loop_
_space_group_symop_operation_xyz
x,y,z
-x,-y,z
1/2+x,1/2-y,-z
1/2-x,1/2+y,-z
-x,-y,-z
x,y,-z
1/2-x,1/2+y,z
1/2+x,1/2-y,z
loop_
_atom_site_type_symbol
_atom_site_label
_atom_site_fract_x
_atom_site_fract_y
_atom_site_fract_z
Si Si1 0.007374 0.913601 0.682456
Si Si2 0.588341 0.016342 0.684100
Si Si3 0.739043 0.945424 0.816569
Si Si4 0.328153 0.832278 0.316728
Si Si5 0.861863 0.824623 0.183413
Si Si6 0.176013 0.901967 0.183005
O O1 0.001421 0.905412 0.500000
O O2 0.938041 0.869076 0.762365
O O3 0.092339 0.888531 0.740981
O O4 0.000000 0.000000 0.720218
O O5 0.589066 0.012418 0.500000
O O6 0.617490 0.098074 0.727764
O O7 0.500000 0.000000 0.737296
O O8 0.653934 0.960340 0.745869
O O9 0.785456 0.872516 0.769026
O O10 0.793105 0.016008 0.776108
O O11 0.731597 0.944890 0.000000
O O12 0.322376 0.831414 0.500000
O O13 0.360012 0.755544 0.256134
O O14 0.243102 0.848058 0.244241
O O15 0.861595 0.819439 0.000000
O O16 0.169922 0.897505 0.000000
#
# Coordination Sequence:
#
# PCOD9426352 Si02
#       6
#     8   8   8   8   8   8
#     4  11  22  35  57  88 118 149 190 235 285 343
#     4   9  19  37  60  83 108 143 188 235 282 333
#     4   9  19  34  56  82 108 142 185 229 274 333
#     4  10  21  38  58  82 114 149 188 236 291 343
#     4  11  22  38  57  82 117 153 190 234 288 341
#     4  10  19  36  59  82 110 147 189 230 280 339
#
# _framework density 17.677029000000001
#
# number of rings (size 3 to 8) (size 9 to 14) (size 15 to 20)
#    0.000    2.000    1.667    2.000    0.000    3.667 
#    3.000    0.000    0.000    0.000    0.000    0.000 
#    0.000    0.000    0.000    0.000    0.000    0.000 
#
# Total GULP energy -267980.920726 kJ/mol
# GULP energy per Si atom -5582.935848 kJ/mol
# Density = 1.763680 g / cm^3
# Si number density = 17.677029 Si / 1000 Ang^3
#
#
#
# Elastic Constant Matrix: (Units=GPa)
#
#
# Indices 1 2 3 4 5 6 
#
# 1 134.3017 45.0034 12.1073 0.0000 0.0000 0.0000
# 2 45.0034 77.8211 17.2496 0.0000 0.0000 0.0000
# 3 12.1073 17.2496 16.6725 0.0000 0.0000 0.0000
# 4 0.0000 0.0000 0.0000 25.7021 0.0000 0.0000
# 5 0.0000 0.0000 0.0000 0.0000 32.0524 0.0000
# 6 0.0000 0.0000 0.0000 0.0000 0.0000 21.9741
#
#
#
# Elastic Compliance Matrix: (Units=1/GPa)
#
#
# Indices 1 2 3 4 5 6 
#
# 1 0.009266 -0.005018 -0.001537 0.000000 0.000000 0.000000
# 2 -0.005018 0.019391 -0.016418 0.000000 0.000000 0.000000
# 3 -0.001537 -0.016418 0.078082 0.000000 0.000000 0.000000
# 4 0.000000 0.000000 0.000000 0.038907 0.000000 0.000000
# 5 0.000000 0.000000 0.000000 0.000000 0.031199 0.000000
# 6 0.000000 0.000000 0.000000 0.000000 0.000000 0.045508
#
#
# Mechanical properties :
#
#
# Convention : Reuss Voigt Hill
#
# Bulk Modulus (GPa) = 16.44956 41.94619 29.19788
# Shear Modulus (GPa) = 17.32722 26.24142 21.78432
#
# Velocity S-wave (km/s) = 3.13423 3.85709 3.51430
# Velocity P-wave (km/s) = 4.73536 6.60431 5.74633
#
# Compressibility (1/GPa) = 0.06079191
#
# Stress axis : x y z
#
# Youngs Moduli (GPa) = 107.92280 51.57067 12.80708
#
# Poissons Ratio (x) = 0.25876 0.01969
# Poissons Ratio (y) = 0.54151 0.21027
# Poissons Ratio (z) = 0.16592 0.84670
#
# Static dielectric constant tensor:
#      x y z
#    x 1.588240 0.000000 0.000000 
#    y 0.000000 1.592370 0.000000 
#    z 0.000000 0.000000 1.588410 
# 
# From -- ./inp_files/5631.got.cif
#   From: 2010.05.17/outbox.cif.g08.bks.cpg/sg55_3_cif.got.tgz:5631.got - 2010.06.03 13:27:54.
