data_PCOD9426835
_publ_section_title
;
Structure prediction by ZEFSAII (Michael W. Deem and Ramdas Pophale) SiO2 
 PCOD9426835
Probable space group: P B A M
;
_chemical_formula_sum "Si O2"
_cell_formula_units_Z 48
_cell_length_a 26.033115
_cell_length_b 8.388292
_cell_length_c 11.475175
_cell_angle_alpha 90.000000
_cell_angle_beta 90.000000
_cell_angle_gamma 90.000000
_cell_volume 2505.872639
_symmetry_space_group_name_H-M "P B A M"
_symmetry_group_IT_number 55
_symmetry_cell_setting 'orthorhombic'
loop_
_space_group_symop_operation_xyz
x,y,z
-x,-y,z
1/2+x,1/2-y,-z
1/2-x,1/2+y,-z
-x,-y,-z
x,y,-z
1/2-x,1/2+y,z
1/2+x,1/2-y,z
loop_
_atom_site_type_symbol
_atom_site_label
_atom_site_fract_x
_atom_site_fract_y
_atom_site_fract_z
Si Si1 0.901018 0.666124 0.637412
Si Si2 0.302125 0.757137 0.745263
Si Si3 0.736244 0.359467 0.500000
Si Si4 0.488011 0.312385 0.363801
Si Si5 0.792534 0.401802 0.137693
Si Si6 0.615032 0.798454 0.286832
Si Si7 0.171514 0.820385 0.500000
O O1 0.889802 0.697118 0.500000
O O2 0.862641 0.766508 0.720808
O O3 0.891645 0.479618 0.665004
O O4 0.959715 0.715208 0.657175
O O5 0.279107 0.731070 0.617170
O O6 0.264312 0.660150 0.829375
O O7 0.296836 0.934053 0.793079
O O8 0.797610 0.347715 0.500000
O O9 0.709746 0.530531 0.500000
O O10 0.500000 0.500000 0.356773
O O11 0.472523 0.278180 0.500000
O O12 0.443134 0.262836 0.274872
O O13 0.841396 0.301311 0.186577
O O14 0.796995 0.421059 0.000000
O O15 0.638122 0.682559 0.385136
#
# Coordination Sequence:
#
# PCOD9426835 Si02
#       7
#     8   8   4   8   8   8   4
#     4  10  20  34  56  86 126 160 197 245 315 388
#     4  11  23  38  62  87 124 159 199 254 311 369
#     4  12  24  36  57  94 130 151 197 250 319 376
#     4  10  21  34  55  89 127 160 197 249 317 384
#     4  11  25  42  61  86 120 168 215 254 295 356
#     4  11  22  37  60  84 124 166 203 249 307 374
#     4  12  24  34  57  93 129 162 198 241 329 377
#
# _framework density 19.155004000000002
#
# number of rings (size 3 to 8) (size 9 to 14) (size 15 to 20)
#    0.000    1.167    4.167    2.000    4.667    1.333 
#    0.000    0.000    0.000    9.500    0.000    0.000 
#    0.000    0.000    0.000    0.000    0.000    0.000 
#
# Total GULP energy -267696.717759 kJ/mol
# GULP energy per Si atom -5577.014953 kJ/mol
# Density = 1.911141 g / cm^3
# Si number density = 19.155004 Si / 1000 Ang^3
#
#
#
# Elastic Constant Matrix: (Units=GPa)
#
#
# Indices 1 2 3 4 5 6 
#
# 1 128.9242 22.5720 68.9551 0.0000 0.0000 0.0000
# 2 22.5720 65.1087 -17.6475 0.0000 0.0000 0.0000
# 3 68.9551 -17.6475 256.4119 0.0000 0.0000 0.0000
# 4 0.0000 0.0000 0.0000 20.4929 0.0000 0.0000
# 5 0.0000 0.0000 0.0000 0.0000 10.2656 0.0000
# 6 0.0000 0.0000 0.0000 0.0000 0.0000 27.7787
#
#
#
# Elastic Compliance Matrix: (Units=1/GPa)
#
#
# Indices 1 2 3 4 5 6 
#
# 1 0.010132 -0.004332 -0.003023 0.000000 0.000000 0.000000
# 2 -0.004332 0.017503 0.002370 0.000000 0.000000 0.000000
# 3 -0.003023 0.002370 0.004876 0.000000 0.000000 0.000000
# 4 0.000000 0.000000 0.000000 0.048797 0.000000 0.000000
# 5 0.000000 0.000000 0.000000 0.000000 0.097413 0.000000
# 6 0.000000 0.000000 0.000000 0.000000 0.000000 0.035999
#
#
# Mechanical properties :
#
#
# Convention : Reuss Voigt Hill
#
# Bulk Modulus (GPa) = 44.36449 66.46711 55.41580
# Shear Modulus (GPa) = 21.53292 36.81181 29.17237
#
# Velocity S-wave (km/s) = 3.35646 4.38857 3.90675
# Velocity P-wave (km/s) = 6.18321 7.77524 7.02448
#
# Compressibility (1/GPa) = 0.02254055
#
# Stress axis : x y z
#
# Youngs Moduli (GPa) = 98.70097 57.13334 205.08835
#
# Poissons Ratio (x) = 0.24749 0.61993
# Poissons Ratio (y) = 0.42755 -0.48597
# Poissons Ratio (z) = 0.29835 -0.13538
#
# Static dielectric constant tensor:
#      x y z
#    x 1.737130 0.000000 0.000000 
#    y 0.000000 1.683730 0.000000 
#    z 0.000000 0.000000 1.587420 
# 
# From -- ./inp_files/15645.got.cif
#   From: 2010.05.17/outbox.cif.g08.bks.cpg/sg55_8_cif.got.tgz:15645.got - 2010.06.03 13:27:54.
