data_PCOD9426821
_publ_section_title
;
Structure prediction by ZEFSAII (Michael W. Deem and Ramdas Pophale) SiO2 
 PCOD9426821
Probable space group: P B A M
;
_chemical_formula_sum "Si O2"
_cell_formula_units_Z 56
_cell_length_a 21.345258
_cell_length_b 14.997972
_cell_length_c 7.416869
_cell_angle_alpha 90.000000
_cell_angle_beta 90.000000
_cell_angle_gamma 90.000000
_cell_volume 2374.403673
_symmetry_space_group_name_H-M "P B A M"
_symmetry_group_IT_number 55
_symmetry_cell_setting 'orthorhombic'
loop_
_space_group_symop_operation_xyz
x,y,z
-x,-y,z
1/2+x,1/2-y,-z
1/2-x,1/2+y,-z
-x,-y,-z
x,y,-z
1/2-x,1/2+y,z
1/2+x,1/2-y,z
loop_
_atom_site_type_symbol
_atom_site_label
_atom_site_fract_x
_atom_site_fract_y
_atom_site_fract_z
Si Si1 0.630645 0.890969 0.281167
Si Si2 0.586722 0.082134 0.290684
Si Si3 0.822450 0.087110 0.779232
Si Si4 0.223290 0.104937 0.208337
Si Si5 0.984062 0.280112 0.717309
Si Si6 0.536409 0.585254 0.787970
Si Si7 0.706190 0.201923 0.780928
O O1 0.633489 0.892502 0.500000
O O2 0.701538 0.887235 0.215340
O O3 0.585415 0.810553 0.224693
O O4 0.598808 0.983473 0.217623
O O5 0.569847 0.068209 0.500000
O O6 0.533230 0.146418 0.214161
O O7 0.651485 0.136048 0.278436
O O8 0.893399 0.098183 0.715299
O O9 0.772961 0.161995 0.721849
O O10 0.797849 0.990105 0.717394
O O11 0.821222 0.089224 0.000000
O O12 0.197162 0.197230 0.285808
O O13 0.203169 0.102940 0.000000
O O14 0.985495 0.282445 0.500000
O O15 0.998694 0.179187 0.770178
O O16 0.500000 0.500000 0.711861
O O17 0.544710 0.567361 0.000000
O O18 0.705744 0.203261 0.000000
#
# Coordination Sequence:
#
# PCOD9426821 Si02
#       7
#     8   8   8   8   8   8   8
#     4  10  20  37  59  84 113 147 188 230 279 337
#     4  10  21  37  57  82 113 146 186 233 283 335
#     4   9  18  35  54  80 114 144 176 223 279 328
#     4  10  20  34  57  83 112 146 181 226 281 334
#     4  10  22  39  58  81 113 152 187 230 285 336
#     4  10  22  39  61  86 113 148 193 236 276 332
#     4  10  20  34  56  82 111 146 185 228 278 333
#
# _framework density 23.584869999999999
#
# number of rings (size 3 to 8) (size 9 to 14) (size 15 to 20)
#    0.000    2.143    1.429    1.286    2.000    4.857 
#    0.000    1.429    0.000    2.571    0.000    0.000 
#    0.000    0.000    0.000    0.000    0.000    0.000 
#
# Total GULP energy -313079.371804 kJ/mol
# GULP energy per Si atom -5590.703068 kJ/mol
# Density = 2.353119 g / cm^3
# Si number density = 23.584870 Si / 1000 Ang^3
#
#
#
# Elastic Constant Matrix: (Units=GPa)
#
#
# Indices 1 2 3 4 5 6 
#
# 1 50.6018 -3.9602 -12.3408 0.0000 0.0000 0.0000
# 2 -3.9602 122.8009 -11.5069 0.0000 0.0000 0.0000
# 3 -12.3408 -11.5069 75.4595 0.0000 0.0000 0.0000
# 4 0.0000 0.0000 0.0000 6.8494 0.0000 0.0000
# 5 0.0000 0.0000 0.0000 0.0000 -7.7163 0.0000
# 6 0.0000 0.0000 0.0000 0.0000 0.0000 31.3074
#
#
#
# Elastic Compliance Matrix: (Units=1/GPa)
#
#
# Indices 1 2 3 4 5 6 
#
# 1 0.020703 0.000999 0.003538 0.000000 0.000000 0.000000
# 2 0.000999 0.008310 0.001431 0.000000 0.000000 0.000000
# 3 0.003538 0.001431 0.014049 0.000000 0.000000 0.000000
# 4 0.000000 0.000000 0.000000 0.145998 0.000000 0.000000
# 5 0.000000 0.000000 0.000000 0.000000 -0.129596 0.000000
# 6 0.000000 0.000000 0.000000 0.000000 0.000000 0.031941
#
#
# Mechanical properties :
#
#
# Convention : Reuss Voigt Hill
#
# Bulk Modulus (GPa) = 18.18261 21.47184 19.82723
# Shear Modulus (GPa) = 51.12417 24.53279 37.82848
#
# Velocity S-wave (km/s) = 4.66087 3.22870 4.00925
# Velocity P-wave (km/s) = 6.05732 4.79825 5.46417
#
# Compressibility (1/GPa) = 0.05499759
#
# Stress axis : x y z
#
# Youngs Moduli (GPa) = 48.30163 120.34371 71.17982
#
# Poissons Ratio (x) = -0.12025 -0.25185
# Poissons Ratio (y) = -0.04826 -0.10183
# Poissons Ratio (z) = -0.17090 -0.17216
#
# Static dielectric constant tensor:
#      x y z
#    x 1.849290 0.000000 0.000000 
#    y 0.000000 1.868710 0.000000 
#    z 0.000000 0.000000 1.897710 
# 
# From -- ./inp_files/6136.got.cif
#   From: 2010.05.17/outbox.cif.g08.bks.cpg/sg55_4_cif.got.tgz:6136.got - 2010.06.03 13:27:54.
