data_PCOD9426611
_publ_section_title
;
Structure prediction by ZEFSAII (Michael W. Deem and Ramdas Pophale) SiO2 
 PCOD9426611
Probable space group: P B A M
;
_chemical_formula_sum "Si O2"
_cell_formula_units_Z 56
_cell_length_a 22.769320
_cell_length_b 8.833401
_cell_length_c 13.761521
_cell_angle_alpha 90.000000
_cell_angle_beta 90.000000
_cell_angle_gamma 90.000000
_cell_volume 2767.862068
_symmetry_space_group_name_H-M "P B A M"
_symmetry_group_IT_number 55
_symmetry_cell_setting 'orthorhombic'
loop_
_space_group_symop_operation_xyz
x,y,z
-x,-y,z
1/2+x,1/2-y,-z
1/2-x,1/2+y,-z
-x,-y,-z
x,y,-z
1/2-x,1/2+y,z
1/2+x,1/2-y,z
loop_
_atom_site_type_symbol
_atom_site_label
_atom_site_fract_x
_atom_site_fract_y
_atom_site_fract_z
Si Si1 0.897481 0.662013 0.889473
Si Si2 0.823306 0.674780 0.385354
Si Si3 0.066046 0.481553 0.694565
Si Si4 0.429644 0.492167 0.109549
Si Si5 0.287125 0.045760 0.112753
Si Si6 0.636070 0.734628 0.753736
Si Si7 0.720041 0.490065 0.703646
O O1 0.933806 0.576781 0.806496
O O2 0.903772 0.840473 0.873972
O O3 0.830874 0.599292 0.882124
O O4 0.917338 0.628516 0.000000
O O5 0.814930 0.685149 0.500000
O O6 0.890446 0.633377 0.360196
O O7 0.803424 0.831876 0.336044
O O8 0.781886 0.541471 0.342591
O O9 0.098703 0.642241 0.696371
O O10 0.000000 0.500000 0.658382
O O11 0.500000 0.500000 0.114189
O O12 0.406345 0.374490 0.186667
O O13 0.413204 0.444369 0.000000
O O14 0.323054 0.177485 0.168046
O O15 0.231047 0.019028 0.180303
O O16 0.274860 0.078373 0.000000
O O17 0.675878 0.628315 0.686651
#
# Coordination Sequence:
#
# PCOD9426611 Si02
#       7
#     8   8   8   8   8   8   8
#     4   9  18  35  58  88 128 176 222 263 318 381
#     4  12  25  46  71  96 125 166 218 279 337 389
#     4  11  23  43  66  94 129 170 219 273 329 394
#     4  10  20  33  51  83 128 181 232 269 306 365
#     4  10  21  37  59  91 134 176 210 256 318 392
#     4  11  22  36  61  91 131 169 216 261 321 386
#     4  12  23  44  66  98 132 166 217 264 325 401
#
# _framework density 20.232222
#
# number of rings (size 3 to 8) (size 9 to 14) (size 15 to 20)
#    0.000    1.286    4.286    2.571    0.000    2.286 
#    0.000    1.429    0.000    0.857    0.000    0.000 
#    0.000    0.000    0.000    0.000    0.000    0.000 
#
# Total GULP energy -313132.104688 kJ/mol
# GULP energy per Si atom -5591.644727 kJ/mol
# Density = 2.018617 g / cm^3
# Si number density = 20.232222 Si / 1000 Ang^3
#
#
#
# Elastic Constant Matrix: (Units=GPa)
#
#
# Indices 1 2 3 4 5 6 
#
# 1 96.0210 51.9167 30.9878 0.0000 0.0000 0.0000
# 2 51.9167 100.5637 27.0187 0.0000 0.0000 0.0000
# 3 30.9878 27.0187 65.5367 0.0000 0.0000 0.0000
# 4 0.0000 0.0000 0.0000 16.1515 0.0000 0.0000
# 5 0.0000 0.0000 0.0000 0.0000 3.7855 0.0000
# 6 0.0000 0.0000 0.0000 0.0000 0.0000 20.7888
#
#
#
# Elastic Compliance Matrix: (Units=1/GPa)
#
#
# Indices 1 2 3 4 5 6 
#
# 1 0.015567 -0.006814 -0.004552 0.000000 0.000000 0.000000
# 2 -0.006814 0.014165 -0.002618 0.000000 0.000000 0.000000
# 3 -0.004552 -0.002618 0.018490 0.000000 0.000000 0.000000
# 4 0.000000 0.000000 0.000000 0.061914 0.000000 0.000000
# 5 0.000000 0.000000 0.000000 0.000000 0.264166 0.000000
# 6 0.000000 0.000000 0.000000 0.000000 0.000000 0.048103
#
#
# Mechanical properties :
#
#
# Convention : Reuss Voigt Hill
#
# Bulk Modulus (GPa) = 49.36911 53.55198 51.46055
# Shear Modulus (GPa) = 10.93795 18.29171 14.61483
#
# Velocity S-wave (km/s) = 2.32765 3.01007 2.69058
# Velocity P-wave (km/s) = 5.62833 6.21344 5.92811
#
# Compressibility (1/GPa) = 0.02025558
#
# Stress axis : x y z
#
# Youngs Moduli (GPa) = 64.23672 70.59631 54.08305
#
# Poissons Ratio (x) = 0.48104 0.24617
# Poissons Ratio (y) = 0.43770 0.14159
# Poissons Ratio (z) = 0.29238 0.18482
#
# Static dielectric constant tensor:
#      x y z
#    x 1.739620 0.000000 0.000000 
#    y 0.000000 1.714460 0.000000 
#    z 0.000000 0.000000 1.705260 
# 
# From -- ./inp_files/19729.got.cif
#   From: 2010.05.17/outbox.cif.g08.bks.cpg/sg55_10_cif.got.tgz:19729.got - 2010.06.03 13:27:54.
