data_PCOD9426258
_publ_section_title
;
Structure prediction by ZEFSAII (Michael W. Deem and Ramdas Pophale) SiO2 
 PCOD9426258
Probable space group: P B A M
;
_chemical_formula_sum "Si O2"
_cell_formula_units_Z 64
_cell_length_a 20.570305
_cell_length_b 18.874256
_cell_length_c 7.551343
_cell_angle_alpha 90.000000
_cell_angle_beta 90.000000
_cell_angle_gamma 90.000000
_cell_volume 2931.802898
_symmetry_space_group_name_H-M "P B A M"
_symmetry_group_IT_number 55
_symmetry_cell_setting 'orthorhombic'
loop_
_space_group_symop_operation_xyz
x,y,z
-x,-y,z
1/2+x,1/2-y,-z
1/2-x,1/2+y,-z
-x,-y,-z
x,y,-z
1/2-x,1/2+y,z
1/2+x,1/2-y,z
loop_
_atom_site_type_symbol
_atom_site_label
_atom_site_fract_x
_atom_site_fract_y
_atom_site_fract_z
Si Si1 0.475965 0.217723 0.716639
Si Si2 0.446432 0.057255 0.716447
Si Si3 0.380484 0.756901 0.297250
Si Si4 0.926732 0.014577 0.285809
Si Si5 0.824895 0.890581 0.202977
Si Si6 0.800986 0.479097 0.712638
Si Si7 0.372753 0.332942 0.283565
Si Si8 0.271273 0.861651 0.282557
O O1 0.473855 0.220242 0.500000
O O2 0.465385 0.136611 0.769661
O O3 0.546783 0.244346 0.777524
O O4 0.418499 0.269326 0.777120
O O5 0.446098 0.055955 0.500000
O O6 0.373398 0.038905 0.776095
O O7 0.500000 0.000000 0.773743
O O8 0.389635 0.780890 0.500000
O O9 0.347662 0.680008 0.300854
O O10 0.330867 0.813823 0.218358
O O11 0.927836 0.015257 0.500000
O O12 0.901886 0.091384 0.227625
O O13 0.876473 0.953484 0.233898
O O14 0.000000 0.000000 0.224033
O O15 0.753888 0.921261 0.245854
O O16 0.826175 0.869886 0.000000
O O17 0.804395 0.482925 0.500000
O O18 0.778545 0.556857 0.774362
O O19 0.373118 0.332548 0.500000
O O20 0.297939 0.329998 0.227427
O O21 0.271263 0.861305 0.500000
#
# Coordination Sequence:
#
# PCOD9426258 Si02
#       8
#     8   8   8   8   8   8   8   8
#     4   9  17  29  48  80 113 139 173 224 279 332
#     4   9  17  29  52  87 120 143 176 233 295 340
#     4  10  20  35  57  81 108 144 188 231 283 338
#     4  10  19  35  60  84 108 141 183 230 282 343
#     4  12  25  38  53  80 118 154 192 234 278 335
#     4  10  19  35  59  85 114 148 187 234 289 348
#     4   9  16  27  46  77 110 135 170 220 270 323
#     4   9  17  30  53  81 108 138 181 232 279 333
#
# _framework density 21.829571000000001
#
# number of rings (size 3 to 8) (size 9 to 14) (size 15 to 20)
#    0.000    2.250    1.250    2.625    1.750    5.250 
#    0.000    0.625    0.000    1.125    0.000    0.000 
#    0.000    0.000    0.000    0.000    0.000    0.000 
#
# Total GULP energy -357625.809997 kJ/mol
# GULP energy per Si atom -5587.903281 kJ/mol
# Density = 2.177989 g / cm^3
# Si number density = 21.829571 Si / 1000 Ang^3
#
#
#
# Elastic Constant Matrix: (Units=GPa)
#
#
# Indices 1 2 3 4 5 6 
#
# 1 181.6888 56.0026 4.1850 0.0000 0.0000 0.0000
# 2 56.0026 97.7731 -4.4493 0.0000 0.0000 0.0000
# 3 4.1850 -4.4493 52.0851 0.0000 0.0000 0.0000
# 4 0.0000 0.0000 0.0000 16.5172 0.0000 0.0000
# 5 0.0000 0.0000 0.0000 0.0000 69.9282 0.0000
# 6 0.0000 0.0000 0.0000 0.0000 0.0000 45.8216
#
#
#
# Elastic Compliance Matrix: (Units=1/GPa)
#
#
# Indices 1 2 3 4 5 6 
#
# 1 0.006723 -0.003891 -0.000873 0.000000 0.000000 0.000000
# 2 -0.003891 0.012519 0.001382 0.000000 0.000000 0.000000
# 3 -0.000873 0.001382 0.019388 0.000000 0.000000 0.000000
# 4 0.000000 0.000000 0.000000 0.060543 0.000000 0.000000
# 5 0.000000 0.000000 0.000000 0.000000 0.014300 0.000000
# 6 0.000000 0.000000 0.000000 0.000000 0.000000 0.021824
#
#
# Mechanical properties :
#
#
# Convention : Reuss Voigt Hill
#
# Bulk Modulus (GPa) = 31.37989 49.22484 40.30237
# Shear Modulus (GPa) = 32.74780 44.84063 38.79422
#
# Velocity S-wave (km/s) = 3.87739 4.53716 4.22019
# Velocity P-wave (km/s) = 5.86956 7.07434 6.49992
#
# Compressibility (1/GPa) = 0.03186754
#
# Stress axis : x y z
#
# Youngs Moduli (GPa) = 148.73772 79.87769 51.57961
#
# Poissons Ratio (x) = 0.31078 0.04501
# Poissons Ratio (y) = 0.57869 -0.07128
# Poissons Ratio (z) = 0.12978 -0.11039
#
# Static dielectric constant tensor:
#      x y z
#    x 1.779350 0.000000 0.000000 
#    y 0.000000 1.744840 0.000000 
#    z 0.000000 0.000000 1.834690 
# 
# From -- ./inp_files/8965.got.cif
#   From: 2010.05.17/outbox.cif.g08.bks.cpg/sg55_5_cif.got.tgz:8965.got - 2010.06.03 13:27:54.
