data_PCOD9426090
_publ_section_title
;
Structure prediction by ZEFSAII (Michael W. Deem and Ramdas Pophale) SiO2 
 PCOD9426090
Probable space group: P B A M
;
_chemical_formula_sum "Si O2"
_cell_formula_units_Z 56
_cell_length_a 14.302769
_cell_length_b 22.079040
_cell_length_c 7.510880
_cell_angle_alpha 90.000000
_cell_angle_beta 90.000000
_cell_angle_gamma 90.000000
_cell_volume 2371.871377
_symmetry_space_group_name_H-M "P B A M"
_symmetry_group_IT_number 55
_symmetry_cell_setting 'orthorhombic'
loop_
_space_group_symop_operation_xyz
x,y,z
-x,-y,z
1/2+x,1/2-y,-z
1/2-x,1/2+y,-z
-x,-y,-z
x,y,-z
1/2-x,1/2+y,z
1/2+x,1/2-y,z
loop_
_atom_site_type_symbol
_atom_site_label
_atom_site_fract_x
_atom_site_fract_y
_atom_site_fract_z
Si Si1 0.468429 0.822430 0.800434
Si Si2 0.340640 0.721448 0.784865
Si Si3 0.854405 0.107361 0.785289
Si Si4 0.434889 0.597296 0.782839
Si Si5 0.637325 0.747404 0.701444
Si Si6 0.735016 0.487831 0.782254
Si Si7 0.435625 0.057173 0.216929
O O1 0.384394 0.784341 0.716361
O O2 0.552246 0.773616 0.813465
O O3 0.514445 0.881830 0.717358
O O4 0.436725 0.840342 0.000000
O O5 0.399833 0.663628 0.725340
O O6 0.232562 0.716677 0.737006
O O7 0.846563 0.776956 0.000000
O O8 0.842073 0.176812 0.732258
O O9 0.958601 0.087321 0.726396
O O10 0.779113 0.057590 0.726351
O O11 0.853661 0.106786 0.000000
O O12 0.357063 0.549154 0.727135
O O13 0.435586 0.596339 0.000000
O O14 0.607356 0.756025 0.500000
O O15 0.830330 0.456214 0.721456
O O16 0.737201 0.487086 0.000000
O O17 0.500000 0.000000 0.259039
O O18 0.430391 0.062438 0.000000
#
# Coordination Sequence:
#
# PCOD9426090 Si02
#       7
#     8   8   8   8   8   8   8
#     4  10  20  38  63  88 115 149 192 241 286 338
#     4  10  20  35  60  87 112 146 190 238 287 338
#     4  10  19  34  57  83 110 143 191 236 285 338
#     4   9  16  31  54  86 113 136 180 239 293 335
#     4  12  25  38  55  82 119 156 192 235 289 344
#     4   9  17  28  51  83 116 146 176 233 290 338
#     4   9  18  31  52  87 121 146 181 233 290 337
#
# _framework density 23.610047999999999
#
# number of rings (size 3 to 8) (size 9 to 14) (size 15 to 20)
#    0.000    2.143    1.429    2.571    2.000    4.571 
#    0.000    0.000    0.000    5.571    0.000    0.000 
#    0.000    0.000    0.000    0.000    0.000    0.000 
#
# Total GULP energy -313043.491141 kJ/mol
# GULP energy per Si atom -5590.062342 kJ/mol
# Density = 2.355631 g / cm^3
# Si number density = 23.610048 Si / 1000 Ang^3
#
#
#
# Elastic Constant Matrix: (Units=GPa)
#
#
# Indices 1 2 3 4 5 6 
#
# 1 48.8460 -17.7794 -4.1751 0.0000 0.0000 0.0000
# 2 -17.7794 90.4683 -1.0296 0.0000 0.0000 0.0000
# 3 -4.1751 -1.0296 71.7409 0.0000 0.0000 0.0000
# 4 0.0000 0.0000 0.0000 -57.3812 0.0000 0.0000
# 5 0.0000 0.0000 0.0000 0.0000 109.1917 0.0000
# 6 0.0000 0.0000 0.0000 0.0000 0.0000 35.1666
#
#
#
# Elastic Compliance Matrix: (Units=1/GPa)
#
#
# Indices 1 2 3 4 5 6 
#
# 1 0.022180 0.004374 0.001354 0.000000 0.000000 0.000000
# 2 0.004374 0.011918 0.000426 0.000000 0.000000 0.000000
# 3 0.001354 0.000426 0.014024 0.000000 0.000000 0.000000
# 4 0.000000 0.000000 0.000000 -0.017427 0.000000 0.000000
# 5 0.000000 0.000000 0.000000 0.000000 0.009158 0.000000
# 6 0.000000 0.000000 0.000000 0.000000 0.000000 0.028436
#
#
# Mechanical properties :
#
#
# Convention : Reuss Voigt Hill
#
# Bulk Modulus (GPa) = 16.54810 18.34299 17.44554
# Shear Modulus (GPa) = 65.68109 32.99805 49.33957
#
# Velocity S-wave (km/s) = 5.28011 3.74254 4.57636
# Velocity P-wave (km/s) = 6.64807 5.14407 5.94383
#
# Compressibility (1/GPa) = 0.06042992
#
# Stress axis : x y z
#
# Youngs Moduli (GPa) = 45.08475 83.90577 71.30664
#
# Poissons Ratio (x) = -0.36704 -0.09652
# Poissons Ratio (y) = -0.19722 -0.03035
# Poissons Ratio (z) = -0.06103 -0.03571
#
# Static dielectric constant tensor:
#      x y z
#    x 1.847680 0.000000 0.000000 
#    y 0.000000 1.878810 0.000000 
#    z 0.000000 0.000000 1.994440 
# 
# From -- ./inp_files/6112.got.cif
#   From: 2010.05.17/outbox.cif.g08.bks.cpg/sg55_4_cif.got.tgz:6112.got - 2010.06.03 13:27:54.
