data_PCOD9426145
_publ_section_title
;
Structure prediction by ZEFSAII (Michael W. Deem and Ramdas Pophale) SiO2 
 PCOD9426145
Probable space group: P B A M
;
_chemical_formula_sum "Si O2"
_cell_formula_units_Z 48
_cell_length_a 20.858634
_cell_length_b 14.386064
_cell_length_c 7.517193
_cell_angle_alpha 90.000000
_cell_angle_beta 90.000000
_cell_angle_gamma 90.000000
_cell_volume 2255.711494
_symmetry_space_group_name_H-M "P B A M"
_symmetry_group_IT_number 55
_symmetry_cell_setting 'orthorhombic'
loop_
_space_group_symop_operation_xyz
x,y,z
-x,-y,z
1/2+x,1/2-y,-z
1/2-x,1/2+y,-z
-x,-y,-z
x,y,-z
1/2-x,1/2+y,z
1/2+x,1/2-y,z
loop_
_atom_site_type_symbol
_atom_site_label
_atom_site_fract_x
_atom_site_fract_y
_atom_site_fract_z
Si Si1 0.065175 0.044906 0.710428
Si Si2 0.933494 0.547353 0.217727
Si Si3 0.676638 0.911823 0.202149
Si Si4 0.609010 0.250694 0.785290
Si Si5 0.243218 0.766038 0.216049
Si Si6 0.701141 0.525687 0.290892
O O1 0.065181 0.024571 0.500000
O O2 0.072170 0.155771 0.732341
O O3 0.130940 0.999642 0.780872
O O4 0.000000 0.000000 0.784297
O O5 0.875780 0.481033 0.281166
O O6 0.922492 0.653653 0.275522
O O7 0.000000 0.500000 0.269981
O O8 0.931546 0.550016 0.000000
O O9 0.694710 0.812917 0.283697
O O10 0.743682 0.966308 0.198794
O O11 0.654596 0.893544 0.000000
O O12 0.683481 0.252285 0.724876
O O13 0.610138 0.249326 0.000000
O O14 0.219188 0.867119 0.268847
O O15 0.244238 0.761523 0.000000
O O16 0.703460 0.501567 0.500000
#
# Coordination Sequence:
#
# PCOD9426145 Si02
#       6
#     8   8   8   8   8   8
#     4  10  23  41  57  78 114 155 188 230 287 337
#     4   9  18  33  54  81 112 142 175 220 277 334
#     4  10  19  35  57  80 109 143 181 229 277 323
#     4  10  19  34  59  86 109 142 186 231 278 334
#     4  10  20  34  57  86 113 144 184 232 284 329
#     4  11  22  35  56  83 110 145 189 231 275 333
#
# _framework density 21.279319000000001
#
# number of rings (size 3 to 8) (size 9 to 14) (size 15 to 20)
#    0.000    2.000    3.333    0.500    0.000    3.667 
#    0.000    1.667    0.000    2.000    0.000    0.000 
#    0.000    0.000    0.000    0.000    0.000    0.000 
#
# Total GULP energy -268068.399498 kJ/mol
# GULP energy per Si atom -5584.758323 kJ/mol
# Density = 2.123089 g / cm^3
# Si number density = 21.279319 Si / 1000 Ang^3
#
#
#
# Elastic Constant Matrix: (Units=GPa)
#
#
# Indices 1 2 3 4 5 6 
#
# 1 115.8078 23.3224 -1.8112 0.0000 0.0000 0.0000
# 2 23.3224 95.1072 -18.2671 0.0000 0.0000 0.0000
# 3 -1.8112 -18.2671 56.7210 0.0000 0.0000 0.0000
# 4 0.0000 0.0000 0.0000 36.3103 0.0000 0.0000
# 5 0.0000 0.0000 0.0000 0.0000 10.1726 0.0000
# 6 0.0000 0.0000 0.0000 0.0000 0.0000 35.7997
#
#
#
# Elastic Compliance Matrix: (Units=1/GPa)
#
#
# Indices 1 2 3 4 5 6 
#
# 1 0.009095 -0.002318 -0.000456 0.000000 0.000000 0.000000
# 2 -0.002318 0.011798 0.003726 0.000000 0.000000 0.000000
# 3 -0.000456 0.003726 0.018815 0.000000 0.000000 0.000000
# 4 0.000000 0.000000 0.000000 0.027540 0.000000 0.000000
# 5 0.000000 0.000000 0.000000 0.000000 0.098303 0.000000
# 6 0.000000 0.000000 0.000000 0.000000 0.000000 0.027933
#
#
# Mechanical properties :
#
#
# Convention : Reuss Voigt Hill
#
# Bulk Modulus (GPa) = 24.03140 30.45825 27.24483
# Shear Modulus (GPa) = 24.33658 34.08266 29.20962
#
# Velocity S-wave (km/s) = 3.38549 4.00644 3.70898
# Velocity P-wave (km/s) = 5.15751 5.97886 5.58331
#
# Compressibility (1/GPa) = 0.04161222
#
# Stress axis : x y z
#
# Youngs Moduli (GPa) = 109.95487 84.75712 53.14776
#
# Poissons Ratio (x) = 0.19645 0.02424
# Poissons Ratio (y) = 0.25485 -0.19801
# Poissons Ratio (z) = 0.05014 -0.31578
#
# Static dielectric constant tensor:
#      x y z
#    x 1.748960 0.000000 0.000000 
#    y 0.000000 1.743140 0.000000 
#    z 0.000000 0.000000 1.789520 
# 
# From -- ./inp_files/5548.got.cif
#   From: 2010.05.17/outbox.cif.g08.bks.cpg/sg55_3_cif.got.tgz:5548.got - 2010.06.03 13:27:54.
