data_PCOD9426253
_publ_section_title
;
Structure prediction by ZEFSAII (Michael W. Deem and Ramdas Pophale) SiO2 
 PCOD9426253
Probable space group: P B A M
;
_chemical_formula_sum "Si O2"
_cell_formula_units_Z 56
_cell_length_a 14.343413
_cell_length_b 19.724572
_cell_length_c 7.828514
_cell_angle_alpha 90.000000
_cell_angle_beta 90.000000
_cell_angle_gamma 90.000000
_cell_volume 2214.825038
_symmetry_space_group_name_H-M "P B A M"
_symmetry_group_IT_number 55
_symmetry_cell_setting 'orthorhombic'
loop_
_space_group_symop_operation_xyz
x,y,z
-x,-y,z
1/2+x,1/2-y,-z
1/2-x,1/2+y,-z
-x,-y,-z
x,y,-z
1/2-x,1/2+y,z
1/2+x,1/2-y,z
loop_
_atom_site_type_symbol
_atom_site_label
_atom_site_fract_x
_atom_site_fract_y
_atom_site_fract_z
Si Si1 0.892703 0.929855 0.302621
Si Si2 0.215745 0.355128 0.201049
Si Si3 0.420819 0.210344 0.299330
Si Si4 0.787031 0.496824 0.298760
Si Si5 0.534962 0.931094 0.194289
Si Si6 0.707210 0.293986 0.800487
Si Si7 0.432612 0.358247 0.707285
O O1 0.907481 0.949308 0.500000
O O2 0.818154 0.983606 0.233642
O O3 0.839144 0.857246 0.294105
O O4 0.994090 0.913665 0.227264
O O5 0.180520 0.425852 0.276242
O O6 0.184330 0.281660 0.269028
O O7 0.327180 0.360410 0.230233
O O8 0.197290 0.355080 0.000000
O O9 0.401041 0.214587 0.500000
O O10 0.479983 0.143068 0.267162
O O11 0.320002 0.203293 0.211110
O O12 0.465729 0.281811 0.246843
O O13 0.789621 0.479860 0.500000
O O14 0.854731 0.446240 0.200847
O O15 0.500000 0.000000 0.283459
O O16 0.500710 0.930517 0.000000
O O17 0.681115 0.298536 0.000000
O O18 0.430456 0.363887 0.500000
#
# Coordination Sequence:
#
# PCOD9426253 Si02
#       7
#     8   8   8   8   8   8   8
#     4  10  21  37  59  88 118 152 199 248 296 352
#     4  10  22  39  58  85 121 158 199 245 298 354
#     4  10  19  35  59  84 111 147 192 239 290 350
#     4  11  23  39  61  87 117 158 201 244 297 355
#     4  11  24  40  59  85 120 157 193 243 301 355
#     4  10  20  35  58  83 111 152 195 242 297 353
#     4   9  20  38  59  85 117 153 195 246 297 346
#
# _framework density 25.284165000000002
#
# number of rings (size 3 to 8) (size 9 to 14) (size 15 to 20)
#    0.000    1.857    1.429    2.143    0.000    6.286 
#    0.000    5.714    0.000    0.000    0.000    0.000 
#    0.000    0.000    0.000    0.000    0.000    0.000 
#
# Total GULP energy -313148.712298 kJ/mol
# GULP energy per Si atom -5591.941291 kJ/mol
# Density = 2.522662 g / cm^3
# Si number density = 25.284165 Si / 1000 Ang^3
#
#
#
# Elastic Constant Matrix: (Units=GPa)
#
#
# Indices 1 2 3 4 5 6 
#
# 1 62.0887 10.5702 -7.9748 0.0000 0.0000 0.0000
# 2 10.5702 149.7439 2.3149 0.0000 0.0000 0.0000
# 3 -7.9748 2.3149 46.1044 0.0000 0.0000 0.0000
# 4 0.0000 0.0000 0.0000 0.8116 0.0000 0.0000
# 5 0.0000 0.0000 0.0000 0.0000 13.3818 0.0000
# 6 0.0000 0.0000 0.0000 0.0000 0.0000 46.0719
#
#
#
# Elastic Compliance Matrix: (Units=1/GPa)
#
#
# Indices 1 2 3 4 5 6 
#
# 1 0.016693 -0.001224 0.002949 0.000000 0.000000 0.000000
# 2 -0.001224 0.006773 -0.000552 0.000000 0.000000 0.000000
# 3 0.002949 -0.000552 0.022228 0.000000 0.000000 0.000000
# 4 0.000000 0.000000 0.000000 1.232125 0.000000 0.000000
# 5 0.000000 0.000000 0.000000 0.000000 0.074729 0.000000
# 6 0.000000 0.000000 0.000000 0.000000 0.000000 0.021705
#
#
# Mechanical properties :
#
#
# Convention : Reuss Voigt Hill
#
# Bulk Modulus (GPa) = 20.81588 29.75085 25.28336
# Shear Modulus (GPa) = 3.60251 28.92150 16.26201
#
# Velocity S-wave (km/s) = 1.19495 3.38577 2.53883
# Velocity P-wave (km/s) = 3.18662 5.20353 4.31458
#
# Compressibility (1/GPa) = 0.04804024
#
# Stress axis : x y z
#
# Youngs Moduli (GPa) = 59.90489 147.64523 44.98891
#
# Poissons Ratio (x) = 0.18071 -0.13267
# Poissons Ratio (y) = 0.07332 0.02482
# Poissons Ratio (z) = -0.17666 0.08147
#
# Static dielectric constant tensor:
#      x y z
#    x 2.072840 0.000000 0.000000 
#    y 0.000000 2.014920 0.000000 
#    z 0.000000 0.000000 1.910040 
# 
# From -- ./inp_files/6141.got.cif
#   From: 2010.05.17/outbox.cif.g08.bks.cpg/sg55_4_cif.got.tgz:6141.got - 2010.06.03 13:27:54.
