data_PCOD9426169
_publ_section_title
;
Structure prediction by ZEFSAII (Michael W. Deem and Ramdas Pophale) SiO2 
 PCOD9426169
Probable space group: P B A M
;
_chemical_formula_sum "Si O2"
_cell_formula_units_Z 56
_cell_length_a 22.072963
_cell_length_b 15.048675
_cell_length_c 8.521663
_cell_angle_alpha 90.000000
_cell_angle_beta 90.000000
_cell_angle_gamma 90.000000
_cell_volume 2830.630969
_symmetry_space_group_name_H-M "P B A M"
_symmetry_group_IT_number 55
_symmetry_cell_setting 'orthorhombic'
loop_
_space_group_symop_operation_xyz
x,y,z
-x,-y,z
1/2+x,1/2-y,-z
1/2-x,1/2+y,-z
-x,-y,-z
x,y,-z
1/2-x,1/2+y,z
1/2+x,1/2-y,z
loop_
_atom_site_type_symbol
_atom_site_label
_atom_site_fract_x
_atom_site_fract_y
_atom_site_fract_z
Si Si1 0.575390 0.588801 0.809223
Si Si2 0.302847 0.916150 0.312253
Si Si3 0.808597 0.198426 0.809937
Si Si4 0.063852 0.110532 0.810576
Si Si5 0.474353 0.095928 0.810785
Si Si6 0.665682 0.894200 0.189637
Si Si7 0.915288 0.703356 0.312919
O O1 0.627358 0.655939 0.757730
O O2 0.507030 0.612412 0.760510
O O3 0.588240 0.486532 0.763155
O O4 0.574455 0.590269 0.000000
O O5 0.303258 0.916369 0.500000
O O6 0.245586 0.861351 0.252155
O O7 0.363654 0.864991 0.256093
O O8 0.303856 0.016849 0.252422
O O9 0.804833 0.301158 0.760421
O O10 0.807829 0.196445 0.000000
O O11 0.096454 0.196568 0.743381
O O12 0.065585 0.115003 0.000000
O O13 0.404980 0.106622 0.760196
O O14 0.520089 0.170350 0.750467
O O15 0.500000 0.000000 0.759855
O O16 0.475179 0.098819 0.000000
O O17 0.666560 0.897560 0.000000
O O18 0.916222 0.701120 0.500000
#
# Coordination Sequence:
#
# PCOD9426169 Si02
#       7
#     8   8   8   8   8   8   8
#     4   8  16  34  59  87 112 139 180 233 287 333
#     4  11  25  41  55  77 115 157 193 230 275 336
#     4  10  21  38  61  85 112 146 192 242 283 332
#     4   9  17  33  60  86 112 144 180 227 283 340
#     4  10  19  34  61  90 114 143 182 234 290 346
#     4  10  21  39  63  90 115 144 188 241 292 342
#     4  11  23  36  52  80 118 154 187 229 281 337
#
# _framework density 19.783574000000002
#
# number of rings (size 3 to 8) (size 9 to 14) (size 15 to 20)
#    0.000    2.143    1.429    2.571    0.000    6.571 
#    0.000    8.571    0.000    0.000    0.000    0.000 
#    0.000    0.000    0.000    0.000    0.000    0.000 
#
# Total GULP energy -312741.900863 kJ/mol
# GULP energy per Si atom -5584.676801 kJ/mol
# Density = 1.973855 g / cm^3
# Si number density = 19.783574 Si / 1000 Ang^3
#
#
#
# Elastic Constant Matrix: (Units=GPa)
#
#
# Indices 1 2 3 4 5 6 
#
# 1 67.7371 55.9251 14.7713 0.0000 0.0000 0.0000
# 2 55.9251 181.3243 25.0695 0.0000 0.0000 0.0000
# 3 14.7713 25.0695 8.6941 0.0000 0.0000 0.0000
# 4 0.0000 0.0000 0.0000 -14.1569 0.0000 0.0000
# 5 0.0000 0.0000 0.0000 0.0000 2.3509 0.0000
# 6 0.0000 0.0000 0.0000 0.0000 0.0000 27.1260
#
#
#
# Elastic Compliance Matrix: (Units=1/GPa)
#
#
# Indices 1 2 3 4 5 6 
#
# 1 0.024384 -0.002981 -0.032832 0.000000 0.000000 0.000000
# 2 -0.002981 0.009536 -0.022431 0.000000 0.000000 0.000000
# 3 -0.032832 -0.022431 0.235483 0.000000 0.000000 0.000000
# 4 0.000000 0.000000 0.000000 -0.070637 0.000000 0.000000
# 5 0.000000 0.000000 0.000000 0.000000 0.425368 0.000000
# 6 0.000000 0.000000 0.000000 0.000000 0.000000 0.036865
#
#
# Mechanical properties :
#
#
# Convention : Reuss Voigt Hill
#
# Bulk Modulus (GPa) = 6.53961 49.92083 28.23022
# Shear Modulus (GPa) = 6.03530 13.86330 9.94930
#
# Velocity S-wave (km/s) = 1.74851 2.65004 2.24499
# Velocity P-wave (km/s) = 2.71830 5.88658 4.58481
#
# Compressibility (1/GPa) = 0.15291423
#
# Stress axis : x y z
#
# Youngs Moduli (GPa) = 41.01036 104.86783 4.24659
#
# Poissons Ratio (x) = 0.31266 0.13942
# Poissons Ratio (y) = 0.12227 0.09526
# Poissons Ratio (z) = 1.34645 2.35231
#
# Static dielectric constant tensor:
#      x y z
#    x 1.683240 0.000000 0.000000 
#    y 0.000000 1.698350 0.000000 
#    z 0.000000 0.000000 1.675690 
# 
# From -- ./inp_files/6161.got.cif
#   From: 2010.05.17/outbox.cif.g08.bks.cpg/sg55_4_cif.got.tgz:6161.got - 2010.06.03 13:27:54.
