data_PCOD9426752
_publ_section_title
;
Structure prediction by ZEFSAII (Michael W. Deem and Ramdas Pophale) SiO2 
 PCOD9426752
Probable space group: P B A M
;
_chemical_formula_sum "Si O2"
_cell_formula_units_Z 48
_cell_length_a 24.168805
_cell_length_b 9.602924
_cell_length_c 9.201560
_cell_angle_alpha 90.000000
_cell_angle_beta 90.000000
_cell_angle_gamma 90.000000
_cell_volume 2135.601080
_symmetry_space_group_name_H-M "P B A M"
_symmetry_group_IT_number 55
_symmetry_cell_setting 'orthorhombic'
loop_
_space_group_symop_operation_xyz
x,y,z
-x,-y,z
1/2+x,1/2-y,-z
1/2-x,1/2+y,-z
-x,-y,-z
x,y,-z
1/2-x,1/2+y,z
1/2+x,1/2-y,z
loop_
_atom_site_type_symbol
_atom_site_label
_atom_site_fract_x
_atom_site_fract_y
_atom_site_fract_z
Si Si1 0.525298 0.788972 0.675258
Si Si2 0.640477 0.284001 0.165188
Si Si3 0.699208 0.699015 0.332561
Si Si4 0.256815 0.051186 0.832064
Si Si5 0.083995 0.970555 0.332667
Si Si6 0.589734 0.051550 0.673330
O O1 0.531463 0.782956 0.500000
O O2 0.536828 0.632916 0.726027
O O3 0.465848 0.856493 0.700324
O O4 0.571440 0.899437 0.726529
O O5 0.700427 0.355632 0.167063
O O6 0.600377 0.395410 0.242048
O O7 0.637140 0.137576 0.247918
O O8 0.623453 0.261681 0.000000
O O9 0.716888 0.717250 0.500000
O O10 0.738339 0.588572 0.249952
O O11 0.701400 0.847733 0.253057
O O12 0.638836 0.627717 0.333778
O O13 0.272480 0.023988 0.000000
O O14 0.072360 0.012884 0.500000
O O15 0.599750 0.046106 0.500000
#
# Coordination Sequence:
#
# PCOD9426752 Si02
#       6
#     8   8   8   8   8   8
#     4   8  16  32  53  76 100 129 168 208 252 305
#     4  10  21  35  50  73 104 136 170 206 247 299
#     4  10  20  34  54  79 103 130 172 222 259 295
#     4  10  21  37  54  73 104 142 172 205 258 318
#     4   9  18  34  54  75 100 131 167 208 252 298
#     4   9  17  32  54  76 100 132 168 209 253 299
#
# _framework density 22.476106999999999
#
# number of rings (size 3 to 8) (size 9 to 14) (size 15 to 20)
#    0.000    2.667    0.000    2.500    0.000    4.667 
#    0.000    8.333    0.000    0.000    0.000    0.000 
#    0.000    0.000    0.000    0.000    0.000    0.000 
#
# Total GULP energy -268301.528090 kJ/mol
# GULP energy per Si atom -5589.615169 kJ/mol
# Density = 2.242495 g / cm^3
# Si number density = 22.476107 Si / 1000 Ang^3
#
#
#
# Elastic Constant Matrix: (Units=GPa)
#
#
# Indices 1 2 3 4 5 6 
#
# 1 46.5266 10.2711 9.2516 0.0000 0.0000 0.0000
# 2 10.2711 119.2471 34.1796 0.0000 0.0000 0.0000
# 3 9.2516 34.1796 92.3530 0.0000 0.0000 0.0000
# 4 0.0000 0.0000 0.0000 143.9921 0.0000 0.0000
# 5 0.0000 0.0000 0.0000 0.0000 -2.2033 0.0000
# 6 0.0000 0.0000 0.0000 0.0000 0.0000 49.7404
#
#
#
# Elastic Compliance Matrix: (Units=1/GPa)
#
#
# Indices 1 2 3 4 5 6 
#
# 1 0.022143 -0.001422 -0.001692 0.000000 0.000000 0.000000
# 2 -0.001422 0.009472 -0.003363 0.000000 0.000000 0.000000
# 3 -0.001692 -0.003363 0.012242 0.000000 0.000000 0.000000
# 4 0.000000 0.000000 0.000000 0.006945 0.000000 0.000000
# 5 0.000000 0.000000 0.000000 0.000000 -0.453868 0.000000
# 6 0.000000 0.000000 0.000000 0.000000 0.000000 0.020104
#
#
# Mechanical properties :
#
#
# Convention : Reuss Voigt Hill
#
# Bulk Modulus (GPa) = 32.35901 40.61459 36.48680
# Shear Modulus (GPa) = -13.90030 51.93413 19.01692
#
# Velocity S-wave (km/s) = -2.48956 4.81212 2.91193
# Velocity P-wave (km/s) = 2.48283 6.99891 5.25115
#
# Compressibility (1/GPa) = 0.03090329
#
# Stress axis : x y z
#
# Youngs Moduli (GPa) = 45.15999 105.56915 81.68446
#
# Poissons Ratio (x) = 0.15016 0.13820
# Poissons Ratio (y) = 0.06423 0.27473
# Poissons Ratio (z) = 0.07640 0.35506
#
# Static dielectric constant tensor:
#      x y z
#    x 1.942010 0.000000 0.000000 
#    y 0.000000 1.817570 0.000000 
#    z 0.000000 0.000000 1.761830 
# 
# From -- ./inp_files/2756.got.cif
#   From: 2010.05.17/outbox.cif.g08.bks.cpg/sg55_2_cif.got.tgz:2756.got - 2010.06.03 13:27:54.
