data_PCOD9426771
_publ_section_title
;
Structure prediction by ZEFSAII (Michael W. Deem and Ramdas Pophale) SiO2 
 PCOD9426771
Probable space group: P B A M
;
_chemical_formula_sum "Si O2"
_cell_formula_units_Z 64
_cell_length_a 20.185591
_cell_length_b 18.933998
_cell_length_c 7.520800
_cell_angle_alpha 90.000000
_cell_angle_beta 90.000000
_cell_angle_gamma 90.000000
_cell_volume 2874.404181
_symmetry_space_group_name_H-M "P B A M"
_symmetry_group_IT_number 55
_symmetry_cell_setting 'orthorhombic'
loop_
_space_group_symop_operation_xyz
x,y,z
-x,-y,z
1/2+x,1/2-y,-z
1/2-x,1/2+y,-z
-x,-y,-z
x,y,-z
1/2-x,1/2+y,z
1/2+x,1/2-y,z
loop_
_atom_site_type_symbol
_atom_site_label
_atom_site_fract_x
_atom_site_fract_y
_atom_site_fract_z
Si Si1 0.284198 0.131312 0.216387
Si Si2 0.184175 0.469182 0.707825
Si Si3 0.118703 0.753892 0.212664
Si Si4 0.472393 0.774923 0.781303
Si Si5 0.962014 0.566058 0.202615
Si Si6 0.318719 0.404058 0.712382
Si Si7 0.574123 0.481828 0.284486
Si Si8 0.362088 0.668663 0.208732
O O1 0.341132 0.185352 0.276757
O O2 0.212047 0.157714 0.280430
O O3 0.297581 0.051571 0.275380
O O4 0.283694 0.130389 0.000000
O O5 0.174689 0.452373 0.500000
O O6 0.115228 0.452252 0.799709
O O7 0.246124 0.424460 0.780342
O O8 0.158459 0.824888 0.252925
O O9 0.042849 0.757442 0.275628
O O10 0.115321 0.747226 0.000000
O O11 0.470848 0.856031 0.720855
O O12 0.409413 0.729988 0.717936
O O13 0.470077 0.773838 0.000000
O O14 0.000000 0.500000 0.287876
O O15 0.988346 0.571664 0.000000
O O16 0.315659 0.414159 0.500000
O O17 0.373758 0.459278 0.779000
O O18 0.500000 0.500000 0.224195
O O19 0.573787 0.482503 0.500000
O O20 0.599012 0.405083 0.227423
O O21 0.353348 0.683971 0.000000
#
# Coordination Sequence:
#
# PCOD9426771 Si02
#       8
#     8   8   8   8   8   8   8   8
#     4  10  21  37  58  84 112 149 196 239 289 349
#     4  11  23  39  59  85 119 156 194 240 289 346
#     4  10  21  37  60  86 113 147 191 237 288 348
#     4   9  19  36  57  85 118 147 185 241 296 344
#     4  10  21  39  65  90 117 154 195 243 298 350
#     4  10  22  38  54  82 119 152 190 235 286 340
#     4  10  20  36  57  79 110 151 189 227 276 338
#     4  10  20  34  54  81 111 145 187 237 285 336
#
# _framework density 22.265485000000002
#
# number of rings (size 3 to 8) (size 9 to 14) (size 15 to 20)
#    0.000    2.000    1.250    1.875    1.750    4.500 
#    0.000    1.250    0.000    0.000    0.000    0.000 
#    0.000    0.000    0.000    0.000    0.000    0.000 
#
# Total GULP energy -357768.946608 kJ/mol
# GULP energy per Si atom -5590.139791 kJ/mol
# Density = 2.221481 g / cm^3
# Si number density = 22.265485 Si / 1000 Ang^3
#
#
#
# Elastic Constant Matrix: (Units=GPa)
#
#
# Indices 1 2 3 4 5 6 
#
# 1 90.8841 17.2907 -7.0490 0.0000 0.0000 0.0000
# 2 17.2907 105.0737 -15.8923 0.0000 0.0000 0.0000
# 3 -7.0490 -15.8923 58.3404 0.0000 0.0000 0.0000
# 4 0.0000 0.0000 0.0000 15.3080 0.0000 0.0000
# 5 0.0000 0.0000 0.0000 0.0000 -1.7918 0.0000
# 6 0.0000 0.0000 0.0000 0.0000 0.0000 44.0028
#
#
#
# Elastic Compliance Matrix: (Units=1/GPa)
#
#
# Indices 1 2 3 4 5 6 
#
# 1 0.011404 -0.001740 0.000904 0.000000 0.000000 0.000000
# 2 -0.001740 0.010192 0.002566 0.000000 0.000000 0.000000
# 3 0.000904 0.002566 0.017949 0.000000 0.000000 0.000000
# 4 0.000000 0.000000 0.000000 0.065325 0.000000 0.000000
# 5 0.000000 0.000000 0.000000 0.000000 -0.558107 0.000000
# 6 0.000000 0.000000 0.000000 0.000000 0.000000 0.022726
#
#
# Mechanical properties :
#
#
# Convention : Reuss Voigt Hill
#
# Bulk Modulus (GPa) = 23.25322 26.99966 25.12644
# Shear Modulus (GPa) = -11.91508 28.83373 8.45932
#
# Velocity S-wave (km/s) = -2.31581 3.60251 1.95129
# Velocity P-wave (km/s) = 1.82089 5.42740 4.04798
#
# Compressibility (1/GPa) = 0.04300480
#
# Stress axis : x y z
#
# Youngs Moduli (GPa) = 87.68733 98.12039 55.71340
#
# Poissons Ratio (x) = 0.17072 -0.05036
# Poissons Ratio (y) = 0.15257 -0.14296
# Poissons Ratio (z) = -0.07926 -0.25178
#
# Static dielectric constant tensor:
#      x y z
#    x 1.799320 0.000000 0.000000 
#    y 0.000000 1.768090 0.000000 
#    z 0.000000 0.000000 1.822650 
# 
# From -- ./inp_files/9029.got.cif
#   From: 2010.05.17/outbox.cif.g08.bks.cpg/sg55_5_cif.got.tgz:9029.got - 2010.06.03 13:27:54.
