data_PCOD9426198
_publ_section_title
;
Structure prediction by ZEFSAII (Michael W. Deem and Ramdas Pophale) SiO2 
 PCOD9426198
Probable space group: P B A M
;
_chemical_formula_sum "Si O2"
_cell_formula_units_Z 60
_cell_length_a 21.335758
_cell_length_b 9.184055
_cell_length_c 13.688344
_cell_angle_alpha 90.000000
_cell_angle_beta 90.000000
_cell_angle_gamma 90.000000
_cell_volume 2682.214238
_symmetry_space_group_name_H-M "P B A M"
_symmetry_group_IT_number 55
_symmetry_cell_setting 'orthorhombic'
loop_
_space_group_symop_operation_xyz
x,y,z
-x,-y,z
1/2+x,1/2-y,-z
1/2-x,1/2+y,-z
-x,-y,-z
x,y,-z
1/2-x,1/2+y,z
1/2+x,1/2-y,z
loop_
_atom_site_type_symbol
_atom_site_label
_atom_site_fract_x
_atom_site_fract_y
_atom_site_fract_z
Si Si1 0.920107 0.531726 0.500000
Si Si2 0.665470 0.903881 0.677019
Si Si3 0.244849 0.339306 0.384545
Si Si4 0.015902 0.343552 0.693498
Si Si5 0.795846 0.796734 0.894661
Si Si6 0.937911 0.101038 0.610434
Si Si7 0.333107 0.041458 0.891449
Si Si8 0.135342 0.153267 0.704956
O O1 0.878130 0.455058 0.412348
O O2 0.961330 0.618792 0.583796
O O3 0.726121 0.011371 0.667454
O O4 0.637240 0.929128 0.784917
O O5 0.696170 0.746978 0.658446
O O6 0.252807 0.361157 0.500000
O O7 0.181764 0.243556 0.365490
O O8 0.074566 0.251549 0.732922
O O9 0.000000 0.500000 0.739738
O O10 0.957075 0.235131 0.679375
O O11 0.805928 0.623289 0.885937
O O12 0.829563 0.873056 0.805483
O O13 0.723845 0.843612 0.892516
O O14 0.821643 0.842464 0.000000
O O15 0.923480 0.149294 0.500000
O O16 0.886866 0.990974 0.651452
O O17 0.000000 0.000000 0.605548
O O18 0.364525 0.052465 0.000000
#
# Coordination Sequence:
#
# PCOD9426198 Si02
#       8
#     4   8   8   8   8   8   8   8
#     4  12  21  36  57  78 121 156 189 239 297 353
#     4  12  21  36  56  82 119 166 198 228 291 359
#     4  12  21  36  51  83 124 162 190 233 287 363
#     4  11  22  39  60  81 113 154 203 252 299 352
#     4  10  20  36  61  87 117 158 200 242 296 350
#     4   9  19  34  56  82 109 150 199 243 289 347
#     4  10  19  35  56  85 119 160 207 246 280 344
#     4  11  20  37  59  82 118 155 196 245 299 352
#
# _framework density 22.369579000000002
#
# number of rings (size 3 to 8) (size 9 to 14) (size 15 to 20)
#    0.000    1.200    6.000    0.600    0.933    0.000 
#    2.400    1.333    0.000    4.000    0.000    0.000 
#    0.000    1.600    0.000    0.000    0.000    0.000 
#
# Total GULP energy -334475.592250 kJ/mol
# GULP energy per Si atom -5574.593204 kJ/mol
# Density = 2.231867 g / cm^3
# Si number density = 22.369579 Si / 1000 Ang^3
#
#
#
# Elastic Constant Matrix: (Units=GPa)
#
#
# Indices 1 2 3 4 5 6 
#
# 1 42.4936 34.2341 20.2010 0.0000 0.0000 0.0000
# 2 34.2341 103.1368 12.3283 0.0000 0.0000 0.0000
# 3 20.2010 12.3283 157.8800 0.0000 0.0000 0.0000
# 4 0.0000 0.0000 0.0000 -22.8895 0.0000 0.0000
# 5 0.0000 0.0000 0.0000 0.0000 23.8841 0.0000
# 6 0.0000 0.0000 0.0000 0.0000 0.0000 46.4964
#
#
#
# Elastic Compliance Matrix: (Units=1/GPa)
#
#
# Indices 1 2 3 4 5 6 
#
# 1 0.033931 -0.010845 -0.003495 0.000000 0.000000 0.000000
# 2 -0.010845 0.013253 0.000353 0.000000 0.000000 0.000000
# 3 -0.003495 0.000353 0.006754 0.000000 0.000000 0.000000
# 4 0.000000 0.000000 0.000000 -0.043688 0.000000 0.000000
# 5 0.000000 0.000000 0.000000 0.000000 0.041869 0.000000
# 6 0.000000 0.000000 0.000000 0.000000 0.000000 0.021507
#
#
# Mechanical properties :
#
#
# Convention : Reuss Voigt Hill
#
# Bulk Modulus (GPa) = 38.51442 48.55969 43.53706
# Shear Modulus (GPa) = 45.34935 25.28134 35.31535
#
# Velocity S-wave (km/s) = 4.50741 3.36544 3.97762
# Velocity P-wave (km/s) = 6.65911 6.07097 6.37183
#
# Compressibility (1/GPa) = 0.02596430
#
# Stress axis : x y z
#
# Youngs Moduli (GPa) = 29.47118 75.45182 148.07059
#
# Poissons Ratio (x) = 0.81828 0.51747
# Poissons Ratio (y) = 0.31962 -0.05223
# Poissons Ratio (z) = 0.10299 -0.02661
#
# Static dielectric constant tensor:
#      x y z
#    x 1.921340 0.000000 0.000000 
#    y 0.000000 1.916820 0.000000 
#    z 0.000000 0.000000 1.809850 
# 
# From -- ./inp_files/20093.got.cif
#   From: 2010.05.17/outbox.cif.g08.bks.cpg/sg55_11_cif.got.tgz:20093.got - 2010.06.03 13:27:54.
