data_PCOD9426649
_publ_section_title
;
Structure prediction by ZEFSAII (Michael W. Deem and Ramdas Pophale) SiO2 
 PCOD9426649
Probable space group: P B A M
;
_chemical_formula_sum "Si O2"
_cell_formula_units_Z 56
_cell_length_a 10.864765
_cell_length_b 23.636922
_cell_length_c 11.967305
_cell_angle_alpha 90.000000
_cell_angle_beta 90.000000
_cell_angle_gamma 90.000000
_cell_volume 3073.318844
_symmetry_space_group_name_H-M "P B A M"
_symmetry_group_IT_number 55
_symmetry_cell_setting 'orthorhombic'
loop_
_space_group_symop_operation_xyz
x,y,z
-x,-y,z
1/2+x,1/2-y,-z
1/2-x,1/2+y,-z
-x,-y,-z
x,y,-z
1/2-x,1/2+y,z
1/2+x,1/2-y,z
loop_
_atom_site_type_symbol
_atom_site_label
_atom_site_fract_x
_atom_site_fract_y
_atom_site_fract_z
Si Si1 0.167437 0.818336 0.742423
Si Si2 0.683794 0.481444 0.868624
Si Si3 0.219071 0.684865 0.258499
Si Si4 0.198795 0.406054 0.132353
Si Si5 0.940121 0.871276 0.133158
Si Si6 0.579287 0.901791 0.872197
Si Si7 0.097967 0.801771 0.500000
Si Si8 0.803406 0.798446 0.500000
O O1 0.187004 0.751037 0.748696
O O2 0.284375 0.851550 0.790159
O O3 0.126792 0.832816 0.616094
O O4 0.060071 0.841257 0.821365
O O5 0.710374 0.544257 0.826182
O O6 0.585498 0.435762 0.824769
O O7 0.813729 0.448096 0.860585
O O8 0.656447 0.489300 0.000000
O O9 0.326323 0.666758 0.173801
O O10 0.105539 0.646642 0.218553
O O11 0.270087 0.671595 0.382941
O O12 0.057553 0.425548 0.138777
O O13 0.223166 0.394300 0.000000
O O14 0.942324 0.874049 0.000000
O O15 0.589574 0.879026 0.000000
O O16 0.203136 0.752674 0.500000
O O17 0.951367 0.784484 0.500000
#
# Coordination Sequence:
#
# PCOD9426649 Si02
#       8
#     8   8   8   8   8   8   4   4
#     4  11  23  35  53  80 110 145 187 223 285 330
#     4   8  16  33  54  78 108 147 188 223 266 332
#     4  10  21  35  54  79 108 143 185 222 278 334
#     4  10  20  33  54  83 113 145 185 231 279 331
#     4  10  20  34  54  79 112 145 177 218 276 336
#     4   9  18  33  55  83 113 147 181 228 283 332
#     4  10  22  40  60  78 109 150 197 250 271 330
#     4  10  20  38  62  79 104 152 199 237 276 324
#
# _framework density 18.221344999999999
#
# number of rings (size 3 to 8) (size 9 to 14) (size 15 to 20)
#    0.000    2.286    1.429    2.143    2.000    5.714 
#    0.000    2.143    0.000    5.143    0.000    5.000 
#    0.000    0.000    0.000    0.000    0.000    0.000 
#
# Total GULP energy -311806.182625 kJ/mol
# GULP energy per Si atom -5567.967547 kJ/mol
# Density = 1.817987 g / cm^3
# Si number density = 18.221345 Si / 1000 Ang^3
#
#
#
# Elastic Constant Matrix: (Units=GPa)
#
#
# Indices 1 2 3 4 5 6 
#
# 1 78.6149 1.3612 17.1181 0.0000 0.0000 0.0000
# 2 1.3612 62.5458 18.3754 0.0000 0.0000 0.0000
# 3 17.1181 18.3754 80.6094 0.0000 0.0000 0.0000
# 4 0.0000 0.0000 0.0000 53.7710 0.0000 0.0000
# 5 0.0000 0.0000 0.0000 0.0000 17.1394 0.0000
# 6 0.0000 0.0000 0.0000 0.0000 0.0000 14.5272
#
#
#
# Elastic Compliance Matrix: (Units=1/GPa)
#
#
# Indices 1 2 3 4 5 6 
#
# 1 0.013357 0.000582 -0.002969 0.000000 0.000000 0.000000
# 2 0.000582 0.017161 -0.004035 0.000000 0.000000 0.000000
# 3 -0.002969 -0.004035 0.013956 0.000000 0.000000 0.000000
# 4 0.000000 0.000000 0.000000 0.018597 0.000000 0.000000
# 5 0.000000 0.000000 0.000000 0.000000 0.058345 0.000000
# 6 0.000000 0.000000 0.000000 0.000000 0.000000 0.068837
#
#
# Mechanical properties :
#
#
# Convention : Reuss Voigt Hill
#
# Bulk Modulus (GPa) = 31.61757 32.83103 32.22430
# Shear Modulus (GPa) = 23.40371 29.41521 26.40946
#
# Velocity S-wave (km/s) = 3.58776 4.02223 3.81119
# Velocity P-wave (km/s) = 5.87812 6.29509 6.09017
#
# Compressibility (1/GPa) = 0.03162799
#
# Stress axis : x y z
#
# Youngs Moduli (GPa) = 74.86913 58.27091 71.65430
#
# Poissons Ratio (x) = -0.03389 0.21274
# Poissons Ratio (y) = -0.04354 0.28916
# Poissons Ratio (z) = 0.22228 0.23515
#
# Static dielectric constant tensor:
#      x y z
#    x 1.701260 0.000000 0.000000 
#    y 0.000000 1.643370 0.000000 
#    z 0.000000 0.000000 1.616670 
# 
# From -- ./inp_files/13545.got.cif
#   From: 2010.05.17/outbox.cif.g08.bks.cpg/sg55_7_cif.got.tgz:13545.got - 2010.06.03 13:27:54.
