data_PCOD9426843
_publ_section_title
;
Structure prediction by ZEFSAII (Michael W. Deem and Ramdas Pophale) SiO2 
 PCOD9426843
Probable space group: P B A M
;
_chemical_formula_sum "Si O2"
_cell_formula_units_Z 64
_cell_length_a 11.506073
_cell_length_b 33.642311
_cell_length_c 7.531971
_cell_angle_alpha 90.000000
_cell_angle_beta 90.000000
_cell_angle_gamma 90.000000
_cell_volume 2915.557330
_symmetry_space_group_name_H-M "P B A M"
_symmetry_group_IT_number 55
_symmetry_cell_setting 'orthorhombic'
loop_
_space_group_symop_operation_xyz
x,y,z
-x,-y,z
1/2+x,1/2-y,-z
1/2-x,1/2+y,-z
-x,-y,-z
x,y,-z
1/2-x,1/2+y,z
1/2+x,1/2-y,z
loop_
_atom_site_type_symbol
_atom_site_label
_atom_site_fract_x
_atom_site_fract_y
_atom_site_fract_z
Si Si1 0.745279 0.687887 0.782285
Si Si2 0.394459 0.884709 0.796415
Si Si3 0.883864 0.524799 0.217586
Si Si4 0.715614 0.276090 0.787867
Si Si5 0.869736 0.993618 0.200921
Si Si6 0.845946 0.904801 0.293619
Si Si7 0.987401 0.833235 0.214306
Si Si8 0.637232 0.847917 0.711830
O O1 0.813906 0.649447 0.715324
O O2 0.785480 0.731256 0.720110
O O3 0.612014 0.682308 0.733794
O O4 0.754113 0.688121 0.000000
O O5 0.396693 0.929315 0.723224
O O6 0.521183 0.865186 0.793287
O O7 0.354978 0.889883 0.000000
O O8 0.754447 0.509807 0.274728
O O9 0.000000 0.500000 0.273408
O O10 0.884494 0.522598 0.000000
O O11 0.611316 0.303300 0.717190
O O12 0.830875 0.302364 0.754805
O O13 0.702309 0.273676 0.000000
O O14 0.854168 0.946259 0.197156
O O15 0.877447 0.010269 0.000000
O O16 0.000000 0.000000 0.282166
O O17 0.824209 0.913570 0.500000
O O18 0.959718 0.877599 0.276952
O O19 0.743035 0.876151 0.226375
O O20 0.981861 0.833935 0.000000
O O21 0.628947 0.851225 0.500000
#
# Coordination Sequence:
#
# PCOD9426843 Si02
#       8
#     8   8   8   8   8   8   8   8
#     4   9  19  32  54  84 109 136 179 231 278 325
#     4  10  20  34  57  83 111 144 180 228 282 329
#     4   9  18  33  54  83 114 143 179 225 280 337
#     4   9  18  33  55  81 106 139 181 226 275 326
#     4  10  21  35  58  87 112 141 183 233 280 333
#     4  10  21  37  56  78 109 147 186 224 268 326
#     4   9  18  33  55  80 108 139 177 226 274 325
#     4  10  21  37  55  79 110 146 187 227 266 321
#
# _framework density 21.951205999999999
#
# number of rings (size 3 to 8) (size 9 to 14) (size 15 to 20)
#    0.000    2.500    0.000    1.500    3.500    2.750 
#    0.000    2.500    0.000    2.250    0.000    0.000 
#    0.000    0.000    0.000    0.000    0.000    0.000 
#
# Total GULP energy -357032.484637 kJ/mol
# GULP energy per Si atom -5578.632572 kJ/mol
# Density = 2.190124 g / cm^3
# Si number density = 21.951206 Si / 1000 Ang^3
#
#
#
# Elastic Constant Matrix: (Units=GPa)
#
#
# Indices 1 2 3 4 5 6 
#
# 1 132.7804 81.0893 0.5076 0.0000 0.0000 0.0000
# 2 81.0893 190.0830 1.5927 0.0000 0.0000 0.0000
# 3 0.5076 1.5927 56.7223 0.0000 0.0000 0.0000
# 4 0.0000 0.0000 0.0000 -82.2338 0.0000 0.0000
# 5 0.0000 0.0000 0.0000 0.0000 -44.5203 0.0000
# 6 0.0000 0.0000 0.0000 0.0000 0.0000 26.1016
#
#
#
# Elastic Compliance Matrix: (Units=1/GPa)
#
#
# Indices 1 2 3 4 5 6 
#
# 1 0.010185 -0.004345 0.000031 0.000000 0.000000 0.000000
# 2 -0.004345 0.007116 -0.000161 0.000000 0.000000 0.000000
# 3 0.000031 -0.000161 0.017634 0.000000 0.000000 0.000000
# 4 0.000000 0.000000 0.000000 -0.012160 0.000000 0.000000
# 5 0.000000 0.000000 0.000000 0.000000 -0.022462 0.000000
# 6 0.000000 0.000000 0.000000 0.000000 0.000000 0.038312
#
#
# Mechanical properties :
#
#
# Convention : Reuss Voigt Hill
#
# Bulk Modulus (GPa) = 38.48486 60.66279 49.57382
# Shear Modulus (GPa) = 88.91148 -0.37077 44.27035
#
# Velocity S-wave (km/s) = 6.37119 -0.41143 4.49571
# Velocity P-wave (km/s) = 8.46716 5.24114 7.04139
#
# Compressibility (1/GPa) = 0.02598424
#
# Stress axis : x y z
#
# Youngs Moduli (GPa) = 98.18723 140.53256 56.70869
#
# Poissons Ratio (x) = 0.61062 -0.00175
# Poissons Ratio (y) = 0.42662 0.00913
# Poissons Ratio (z) = -0.00303 0.02261
#
# Static dielectric constant tensor:
#      x y z
#    x 1.812120 0.000000 0.000000 
#    y 0.000000 1.768440 0.000000 
#    z 0.000000 0.000000 1.844130 
# 
# From -- ./inp_files/4628.got.cif
#   From: 2010.05.17/outbox.cif.g08.bks.cpg/sg55_3_cif.got.tgz:4628.got - 2010.06.03 13:27:54.
