data_PCOD9426679
_publ_section_title
;
Structure prediction by ZEFSAII (Michael W. Deem and Ramdas Pophale) SiO2 
 PCOD9426679
Probable space group: P B A M
;
_chemical_formula_sum "Si O2"
_cell_formula_units_Z 36
_cell_length_a 27.627017
_cell_length_b 5.194924
_cell_length_c 13.275396
_cell_angle_alpha 90.000000
_cell_angle_beta 90.000000
_cell_angle_gamma 90.000000
_cell_volume 1905.288201
_symmetry_space_group_name_H-M "P B A M"
_symmetry_group_IT_number 55
_symmetry_cell_setting 'orthorhombic'
loop_
_space_group_symop_operation_xyz
x,y,z
-x,-y,z
1/2+x,1/2-y,-z
1/2-x,1/2+y,-z
-x,-y,-z
x,y,-z
1/2-x,1/2+y,z
1/2+x,1/2-y,z
loop_
_atom_site_type_symbol
_atom_site_label
_atom_site_fract_x
_atom_site_fract_y
_atom_site_fract_z
Si Si1 0.054532 0.619810 0.615379
Si Si2 0.500000 0.500000 0.725813
Si Si3 0.567465 0.375423 0.885178
Si Si4 0.218214 0.740326 0.118092
Si Si5 0.116609 0.600927 0.806499
O O1 0.069376 0.596063 0.500000
O O2 0.094744 0.539061 0.696048
O O3 0.000000 0.500000 0.624373
O O4 0.042155 0.908613 0.651848
O O5 0.524608 0.308443 0.806613
O O6 0.587038 0.657106 0.853611
O O7 0.607683 0.156793 0.870540
O O8 0.551360 0.376598 0.000000
O O9 0.241800 0.018903 0.133769
O O10 0.172136 0.683183 0.187145
O O11 0.202647 0.725199 0.000000
#
# Coordination Sequence:
#
# PCOD9426679 Si02
#       5
#     8   4   8   8   8
#     4  10  20  37  57  79 110 149 192 234 274 322
#     4  10  20  34  50  80 110 152 188 228 266 332
#     4  11  21  33  52  78 116 151 181 222 271 332
#     4  10  20  35  57  81 108 143 181 224 277 335
#     4  11  22  37  56  84 112 147 190 229 277 330
#
# _framework density 18.894779
#
# number of rings (size 3 to 8) (size 9 to 14) (size 15 to 20)
#    0.000    1.556    2.222    4.000    0.000    1.778 
#    0.000    3.333    0.000    1.333    0.000    0.000 
#    0.000    0.000    0.000    0.000    0.000    0.000 
#
# Total GULP energy -200659.799530 kJ/mol
# GULP energy per Si atom -5573.883320 kJ/mol
# Density = 1.885177 g / cm^3
# Si number density = 18.894779 Si / 1000 Ang^3
#
#
#
# Elastic Constant Matrix: (Units=GPa)
#
#
# Indices 1 2 3 4 5 6 
#
# 1 58.2609 -14.3901 31.7960 0.0000 0.0000 0.0000
# 2 -14.3901 52.1591 11.4387 0.0000 0.0000 0.0000
# 3 31.7960 11.4387 137.1914 0.0000 0.0000 0.0000
# 4 0.0000 0.0000 0.0000 13.0713 0.0000 0.0000
# 5 0.0000 0.0000 0.0000 0.0000 24.7302 0.0000
# 6 0.0000 0.0000 0.0000 0.0000 0.0000 22.2706
#
#
#
# Elastic Compliance Matrix: (Units=1/GPa)
#
#
# Indices 1 2 3 4 5 6 
#
# 1 0.022114 0.007360 -0.005739 0.000000 0.000000 0.000000
# 2 0.007360 0.021978 -0.003538 0.000000 0.000000 0.000000
# 3 -0.005739 -0.003538 0.008914 0.000000 0.000000 0.000000
# 4 0.000000 0.000000 0.000000 0.076504 0.000000 0.000000
# 5 0.000000 0.000000 0.000000 0.000000 0.040436 0.000000
# 6 0.000000 0.000000 0.000000 0.000000 0.000000 0.044902
#
#
# Mechanical properties :
#
#
# Convention : Reuss Voigt Hill
#
# Bulk Modulus (GPa) = 20.33695 33.92229 27.12962
# Shear Modulus (GPa) = 21.26988 26.59887 23.93438
#
# Velocity S-wave (km/s) = 3.35879 3.75605 3.56296
# Velocity P-wave (km/s) = 5.08218 6.06653 5.59604
#
# Compressibility (1/GPa) = 0.04917158
#
# Stress axis : x y z
#
# Youngs Moduli (GPa) = 45.22039 45.49907 112.18127
#
# Poissons Ratio (x) = -0.33485 0.64379
# Poissons Ratio (y) = -0.33280 0.39692
# Poissons Ratio (z) = 0.25951 0.16098
#
# Static dielectric constant tensor:
#      x y z
#    x 1.693880 0.000000 0.000000 
#    y 0.000000 1.786290 0.000000 
#    z 0.000000 0.000000 1.634880 
# 
# From -- ./inp_files/11319.got.cif
#   From: 2010.05.17/outbox.cif.g08.bks.cpg/sg55_6_cif.got.tgz:11319.got - 2010.06.03 13:27:54.
