data_PCOD9426117
_publ_section_title
;
Structure prediction by ZEFSAII (Michael W. Deem and Ramdas Pophale) SiO2 
 PCOD9426117
Probable space group: P B A M
;
_chemical_formula_sum "Si O2"
_cell_formula_units_Z 56
_cell_length_a 21.812254
_cell_length_b 15.050731
_cell_length_c 8.205906
_cell_angle_alpha 90.000000
_cell_angle_beta 90.000000
_cell_angle_gamma 90.000000
_cell_volume 2693.919896
_symmetry_space_group_name_H-M "P B A M"
_symmetry_group_IT_number 55
_symmetry_cell_setting 'orthorhombic'
loop_
_space_group_symop_operation_xyz
x,y,z
-x,-y,z
1/2+x,1/2-y,-z
1/2-x,1/2+y,-z
-x,-y,-z
x,y,-z
1/2-x,1/2+y,z
1/2+x,1/2-y,z
loop_
_atom_site_type_symbol
_atom_site_label
_atom_site_fract_x
_atom_site_fract_y
_atom_site_fract_z
Si Si1 0.895329 0.238181 0.802983
Si Si2 0.656844 0.167938 0.802578
Si Si3 0.524895 0.224102 0.188932
Si Si4 0.737640 0.802793 0.690544
Si Si5 0.268443 0.998029 0.190714
Si Si6 0.368947 0.455527 0.190611
Si Si7 0.457723 0.583686 0.688995
O O1 0.828922 0.274462 0.758324
O O2 0.897622 0.135806 0.744608
O O3 0.956032 0.290102 0.742908
O O4 0.898740 0.235111 0.000000
O O5 0.587937 0.185628 0.739162
O O6 0.705658 0.245764 0.762058
O O7 0.682045 0.072294 0.745467
O O8 0.654667 0.165102 0.000000
O O9 0.533512 0.330384 0.202333
O O10 0.523206 0.196290 0.000000
O O11 0.738103 0.784990 0.500000
O O12 0.740683 0.907929 0.724164
O O13 0.203837 0.946869 0.197987
O O14 0.281712 0.017114 0.000000
O O15 0.390785 0.541564 0.287202
O O16 0.385659 0.467699 0.000000
O O17 0.500000 0.500000 0.736674
O O18 0.468754 0.605968 0.500000
#
# Coordination Sequence:
#
# PCOD9426117 Si02
#       7
#     8   8   8   8   8   8   8
#     4  10  20  38  61  86 115 152 198 245 293 346
#     4  10  21  41  65  91 119 154 200 250 301 351
#     4  10  21  37  61  87 115 152 198 249 298 351
#     4  12  25  39  60  90 122 159 199 243 299 359
#     4  10  21  39  62  85 113 151 198 248 294 348
#     4  10  19  34  58  82 107 148 195 242 292 343
#     4  11  22  32  47  78 120 157 186 227 288 358
#
# _framework density 20.787552000000002
#
# number of rings (size 3 to 8) (size 9 to 14) (size 15 to 20)
#    0.000    1.571    2.857    2.571    0.000    6.857 
#    0.000    0.714    0.000    4.286    0.000    0.000 
#    0.000    0.000    0.000    0.000    0.000    0.000 
#
# Total GULP energy -312486.528320 kJ/mol
# GULP energy per Si atom -5580.116577 kJ/mol
# Density = 2.074024 g / cm^3
# Si number density = 20.787552 Si / 1000 Ang^3
#
#
#
# Elastic Constant Matrix: (Units=GPa)
#
#
# Indices 1 2 3 4 5 6 
#
# 1 103.2376 10.6076 10.7591 0.0000 0.0000 0.0000
# 2 10.6076 41.7135 -7.3902 0.0000 0.0000 0.0000
# 3 10.7591 -7.3902 16.6891 0.0000 0.0000 0.0000
# 4 0.0000 0.0000 0.0000 -22.7704 0.0000 0.0000
# 5 0.0000 0.0000 0.0000 0.0000 -23.3496 0.0000
# 6 0.0000 0.0000 0.0000 0.0000 0.0000 34.8062
#
#
#
# Elastic Compliance Matrix: (Units=1/GPa)
#
#
# Indices 1 2 3 4 5 6 
#
# 1 0.011092 -0.004436 -0.009115 0.000000 0.000000 0.000000
# 2 -0.004436 0.027788 0.015164 0.000000 0.000000 0.000000
# 3 -0.009115 0.015164 0.072511 0.000000 0.000000 0.000000
# 4 0.000000 0.000000 0.000000 -0.043917 0.000000 0.000000
# 5 0.000000 0.000000 0.000000 0.000000 -0.042827 0.000000
# 6 0.000000 0.000000 0.000000 0.000000 0.000000 0.028731
#
#
# Mechanical properties :
#
#
# Convention : Reuss Voigt Hill
#
# Bulk Modulus (GPa) = 8.72463 21.06590 14.89527
# Shear Modulus (GPa) = 56.58974 7.58149 32.08561
#
# Velocity S-wave (km/s) = 5.22322 1.91182 3.93300
# Velocity P-wave (km/s) = 6.37041 3.87676 5.27311
#
# Compressibility (1/GPa) = 0.11461798
#
# Stress axis : x y z
#
# Youngs Moduli (GPa) = 90.15453 35.98729 13.79107
#
# Poissons Ratio (x) = 0.15962 0.12570
# Poissons Ratio (y) = 0.39988 -0.20913
# Poissons Ratio (z) = 0.82175 -0.54572
#
# Static dielectric constant tensor:
#      x y z
#    x 1.840270 0.000000 0.000000 
#    y 0.000000 1.729610 0.000000 
#    z 0.000000 0.000000 1.736950 
# 
# From -- ./inp_files/6190.got.cif
#   From: 2010.05.17/outbox.cif.g08.bks.cpg/sg55_4_cif.got.tgz:6190.got - 2010.06.03 13:27:54.
