data_PCOD9426772
_publ_section_title
;
Structure prediction by ZEFSAII (Michael W. Deem and Ramdas Pophale) SiO2 
 PCOD9426772
Probable space group: P B A M
;
_chemical_formula_sum "Si O2"
_cell_formula_units_Z 40
_cell_length_a 21.594251
_cell_length_b 10.691372
_cell_length_c 7.409126
_cell_angle_alpha 90.000000
_cell_angle_beta 90.000000
_cell_angle_gamma 90.000000
_cell_volume 1710.561001
_symmetry_space_group_name_H-M "P B A M"
_symmetry_group_IT_number 55
_symmetry_cell_setting 'orthorhombic'
loop_
_space_group_symop_operation_xyz
x,y,z
-x,-y,z
1/2+x,1/2-y,-z
1/2-x,1/2+y,-z
-x,-y,-z
x,y,-z
1/2-x,1/2+y,z
1/2+x,1/2-y,z
loop_
_atom_site_type_symbol
_atom_site_label
_atom_site_fract_x
_atom_site_fract_y
_atom_site_fract_z
Si Si1 0.065899 0.462109 0.208890
Si Si2 0.276724 0.306147 0.207906
Si Si3 0.301718 0.037832 0.222822
Si Si4 0.545798 0.319548 0.717856
Si Si5 0.589201 0.590613 0.281802
O O1 0.127365 0.525252 0.284160
O O2 0.071585 0.312081 0.216584
O O3 0.000000 0.500000 0.291782
O O4 0.063717 0.501827 0.000000
O O5 0.272320 0.167634 0.285793
O O6 0.236179 0.417631 0.286211
O O7 0.348443 0.347121 0.213630
O O8 0.256954 0.295955 0.000000
O O9 0.301395 0.039333 0.000000
O O10 0.546757 0.316877 0.500000
O O11 0.474000 0.339083 0.773639
O O12 0.581804 0.445260 0.774291
O O13 0.590879 0.592784 0.500000
#
# Coordination Sequence:
#
# PCOD9426772 Si02
#       5
#     8   8   8   8   8
#     4  10  20  34  54  81 112 141 181 232 275 320
#     4  10  20  36  57  79 107 145 184 220 267 327
#     4   9  20  35  54  81 112 143 178 224 275 320
#     4   9  19  35  55  79 108 143 180 221 274 327
#     4   9  19  36  55  78 110 142 176 225 275 320
#
# _framework density 23.384142000000001
#
# number of rings (size 3 to 8) (size 9 to 14) (size 15 to 20)
#    0.000    2.600    0.000    2.400    2.800    3.600 
#    0.000    5.000    0.000    0.000    0.000    0.000 
#    0.000    0.000    0.000    0.000    0.000    0.000 
#
# Total GULP energy -223604.058697 kJ/mol
# GULP energy per Si atom -5590.101467 kJ/mol
# Density = 2.333092 g / cm^3
# Si number density = 23.384142 Si / 1000 Ang^3
#
#
#
# Elastic Constant Matrix: (Units=GPa)
#
#
# Indices 1 2 3 4 5 6 
#
# 1 74.5999 66.8383 2.3708 0.0000 0.0000 0.0000
# 2 66.8383 160.0160 1.8912 0.0000 0.0000 0.0000
# 3 2.3708 1.8912 80.2107 0.0000 0.0000 0.0000
# 4 0.0000 0.0000 0.0000 70.4365 0.0000 0.0000
# 5 0.0000 0.0000 0.0000 0.0000 203.3032 0.0000
# 6 0.0000 0.0000 0.0000 0.0000 0.0000 33.3852
#
#
#
# Elastic Compliance Matrix: (Units=1/GPa)
#
#
# Indices 1 2 3 4 5 6 
#
# 1 0.021436 -0.008949 -0.000423 0.000000 0.000000 0.000000
# 2 -0.008949 0.009987 0.000029 0.000000 0.000000 0.000000
# 3 -0.000423 0.000029 0.012479 0.000000 0.000000 0.000000
# 4 0.000000 0.000000 0.000000 0.014197 0.000000 0.000000
# 5 0.000000 0.000000 0.000000 0.000000 0.004919 0.000000
# 6 0.000000 0.000000 0.000000 0.000000 0.000000 0.029953
#
#
# Mechanical properties :
#
#
# Convention : Reuss Voigt Hill
#
# Bulk Modulus (GPa) = 39.65550 50.78083 45.21817
# Shear Modulus (GPa) = 41.64530 77.67340 59.65935
#
# Velocity S-wave (km/s) = 4.22467 5.76961 5.05649
# Velocity P-wave (km/s) = 6.38688 8.13312 7.31231
#
# Compressibility (1/GPa) = 0.02521718
#
# Stress axis : x y z
#
# Youngs Moduli (GPa) = 46.65058 100.13114 80.13483
#
# Poissons Ratio (x) = 0.89605 0.03387
# Poissons Ratio (y) = 0.41746 -0.00233
# Poissons Ratio (z) = 0.01971 -0.00291
#
# Static dielectric constant tensor:
#      x y z
#    x 1.845560 0.000000 0.000000 
#    y 0.000000 1.967260 0.000000 
#    z 0.000000 0.000000 1.879940 
# 
# From -- ./inp_files/2339.got.cif
#   From: 2010.05.17/outbox.cif.g08.bks.cpg/sg55_2_cif.got.tgz:2339.got - 2010.06.03 13:27:54.
