data_PCOD9426012
_publ_section_title
;
Structure prediction by ZEFSAII (Michael W. Deem and Ramdas Pophale) SiO2 
 PCOD9426012
Probable space group: P B A M
;
_chemical_formula_sum "Si O2"
_cell_formula_units_Z 56
_cell_length_a 7.931166
_cell_length_b 14.378528
_cell_length_c 22.082796
_cell_angle_alpha 90.000000
_cell_angle_beta 90.000000
_cell_angle_gamma 90.000000
_cell_volume 2518.288764
_symmetry_space_group_name_H-M "P B A M"
_symmetry_group_IT_number 55
_symmetry_cell_setting 'orthorhombic'
loop_
_space_group_symop_operation_xyz
x,y,z
-x,-y,z
1/2+x,1/2-y,-z
1/2-x,1/2+y,-z
-x,-y,-z
x,y,-z
1/2-x,1/2+y,z
1/2+x,1/2-y,z
loop_
_atom_site_type_symbol
_atom_site_label
_atom_site_fract_x
_atom_site_fract_y
_atom_site_fract_z
Si Si1 0.337930 0.895420 0.130026
Si Si2 0.681478 0.446845 0.207448
Si Si3 0.815272 0.954498 0.654154
Si Si4 0.225483 0.460080 0.000000
Si Si5 0.414546 0.647434 0.000000
Si Si6 0.699575 0.803618 0.568749
Si Si7 0.019921 0.212013 0.868671
Si Si8 0.670596 0.106915 0.568860
O O1 0.305236 0.986007 0.170226
O O2 0.362236 0.928434 0.061321
O O3 0.475099 0.819754 0.149518
O O4 0.162892 0.835931 0.132558
O O5 0.500000 0.500000 0.207832
O O6 0.737420 0.437660 0.276705
O O7 0.638206 0.351002 0.173827
O O8 0.700169 0.027427 0.617522
O O9 0.808808 0.858968 0.617186
O O10 0.000000 0.000000 0.653902
O O11 0.269833 0.569282 0.000000
O O12 0.408181 0.408538 0.000000
O O13 0.412703 0.704658 0.062043
O O14 0.763662 0.818252 0.500000
O O15 0.513046 0.846343 0.572341
O O16 0.703777 0.693393 0.578732
O O17 0.692805 0.070140 0.500000
#
# Coordination Sequence:
#
# PCOD9426012 Si02
#       8
#     8   8   8   4   4   8   8   8
#     4  10  19  34  55  78 104 136 178 222 268 319
#     4   9  20  37  54  74 105 146 185 218 256 319
#     4  11  22  36  56  82 113 150 189 226 272 326
#     4   9  15  28  55  80  99 134 177 217 264 322
#     4   9  15  28  55  80  99 134 177 217 264 322
#     4  10  21  38  60  86 114 144 181 227 277 327
#     4  10  19  34  55  78 104 136 178 222 268 319
#     4  10  21  38  60  86 114 144 181 227 277 327
#
# _framework density 22.237323
#
# number of rings (size 3 to 8) (size 9 to 14) (size 15 to 20)
#    0.000    2.143    1.429    2.143    0.000    4.571 
#    0.000    6.429    0.000    0.857    0.000    0.000 
#    0.000    0.000    0.000    0.000    0.000    0.000 
#
# Total GULP energy -313272.602960 kJ/mol
# GULP energy per Si atom -5594.153624 kJ/mol
# Density = 2.218671 g / cm^3
# Si number density = 22.237323 Si / 1000 Ang^3
#
#
#
# Elastic Constant Matrix: (Units=GPa)
#
#
# Indices 1 2 3 4 5 6 
#
# 1 65.8823 19.7722 25.2562 0.0000 0.0000 0.0000
# 2 19.7722 81.2129 39.7218 0.0000 0.0000 0.0000
# 3 25.2562 39.7218 142.3904 0.0000 0.0000 0.0000
# 4 0.0000 0.0000 0.0000 12.8768 0.0000 0.0000
# 5 0.0000 0.0000 0.0000 0.0000 17.1335 0.0000
# 6 0.0000 0.0000 0.0000 0.0000 0.0000 41.3967
#
#
#
# Elastic Compliance Matrix: (Units=1/GPa)
#
#
# Indices 1 2 3 4 5 6 
#
# 1 0.016922 -0.003071 -0.002145 0.000000 0.000000 0.000000
# 2 -0.003071 0.014816 -0.003588 0.000000 0.000000 0.000000
# 3 -0.002145 -0.003588 0.008404 0.000000 0.000000 0.000000
# 4 0.000000 0.000000 0.000000 0.077659 0.000000 0.000000
# 5 0.000000 0.000000 0.000000 0.000000 0.058365 0.000000
# 6 0.000000 0.000000 0.000000 0.000000 0.000000 0.024156
#
#
# Mechanical properties :
#
#
# Convention : Reuss Voigt Hill
#
# Bulk Modulus (GPa) = 44.37640 50.99842 47.68741
# Shear Modulus (GPa) = 22.17847 27.93043 25.05445
#
# Velocity S-wave (km/s) = 3.16152 3.54788 3.36025
# Velocity P-wave (km/s) = 5.77287 6.30609 6.04536
#
# Compressibility (1/GPa) = 0.02253450
#
# Stress axis : x y z
#
# Youngs Moduli (GPa) = 59.09307 67.49417 118.98453
#
# Poissons Ratio (x) = 0.20726 0.25521
# Poissons Ratio (y) = 0.18147 0.42697
# Poissons Ratio (z) = 0.12675 0.24220
#
# Static dielectric constant tensor:
#      x y z
#    x 1.877600 0.000000 0.000000 
#    y 0.000000 1.794810 0.000000 
#    z 0.000000 0.000000 1.768710 
# 
# From -- ./inp_files/22645.got.cif
#   From: 2010.05.17/outbox.cif.g08.bks.cpg/sg55_12_cif.got.tgz:22645.got - 2010.06.03 13:27:54.
