data_PCOD9426593
_publ_section_title
;
Structure prediction by ZEFSAII (Michael W. Deem and Ramdas Pophale) SiO2 
 PCOD9426593
Probable space group: P B A M
;
_chemical_formula_sum "Si O2"
_cell_formula_units_Z 40
_cell_length_a 13.887821
_cell_length_b 18.706025
_cell_length_c 7.750236
_cell_angle_alpha 90.000000
_cell_angle_beta 90.000000
_cell_angle_gamma 90.000000
_cell_volume 2013.402242
_symmetry_space_group_name_H-M "P B A M"
_symmetry_group_IT_number 55
_symmetry_cell_setting 'orthorhombic'
loop_
_space_group_symop_operation_xyz
x,y,z
-x,-y,z
1/2+x,1/2-y,-z
1/2-x,1/2+y,-z
-x,-y,-z
x,y,-z
1/2-x,1/2+y,z
1/2+x,1/2-y,z
loop_
_atom_site_type_symbol
_atom_site_label
_atom_site_fract_x
_atom_site_fract_y
_atom_site_fract_z
Si Si1 0.816313 0.683480 0.706177
Si Si2 0.911855 0.827102 0.297439
Si Si3 0.300758 0.532515 0.204600
Si Si4 0.116037 0.881755 0.290606
Si Si5 0.100135 0.466684 0.791346
O O1 0.805587 0.691656 0.500000
O O2 0.861632 0.756394 0.777016
O O3 0.710243 0.661473 0.771980
O O4 0.884150 0.615395 0.739594
O O5 0.928013 0.812239 0.500000
O O6 0.843386 0.895727 0.282802
O O7 0.016252 0.848844 0.225212
O O8 0.368537 0.464154 0.239394
O O9 0.194628 0.509966 0.269667
O O10 0.294871 0.543258 0.000000
O O11 0.115362 0.880586 0.500000
O O12 0.000000 0.500000 0.729939
O O13 0.100719 0.469364 0.000000
#
# Coordination Sequence:
#
# PCOD9426593 Si02
#       5
#     8   8   8   8   8
#     4   9  19  34  51  74 101 129 165 204 241 289
#     4  10  20  33  51  75 102 131 162 201 249 293
#     4  10  20  33  51  75  99 127 167 206 240 289
#     4   9  18  34  52  70  99 134 162 197 247 293
#     4   9  19  36  54  72  99 133 165 201 247 294
#
# _framework density 19.866868
#
# number of rings (size 3 to 8) (size 9 to 14) (size 15 to 20)
#    0.000    2.600    0.000    1.200    0.000    6.800 
#    0.000    2.000    0.000    0.000    0.000    0.000 
#    0.000    0.000    0.000    0.000    0.000    0.000 
#
# Total GULP energy -223217.027993 kJ/mol
# GULP energy per Si atom -5580.425700 kJ/mol
# Density = 1.982165 g / cm^3
# Si number density = 19.866868 Si / 1000 Ang^3
#
#
#
# Elastic Constant Matrix: (Units=GPa)
#
#
# Indices 1 2 3 4 5 6 
#
# 1 110.0374 93.6746 -11.0101 0.0000 0.0000 0.0000
# 2 93.6746 149.3019 -20.9789 0.0000 0.0000 0.0000
# 3 -11.0101 -20.9789 21.8963 0.0000 0.0000 0.0000
# 4 0.0000 0.0000 0.0000 51.4920 0.0000 0.0000
# 5 0.0000 0.0000 0.0000 0.0000 16.7147 0.0000
# 6 0.0000 0.0000 0.0000 0.0000 0.0000 23.7135
#
#
#
# Elastic Compliance Matrix: (Units=1/GPa)
#
#
# Indices 1 2 3 4 5 6 
#
# 1 0.019600 -0.012610 -0.002226 0.000000 0.000000 0.000000
# 2 -0.012610 0.015853 0.008848 0.000000 0.000000 0.000000
# 3 -0.002226 0.008848 0.053028 0.000000 0.000000 0.000000
# 4 0.000000 0.000000 0.000000 0.019421 0.000000 0.000000
# 5 0.000000 0.000000 0.000000 0.000000 0.059827 0.000000
# 6 0.000000 0.000000 0.000000 0.000000 0.000000 0.042170
#
#
# Mechanical properties :
#
#
# Convention : Reuss Voigt Hill
#
# Bulk Modulus (GPa) = 13.07133 44.95631 29.01382
# Shear Modulus (GPa) = 20.21200 33.02069 26.61635
#
# Velocity S-wave (km/s) = 3.19309 4.08131 3.66421
# Velocity P-wave (km/s) = 4.49312 6.69980 5.70419
#
# Compressibility (1/GPa) = 0.07650332
#
# Stress axis : x y z
#
# Youngs Moduli (GPa) = 51.01987 63.07932 18.85807
#
# Poissons Ratio (x) = 0.79545 0.04199
# Poissons Ratio (y) = 0.64338 -0.16686
# Poissons Ratio (z) = 0.11360 -0.55813
#
# Static dielectric constant tensor:
#      x y z
#    x 1.713310 0.000000 0.000000 
#    y 0.000000 1.659830 0.000000 
#    z 0.000000 0.000000 1.738690 
# 
# From -- ./inp_files/3604.got.cif
#   From: 2010.05.17/outbox.cif.g08.bks.cpg/sg55_2_cif.got.tgz:3604.got - 2010.06.03 13:27:54.
