data_PCOD9426753
_publ_section_title
;
Structure prediction by ZEFSAII (Michael W. Deem and Ramdas Pophale) SiO2 
 PCOD9426753
Probable space group: P B A M
;
_chemical_formula_sum "Si O2"
_cell_formula_units_Z 40
_cell_length_a 18.364351
_cell_length_b 14.127492
_cell_length_c 8.405231
_cell_angle_alpha 90.000000
_cell_angle_beta 90.000000
_cell_angle_gamma 90.000000
_cell_volume 2180.671806
_symmetry_space_group_name_H-M "P B A M"
_symmetry_group_IT_number 55
_symmetry_cell_setting 'orthorhombic'
loop_
_space_group_symop_operation_xyz
x,y,z
-x,-y,z
1/2+x,1/2-y,-z
1/2-x,1/2+y,-z
-x,-y,-z
x,y,-z
1/2-x,1/2+y,z
1/2+x,1/2-y,z
loop_
_atom_site_type_symbol
_atom_site_label
_atom_site_fract_x
_atom_site_fract_y
_atom_site_fract_z
Si Si1 0.472189 0.897980 0.307833
Si Si2 0.315073 0.822971 0.690271
Si Si3 0.870508 0.872191 0.192283
Si Si4 0.971761 0.203195 0.192048
Si Si5 0.832638 0.083184 0.192331
O O1 0.472531 0.898360 0.500000
O O2 0.389664 0.874578 0.254726
O O3 0.521456 0.810594 0.251077
O O4 0.500000 0.000000 0.251956
O O5 0.314060 0.824983 0.500000
O O6 0.322075 0.714558 0.746533
O O7 0.243577 0.873718 0.754066
O O8 0.953849 0.850165 0.242206
O O9 0.844642 0.975184 0.246706
O O10 0.869105 0.870972 0.000000
O O11 0.900165 0.148104 0.247389
O O12 0.971160 0.203906 0.000000
O O13 0.834474 0.082358 0.000000
#
# Coordination Sequence:
#
# PCOD9426753 Si02
#       5
#     8   8   8   8   8
#     4   9  19  36  54  72 100 138 174 209 252 300
#     4  10  21  35  51  75 106 137 171 211 255 303
#     4   9  18  35  56  75 101 135 169 210 257 304
#     4   9  18  33  54  79 102 128 168 213 256 303
#     4  10  20  34  54  79 105 134 169 210 258 308
#
# _framework density 18.342970999999999
#
# number of rings (size 3 to 8) (size 9 to 14) (size 15 to 20)
#    0.000    2.600    0.000    1.200    0.000    6.800 
#    0.000    4.000    0.000    6.000    0.000    0.000 
#    0.000    0.000    0.000    0.000    0.000    0.000 
#
# Total GULP energy -223182.679102 kJ/mol
# GULP energy per Si atom -5579.566978 kJ/mol
# Density = 1.830122 g / cm^3
# Si number density = 18.342971 Si / 1000 Ang^3
#
#
#
# Elastic Constant Matrix: (Units=GPa)
#
#
# Indices 1 2 3 4 5 6 
#
# 1 109.7995 119.9014 16.6101 0.0000 0.0000 0.0000
# 2 119.9014 216.2193 23.9383 0.0000 0.0000 0.0000
# 3 16.6101 23.9383 6.0491 0.0000 0.0000 0.0000
# 4 0.0000 0.0000 0.0000 -2.1400 0.0000 0.0000
# 5 0.0000 0.0000 0.0000 0.0000 17.2087 0.0000
# 6 0.0000 0.0000 0.0000 0.0000 0.0000 23.7244
#
#
#
# Elastic Compliance Matrix: (Units=1/GPa)
#
#
# Indices 1 2 3 4 5 6 
#
# 1 0.024977 -0.011137 -0.024512 0.000000 0.000000 0.000000
# 2 -0.011137 0.013197 -0.021645 0.000000 0.000000 0.000000
# 3 -0.024512 -0.021645 0.318276 0.000000 0.000000 0.000000
# 4 0.000000 0.000000 0.000000 -0.467301 0.000000 0.000000
# 5 0.000000 0.000000 0.000000 0.000000 0.058110 0.000000
# 6 0.000000 0.000000 0.000000 0.000000 0.000000 0.042151
#
#
# Mechanical properties :
#
#
# Convention : Reuss Voigt Hill
#
# Bulk Modulus (GPa) = 4.13456 72.55192 38.34324
# Shear Modulus (GPa) = 27.08295 19.19984 23.14139
#
# Velocity S-wave (km/s) = 3.84666 3.23881 3.55575
# Velocity P-wave (km/s) = 4.68914 7.32293 6.14871
#
# Compressibility (1/GPa) = 0.24186360
#
# Stress axis : x y z
#
# Youngs Moduli (GPa) = 40.03661 75.77402 3.14193
#
# Poissons Ratio (x) = 0.84389 0.07701
# Poissons Ratio (y) = 0.44589 0.06801
# Poissons Ratio (z) = 0.98136 1.64011
#
# Static dielectric constant tensor:
#      x y z
#    x 1.614070 0.000000 0.000000 
#    y 0.000000 1.611770 0.000000 
#    z 0.000000 0.000000 1.633600 
# 
# From -- ./inp_files/3581.got.cif
#   From: 2010.05.17/outbox.cif.g08.bks.cpg/sg55_2_cif.got.tgz:3581.got - 2010.06.03 13:27:54.
