data_PCOD9426656
_publ_section_title
;
Structure prediction by ZEFSAII (Michael W. Deem and Ramdas Pophale) SiO2 
 PCOD9426656
Probable space group: P B A M
;
_chemical_formula_sum "Si O2"
_cell_formula_units_Z 56
_cell_length_a 16.476808
_cell_length_b 21.510413
_cell_length_c 7.743426
_cell_angle_alpha 90.000000
_cell_angle_beta 90.000000
_cell_angle_gamma 90.000000
_cell_volume 2744.447847
_symmetry_space_group_name_H-M "P B A M"
_symmetry_group_IT_number 55
_symmetry_cell_setting 'orthorhombic'
loop_
_space_group_symop_operation_xyz
x,y,z
-x,-y,z
1/2+x,1/2-y,-z
1/2-x,1/2+y,-z
-x,-y,-z
x,y,-z
1/2-x,1/2+y,z
1/2+x,1/2-y,z
loop_
_atom_site_type_symbol
_atom_site_label
_atom_site_fract_x
_atom_site_fract_y
_atom_site_fract_z
Si Si1 0.179904 0.642052 0.196648
Si Si2 0.799650 0.625610 0.206715
Si Si3 0.393830 0.063006 0.500000
Si Si4 0.584173 0.084848 0.500000
Si Si5 0.532492 0.614657 0.298975
Si Si6 0.341103 0.282176 0.791853
Si Si7 0.165844 0.979719 0.802915
Si Si8 0.352736 0.615857 0.304036
O O1 0.149589 0.590759 0.330857
O O2 0.151884 0.710397 0.255106
O O3 0.277495 0.643595 0.202279
O O4 0.153060 0.629997 0.000000
O O5 0.876010 0.616244 0.330657
O O6 0.745241 0.685980 0.252405
O O7 0.738306 0.567649 0.241299
O O8 0.817320 0.626323 0.000000
O O9 0.487017 0.086116 0.500000
O O10 0.393001 0.988458 0.500000
O O11 0.523518 0.597245 0.500000
O O12 0.587902 0.675536 0.283987
O O13 0.583340 0.559866 0.210853
O O14 0.442440 0.625593 0.229306
O O15 0.346853 0.286872 0.000000
O O16 0.160687 0.041565 0.693339
O O17 0.178447 0.999829 0.000000
O O18 0.350009 0.640291 0.500000
#
# Coordination Sequence:
#
# PCOD9426656 Si02
#       8
#     8   8   4   4   8   8   8   8
#     4  11  24  44  66  87 119 164 203 252 311 362
#     4   9  20  38  62  95 123 154 205 253 296 363
#     4  11  26  45  62  91 125 154 209 259 312 375
#     4  11  24  41  66  93 119 164 202 258 319 360
#     4  10  21  34  55  88 122 160 197 242 296 353
#     4   9  21  41  62  87 121 158 202 248 300 361
#     4  10  20  33  55  86 124 164 198 241 298 355
#     4  11  22  36  55  88 123 156 203 246 289 364
#
# _framework density 20.404831999999999
#
# number of rings (size 3 to 8) (size 9 to 14) (size 15 to 20)
#    0.000    1.857    0.714    3.429    6.000    6.286 
#    2.571    1.429    0.000    0.000    0.000    0.000 
#    0.000    0.000    0.000    0.000    0.000    0.000 
#
# Total GULP energy -312876.133861 kJ/mol
# GULP energy per Si atom -5587.073819 kJ/mol
# Density = 2.035839 g / cm^3
# Si number density = 20.404832 Si / 1000 Ang^3
#
#
#
# Elastic Constant Matrix: (Units=GPa)
#
#
# Indices 1 2 3 4 5 6 
#
# 1 78.2656 -2.5096 19.1890 0.0000 0.0000 0.0000
# 2 -2.5096 46.1818 4.8656 0.0000 0.0000 0.0000
# 3 19.1890 4.8656 54.2961 0.0000 0.0000 0.0000
# 4 0.0000 0.0000 0.0000 12.2294 0.0000 0.0000
# 5 0.0000 0.0000 0.0000 0.0000 71.4276 0.0000
# 6 0.0000 0.0000 0.0000 0.0000 0.0000 10.9951
#
#
#
# Elastic Compliance Matrix: (Units=1/GPa)
#
#
# Indices 1 2 3 4 5 6 
#
# 1 0.014066 0.001300 -0.005088 0.000000 0.000000 0.000000
# 2 0.001300 0.021980 -0.002429 0.000000 0.000000 0.000000
# 3 -0.005088 -0.002429 0.020433 0.000000 0.000000 0.000000
# 4 0.000000 0.000000 0.000000 0.081770 0.000000 0.000000
# 5 0.000000 0.000000 0.000000 0.000000 0.014000 0.000000
# 6 0.000000 0.000000 0.000000 0.000000 0.000000 0.090950
#
#
# Mechanical properties :
#
#
# Convention : Reuss Voigt Hill
#
# Bulk Modulus (GPa) = 22.70333 24.64817 23.67575
# Shear Modulus (GPa) = 18.49692 29.41030 23.95361
#
# Velocity S-wave (km/s) = 3.01407 3.80062 3.42997
# Velocity P-wave (km/s) = 4.82322 5.60048 5.22632
#
# Compressibility (1/GPa) = 0.04404640
#
# Stress axis : x y z
#
# Youngs Moduli (GPa) = 71.09292 45.49559 48.93977
#
# Poissons Ratio (x) = -0.05916 0.24899
# Poissons Ratio (y) = -0.09245 0.11889
# Poissons Ratio (z) = 0.36170 0.11052
#
# Static dielectric constant tensor:
#      x y z
#    x 1.724750 0.000000 0.000000 
#    y 0.000000 1.705510 0.000000 
#    z 0.000000 0.000000 1.737350 
# 
# From -- ./inp_files/6275.got.cif
#   From: 2010.05.17/outbox.cif.g08.bks.cpg/sg55_4_cif.got.tgz:6275.got - 2010.06.03 13:27:54.
