data_PCOD9426563
_publ_section_title
;
Structure prediction by ZEFSAII (Michael W. Deem and Ramdas Pophale) SiO2 
 PCOD9426563
Probable space group: P B A M
;
_chemical_formula_sum "Si O2"
_cell_formula_units_Z 64
_cell_length_a 8.860866
_cell_length_b 19.761966
_cell_length_c 18.602022
_cell_angle_alpha 90.000000
_cell_angle_beta 90.000000
_cell_angle_gamma 90.000000
_cell_volume 3257.365335
_symmetry_space_group_name_H-M "P B A M"
_symmetry_group_IT_number 55
_symmetry_cell_setting 'orthorhombic'
loop_
_space_group_symop_operation_xyz
x,y,z
-x,-y,z
1/2+x,1/2-y,-z
1/2-x,1/2+y,-z
-x,-y,-z
x,y,-z
1/2-x,1/2+y,z
1/2+x,1/2-y,z
loop_
_atom_site_type_symbol
_atom_site_label
_atom_site_fract_x
_atom_site_fract_y
_atom_site_fract_z
Si Si1 0.133449 0.447391 0.285475
Si Si2 0.318347 0.490001 0.921299
Si Si3 0.135475 0.349627 0.582483
Si Si4 0.180871 0.182300 0.724348
Si Si5 0.721242 0.148272 0.150631
Si Si6 0.851636 0.959453 0.775357
Si Si7 0.544011 0.766714 0.188262
Si Si8 0.678593 0.774344 0.417783
O O1 0.110392 0.407388 0.359075
O O2 0.176513 0.392466 0.224076
O O3 0.269950 0.499991 0.287308
O O4 0.000000 0.500000 0.266889
O O5 0.500000 0.500000 0.927601
O O6 0.273200 0.412413 0.901907
O O7 0.266189 0.534917 0.852423
O O8 0.255188 0.508125 0.000000
O O9 0.142118 0.374338 0.500000
O O10 0.284343 0.304392 0.597893
O O11 0.993976 0.297830 0.586797
O O12 0.106920 0.113586 0.748951
O O13 0.332470 0.187407 0.772319
O O14 0.228787 0.185607 0.642267
O O15 0.069411 0.240919 0.749554
O O16 0.568647 0.192302 0.135420
O O17 0.858581 0.202593 0.159067
O O18 0.000000 0.000000 0.790331
O O19 0.728845 0.786223 0.500000
#
# Coordination Sequence:
#
# PCOD9426563 Si02
#       8
#     8   8   8   8   8   8   8   8
#     4  11  21  34  53  77 107 145 185 229 277 329
#     4   9  18  35  58  81 108 144 182 218 260 319
#     4  10  21  36  53  76 105 140 183 227 278 334
#     4  11  19  34  55  80 108 138 181 227 275 326
#     4  10  20  35  55  84 111 141 185 229 278 331
#     4  10  21  35  56  81 106 140 181 221 263 321
#     4  10  20  32  56  82 108 140 178 231 281 325
#     4  10  20  33  51  75 103 137 178 226 275 324
#
# _framework density 19.647779
#
# number of rings (size 3 to 8) (size 9 to 14) (size 15 to 20)
#    0.000    1.875    0.000    6.750    0.000    1.250 
#    0.000    1.250    0.000   17.250    0.000    0.000 
#    0.000    0.000    0.000    0.000    0.000    0.000 
#
# Total GULP energy -356461.049728 kJ/mol
# GULP energy per Si atom -5569.703902 kJ/mol
# Density = 1.960306 g / cm^3
# Si number density = 19.647779 Si / 1000 Ang^3
#
#
#
# Elastic Constant Matrix: (Units=GPa)
#
#
# Indices 1 2 3 4 5 6 
#
# 1 52.9692 3.3391 15.2140 0.0000 0.0000 0.0000
# 2 3.3391 62.6800 27.9894 0.0000 0.0000 0.0000
# 3 15.2140 27.9894 56.1761 0.0000 0.0000 0.0000
# 4 0.0000 0.0000 0.0000 12.6993 0.0000 0.0000
# 5 0.0000 0.0000 0.0000 0.0000 626.0405 0.0000
# 6 0.0000 0.0000 0.0000 0.0000 0.0000 43.2945
#
#
#
# Elastic Compliance Matrix: (Units=1/GPa)
#
#
# Indices 1 2 3 4 5 6 
#
# 1 0.020627 0.001795 -0.006481 0.000000 0.000000 0.000000
# 2 0.001795 0.020676 -0.010788 0.000000 0.000000 0.000000
# 3 -0.006481 -0.010788 0.024931 0.000000 0.000000 0.000000
# 4 0.000000 0.000000 0.000000 0.078745 0.000000 0.000000
# 5 0.000000 0.000000 0.000000 0.000000 0.001597 0.000000
# 6 0.000000 0.000000 0.000000 0.000000 0.000000 0.023098
#
#
# Mechanical properties :
#
#
# Convention : Reuss Voigt Hill
#
# Bulk Modulus (GPa) = 28.33880 29.43447 28.88663
# Shear Modulus (GPa) = 23.54239 144.75902 84.15070
#
# Velocity S-wave (km/s) = 3.46529 8.59284 6.55153
# Velocity P-wave (km/s) = 5.51957 10.65190 8.48318
#
# Compressibility (1/GPa) = 0.03528731
#
# Stress axis : x y z
#
# Youngs Moduli (GPa) = 48.47977 48.36620 40.11032
#
# Poissons Ratio (x) = -0.08682 0.25995
# Poissons Ratio (y) = -0.08703 0.43270
# Poissons Ratio (z) = 0.31419 0.52176
#
# Static dielectric constant tensor:
#      x y z
#    x 1.719440 0.000000 0.000000 
#    y 0.000000 1.699310 0.000000 
#    z 0.000000 0.000000 1.698400 
# 
# From -- ./inp_files/21099.got.cif
#   From: 2010.05.17/outbox.cif.g08.bks.cpg/sg55_11_cif.got.tgz:21099.got - 2010.06.03 13:27:54.
