data_PCOD9426447
_publ_section_title
;
Structure prediction by ZEFSAII (Michael W. Deem and Ramdas Pophale) SiO2 
 PCOD9426447
Probable space group: P B A M
;
_chemical_formula_sum "Si O2"
_cell_formula_units_Z 52
_cell_length_a 13.792264
_cell_length_b 5.305810
_cell_length_c 29.969605
_cell_angle_alpha 90.000000
_cell_angle_beta 90.000000
_cell_angle_gamma 90.000000
_cell_volume 2193.149688
_symmetry_space_group_name_H-M "P B A M"
_symmetry_group_IT_number 55
_symmetry_cell_setting 'orthorhombic'
loop_
_space_group_symop_operation_xyz
x,y,z
-x,-y,z
1/2+x,1/2-y,-z
1/2-x,1/2+y,-z
-x,-y,-z
x,y,-z
1/2-x,1/2+y,z
1/2+x,1/2-y,z
loop_
_atom_site_type_symbol
_atom_site_label
_atom_site_fract_x
_atom_site_fract_y
_atom_site_fract_z
Si Si1 0.864671 0.369217 0.369844
Si Si2 0.642476 0.366527 0.405729
Si Si3 0.387946 0.051544 0.179290
Si Si4 0.066933 0.249210 0.500000
Si Si5 0.685317 0.298427 0.950693
Si Si6 0.110994 0.049977 0.858382
Si Si7 0.187170 0.736959 0.728919
O O1 0.752136 0.400132 0.386964
O O2 0.902852 0.142433 0.400156
O O3 0.865309 0.292839 0.318444
O O4 0.905292 0.647849 0.376097
O O5 0.633393 0.268415 0.455965
O O6 0.346476 0.768820 0.173564
O O7 0.376556 0.169713 0.228135
O O8 0.500000 0.000000 0.168789
O O9 0.347495 0.266982 0.146177
O O10 0.000000 0.500000 0.500000
O O11 0.000000 0.000000 0.500000
O O12 0.736638 0.026432 0.948159
O O13 0.617856 0.343450 0.908219
O O14 0.638798 0.317348 0.000000
O O15 0.000000 0.000000 0.845542
O O16 0.230826 0.017492 0.729992
#
# Coordination Sequence:
#
# PCOD9426447 Si02
#       7
#     8   8   8   4   8   8   8
#     4  10  19  37  63  88 109 143 190 248 284 335
#     4  10  20  38  62  84 118 146 188 236 286 330
#     4  10  23  39  56  84 122 159 192 246 305 358
#     4  12  26  42  58  88 126 160 194 232 282 358
#     4  10  21  36  57  85 119 150 193 252 307 359
#     4  10  21  39  58  80 116 159 204 240 291 365
#     4  12  21  37  62  92 119 147 202 253 292 349
#
# _framework density 23.710190000000001
#
# number of rings (size 3 to 8) (size 9 to 14) (size 15 to 20)
#    0.000    1.538    3.077    2.769    0.000    6.462 
#    0.000    2.308    0.000    5.538    0.000    0.000 
#    0.000    0.000    0.000    0.000    0.000    0.000 
#
# Total GULP energy -290479.939349 kJ/mol
# GULP energy per Si atom -5586.152680 kJ/mol
# Density = 2.365622 g / cm^3
# Si number density = 23.710190 Si / 1000 Ang^3
#
#
#
# Elastic Constant Matrix: (Units=GPa)
#
#
# Indices 1 2 3 4 5 6 
#
# 1 43.5893 3.3975 -17.5654 0.0000 0.0000 0.0000
# 2 3.3975 146.8801 9.3989 0.0000 0.0000 0.0000
# 3 -17.5654 9.3989 120.4314 0.0000 0.0000 0.0000
# 4 0.0000 0.0000 0.0000 40.7497 0.0000 0.0000
# 5 0.0000 0.0000 0.0000 0.0000 26.7377 0.0000
# 6 0.0000 0.0000 0.0000 0.0000 0.0000 26.1218
#
#
#
# Elastic Compliance Matrix: (Units=1/GPa)
#
#
# Indices 1 2 3 4 5 6 
#
# 1 0.024467 -0.000798 0.003631 0.000000 0.000000 0.000000
# 2 -0.000798 0.006868 -0.000652 0.000000 0.000000 0.000000
# 3 0.003631 -0.000652 0.008884 0.000000 0.000000 0.000000
# 4 0.000000 0.000000 0.000000 0.024540 0.000000 0.000000
# 5 0.000000 0.000000 0.000000 0.000000 0.037400 0.000000
# 6 0.000000 0.000000 0.000000 0.000000 0.000000 0.038282
#
#
# Mechanical properties :
#
#
# Convention : Reuss Voigt Hill
#
# Bulk Modulus (GPa) = 22.43181 33.48474 27.95827
# Shear Modulus (GPa) = 33.12541 39.76650 36.44595
#
# Velocity S-wave (km/s) = 3.74183 4.09979 3.92489
# Velocity P-wave (km/s) = 5.30563 6.04684 5.68832
#
# Compressibility (1/GPa) = 0.04457955
#
# Stress axis : x y z
#
# Youngs Moduli (GPa) = 40.87168 145.59242 112.56212
#
# Poissons Ratio (x) = 0.11622 -0.40870
# Poissons Ratio (y) = 0.03263 0.07344
# Poissons Ratio (z) = -0.14840 0.09499
#
# Static dielectric constant tensor:
#      x y z
#    x 3.017040 0.000000 0.000000 
#    y 0.000000 1.971090 0.000000 
#    z 0.000000 0.000000 1.868610 
# 
# From -- ./inp_files/23999.got.cif
#   From: 2010.05.17/outbox.cif.g08.bks.cpg/sg55_12_cif.got.tgz:23999.got - 2010.06.03 13:27:54.
