data_PCOD9426071
_publ_section_title
;
Structure prediction by ZEFSAII (Michael W. Deem and Ramdas Pophale) SiO2 
 PCOD9426071
Probable space group: P B A M
;
_chemical_formula_sum "Si O2"
_cell_formula_units_Z 64
_cell_length_a 25.509864
_cell_length_b 15.138331
_cell_length_c 7.452285
_cell_angle_alpha 90.000000
_cell_angle_beta 90.000000
_cell_angle_gamma 90.000000
_cell_volume 2877.899313
_symmetry_space_group_name_H-M "P B A M"
_symmetry_group_IT_number 55
_symmetry_cell_setting 'orthorhombic'
loop_
_space_group_symop_operation_xyz
x,y,z
-x,-y,z
1/2+x,1/2-y,-z
1/2-x,1/2+y,-z
-x,-y,-z
x,y,-z
1/2-x,1/2+y,z
1/2+x,1/2-y,z
loop_
_atom_site_type_symbol
_atom_site_label
_atom_site_fract_x
_atom_site_fract_y
_atom_site_fract_z
Si Si1 0.866720 0.105186 0.712941
Si Si2 0.004779 0.598933 0.790904
Si Si3 0.226306 0.644519 0.281229
Si Si4 0.609541 0.797532 0.717300
Si Si5 0.314491 0.784235 0.282834
Si Si6 0.947671 0.952501 0.216056
Si Si7 0.751948 0.053112 0.280705
Si Si8 0.566193 0.255456 0.208529
O O1 0.861465 0.118395 0.500000
O O2 0.894624 0.194970 0.778686
O O3 0.807819 0.090986 0.781896
O O4 0.899404 0.016545 0.741804
O O5 0.063064 0.639413 0.781506
O O6 0.000000 0.500000 0.713529
O O7 0.966554 0.674137 0.711276
O O8 0.989335 0.590080 0.000000
O O9 0.226202 0.646113 0.500000
O O10 0.167566 0.670870 0.227236
O O11 0.270699 0.713657 0.224100
O O12 0.241594 0.546443 0.222597
O O13 0.607004 0.800200 0.500000
O O14 0.316217 0.781367 0.500000
O O15 0.293886 0.880275 0.227948
O O16 0.372208 0.763307 0.216890
O O17 0.943303 0.852924 0.286496
O O18 0.950134 0.948047 0.000000
O O19 0.000000 0.000000 0.282324
O O20 0.753460 0.052229 0.500000
O O21 0.549851 0.261053 0.000000
#
# Coordination Sequence:
#
# PCOD9426071 Si02
#       8
#     8   8   8   8   8   8   8   8
#     4  10  19  34  56  85 116 142 178 229 276 325
#     4  10  23  42  60  78 107 150 193 233 280 330
#     4   9  17  31  52  81 114 145 177 220 273 324
#     4  10  20  35  57  84 114 144 182 233 279 324
#     4  10  19  34  57  83 110 144 184 219 267 334
#     4  10  21  37  57  79 106 145 186 222 274 337
#     4   9  17  30  51  78 109 144 177 214 267 328
#     4  10  22  39  56  78 112 145 181 235 283 325
#
# _framework density 22.238443
#
# number of rings (size 3 to 8) (size 9 to 14) (size 15 to 20)
#    0.000    2.250    1.250    1.500    1.750    4.000 
#    0.000    1.250    0.000    1.500    0.000    0.000 
#    0.000    0.000    0.000    0.000    0.000    0.000 
#
# Total GULP energy -357635.578234 kJ/mol
# GULP energy per Si atom -5588.055910 kJ/mol
# Density = 2.218783 g / cm^3
# Si number density = 22.238443 Si / 1000 Ang^3
#
#
#
# Elastic Constant Matrix: (Units=GPa)
#
#
# Indices 1 2 3 4 5 6 
#
# 1 106.6449 46.3112 -15.2324 0.0000 0.0000 0.0000
# 2 46.3112 165.3245 1.8158 0.0000 0.0000 0.0000
# 3 -15.2324 1.8158 61.0711 0.0000 0.0000 0.0000
# 4 0.0000 0.0000 0.0000 49.6614 0.0000 0.0000
# 5 0.0000 0.0000 0.0000 0.0000 22.7944 0.0000
# 6 0.0000 0.0000 0.0000 0.0000 0.0000 41.3670
#
#
#
# Elastic Compliance Matrix: (Units=1/GPa)
#
#
# Indices 1 2 3 4 5 6 
#
# 1 0.011159 -0.003158 0.002877 0.000000 0.000000 0.000000
# 2 -0.003158 0.006944 -0.000994 0.000000 0.000000 0.000000
# 3 0.002877 -0.000994 0.017122 0.000000 0.000000 0.000000
# 4 0.000000 0.000000 0.000000 0.020136 0.000000 0.000000
# 5 0.000000 0.000000 0.000000 0.000000 0.043870 0.000000
# 6 0.000000 0.000000 0.000000 0.000000 0.000000 0.024174
#
#
# Mechanical properties :
#
#
# Convention : Reuss Voigt Hill
#
# Bulk Modulus (GPa) = 30.60352 44.31443 37.45897
# Shear Modulus (GPa) = 36.53742 42.77429 39.65585
#
# Velocity S-wave (km/s) = 4.05777 4.39046 4.22739
# Velocity P-wave (km/s) = 5.97875 6.75809 6.38033
#
# Compressibility (1/GPa) = 0.03267598
#
# Stress axis : x y z
#
# Youngs Moduli (GPa) = 89.61355 144.00680 58.40600
#
# Poissons Ratio (x) = 0.45470 -0.16804
# Poissons Ratio (y) = 0.28295 0.05806
# Poissons Ratio (z) = -0.25783 0.14314
#
# Static dielectric constant tensor:
#      x y z
#    x 1.771240 0.000000 0.000000 
#    y 0.000000 1.675890 0.000000 
#    z 0.000000 0.000000 1.993180 
# 
# From -- ./inp_files/9647.got.cif
#   From: 2010.05.17/outbox.cif.g08.bks.cpg/sg55_5_cif.got.tgz:9647.got - 2010.06.03 13:27:54.
