data_PCOD9426015
_publ_section_title
;
Structure prediction by ZEFSAII (Michael W. Deem and Ramdas Pophale) SiO2 
 PCOD9426015
Probable space group: P B A M
;
_chemical_formula_sum "Si O2"
_cell_formula_units_Z 44
_cell_length_a 14.220396
_cell_length_b 4.764931
_cell_length_c 27.830500
_cell_angle_alpha 90.000000
_cell_angle_beta 90.000000
_cell_angle_gamma 90.000000
_cell_volume 1885.772575
_symmetry_space_group_name_H-M "P B A M"
_symmetry_group_IT_number 55
_symmetry_cell_setting 'orthorhombic'
loop_
_space_group_symop_operation_xyz
x,y,z
-x,-y,z
1/2+x,1/2-y,-z
1/2-x,1/2+y,-z
-x,-y,-z
x,y,-z
1/2-x,1/2+y,z
1/2+x,1/2-y,z
loop_
_atom_site_type_symbol
_atom_site_label
_atom_site_fract_x
_atom_site_fract_y
_atom_site_fract_z
Si Si1 0.312476 0.980966 0.825801
Si Si2 0.316792 0.490246 0.654642
Si Si3 0.436309 0.744651 0.740155
Si Si4 0.565097 0.249643 0.087134
Si Si5 0.317393 0.628697 0.551906
Si Si6 0.687060 0.481266 0.000000
O O1 0.215325 0.805309 0.826541
O O2 0.367314 0.886829 0.778428
O O3 0.372426 0.891551 0.871723
O O4 0.279363 0.174601 0.657430
O O5 0.381010 0.588343 0.697943
O O6 0.363169 0.552594 0.602635
O O7 0.500000 0.500000 0.763484
O O8 0.500000 0.000000 0.721198
O O9 0.500000 0.500000 0.106895
O O10 0.500000 0.000000 0.066801
O O11 0.629205 0.390730 0.046599
O O12 0.363963 0.575255 0.500000
O O13 0.220925 0.444895 0.552596
O O14 0.715827 0.805035 0.000000
#
# Coordination Sequence:
#
# PCOD9426015 Si02
#       6
#     8   8   8   8   8   4
#     4  12  24  42  64  88 115 150 193 237 282 337
#     4  10  19  34  55  79 106 141 184 228 273 328
#     4  12  24  39  57  82 114 148 184 229 283 337
#     4  12  24  42  64  92 124 157 193 238 292 339
#     4   8  14  25  45  73 101 130 172 224 270 315
#     4  12  24  42  64  92 124 162 204 240 278 330
#
# _framework density 23.332611
#
# number of rings (size 3 to 8) (size 9 to 14) (size 15 to 20)
#    0.000    1.091    0.000    8.182    0.000    0.000 
#    0.000    0.000    0.000    1.091    0.000    0.000 
#    0.000    0.000    0.000    0.000    0.000    0.000 
#
# Total GULP energy -246310.874649 kJ/mol
# GULP energy per Si atom -5597.974424 kJ/mol
# Density = 2.327951 g / cm^3
# Si number density = 23.332611 Si / 1000 Ang^3
#
#
#
# Elastic Constant Matrix: (Units=GPa)
#
#
# Indices 1 2 3 4 5 6 
#
# 1 51.9290 0.7968 20.0497 0.0000 0.0000 0.0000
# 2 0.7968 71.4264 -31.4535 0.0000 0.0000 0.0000
# 3 20.0497 -31.4535 107.2107 0.0000 0.0000 0.0000
# 4 0.0000 0.0000 0.0000 8.3741 0.0000 0.0000
# 5 0.0000 0.0000 0.0000 0.0000 40.0397 0.0000
# 6 0.0000 0.0000 0.0000 0.0000 0.0000 -3.3398
#
#
#
# Elastic Compliance Matrix: (Units=1/GPa)
#
#
# Indices 1 2 3 4 5 6 
#
# 1 0.021069 -0.002262 -0.004604 0.000000 0.000000 0.000000
# 2 -0.002262 0.016320 0.005211 0.000000 0.000000 0.000000
# 3 -0.004604 0.005211 0.011717 0.000000 0.000000 0.000000
# 4 0.000000 0.000000 0.000000 0.119416 0.000000 0.000000
# 5 0.000000 0.000000 0.000000 0.000000 0.024975 0.000000
# 6 0.000000 0.000000 0.000000 0.000000 0.000000 -0.299417
#
#
# Mechanical properties :
#
#
# Convention : Reuss Voigt Hill
#
# Bulk Modulus (GPa) = 21.83565 23.26136 22.54851
# Shear Modulus (GPa) = -57.24569 25.09301 -16.07634
#
# Velocity S-wave (km/s) = -4.95862 3.28296 -2.62774
# Velocity P-wave (km/s) = 4.83788 4.93574 0.69153
#
# Compressibility (1/GPa) = 0.04579666
#
# Stress axis : x y z
#
# Youngs Moduli (GPa) = 47.46228 61.27266 85.34393
#
# Poissons Ratio (x) = 0.13863 0.39292
# Poissons Ratio (y) = 0.10738 -0.44475
# Poissons Ratio (z) = 0.21852 -0.31931
#
# Static dielectric constant tensor:
#      x y z
#    x 1.866850 0.000000 0.000000 
#    y 0.000000 1.822480 0.000000 
#    z 0.000000 0.000000 1.882670 
# 
# From -- ./inp_files/23961.got.cif
#   From: 2010.05.17/outbox.cif.g08.bks.cpg/sg55_12_cif.got.tgz:23961.got - 2010.06.03 13:27:54.
