data_PCOD9426814
_publ_section_title
;
Structure prediction by ZEFSAII (Michael W. Deem and Ramdas Pophale) SiO2 
 PCOD9426814
Probable space group: P B A M
;
_chemical_formula_sum "Si O2"
_cell_formula_units_Z 48
_cell_length_a 16.924809
_cell_length_b 18.381952
_cell_length_c 8.719693
_cell_angle_alpha 90.000000
_cell_angle_beta 90.000000
_cell_angle_gamma 90.000000
_cell_volume 2712.792641
_symmetry_space_group_name_H-M "P B A M"
_symmetry_group_IT_number 55
_symmetry_cell_setting 'orthorhombic'
loop_
_space_group_symop_operation_xyz
x,y,z
-x,-y,z
1/2+x,1/2-y,-z
1/2-x,1/2+y,-z
-x,-y,-z
x,y,-z
1/2-x,1/2+y,z
1/2+x,1/2-y,z
loop_
_atom_site_type_symbol
_atom_site_label
_atom_site_fract_x
_atom_site_fract_y
_atom_site_fract_z
Si Si1 0.827221 0.406774 0.183353
Si Si2 0.163990 0.167269 0.815929
Si Si3 0.589210 0.477539 0.315944
Si Si4 0.993644 0.416647 0.684466
Si Si5 0.739975 0.555166 0.184282
Si Si6 0.852120 0.673140 0.684374
O O1 0.754595 0.354109 0.222456
O O2 0.909644 0.387388 0.259778
O O3 0.797819 0.487784 0.229068
O O4 0.836737 0.406676 0.000000
O O5 0.111114 0.101856 0.749621
O O6 0.145073 0.245316 0.746671
O O7 0.156664 0.167960 0.000000
O O8 0.500000 0.500000 0.275514
O O9 0.596396 0.476450 0.500000
O O10 0.654334 0.533039 0.248431
O O11 0.994168 0.417854 0.500000
O O12 0.000000 0.500000 0.740327
O O13 0.068775 0.369855 0.734719
O O14 0.777688 0.628253 0.250604
O O15 0.736685 0.557942 0.000000
O O16 0.848827 0.673229 0.500000
#
# Coordination Sequence:
#
# PCOD9426814 Si02
#       6
#     8   8   8   8   8   8
#     4   9  19  35  56  81 108 144 186 224 274 336
#     4  10  22  40  59  83 115 151 191 237 291 342
#     4  10  21  39  63  88 113 147 194 241 286 344
#     4  10  20  34  55  85 116 147 186 229 277 335
#     4  10  20  35  58  85 113 148 188 232 282 342
#     4  11  22  37  57  84 117 153 192 237 288 340
#
# _framework density 17.693943999999998
#
# number of rings (size 3 to 8) (size 9 to 14) (size 15 to 20)
#    0.000    2.000    1.667    3.000    0.000    6.333 
#    3.000    0.000    0.000    0.000    0.000    0.000 
#    0.000    0.000    0.000    0.000    0.000    0.000 
#
# Total GULP energy -267966.144276 kJ/mol
# GULP energy per Si atom -5582.628006 kJ/mol
# Density = 1.765367 g / cm^3
# Si number density = 17.693944 Si / 1000 Ang^3
#
#
#
# Elastic Constant Matrix: (Units=GPa)
#
#
# Indices 1 2 3 4 5 6 
#
# 1 153.4500 87.7577 51.6796 0.0000 0.0000 0.0000
# 2 87.7577 134.3372 46.9413 0.0000 0.0000 0.0000
# 3 51.6796 46.9413 50.5338 0.0000 0.0000 0.0000
# 4 0.0000 0.0000 0.0000 30.7724 0.0000 0.0000
# 5 0.0000 0.0000 0.0000 0.0000 1.1687 0.0000
# 6 0.0000 0.0000 0.0000 0.0000 0.0000 21.1124
#
#
#
# Elastic Compliance Matrix: (Units=1/GPa)
#
#
# Indices 1 2 3 4 5 6 
#
# 1 0.012022 -0.005267 -0.007402 0.000000 0.000000 0.000000
# 2 -0.005267 0.013329 -0.006995 0.000000 0.000000 0.000000
# 3 -0.007402 -0.006995 0.033856 0.000000 0.000000 0.000000
# 4 0.000000 0.000000 0.000000 0.032497 0.000000 0.000000
# 5 0.000000 0.000000 0.000000 0.000000 0.855623 0.000000
# 6 0.000000 0.000000 0.000000 0.000000 0.000000 0.047366
#
#
# Mechanical properties :
#
#
# Convention : Reuss Voigt Hill
#
# Bulk Modulus (GPa) = 50.30371 79.00870 64.65621
# Shear Modulus (GPa) = 4.80471 20.74018 12.77244
#
# Velocity S-wave (km/s) = 1.64965 3.42740 2.68965
# Velocity P-wave (km/s) = 5.66746 7.77256 6.80194
#
# Compressibility (1/GPa) = 0.01987925
#
# Stress axis : x y z
#
# Youngs Moduli (GPa) = 83.18238 75.02481 29.53683
#
# Poissons Ratio (x) = 0.39515 0.21863
# Poissons Ratio (y) = 0.43812 0.20661
# Poissons Ratio (z) = 0.61570 0.52479
#
# Static dielectric constant tensor:
#      x y z
#    x 1.592510 0.000000 0.000000 
#    y 0.000000 1.584620 0.000000 
#    z 0.000000 0.000000 1.594500 
# 
# From -- ./inp_files/5544.got.cif
#   From: 2010.05.17/outbox.cif.g08.bks.cpg/sg55_3_cif.got.tgz:5544.got - 2010.06.03 13:27:54.
