data_PCOD9426662
_publ_section_title
;
Structure prediction by ZEFSAII (Michael W. Deem and Ramdas Pophale) SiO2 
 PCOD9426662
Probable space group: P B A M
;
_chemical_formula_sum "Si O2"
_cell_formula_units_Z 64
_cell_length_a 32.968419
_cell_length_b 10.980176
_cell_length_c 9.760349
_cell_angle_alpha 90.000000
_cell_angle_beta 90.000000
_cell_angle_gamma 90.000000
_cell_volume 3533.236998
_symmetry_space_group_name_H-M "P B A M"
_symmetry_group_IT_number 55
_symmetry_cell_setting 'orthorhombic'
loop_
_space_group_symop_operation_xyz
x,y,z
-x,-y,z
1/2+x,1/2-y,-z
1/2-x,1/2+y,-z
-x,-y,-z
x,y,-z
1/2-x,1/2+y,z
1/2+x,1/2-y,z
loop_
_atom_site_type_symbol
_atom_site_label
_atom_site_fract_x
_atom_site_fract_y
_atom_site_fract_z
Si Si1 0.880755 0.663440 0.663048
Si Si2 0.775866 0.032745 0.842901
Si Si3 0.698534 0.998444 0.338329
Si Si4 0.644247 0.393221 0.838509
Si Si5 0.673873 0.782812 0.152885
Si Si6 0.406952 0.359022 0.156981
Si Si7 0.471065 0.888783 0.666060
Si Si8 0.514484 0.636785 0.664882
O O1 0.883477 0.689509 0.500000
O O2 0.841408 0.579926 0.685327
O O3 0.873116 0.786208 0.746734
O O4 0.923593 0.602160 0.704580
O O5 0.738063 0.042717 0.742869
O O6 0.809513 0.931669 0.802110
O O7 0.800156 0.159309 0.845333
O O8 0.763124 0.006656 0.000000
O O9 0.706194 0.993089 0.500000
O O10 0.688528 0.868805 0.272364
O O11 0.616329 0.512864 0.822870
O O12 0.644242 0.361182 0.000000
O O13 0.627333 0.743721 0.170686
O O14 0.678449 0.837667 0.000000
O O15 0.442465 0.343879 0.264199
O O16 0.422249 0.357100 0.000000
O O17 0.472695 0.893359 0.500000
O O18 0.486650 0.752924 0.705061
O O19 0.500000 0.000000 0.715236
O O20 0.500000 0.500000 0.704025
O O21 0.517649 0.638371 0.500000
#
# Coordination Sequence:
#
# PCOD9426662 Si02
#       8
#     8   8   8   8   8   8   8   8
#     4  10  22  38  56  82 114 147 186 232 280 329
#     4   9  20  39  60  81 107 147 192 228 269 329
#     4  11  24  36  54  85 117 144 181 232 285 334
#     4   9  19  37  60  84 111 148 189 225 272 336
#     4   9  20  39  59  79 108 147 190 227 269 334
#     4   9  19  36  58  84 113 144 182 232 283 327
#     4   9  19  36  57  78 110 154 191 226 278 344
#     4  10  20  33  56  87 111 142 193 239 279 341
#
# _framework density 18.113700999999999
#
# number of rings (size 3 to 8) (size 9 to 14) (size 15 to 20)
#    0.000    2.500    0.000    2.625    3.500    4.250 
#    0.000    3.125    0.000    0.750    0.000    0.000 
#    0.000    0.000    0.000    0.000    0.000    0.000 
#
# Total GULP energy -356860.462417 kJ/mol
# GULP energy per Si atom -5575.944725 kJ/mol
# Density = 1.807247 g / cm^3
# Si number density = 18.113701 Si / 1000 Ang^3
#
#
#
# Elastic Constant Matrix: (Units=GPa)
#
#
# Indices 1 2 3 4 5 6 
#
# 1 113.1807 17.4085 39.6611 0.0000 0.0000 0.0000
# 2 17.4085 38.1057 7.2335 0.0000 0.0000 0.0000
# 3 39.6611 7.2335 23.7746 0.0000 0.0000 0.0000
# 4 0.0000 0.0000 0.0000 31.3429 0.0000 0.0000
# 5 0.0000 0.0000 0.0000 0.0000 27.2822 0.0000
# 6 0.0000 0.0000 0.0000 0.0000 0.0000 18.7256
#
#
#
# Elastic Compliance Matrix: (Units=1/GPa)
#
#
# Indices 1 2 3 4 5 6 
#
# 1 0.021634 -0.003218 -0.035111 0.000000 0.000000 0.000000
# 2 -0.003218 0.028330 -0.003250 0.000000 0.000000 0.000000
# 3 -0.035111 -0.003250 0.101624 0.000000 0.000000 0.000000
# 4 0.000000 0.000000 0.000000 0.031905 0.000000 0.000000
# 5 0.000000 0.000000 0.000000 0.000000 0.036654 0.000000
# 6 0.000000 0.000000 0.000000 0.000000 0.000000 0.053403
#
#
# Mechanical properties :
#
#
# Convention : Reuss Voigt Hill
#
# Bulk Modulus (GPa) = 14.61393 33.74078 24.17735
# Shear Modulus (GPa) = 13.17452 22.85399 18.01426
#
# Velocity S-wave (km/s) = 2.69982 3.55589 3.15701
# Velocity P-wave (km/s) = 4.21949 5.96044 5.16386
#
# Compressibility (1/GPa) = 0.06842787
#
# Stress axis : x y z
#
# Youngs Moduli (GPa) = 46.22288 35.29811 9.84019
#
# Poissons Ratio (x) = 0.11361 0.34550
# Poissons Ratio (y) = 0.14877 0.03198
# Poissons Ratio (z) = 1.62295 0.11473
#
# Static dielectric constant tensor:
#      x y z
#    x 1.625070 0.000000 0.000000 
#    y 0.000000 1.629750 0.000000 
#    z 0.000000 0.000000 1.592220 
# 
# From -- ./inp_files/4514.got.cif
#   From: 2010.05.17/outbox.cif.g08.bks.cpg/sg55_3_cif.got.tgz:4514.got - 2010.06.03 13:27:54.
