data_PCOD9426058
_publ_section_title
;
Structure prediction by ZEFSAII (Michael W. Deem and Ramdas Pophale) SiO2 
 PCOD9426058
Probable space group: P B A M
;
_chemical_formula_sum "Si O2"
_cell_formula_units_Z 64
_cell_length_a 15.076373
_cell_length_b 25.421357
_cell_length_c 7.556541
_cell_angle_alpha 90.000000
_cell_angle_beta 90.000000
_cell_angle_gamma 90.000000
_cell_volume 2896.133961
_symmetry_space_group_name_H-M "P B A M"
_symmetry_group_IT_number 55
_symmetry_cell_setting 'orthorhombic'
loop_
_space_group_symop_operation_xyz
x,y,z
-x,-y,z
1/2+x,1/2-y,-z
1/2-x,1/2+y,-z
-x,-y,-z
x,y,-z
1/2-x,1/2+y,z
1/2+x,1/2-y,z
loop_
_atom_site_type_symbol
_atom_site_label
_atom_site_fract_x
_atom_site_fract_y
_atom_site_fract_z
Si Si1 0.254709 0.056285 0.209140
Si Si2 0.368377 0.256934 0.703335
Si Si3 0.003654 0.331616 0.282192
Si Si4 0.170066 0.265736 0.715949
Si Si5 0.869602 0.852461 0.710754
Si Si6 0.456978 0.052476 0.704616
Si Si7 0.437884 0.367113 0.798022
Si Si8 0.402891 0.479999 0.216777
O O1 0.217321 0.114743 0.241561
O O2 0.350812 0.048417 0.290388
O O3 0.177428 0.017129 0.275208
O O4 0.263815 0.048063 0.000000
O O5 0.352162 0.240994 0.500000
O O6 0.428868 0.210281 0.778905
O O7 0.271247 0.268608 0.779975
O O8 0.420455 0.312025 0.704459
O O9 0.001538 0.331027 0.500000
O O10 0.984256 0.390666 0.220295
O O11 0.099519 0.309342 0.226721
O O12 0.170446 0.268102 0.500000
O O13 0.136241 0.207902 0.767252
O O14 0.880116 0.853895 0.500000
O O15 0.956886 0.878052 0.793703
O O16 0.486924 0.054158 0.500000
O O17 0.500000 0.000000 0.785214
O O18 0.391855 0.419443 0.725724
O O19 0.409681 0.359554 0.000000
O O20 0.500000 0.500000 0.274118
O O21 0.403869 0.480044 0.000000
#
# Coordination Sequence:
#
# PCOD9426058 Si02
#       8
#     8   8   8   8   8   8   8   8
#     4  11  22  38  61  85 113 154 197 238 287 350
#     4  10  19  34  56  82 111 147 189 229 276 338
#     4   9  17  34  57  82 115 152 187 231 292 347
#     4   9  18  32  56  82 108 150 192 224 274 346
#     4  11  20  35  59  86 113 147 194 238 280 336
#     4  10  22  40  62  87 115 150 196 251 295 336
#     4  11  21  35  55  80 114 150 183 229 284 339
#     4   9  18  35  55  76 110 155 187 214 279 358
#
# _framework density 22.098424000000001
#
# number of rings (size 3 to 8) (size 9 to 14) (size 15 to 20)
#    0.000    2.000    2.500    1.875    0.000    3.250 
#    0.000    7.500    0.000    0.000    0.000    0.000 
#    0.000    0.000    0.000    0.000    0.000    0.000 
#
# Total GULP energy -357496.766514 kJ/mol
# GULP energy per Si atom -5585.886977 kJ/mol
# Density = 2.204813 g / cm^3
# Si number density = 22.098424 Si / 1000 Ang^3
#
#
#
# Elastic Constant Matrix: (Units=GPa)
#
#
# Indices 1 2 3 4 5 6 
#
# 1 138.1985 80.7050 -3.8116 0.0000 0.0000 0.0000
# 2 80.7050 173.8142 1.3200 0.0000 0.0000 0.0000
# 3 -3.8116 1.3200 52.3973 0.0000 0.0000 0.0000
# 4 0.0000 0.0000 0.0000 18.1967 0.0000 0.0000
# 5 0.0000 0.0000 0.0000 0.0000 -57.5089 0.0000
# 6 0.0000 0.0000 0.0000 0.0000 0.0000 34.2633
#
#
#
# Elastic Compliance Matrix: (Units=1/GPa)
#
#
# Indices 1 2 3 4 5 6 
#
# 1 0.009965 -0.004633 0.000842 0.000000 0.000000 0.000000
# 2 -0.004633 0.007909 -0.000536 0.000000 0.000000 0.000000
# 3 0.000842 -0.000536 0.019160 0.000000 0.000000 0.000000
# 4 0.000000 0.000000 0.000000 0.054955 0.000000 0.000000
# 5 0.000000 0.000000 0.000000 0.000000 -0.017389 0.000000
# 6 0.000000 0.000000 0.000000 0.000000 0.000000 0.029186
#
#
# Mechanical properties :
#
#
# Convention : Reuss Voigt Hill
#
# Bulk Modulus (GPa) = 35.23935 57.87077 46.55506
# Shear Modulus (GPa) = 41.01713 18.07000 29.54357
#
# Velocity S-wave (km/s) = 4.31293 2.86266 3.66034
# Velocity P-wave (km/s) = 6.38616 6.09680 6.24316
#
# Compressibility (1/GPa) = 0.02837736
#
# Stress axis : x y z
#
# Youngs Moduli (GPa) = 100.35198 126.44371 52.19294
#
# Poissons Ratio (x) = 0.58585 -0.04393
# Poissons Ratio (y) = 0.46496 0.02799
# Poissons Ratio (z) = -0.08446 0.06781
#
# Static dielectric constant tensor:
#      x y z
#    x 1.796020 0.000000 0.000000 
#    y 0.000000 1.805230 0.000000 
#    z 0.000000 0.000000 1.838580 
# 
# From -- ./inp_files/6581.got.cif
#   From: 2010.05.17/outbox.cif.g08.bks.cpg/sg55_4_cif.got.tgz:6581.got - 2010.06.03 13:27:54.
