data_PCOD9426841
_publ_section_title
;
Structure prediction by ZEFSAII (Michael W. Deem and Ramdas Pophale) SiO2 
 PCOD9426841
Probable space group: P B A M
;
_chemical_formula_sum "Si O2"
_cell_formula_units_Z 64
_cell_length_a 23.427509
_cell_length_b 15.840525
_cell_length_c 7.479303
_cell_angle_alpha 90.000000
_cell_angle_beta 90.000000
_cell_angle_gamma 90.000000
_cell_volume 2775.599575
_symmetry_space_group_name_H-M "P B A M"
_symmetry_group_IT_number 55
_symmetry_cell_setting 'orthorhombic'
loop_
_space_group_symop_operation_xyz
x,y,z
-x,-y,z
1/2+x,1/2-y,-z
1/2-x,1/2+y,-z
-x,-y,-z
x,y,-z
1/2-x,1/2+y,z
1/2+x,1/2-y,z
loop_
_atom_site_type_symbol
_atom_site_label
_atom_site_fract_x
_atom_site_fract_y
_atom_site_fract_z
Si Si1 0.050554 0.936448 0.219575
Si Si2 0.317387 0.692896 0.716292
Si Si3 0.826582 0.000944 0.796504
Si Si4 0.613659 0.145948 0.718193
Si Si5 0.689833 0.806706 0.716064
Si Si6 0.929896 0.248002 0.792118
Si Si7 0.489662 0.091367 0.796680
Si Si8 0.696671 0.998464 0.708504
O O1 0.044023 0.839012 0.278763
O O2 0.113889 0.964937 0.280466
O O3 0.050815 0.937533 0.000000
O O4 0.000000 0.000000 0.275212
O O5 0.317779 0.684921 0.500000
O O6 0.330158 0.600670 0.789874
O O7 0.361275 0.764028 0.770292
O O8 0.253417 0.720767 0.767436
O O9 0.763970 0.020454 0.718723
O O10 0.824138 0.030625 0.000000
O O11 0.610551 0.143988 0.500000
O O12 0.551669 0.132500 0.795870
O O13 0.656064 0.071481 0.779941
O O14 0.687174 0.806396 0.500000
O O15 0.638539 0.748992 0.781901
O O16 0.685636 0.904248 0.781844
O O17 0.949379 0.337661 0.711315
O O18 0.947079 0.251818 0.000000
O O19 0.500000 0.000000 0.710300
O O20 0.468505 0.074800 0.000000
O O21 0.682652 0.991826 0.500000
#
# Coordination Sequence:
#
# PCOD9426841 Si02
#       8
#     8   8   8   8   8   8   8   8
#     4   9  20  37  55  76 106 144 187 230 273 328
#     4   9  20  37  55  80 114 146 178 224 281 336
#     4  10  20  34  57  83 106 141 188 230 274 327
#     4  10  21  36  58  83 109 147 189 225 272 337
#     4   9  18  34  55  80 110 142 178 220 270 329
#     4  10  21  36  57  81 110 148 185 227 278 326
#     4  10  22  38  56  83 116 148 182 229 284 331
#     4   9  19  36  57  81 113 149 177 218 281 334
#
# _framework density 23.05808
#
# number of rings (size 3 to 8) (size 9 to 14) (size 15 to 20)
#    0.000    2.500    0.000    1.875    3.500    3.750 
#    0.000    0.625    0.000    1.875    0.000    0.000 
#    0.000    0.000    0.000    0.000    0.000    0.000 
#
# Total GULP energy -357399.369559 kJ/mol
# GULP energy per Si atom -5584.365149 kJ/mol
# Density = 2.300560 g / cm^3
# Si number density = 23.058080 Si / 1000 Ang^3
#
#
#
# Elastic Constant Matrix: (Units=GPa)
#
#
# Indices 1 2 3 4 5 6 
#
# 1 78.2500 28.2251 -8.7639 0.0000 0.0000 0.0000
# 2 28.2251 74.8471 0.7779 0.0000 0.0000 0.0000
# 3 -8.7639 0.7779 62.3579 0.0000 0.0000 0.0000
# 4 0.0000 0.0000 0.0000 96.9008 0.0000 0.0000
# 5 0.0000 0.0000 0.0000 0.0000 24.2304 0.0000
# 6 0.0000 0.0000 0.0000 0.0000 0.0000 40.2498
#
#
#
# Elastic Compliance Matrix: (Units=1/GPa)
#
#
# Indices 1 2 3 4 5 6 
#
# 1 0.015085 -0.005711 0.002191 0.000000 0.000000 0.000000
# 2 -0.005711 0.015525 -0.000996 0.000000 0.000000 0.000000
# 3 0.002191 -0.000996 0.016357 0.000000 0.000000 0.000000
# 4 0.000000 0.000000 0.000000 0.010320 0.000000 0.000000
# 5 0.000000 0.000000 0.000000 0.000000 0.041271 0.000000
# 6 0.000000 0.000000 0.000000 0.000000 0.000000 0.024845
#
#
# Mechanical properties :
#
#
# Convention : Reuss Voigt Hill
#
# Bulk Modulus (GPa) = 26.36172 28.43704 27.39938
# Shear Modulus (GPa) = 34.46388 45.29059 39.87724
#
# Velocity S-wave (km/s) = 3.87027 4.43673 4.16315
# Velocity P-wave (km/s) = 5.60621 6.21335 5.91757
#
# Compressibility (1/GPa) = 0.03793379
#
# Stress axis : x y z
#
# Youngs Moduli (GPa) = 66.29050 64.41334 61.13644
#
# Poissons Ratio (x) = 0.36789 -0.13397
# Poissons Ratio (y) = 0.37861 0.06091
# Poissons Ratio (z) = -0.14527 0.06418
#
# Static dielectric constant tensor:
#      x y z
#    x 1.821050 0.000000 0.000000 
#    y 0.000000 1.855470 0.000000 
#    z 0.000000 0.000000 1.888440 
# 
# From -- ./inp_files/9637.got.cif
#   From: 2010.05.17/outbox.cif.g08.bks.cpg/sg55_5_cif.got.tgz:9637.got - 2010.06.03 13:27:54.
