data_PCOD9426910
_publ_section_title
;
Structure prediction by ZEFSAII (Michael W. Deem and Ramdas Pophale) SiO2 
 PCOD9426910
Probable space group: P B A M
;
_chemical_formula_sum "Si O2"
_cell_formula_units_Z 58
_cell_length_a 15.062200
_cell_length_b 25.171765
_cell_length_c 7.669754
_cell_angle_alpha 90.000000
_cell_angle_beta 90.000000
_cell_angle_gamma 90.000000
_cell_volume 2907.927089
_symmetry_space_group_name_H-M "P B A M"
_symmetry_group_IT_number 55
_symmetry_cell_setting 'orthorhombic'
loop_
_space_group_symop_operation_xyz
x,y,z
-x,-y,z
1/2+x,1/2-y,-z
1/2-x,1/2+y,-z
-x,-y,-z
x,y,-z
1/2-x,1/2+y,z
1/2+x,1/2-y,z
loop_
_atom_site_type_symbol
_atom_site_label
_atom_site_fract_x
_atom_site_fract_y
_atom_site_fract_z
Si Si1 0.927382 0.216544 0.202754
Si Si2 0.383255 0.689053 0.791776
Si Si3 0.244601 0.601950 0.292390
Si Si4 0.633947 0.989352 0.809867
Si Si5 0.500000 0.000000 0.500000
Si Si6 0.888300 0.605033 0.296792
Si Si7 0.934571 0.338453 0.288319
Si Si8 0.773262 0.706741 0.213279
O O1 0.943549 0.279517 0.215546
O O2 0.828859 0.206991 0.275058
O O3 0.016381 0.190517 0.279611
O O4 0.921994 0.200639 0.000000
O O5 0.331191 0.634738 0.758662
O O6 0.324851 0.739642 0.728951
O O7 0.389823 0.696250 0.000000
O O8 0.243140 0.598194 0.500000
O O9 0.223823 0.544011 0.217299
O O10 0.159224 0.636909 0.235381
O O11 0.646533 0.052659 0.796025
O O12 0.566547 0.976407 0.654107
O O13 0.597757 0.975890 0.000000
O O14 0.903175 0.587538 0.500000
O O15 0.823043 0.654770 0.282588
O O16 0.982137 0.626588 0.229501
O O17 0.937934 0.335376 0.500000
O O18 0.775018 0.705781 0.000000
#
# Coordination Sequence:
#
# PCOD9426910 Si02
#       8
#     8   8   8   8   2   8   8   8
#     4  10  20  35  54  81 120 154 195 254 297 358
#     4  10  20  35  56  84 116 155 203 248 305 370
#     4  11  22  38  59  83 121 159 203 257 299 362
#     4  12  25  41  63  87 124 170 204 252 312 361
#     4  12  22  44  60  94 132 158 214 256 288 376
#     4  11  22  38  59  83 121 159 203 257 299 362
#     4  10  21  32  52  80 117 155 191 239 299 355
#     4  10  20  35  56  84 116 155 203 248 305 370
#
# _framework density 19.945478999999999
#
# number of rings (size 3 to 8) (size 9 to 14) (size 15 to 20)
#    0.000    1.379    4.138    1.862    1.931    2.759 
#    0.000    0.000    0.000    0.828    0.000    5.793 
#    0.000    0.000    0.000    0.000    0.000    0.000 
#
# Total GULP energy -323676.077426 kJ/mol
# GULP energy per Si atom -5580.622025 kJ/mol
# Density = 1.990008 g / cm^3
# Si number density = 19.945479 Si / 1000 Ang^3
#
#
#
# Elastic Constant Matrix: (Units=GPa)
#
#
# Indices 1 2 3 4 5 6 
#
# 1 91.8186 12.2858 11.0413 0.0000 0.0000 0.0000
# 2 12.2858 56.0267 -0.2870 0.0000 0.0000 0.0000
# 3 11.0413 -0.2870 81.1743 0.0000 0.0000 0.0000
# 4 0.0000 0.0000 0.0000 26.0309 0.0000 0.0000
# 5 0.0000 0.0000 0.0000 0.0000 36.0588 0.0000
# 6 0.0000 0.0000 0.0000 0.0000 0.0000 28.6165
#
#
#
# Elastic Compliance Matrix: (Units=1/GPa)
#
#
# Indices 1 2 3 4 5 6 
#
# 1 0.011415 -0.002511 -0.001562 0.000000 0.000000 0.000000
# 2 -0.002511 0.018401 0.000407 0.000000 0.000000 0.000000
# 3 -0.001562 0.000407 0.012533 0.000000 0.000000 0.000000
# 4 0.000000 0.000000 0.000000 0.038416 0.000000 0.000000
# 5 0.000000 0.000000 0.000000 0.000000 0.027733 0.000000
# 6 0.000000 0.000000 0.000000 0.000000 0.000000 0.034945
#
#
# Mechanical properties :
#
#
# Convention : Reuss Voigt Hill
#
# Bulk Modulus (GPa) = 28.55739 30.56663 29.56201
# Shear Modulus (GPa) = 30.77930 31.87319 31.32624
#
# Velocity S-wave (km/s) = 3.93258 4.00186 3.96737
# Velocity P-wave (km/s) = 5.91347 6.05900 5.98668
#
# Compressibility (1/GPa) = 0.03501720
#
# Stress axis : x y z
#
# Youngs Moduli (GPa) = 87.60548 54.34380 79.78931
#
# Poissons Ratio (x) = 0.13646 0.12459
# Poissons Ratio (y) = 0.21998 -0.03244
# Poissons Ratio (z) = 0.13680 -0.02210
#
# Static dielectric constant tensor:
#      x y z
#    x 1.358800 0.000000 0.000000 
#    y 0.000000 1.062870 0.000000 
#    z 0.000000 0.000000 1.670120 
# 
# From -- ./inp_files/6413.got.cif
#   From: 2010.05.17/outbox.cif.g08.bks.cpg/sg55_4_cif.got.tgz:6413.got - 2010.06.03 13:27:54.
