data_PCOD9426554
_publ_section_title
;
Structure prediction by ZEFSAII (Michael W. Deem and Ramdas Pophale) SiO2 
 PCOD9426554
Probable space group: P B A M
;
_chemical_formula_sum "Si O2"
_cell_formula_units_Z 48
_cell_length_a 21.088176
_cell_length_b 10.006029
_cell_length_c 13.132301
_cell_angle_alpha 90.000000
_cell_angle_beta 90.000000
_cell_angle_gamma 90.000000
_cell_volume 2771.032397
_symmetry_space_group_name_H-M "P B A M"
_symmetry_group_IT_number 55
_symmetry_cell_setting 'orthorhombic'
loop_
_space_group_symop_operation_xyz
x,y,z
-x,-y,z
1/2+x,1/2-y,-z
1/2-x,1/2+y,-z
-x,-y,-z
x,y,-z
1/2-x,1/2+y,z
1/2+x,1/2-y,z
loop_
_atom_site_type_symbol
_atom_site_label
_atom_site_fract_x
_atom_site_fract_y
_atom_site_fract_z
Si Si1 0.009600 0.644364 0.769389
Si Si2 0.643786 0.529786 0.693825
Si Si3 0.617604 0.815815 0.613836
Si Si4 0.940677 0.100130 0.883820
Si Si5 0.396072 0.763344 0.620045
Si Si6 0.719590 0.029512 0.618265
O O1 0.067751 0.625974 0.691808
O O2 0.031522 0.758365 0.846681
O O3 0.000000 0.500000 0.818807
O O4 0.950821 0.692495 0.698971
O O5 0.620232 0.657421 0.629183
O O6 0.612528 0.551207 0.804383
O O7 0.622116 0.389525 0.645862
O O8 0.719769 0.538101 0.689798
O O9 0.597888 0.850735 0.500000
O O10 0.685151 0.886477 0.630309
O O11 0.917912 0.105679 0.000000
O O12 0.000000 0.000000 0.877866
O O13 0.414786 0.774160 0.500000
O O14 0.334364 0.858219 0.633916
O O15 0.741272 0.040734 0.500000
#
# Coordination Sequence:
#
# PCOD9426554 Si02
#       6
#     8   8   8   8   8   8
#     4  11  21  36  57  85 113 148 189 234 281 331
#     4  11  21  35  56  81 109 147 192 234 272 334
#     4  10  20  32  51  80 117 156 185 220 266 324
#     4  10  22  42  63  82 103 135 186 245 302 335
#     4  11  21  33  54  86 121 157 189 219 267 333
#     4  10  20  34  53  80 119 162 187 213 265 334
#
# _framework density 17.322064000000001
#
# number of rings (size 3 to 8) (size 9 to 14) (size 15 to 20)
#    0.000    1.500    3.333    3.000    0.000    3.667 
#    0.000    2.500    0.000   10.000    0.000    0.000 
#    0.000    0.000    0.000    0.000    0.000    0.000 
#
# Total GULP energy -267885.341709 kJ/mol
# GULP energy per Si atom -5580.944619 kJ/mol
# Density = 1.728264 g / cm^3
# Si number density = 17.322064 Si / 1000 Ang^3
#
#
#
# Elastic Constant Matrix: (Units=GPa)
#
#
# Indices 1 2 3 4 5 6 
#
# 1 68.9344 10.4943 44.2187 0.0000 0.0000 0.0000
# 2 10.4943 99.4921 25.0008 0.0000 0.0000 0.0000
# 3 44.2187 25.0008 92.8944 0.0000 0.0000 0.0000
# 4 0.0000 0.0000 0.0000 12.6368 0.0000 0.0000
# 5 0.0000 0.0000 0.0000 0.0000 24.3724 0.0000
# 6 0.0000 0.0000 0.0000 0.0000 0.0000 17.8584
#
#
#
# Elastic Compliance Matrix: (Units=1/GPa)
#
#
# Indices 1 2 3 4 5 6 
#
# 1 0.020892 0.000317 -0.010030 0.000000 0.000000 0.000000
# 2 0.000317 0.010785 -0.003053 0.000000 0.000000 0.000000
# 3 -0.010030 -0.003053 0.016361 0.000000 0.000000 0.000000
# 4 0.000000 0.000000 0.000000 0.079134 0.000000 0.000000
# 5 0.000000 0.000000 0.000000 0.000000 0.041030 0.000000
# 6 0.000000 0.000000 0.000000 0.000000 0.000000 0.055996
#
#
# Mechanical properties :
#
#
# Convention : Reuss Voigt Hill
#
# Bulk Modulus (GPa) = 44.43505 46.74984 45.59245
# Shear Modulus (GPa) = 19.43756 23.08064 21.25910
#
# Velocity S-wave (km/s) = 3.35345 3.65422 3.50706
# Velocity P-wave (km/s) = 6.37982 6.69714 6.54041
#
# Compressibility (1/GPa) = 0.02250476
#
# Stress axis : x y z
#
# Youngs Moduli (GPa) = 47.86450 92.72227 61.12042
#
# Poissons Ratio (x) = -0.02937 0.61305
# Poissons Ratio (y) = -0.01516 0.18662
# Poissons Ratio (z) = 0.48009 0.28311
#
# Static dielectric constant tensor:
#      x y z
#    x 1.584760 0.000000 0.000000 
#    y 0.000000 1.629350 0.000000 
#    z 0.000000 0.000000 1.548400 
# 
# From -- ./inp_files/15624.got.cif
#   From: 2010.05.17/outbox.cif.g08.bks.cpg/sg55_8_cif.got.tgz:15624.got - 2010.06.03 13:27:54.
