data_PCOD9426418
_publ_section_title
;
Structure prediction by ZEFSAII (Michael W. Deem and Ramdas Pophale) SiO2 
 PCOD9426418
Probable space group: P B A M
;
_chemical_formula_sum "Si O2"
_cell_formula_units_Z 64
_cell_length_a 14.498801
_cell_length_b 11.440517
_cell_length_c 18.230437
_cell_angle_alpha 90.000000
_cell_angle_beta 90.000000
_cell_angle_gamma 90.000000
_cell_volume 3023.951484
_symmetry_space_group_name_H-M "P B A M"
_symmetry_group_IT_number 55
_symmetry_cell_setting 'orthorhombic'
loop_
_space_group_symop_operation_xyz
x,y,z
-x,-y,z
1/2+x,1/2-y,-z
1/2-x,1/2+y,-z
-x,-y,-z
x,y,-z
1/2-x,1/2+y,z
1/2+x,1/2-y,z
loop_
_atom_site_type_symbol
_atom_site_label
_atom_site_fract_x
_atom_site_fract_y
_atom_site_fract_z
Si Si1 0.498557 0.209164 0.220900
Si Si2 0.714802 0.253452 0.921624
Si Si3 0.684474 0.669391 0.413021
Si Si4 0.402399 0.956426 0.121519
Si Si5 0.218861 0.089036 0.640180
Si Si6 0.298434 0.143363 0.207377
Si Si7 0.481647 0.627691 0.649465
Si Si8 0.471161 0.631783 0.917187
O O1 0.563675 0.103626 0.197437
O O2 0.396262 0.173074 0.243536
O O3 0.538394 0.282032 0.286507
O O4 0.491313 0.284632 0.146186
O O5 0.649586 0.140439 0.923865
O O6 0.763484 0.250170 0.842852
O O7 0.639818 0.357400 0.915578
O O8 0.765621 0.262476 0.000000
O O9 0.695355 0.662333 0.500000
O O10 0.732855 0.549780 0.379995
O O11 0.722657 0.797390 0.387592
O O12 0.575171 0.660843 0.392598
O O13 0.500000 0.000000 0.089106
O O14 0.329577 0.053845 0.143668
O O15 0.231047 0.098588 0.729161
O O16 0.115656 0.113470 0.609121
O O17 0.500000 0.500000 0.683542
O O18 0.500000 0.500000 0.903639
O O19 0.500618 0.665081 0.000000
#
# Coordination Sequence:
#
# PCOD9426418 Si02
#       8
#     8   8   8   8   8   8   8   8
#     4  10  19  37  59  86 119 162 214 263 321 391
#     4  10  22  37  55  84 120 160 213 274 328 388
#     4  11  25  46  70 103 137 174 220 270 337 406
#     4   9  21  38  59  84 119 165 213 275 335 398
#     4  11  24  42  72 101 135 178 220 274 331 396
#     4  11  23  37  60  89 124 164 217 268 327 391
#     4  10  22  39  65  95 129 173 216 268 326 394
#     4   9  18  33  53  78 112 154 202 260 320 380
#
# _framework density 21.164361
#
# number of rings (size 3 to 8) (size 9 to 14) (size 15 to 20)
#    0.000    1.875    1.250    2.250    3.500    6.000 
#    0.000    4.375    0.000    1.500    0.000    0.000 
#    0.000    0.000    0.000    0.000    0.000    0.000 
#
# Total GULP energy -356332.829707 kJ/mol
# GULP energy per Si atom -5567.700464 kJ/mol
# Density = 2.111619 g / cm^3
# Si number density = 21.164361 Si / 1000 Ang^3
#
#
#
# Elastic Constant Matrix: (Units=GPa)
#
#
# Indices 1 2 3 4 5 6 
#
# 1 71.9592 15.4402 -2.7813 0.0000 0.0000 0.0000
# 2 15.4402 62.2552 10.1887 0.0000 0.0000 0.0000
# 3 -2.7813 10.1887 77.0876 0.0000 0.0000 0.0000
# 4 0.0000 0.0000 0.0000 5.8317 0.0000 0.0000
# 5 0.0000 0.0000 0.0000 0.0000 13.8980 0.0000
# 6 0.0000 0.0000 0.0000 0.0000 0.0000 31.7785
#
#
#
# Elastic Compliance Matrix: (Units=1/GPa)
#
#
# Indices 1 2 3 4 5 6 
#
# 1 0.014759 -0.003830 0.001039 0.000000 0.000000 0.000000
# 2 -0.003830 0.017412 -0.002440 0.000000 0.000000 0.000000
# 3 0.001039 -0.002440 0.013332 0.000000 0.000000 0.000000
# 4 0.000000 0.000000 0.000000 0.171476 0.000000 0.000000
# 5 0.000000 0.000000 0.000000 0.000000 0.071953 0.000000
# 6 0.000000 0.000000 0.000000 0.000000 0.000000 0.031468
#
#
# Mechanical properties :
#
#
# Convention : Reuss Voigt Hill
#
# Bulk Modulus (GPa) = 28.53823 28.55524 28.54673
# Shear Modulus (GPa) = 14.59671 22.86526 18.73099
#
# Velocity S-wave (km/s) = 2.62903 3.29046 2.97816
# Velocity P-wave (km/s) = 4.76751 5.28749 5.03422
#
# Compressibility (1/GPa) = 0.03504072
#
# Stress axis : x y z
#
# Youngs Moduli (GPa) = 67.75627 57.43111 75.00651
#
# Poissons Ratio (x) = 0.21998 -0.07791
# Poissons Ratio (y) = 0.25953 0.18298
# Poissons Ratio (z) = -0.07038 0.14011
#
# Static dielectric constant tensor:
#      x y z
#    x 1.952480 0.000000 0.000000 
#    y 0.000000 1.831370 0.000000 
#    z 0.000000 0.000000 1.739060 
# 
# From -- ./inp_files/21630.got.cif
#   From: 2010.05.17/outbox.cif.g08.bks.cpg/sg55_11_cif.got.tgz:21630.got - 2010.06.03 13:27:54.
