data_PCOD9426530
_publ_section_title
;
Structure prediction by ZEFSAII (Michael W. Deem and Ramdas Pophale) SiO2 
 PCOD9426530
Probable space group: P B A M
;
_chemical_formula_sum "Si O2"
_cell_formula_units_Z 64
_cell_length_a 17.775566
_cell_length_b 22.233583
_cell_length_c 9.121156
_cell_angle_alpha 90.000000
_cell_angle_beta 90.000000
_cell_angle_gamma 90.000000
_cell_volume 3604.813309
_symmetry_space_group_name_H-M "P B A M"
_symmetry_group_IT_number 55
_symmetry_cell_setting 'orthorhombic'
loop_
_space_group_symop_operation_xyz
x,y,z
-x,-y,z
1/2+x,1/2-y,-z
1/2-x,1/2+y,-z
-x,-y,-z
x,y,-z
1/2-x,1/2+y,z
1/2+x,1/2-y,z
loop_
_atom_site_type_symbol
_atom_site_label
_atom_site_fract_x
_atom_site_fract_y
_atom_site_fract_z
Si Si1 0.897625 0.874946 0.676887
Si Si2 0.754675 0.844950 0.825971
Si Si3 0.386410 0.240149 0.174824
Si Si4 0.516203 0.858069 0.332191
Si Si5 0.909191 0.006914 0.331902
Si Si6 0.162086 0.554200 0.332658
Si Si7 0.926350 0.544002 0.169680
Si Si8 0.926280 0.138310 0.322490
O O1 0.890046 0.874605 0.500000
O O2 0.834702 0.834056 0.750342
O O3 0.984060 0.859122 0.709693
O O4 0.883477 0.943591 0.732862
O O5 0.692124 0.794130 0.795148
O O6 0.720434 0.906146 0.758227
O O7 0.762541 0.850366 0.000000
O O8 0.452344 0.199555 0.246494
O O9 0.387850 0.305407 0.246887
O O10 0.396648 0.242842 0.000000
O O11 0.496171 0.843322 0.500000
O O12 0.586672 0.904588 0.337051
O O13 0.451191 0.894783 0.249358
O O14 0.881857 0.008299 0.500000
O O15 0.895739 0.073208 0.269480
O O16 0.000000 0.000000 0.338410
O O17 0.187177 0.544951 0.500000
O O18 0.137948 0.492509 0.255111
O O19 0.000000 0.500000 0.171508
O O20 0.907063 0.553919 0.000000
O O21 0.918990 0.140450 0.500000
#
# Coordination Sequence:
#
# PCOD9426530 Si02
#       8
#     8   8   8   8   8   8   8   8
#     4   9  17  31  53  78 101 126 159 201 249 300
#     4  10  20  32  46  68 100 135 168 205 251 300
#     4  10  20  32  46  68 100 136 171 206 247 294
#     4   9  16  26  41  61  85 116 157 200 238 279
#     4   7  12  26  49  76 101 121 145 185 240 295
#     4   9  16  26  41  61  85 116 157 201 240 282
#     4   9  15  23  37  58  85 115 147 189 242 291
#     4   9  17  31  53  78 101 127 161 201 245 297
#
# _framework density 17.75404
#
# number of rings (size 3 to 8) (size 9 to 14) (size 15 to 20)
#    0.000    3.000    0.000    3.375    0.000    6.500 
#    0.000    0.625    0.000    3.750    0.000    5.250 
#    0.000    0.000    0.000    0.000    0.000    0.000 
#
# Total GULP energy -356435.662092 kJ/mol
# GULP energy per Si atom -5569.307220 kJ/mol
# Density = 1.771363 g / cm^3
# Si number density = 17.754040 Si / 1000 Ang^3
#
#
#
# Elastic Constant Matrix: (Units=GPa)
#
#
# Indices 1 2 3 4 5 6 
#
# 1 42.6393 16.6981 25.7116 0.0000 0.0000 0.0000
# 2 16.6981 70.0345 30.8979 0.0000 0.0000 0.0000
# 3 25.7116 30.8979 63.9836 0.0000 0.0000 0.0000
# 4 0.0000 0.0000 0.0000 12.8279 0.0000 0.0000
# 5 0.0000 0.0000 0.0000 0.0000 11.5883 0.0000
# 6 0.0000 0.0000 0.0000 0.0000 0.0000 10.1836
#
#
#
# Elastic Compliance Matrix: (Units=1/GPa)
#
#
# Indices 1 2 3 4 5 6 
#
# 1 0.031275 -0.002430 -0.011394 0.000000 0.000000 0.000000
# 2 -0.002430 0.018333 -0.007877 0.000000 0.000000 0.000000
# 3 -0.011394 -0.007877 0.024011 0.000000 0.000000 0.000000
# 4 0.000000 0.000000 0.000000 0.077955 0.000000 0.000000
# 5 0.000000 0.000000 0.000000 0.000000 0.086294 0.000000
# 6 0.000000 0.000000 0.000000 0.000000 0.000000 0.098197
#
#
# Mechanical properties :
#
#
# Convention : Reuss Voigt Hill
#
# Bulk Modulus (GPa) = 33.09314 35.91917 34.50616
# Shear Modulus (GPa) = 12.83566 13.80995 13.32280
#
# Velocity S-wave (km/s) = 2.69173 2.79202 2.74233
# Velocity P-wave (km/s) = 5.32361 5.53799 5.43185
#
# Compressibility (1/GPa) = 0.03021774
#
# Stress axis : x y z
#
# Youngs Moduli (GPa) = 31.97447 54.54635 41.64673
#
# Poissons Ratio (x) = 0.13254 0.47454
# Poissons Ratio (y) = 0.07769 0.32804
# Poissons Ratio (z) = 0.36433 0.42964
#
# Static dielectric constant tensor:
#      x y z
#    x 1.618230 0.000000 0.000000 
#    y 0.000000 1.616190 0.000000 
#    z 0.000000 0.000000 1.592400 
# 
# From -- ./inp_files/8092.got.cif
#   From: 2010.05.17/outbox.cif.g08.bks.cpg/sg55_5_cif.got.tgz:8092.got - 2010.06.03 13:27:54.
