data_PCOD9426042
_publ_section_title
;
Structure prediction by ZEFSAII (Michael W. Deem and Ramdas Pophale) SiO2 
 PCOD9426042
Probable space group: P B A M
;
_chemical_formula_sum "Si O2"
_cell_formula_units_Z 56
_cell_length_a 21.808866
_cell_length_b 15.637463
_cell_length_c 7.546651
_cell_angle_alpha 90.000000
_cell_angle_beta 90.000000
_cell_angle_gamma 90.000000
_cell_volume 2573.674653
_symmetry_space_group_name_H-M "P B A M"
_symmetry_group_IT_number 55
_symmetry_cell_setting 'orthorhombic'
loop_
_space_group_symop_operation_xyz
x,y,z
-x,-y,z
1/2+x,1/2-y,-z
1/2-x,1/2+y,-z
-x,-y,-z
x,y,-z
1/2-x,1/2+y,z
1/2+x,1/2-y,z
loop_
_atom_site_type_symbol
_atom_site_label
_atom_site_fract_x
_atom_site_fract_y
_atom_site_fract_z
Si Si1 0.568414 0.520497 0.287503
Si Si2 0.406372 0.969216 0.285871
Si Si3 0.188174 0.071204 0.786954
Si Si4 0.229441 0.420275 0.793179
Si Si5 0.980634 0.362330 0.715852
Si Si6 0.101772 0.789724 0.713462
Si Si7 0.260511 0.236915 0.211776
O O1 0.500000 0.500000 0.221270
O O2 0.564488 0.527764 0.500000
O O3 0.616866 0.445232 0.249450
O O4 0.593755 0.612760 0.221020
O O5 0.404944 0.968978 0.500000
O O6 0.338381 0.956931 0.219314
O O7 0.451954 0.892980 0.227908
O O8 0.435938 0.059501 0.231807
O O9 0.223511 0.155006 0.718425
O O10 0.223355 0.987859 0.714178
O O11 0.195033 0.071753 0.000000
O O12 0.233560 0.325752 0.715501
O O13 0.245879 0.411423 0.000000
O O14 0.981280 0.360807 0.500000
O O15 0.952813 0.272713 0.776010
O O16 0.099201 0.792892 0.500000
O O17 0.166620 0.745156 0.757633
O O18 0.251741 0.234297 0.000000
#
# Coordination Sequence:
#
# PCOD9426042 Si02
#       7
#     8   8   8   8   8   8   8
#     4  10  22  38  56  81 113 146 184 233 280 324
#     4   9  17  31  52  76 104 138 174 212 262 321
#     4  10  21  38  58  79 107 146 184 226 280 330
#     4  10  20  34  51  75 108 135 165 219 268 309
#     4   8  16  31  50  75 105 136 173 218 261 310
#     4  10  19  34  56  79 106 144 186 224 271 327
#     4  10  21  36  55  79 107 139 180 225 273 326
#
# _framework density 21.758773999999999
#
# number of rings (size 3 to 8) (size 9 to 14) (size 15 to 20)
#    0.000    2.429    1.429    1.714    0.000    3.143 
#    0.000    3.571    0.000    0.000    0.000    0.000 
#    0.000    0.000    0.000    0.000    0.000    0.000 
#
# Total GULP energy -312576.565879 kJ/mol
# GULP energy per Si atom -5581.724391 kJ/mol
# Density = 2.170925 g / cm^3
# Si number density = 21.758774 Si / 1000 Ang^3
#
#
#
# Elastic Constant Matrix: (Units=GPa)
#
#
# Indices 1 2 3 4 5 6 
#
# 1 126.5208 53.7376 -7.9729 0.0000 0.0000 0.0000
# 2 53.7376 114.3754 16.1393 0.0000 0.0000 0.0000
# 3 -7.9729 16.1393 52.8160 0.0000 0.0000 0.0000
# 4 0.0000 0.0000 0.0000 -10.5147 0.0000 0.0000
# 5 0.0000 0.0000 0.0000 0.0000 4.2054 0.0000
# 6 0.0000 0.0000 0.0000 0.0000 0.0000 -0.1948
#
#
#
# Elastic Compliance Matrix: (Units=1/GPa)
#
#
# Indices 1 2 3 4 5 6 
#
# 1 0.010364 -0.005320 0.003190 0.000000 0.000000 0.000000
# 2 -0.005320 0.011868 -0.004429 0.000000 0.000000 0.000000
# 3 0.003190 -0.004429 0.020769 0.000000 0.000000 0.000000
# 4 0.000000 0.000000 0.000000 -0.095105 0.000000 0.000000
# 5 0.000000 0.000000 0.000000 0.000000 0.237790 0.000000
# 6 0.000000 0.000000 0.000000 0.000000 0.000000 -5.133070
#
#
# Mechanical properties :
#
#
# Convention : Reuss Voigt Hill
#
# Bulk Modulus (GPa) = 33.46431 46.39113 39.92772
# Shear Modulus (GPa) = -1.01537 14.15305 6.56884
#
# Velocity S-wave (km/s) = -0.68386 2.55316 1.73939
# Velocity P-wave (km/s) = 3.84572 5.48256 4.73540
#
# Compressibility (1/GPa) = 0.02988258
#
# Stress axis : x y z
#
# Youngs Moduli (GPa) = 96.48490 84.26341 48.14922
#
# Poissons Ratio (x) = 0.44825 -0.15360
# Poissons Ratio (y) = 0.51327 0.21328
# Poissons Ratio (z) = -0.30780 0.37324
#
# Static dielectric constant tensor:
#      x y z
#    x 1.767070 0.000000 0.000000 
#    y 0.000000 1.814620 0.000000 
#    z 0.000000 0.000000 1.810900 
# 
# From -- ./inp_files/8779.got.cif
#   From: 2010.05.17/outbox.cif.g08.bks.cpg/sg55_5_cif.got.tgz:8779.got - 2010.06.03 13:27:54.
