data_PCOD9426094
_publ_section_title
;
Structure prediction by ZEFSAII (Michael W. Deem and Ramdas Pophale) SiO2 
 PCOD9426094
Probable space group: P B A M
;
_chemical_formula_sum "Si O2"
_cell_formula_units_Z 56
_cell_length_a 15.162820
_cell_length_b 20.608121
_cell_length_c 7.321802
_cell_angle_alpha 90.000000
_cell_angle_beta 90.000000
_cell_angle_gamma 90.000000
_cell_volume 2287.896402
_symmetry_space_group_name_H-M "P B A M"
_symmetry_group_IT_number 55
_symmetry_cell_setting 'orthorhombic'
loop_
_space_group_symop_operation_xyz
x,y,z
-x,-y,z
1/2+x,1/2-y,-z
1/2-x,1/2+y,-z
-x,-y,-z
x,y,-z
1/2-x,1/2+y,z
1/2+x,1/2-y,z
loop_
_atom_site_type_symbol
_atom_site_label
_atom_site_fract_x
_atom_site_fract_y
_atom_site_fract_z
Si Si1 0.581325 0.831449 0.722015
Si Si2 0.389565 0.786194 0.708522
Si Si3 0.924058 0.086081 0.788955
Si Si4 0.389746 0.634985 0.778548
Si Si5 0.695382 0.709492 0.721346
Si Si6 0.717408 0.484027 0.776226
Si Si7 0.406594 0.018771 0.208795
O O1 0.581731 0.832104 0.500000
O O2 0.482980 0.810083 0.784819
O O3 0.653442 0.778121 0.779794
O O4 0.599546 0.903464 0.789540
O O5 0.388951 0.809993 0.500000
O O6 0.388882 0.707957 0.709179
O O7 0.294409 0.804062 0.789677
O O8 0.870882 0.153158 0.778468
O O9 0.020908 0.099463 0.714354
O O10 0.859914 0.031393 0.711970
O O11 0.938058 0.067752 0.000000
O O12 0.308611 0.589265 0.725203
O O13 0.391964 0.638967 0.000000
O O14 0.698474 0.710579 0.500000
O O15 0.813984 0.504823 0.711400
O O16 0.719391 0.486044 0.000000
O O17 0.500000 0.000000 0.294547
O O18 0.409417 0.994095 0.000000
#
# Coordination Sequence:
#
# PCOD9426094 Si02
#       7
#     8   8   8   8   8   8   8
#     4  10  21  38  57  79 110 145 178 222 273 322
#     4  10  21  36  56  80 110 145 179 221 274 325
#     4  10  20  34  56  83 109 141 182 225 275 328
#     4  10  19  34  57  84 109 141 183 224 271 327
#     4  10  21  37  56  80 111 145 183 226 274 324
#     4   9  19  36  55  78 112 146 178 225 275 320
#     4  10  22  38  57  81 110 145 185 227 270 319
#
# _framework density 24.476634000000001
#
# number of rings (size 3 to 8) (size 9 to 14) (size 15 to 20)
#    0.000    2.143    1.429    1.286    2.000    3.714 
#    0.000    1.429    0.000    1.714    0.000    0.000 
#    0.000    0.000    0.000    0.000    0.000    0.000 
#
# Total GULP energy -313166.337515 kJ/mol
# GULP energy per Si atom -5592.256027 kJ/mol
# Density = 2.442092 g / cm^3
# Si number density = 24.476634 Si / 1000 Ang^3
#
#
#
# Elastic Constant Matrix: (Units=GPa)
#
#
# Indices 1 2 3 4 5 6 
#
# 1 135.1880 -12.1253 0.3627 0.0000 0.0000 0.0000
# 2 -12.1253 45.7338 -19.9867 0.0000 0.0000 0.0000
# 3 0.3627 -19.9867 102.6269 0.0000 0.0000 0.0000
# 4 0.0000 0.0000 0.0000 19.6167 0.0000 0.0000
# 5 0.0000 0.0000 0.0000 0.0000 -52.5908 0.0000
# 6 0.0000 0.0000 0.0000 0.0000 0.0000 32.9027
#
#
#
# Elastic Compliance Matrix: (Units=1/GPa)
#
#
# Indices 1 2 3 4 5 6 
#
# 1 0.007592 0.002187 0.000399 0.000000 0.000000 0.000000
# 2 0.002187 0.024530 0.004770 0.000000 0.000000 0.000000
# 3 0.000399 0.004770 0.010671 0.000000 0.000000 0.000000
# 4 0.000000 0.000000 0.000000 0.050977 0.000000 0.000000
# 5 0.000000 0.000000 0.000000 0.000000 -0.019015 0.000000
# 6 0.000000 0.000000 0.000000 0.000000 0.000000 0.030393
#
#
# Mechanical properties :
#
#
# Convention : Reuss Voigt Hill
#
# Bulk Modulus (GPa) = 17.38957 24.45000 20.91978
# Shear Modulus (GPa) = 45.61829 21.00558 33.31193
#
# Velocity S-wave (km/s) = 4.32180 2.93266 3.69313
# Velocity P-wave (km/s) = 5.65897 4.63445 5.17214
#
# Compressibility (1/GPa) = 0.05750575
#
# Stress axis : x y z
#
# Youngs Moduli (GPa) = 131.71375 40.76646 93.70756
#
# Poissons Ratio (x) = -0.08917 -0.03740
# Poissons Ratio (y) = -0.28810 -0.44694
# Poissons Ratio (z) = -0.05257 -0.19444
#
# Static dielectric constant tensor:
#      x y z
#    x 1.939630 0.000000 0.000000 
#    y 0.000000 1.868660 0.000000 
#    z 0.000000 0.000000 1.937800 
# 
# From -- ./inp_files/6109.got.cif
#   From: 2010.05.17/outbox.cif.g08.bks.cpg/sg55_4_cif.got.tgz:6109.got - 2010.06.03 13:27:54.
