data_PCOD9426351
_publ_section_title
;
Structure prediction by ZEFSAII (Michael W. Deem and Ramdas Pophale) SiO2 
 PCOD9426351
Probable space group: P B A M
;
_chemical_formula_sum "Si O2"
_cell_formula_units_Z 52
_cell_length_a 12.949706
_cell_length_b 7.951297
_cell_length_c 22.153584
_cell_angle_alpha 90.000000
_cell_angle_beta 90.000000
_cell_angle_gamma 90.000000
_cell_volume 2281.087164
_symmetry_space_group_name_H-M "P B A M"
_symmetry_group_IT_number 55
_symmetry_cell_setting 'orthorhombic'
loop_
_space_group_symop_operation_xyz
x,y,z
-x,-y,z
1/2+x,1/2-y,-z
1/2-x,1/2+y,-z
-x,-y,-z
x,y,-z
1/2-x,1/2+y,z
1/2+x,1/2-y,z
loop_
_atom_site_type_symbol
_atom_site_label
_atom_site_fract_x
_atom_site_fract_y
_atom_site_fract_z
Si Si1 0.558874 0.677832 0.790700
Si Si2 0.286998 0.020605 0.567609
Si Si3 0.076628 0.751363 0.000000
Si Si4 0.064337 0.673257 0.661052
Si Si5 0.415343 0.676317 0.432595
Si Si6 0.585888 0.199271 0.892064
Si Si7 0.299432 0.440512 0.893207
O O1 0.500000 0.500000 0.782505
O O2 0.586036 0.754957 0.726668
O O3 0.480334 0.790989 0.830721
O O4 0.659306 0.641044 0.831279
O O5 0.309771 0.089297 0.500000
O O6 0.336937 0.126530 0.621157
O O7 0.164079 0.023377 0.573705
O O8 0.340674 0.839795 0.569340
O O9 0.992935 0.696131 0.052724
O O10 0.152641 0.833633 0.052305
O O11 0.000000 0.500000 0.667616
O O12 0.994045 0.797236 0.621098
O O13 0.462125 0.676158 0.500000
O O14 0.648787 0.375827 0.897197
O O15 0.675614 0.060595 0.895369
#
# Coordination Sequence:
#
# PCOD9426351 Si02
#       7
#     8   8   4   8   8   8   8
#     4   9  21  38  52  71 104 141 173 207 252 306
#     4   9  18  33  52  75 102 131 166 210 259 308
#     4  10  19  36  59  82 109 138 169 206 255 310
#     4  10  20  34  54  76 100 134 173 213 255 300
#     4   9  18  33  52  75 102 131 166 210 259 308
#     4  10  20  36  57  79 105 138 172 209 254 301
#     4  10  20  36  57  79 105 138 172 209 254 301
#
# _framework density 22.796146
#
# number of rings (size 3 to 8) (size 9 to 14) (size 15 to 20)
#    0.000    2.462    0.000    3.231    0.000    5.538 
#    0.000    9.231    0.000    4.615    0.000    0.000 
#    0.000    0.000    0.000    0.000    0.000    0.000 
#
# Total GULP energy -289900.694833 kJ/mol
# GULP energy per Si atom -5575.013362 kJ/mol
# Density = 2.274426 g / cm^3
# Si number density = 22.796146 Si / 1000 Ang^3
#
#
#
# Elastic Constant Matrix: (Units=GPa)
#
#
# Indices 1 2 3 4 5 6 
#
# 1 58.6450 31.2819 36.1705 0.0000 0.0000 0.0000
# 2 31.2819 70.8584 47.2914 0.0000 0.0000 0.0000
# 3 36.1705 47.2914 185.9700 0.0000 0.0000 0.0000
# 4 0.0000 0.0000 0.0000 -113.1942 0.0000 0.0000
# 5 0.0000 0.0000 0.0000 0.0000 9.0019 0.0000
# 6 0.0000 0.0000 0.0000 0.0000 0.0000 40.6812
#
#
#
# Elastic Compliance Matrix: (Units=1/GPa)
#
#
# Indices 1 2 3 4 5 6 
#
# 1 0.023084 -0.008665 -0.002286 0.000000 0.000000 0.000000
# 2 -0.008665 0.020250 -0.003464 0.000000 0.000000 0.000000
# 3 -0.002286 -0.003464 0.006703 0.000000 0.000000 0.000000
# 4 0.000000 0.000000 0.000000 -0.008834 0.000000 0.000000
# 5 0.000000 0.000000 0.000000 0.000000 0.111088 0.000000
# 6 0.000000 0.000000 0.000000 0.000000 0.000000 0.024581
#
#
# Mechanical properties :
#
#
# Convention : Reuss Voigt Hill
#
# Bulk Modulus (GPa) = 47.15686 60.55123 53.85404
# Shear Modulus (GPa) = 23.49943 0.67975 12.08959
#
# Velocity S-wave (km/s) = 3.21417 0.54666 2.30540
# Velocity P-wave (km/s) = 5.87416 5.19790 5.54635
#
# Compressibility (1/GPa) = 0.02120582
#
# Stress axis : x y z
#
# Youngs Moduli (GPa) = 43.32041 49.38280 149.19117
#
# Poissons Ratio (x) = 0.42790 0.34109
# Poissons Ratio (y) = 0.37537 0.51683
# Poissons Ratio (z) = 0.09904 0.17107
#
# Static dielectric constant tensor:
#      x y z
#    x 1.817040 0.000000 0.000000 
#    y 0.000000 1.953320 0.000000 
#    z 0.000000 0.000000 1.770650 
# 
# From -- ./inp_files/22936.got.cif
#   From: 2010.05.17/outbox.cif.g08.bks.cpg/sg55_12_cif.got.tgz:22936.got - 2010.06.03 13:27:54.
