data_PCOD9426139
_publ_section_title
;
Structure prediction by ZEFSAII (Michael W. Deem and Ramdas Pophale) SiO2 
 PCOD9426139
Probable space group: P B A M
;
_chemical_formula_sum "Si O2"
_cell_formula_units_Z 56
_cell_length_a 15.874958
_cell_length_b 20.090517
_cell_length_c 8.220418
_cell_angle_alpha 90.000000
_cell_angle_beta 90.000000
_cell_angle_gamma 90.000000
_cell_volume 2621.788169
_symmetry_space_group_name_H-M "P B A M"
_symmetry_group_IT_number 55
_symmetry_cell_setting 'orthorhombic'
loop_
_space_group_symop_operation_xyz
x,y,z
-x,-y,z
1/2+x,1/2-y,-z
1/2-x,1/2+y,-z
-x,-y,-z
x,y,-z
1/2-x,1/2+y,z
1/2+x,1/2-y,z
loop_
_atom_site_type_symbol
_atom_site_label
_atom_site_fract_x
_atom_site_fract_y
_atom_site_fract_z
Si Si1 0.000216 0.122129 0.696760
Si Si2 0.818573 0.073366 0.696822
Si Si3 0.900342 0.507074 0.182750
Si Si4 0.342643 0.858541 0.686718
Si Si5 0.180938 0.075962 0.191504
Si Si6 0.503101 0.776673 0.301147
Si Si7 0.660242 0.864940 0.305978
O O1 0.002702 0.117733 0.500000
O O2 0.084522 0.088894 0.761941
O O3 0.998593 0.199638 0.743071
O O4 0.913196 0.088719 0.752304
O O5 0.816930 0.076893 0.500000
O O6 0.751028 0.128698 0.756897
O O7 0.796011 0.997842 0.743733
O O8 0.877745 0.566207 0.304143
O O9 0.867742 0.435618 0.234886
O O10 0.000000 0.500000 0.178427
O O11 0.870501 0.524541 0.000000
O O12 0.331815 0.836206 0.500000
O O13 0.417853 0.813685 0.758690
O O14 0.241117 0.134759 0.260054
O O15 0.191289 0.075512 0.000000
O O16 0.502138 0.781067 0.500000
O O17 0.590547 0.811722 0.247836
O O18 0.655489 0.865777 0.500000
#
# Coordination Sequence:
#
# PCOD9426139 Si02
#       7
#     8   8   8   8   8   8   8
#     4  10  22  42  63  86 118 156 203 249 295 350
#     4  10  21  37  62  90 115 151 198 251 301 347
#     4  11  21  32  51  85 124 159 192 237 295 351
#     4  10  19  34  58  88 119 153 196 241 292 354
#     4  12  25  40  60  88 119 155 200 250 304 355
#     4   9  20  37  61  92 121 154 195 240 289 352
#     4  11  21  36  61  91 120 154 197 245 297 351
#
# _framework density 21.359466999999999
#
# number of rings (size 3 to 8) (size 9 to 14) (size 15 to 20)
#    0.000    1.571    2.857    2.571    0.000    4.000 
#    0.000    6.429    0.000    1.714    0.000    0.000 
#    0.000    0.000    0.000    0.000    0.000    0.000 
#
# Total GULP energy -312539.797249 kJ/mol
# GULP energy per Si atom -5581.067808 kJ/mol
# Density = 2.131085 g / cm^3
# Si number density = 21.359467 Si / 1000 Ang^3
#
#
#
# Elastic Constant Matrix: (Units=GPa)
#
#
# Indices 1 2 3 4 5 6 
#
# 1 153.9292 30.3481 13.8789 0.0000 0.0000 0.0000
# 2 30.3481 64.7187 1.0120 0.0000 0.0000 0.0000
# 3 13.8789 1.0120 30.6127 0.0000 0.0000 0.0000
# 4 0.0000 0.0000 0.0000 -22.0857 0.0000 0.0000
# 5 0.0000 0.0000 0.0000 0.0000 -11.6138 0.0000
# 6 0.0000 0.0000 0.0000 0.0000 0.0000 35.5201
#
#
#
# Elastic Compliance Matrix: (Units=1/GPa)
#
#
# Indices 1 2 3 4 5 6 
#
# 1 0.007472 -0.003453 -0.003274 0.000000 0.000000 0.000000
# 2 -0.003453 0.017055 0.001002 0.000000 0.000000 0.000000
# 3 -0.003274 0.001002 0.034117 0.000000 0.000000 0.000000
# 4 0.000000 0.000000 0.000000 -0.045278 0.000000 0.000000
# 5 0.000000 0.000000 0.000000 0.000000 -0.086104 0.000000
# 6 0.000000 0.000000 0.000000 0.000000 0.000000 0.028153
#
#
# Mechanical properties :
#
#
# Convention : Reuss Voigt Hill
#
# Bulk Modulus (GPa) = 21.18875 37.74875 29.46875
# Shear Modulus (GPa) = -287.29902 13.96556 -136.66673
#
# Velocity S-wave (km/s) = -11.61028 2.55979 -8.00769
# Velocity P-wave (km/s) = 13.03035 5.14278 8.46587
#
# Compressibility (1/GPa) = 0.04719485
#
# Stress axis : x y z
#
# Youngs Moduli (GPa) = 133.82597 58.63415 29.31072
#
# Poissons Ratio (x) = 0.20245 0.09595
# Poissons Ratio (y) = 0.46207 -0.02936
# Poissons Ratio (z) = 0.43809 -0.05873
#
# Static dielectric constant tensor:
#      x y z
#    x 1.382500 0.000000 0.000000 
#    y 0.000000 1.703110 0.000000 
#    z 0.000000 0.000000 1.753750 
# 
# From -- ./inp_files/6107.got.cif
#   From: 2010.05.17/outbox.cif.g08.bks.cpg/sg55_4_cif.got.tgz:6107.got - 2010.06.03 13:27:54.
