data_PCOD9426276
_publ_section_title
;
Structure prediction by ZEFSAII (Michael W. Deem and Ramdas Pophale) SiO2 
 PCOD9426276
Probable space group: P B A M
;
_chemical_formula_sum "Si O2"
_cell_formula_units_Z 48
_cell_length_a 21.553956
_cell_length_b 15.582955
_cell_length_c 7.314543
_cell_angle_alpha 90.000000
_cell_angle_beta 90.000000
_cell_angle_gamma 90.000000
_cell_volume 2456.767203
_symmetry_space_group_name_H-M "P B A M"
_symmetry_group_IT_number 55
_symmetry_cell_setting 'orthorhombic'
loop_
_space_group_symop_operation_xyz
x,y,z
-x,-y,z
1/2+x,1/2-y,-z
1/2-x,1/2+y,-z
-x,-y,-z
x,y,-z
1/2-x,1/2+y,z
1/2+x,1/2-y,z
loop_
_atom_site_type_symbol
_atom_site_label
_atom_site_fract_x
_atom_site_fract_y
_atom_site_fract_z
Si Si1 0.685916 0.985552 0.277568
Si Si2 0.977252 0.871684 0.000000
Si Si3 0.986659 0.266796 0.280967
Si Si4 0.658084 0.793333 0.721414
Si Si5 0.554958 0.061506 0.722023
Si Si6 0.696935 0.603351 0.720325
Si Si7 0.103842 0.976002 0.000000
O O1 0.685988 0.983495 0.500000
O O2 0.686097 0.885263 0.218175
O O3 0.621360 0.028087 0.216610
O O4 0.741969 0.049005 0.226844
O O5 0.986271 0.814449 0.178919
O O6 0.037984 0.930271 0.000000
O O7 0.913636 0.924250 0.000000
O O8 0.986196 0.257277 0.500000
O O9 0.032196 0.344347 0.229978
O O10 0.914903 0.285585 0.225789
O O11 0.658683 0.795587 0.500000
O O12 0.692859 0.704628 0.773457
O O13 0.556435 0.057749 0.500000
O O14 0.500000 0.000000 0.783560
O O15 0.690482 0.599849 0.500000
O O16 0.641383 0.555779 0.823803
#
# Coordination Sequence:
#
# PCOD9426276 Si02
#       7
#     8   4   8   8   8   8   4
#     4   9  17  32  57  88 120 155 194 241 293 346
#     4  11  24  40  59  84 114 146 194 248 290 342
#     4  10  19  35  60  86 115 152 192 236 293 353
#     4   9  16  31  58  86 111 151 199 232 279 351
#     4   9  15  28  56  90 120 149 187 242 297 344
#     4  10  21  39  61  85 117 156 200 239 285 353
#     4  11  24  42  60  82 113 150 195 247 293 333
#
# _framework density 19.537869000000001
#
# number of rings (size 3 to 8) (size 9 to 14) (size 15 to 20)
#    0.000    2.333    3.333    0.000    0.000    0.667 
#    3.000    4.583    0.000    0.000    0.000    0.000 
#    0.000    0.000    0.000    0.000    0.000    0.000 
#
# Total GULP energy -267708.175617 kJ/mol
# GULP energy per Si atom -5577.253659 kJ/mol
# Density = 1.949340 g / cm^3
# Si number density = 19.537869 Si / 1000 Ang^3
#
#
#
# Elastic Constant Matrix: (Units=GPa)
#
#
# Indices 1 2 3 4 5 6 
#
# 1 127.1711 107.3384 22.9589 0.0000 0.0000 0.0000
# 2 107.3384 189.1243 31.8543 0.0000 0.0000 0.0000
# 3 22.9589 31.8543 77.2503 0.0000 0.0000 0.0000
# 4 0.0000 0.0000 0.0000 -7.6896 0.0000 0.0000
# 5 0.0000 0.0000 0.0000 0.0000 -1.9328 0.0000
# 6 0.0000 0.0000 0.0000 0.0000 0.0000 36.6735
#
#
#
# Elastic Compliance Matrix: (Units=1/GPa)
#
#
# Indices 1 2 3 4 5 6 
#
# 1 0.015170 -0.008436 -0.001030 0.000000 0.000000 0.000000
# 2 -0.008436 0.010374 -0.001770 0.000000 0.000000 0.000000
# 3 -0.001030 -0.001770 0.013981 0.000000 0.000000 0.000000
# 4 0.000000 0.000000 0.000000 -0.130046 0.000000 0.000000
# 5 0.000000 0.000000 0.000000 0.000000 -0.517397 0.000000
# 6 0.000000 0.000000 0.000000 0.000000 0.000000 0.027268
#
#
# Mechanical properties :
#
#
# Convention : Reuss Voigt Hill
#
# Bulk Modulus (GPa) = 58.64488 79.76099 69.20293
# Shear Modulus (GPa) = -9.04989 20.83650 5.89330
#
# Velocity S-wave (km/s) = -2.15454 3.26922 1.73865
# Velocity P-wave (km/s) = 4.88792 7.42717 6.28708
#
# Compressibility (1/GPa) = 0.01705179
#
# Stress axis : x y z
#
# Youngs Moduli (GPa) = 65.91948 96.39659 71.52561
#
# Poissons Ratio (x) = 0.81324 0.07366
# Poissons Ratio (y) = 0.55612 0.12663
# Poissons Ratio (z) = 0.06788 0.17066
#
# Static dielectric constant tensor:
#      x y z
#    x 1.654360 0.000000 0.000000 
#    y 0.000000 1.769730 0.000000 
#    z 0.000000 0.000000 1.711750 
# 
# From -- ./inp_files/7467.got.cif
#   From: 2010.05.17/outbox.cif.g08.bks.cpg/sg55_4_cif.got.tgz:7467.got - 2010.06.03 13:27:54.
