data_PCOD9426644
_publ_section_title
;
Structure prediction by ZEFSAII (Michael W. Deem and Ramdas Pophale) SiO2 
 PCOD9426644
Probable space group: P B A M
;
_chemical_formula_sum "Si O2"
_cell_formula_units_Z 64
_cell_length_a 21.754306
_cell_length_b 18.816375
_cell_length_c 8.461548
_cell_angle_alpha 90.000000
_cell_angle_beta 90.000000
_cell_angle_gamma 90.000000
_cell_volume 3463.626193
_symmetry_space_group_name_H-M "P B A M"
_symmetry_group_IT_number 55
_symmetry_cell_setting 'orthorhombic'
loop_
_space_group_symop_operation_xyz
x,y,z
-x,-y,z
1/2+x,1/2-y,-z
1/2-x,1/2+y,-z
-x,-y,-z
x,y,-z
1/2-x,1/2+y,z
1/2+x,1/2-y,z
loop_
_atom_site_type_symbol
_atom_site_label
_atom_site_fract_x
_atom_site_fract_y
_atom_site_fract_z
Si Si1 0.152391 0.081557 0.310374
Si Si2 0.373318 0.726128 0.812137
Si Si3 0.664163 0.122004 0.311576
Si Si4 0.970348 0.574092 0.309618
Si Si5 0.900846 0.164486 0.689960
Si Si6 0.292219 0.434326 0.812175
Si Si7 0.483178 0.581467 0.678915
Si Si8 0.489681 0.225989 0.811406
O O1 0.151543 0.072846 0.500000
O O2 0.166666 0.163178 0.267192
O O3 0.082810 0.081219 0.242454
O O4 0.186888 0.013075 0.243416
O O5 0.343448 0.801677 0.770611
O O6 0.445810 0.734671 0.758414
O O7 0.374055 0.715465 0.000000
O O8 0.665335 0.132864 0.500000
O O9 0.602222 0.078372 0.272780
O O10 0.725748 0.083651 0.257731
O O11 0.977001 0.579335 0.500000
O O12 0.000000 0.500000 0.257484
O O13 0.000917 0.644038 0.235285
O O14 0.896889 0.158970 0.500000
O O15 0.840144 0.126949 0.756242
O O16 0.927370 0.241650 0.736681
O O17 0.958446 0.118258 0.754351
O O18 0.290060 0.433409 0.000000
O O19 0.500000 0.500000 0.662492
O O20 0.476360 0.611587 0.500000
O O21 0.486527 0.233218 0.000000
#
# Coordination Sequence:
#
# PCOD9426644 Si02
#       8
#     8   8   8   8   8   8   8   8
#     4  11  20  34  56  83 112 149 197 238 278 336
#     4  10  20  35  56  84 115 144 181 235 289 337
#     4  10  21  40  63  84 109 149 193 232 286 354
#     4   9  19  38  65  92 113 138 184 244 295 342
#     4  11  20  34  55  80 113 154 196 233 276 334
#     4  12  25  39  54  80 119 158 194 238 293 346
#     4   9  16  28  48  77 109 143 185 233 273 314
#     4  10  20  33  53  86 121 149 181 227 289 346
#
# _framework density 18.477744999999999
#
# number of rings (size 3 to 8) (size 9 to 14) (size 15 to 20)
#    0.000    1.750    2.500    3.000    0.000    1.750 
#    0.000    1.875    0.000    1.500    0.000    0.000 
#    0.000    0.000    0.000    0.000    0.000    0.000 
#
# Total GULP energy -356668.994996 kJ/mol
# GULP energy per Si atom -5572.953047 kJ/mol
# Density = 1.843569 g / cm^3
# Si number density = 18.477745 Si / 1000 Ang^3
#
#
#
# Elastic Constant Matrix: (Units=GPa)
#
#
# Indices 1 2 3 4 5 6 
#
# 1 84.0496 51.4871 13.6540 0.0000 0.0000 0.0000
# 2 51.4871 104.4397 15.3640 0.0000 0.0000 0.0000
# 3 13.6540 15.3640 42.7820 0.0000 0.0000 0.0000
# 4 0.0000 0.0000 0.0000 28.1693 0.0000 0.0000
# 5 0.0000 0.0000 0.0000 0.0000 30.3495 0.0000
# 6 0.0000 0.0000 0.0000 0.0000 0.0000 23.3116
#
#
#
# Elastic Compliance Matrix: (Units=1/GPa)
#
#
# Indices 1 2 3 4 5 6 
#
# 1 0.017315 -0.008154 -0.002598 0.000000 0.000000 0.000000
# 2 -0.008154 0.013949 -0.002407 0.000000 0.000000 0.000000
# 3 -0.002598 -0.002407 0.025068 0.000000 0.000000 0.000000
# 4 0.000000 0.000000 0.000000 0.035500 0.000000 0.000000
# 5 0.000000 0.000000 0.000000 0.000000 0.032949 0.000000
# 6 0.000000 0.000000 0.000000 0.000000 0.000000 0.042897
#
#
# Mechanical properties :
#
#
# Convention : Reuss Voigt Hill
#
# Bulk Modulus (GPa) = 33.31774 43.58683 38.45228
# Shear Modulus (GPa) = 24.50996 26.41716 25.46356
#
# Velocity S-wave (km/s) = 3.64601 3.78521 3.71626
# Velocity P-wave (km/s) = 5.98289 6.53787 6.26653
#
# Compressibility (1/GPa) = 0.03001404
#
# Stress axis : x y z
#
# Youngs Moduli (GPa) = 57.75505 71.69177 39.89177
#
# Poissons Ratio (x) = 0.58455 0.10363
# Poissons Ratio (y) = 0.47091 0.09602
# Poissons Ratio (z) = 0.15004 0.17256
#
# Static dielectric constant tensor:
#      x y z
#    x 1.646850 0.000000 0.000000 
#    y 0.000000 1.698440 0.000000 
#    z 0.000000 0.000000 1.650220 
# 
# From -- ./inp_files/9016.got.cif
#   From: 2010.05.17/outbox.cif.g08.bks.cpg/sg55_5_cif.got.tgz:9016.got - 2010.06.03 13:27:54.
