data_PCOD9426864
_publ_section_title
;
Structure prediction by ZEFSAII (Michael W. Deem and Ramdas Pophale) SiO2 
 PCOD9426864
Probable space group: P B A M
;
_chemical_formula_sum "Si O2"
_cell_formula_units_Z 64
_cell_length_a 27.987334
_cell_length_b 12.989677
_cell_length_c 9.522275
_cell_angle_alpha 90.000000
_cell_angle_beta 90.000000
_cell_angle_gamma 90.000000
_cell_volume 3461.789070
_symmetry_space_group_name_H-M "P B A M"
_symmetry_group_IT_number 55
_symmetry_cell_setting 'orthorhombic'
loop_
_space_group_symop_operation_xyz
x,y,z
-x,-y,z
1/2+x,1/2-y,-z
1/2-x,1/2+y,-z
-x,-y,-z
x,y,-z
1/2-x,1/2+y,z
1/2+x,1/2-y,z
loop_
_atom_site_type_symbol
_atom_site_label
_atom_site_fract_x
_atom_site_fract_y
_atom_site_fract_z
Si Si1 0.871131 0.033052 0.167768
Si Si2 0.714251 0.143497 0.665721
Si Si3 0.822828 0.208411 0.667155
Si Si4 0.830667 0.822226 0.156704
Si Si5 0.343889 0.058096 0.669119
Si Si6 0.945178 0.537349 0.665804
Si Si7 0.059866 0.255925 0.840538
Si Si8 0.545288 0.427917 0.657913
O O1 0.831289 0.943284 0.191435
O O2 0.916562 0.989352 0.249806
O O3 0.857138 0.140163 0.237074
O O4 0.878738 0.038721 0.000000
O O5 0.704139 0.147731 0.500000
O O6 0.770951 0.155660 0.683772
O O7 0.693486 0.245441 0.736642
O O8 0.688315 0.039061 0.720254
O O9 0.835084 0.203061 0.500000
O O10 0.825510 0.328582 0.711581
O O11 0.886150 0.787658 0.153130
O O12 0.810675 0.808187 0.000000
O O13 0.339557 0.057432 0.500000
O O14 0.400337 0.038300 0.699825
O O15 0.939575 0.564251 0.500000
O O16 0.939039 0.634940 0.765529
O O17 0.000000 0.500000 0.683104
O O18 0.032667 0.176009 0.740756
O O19 0.041528 0.260293 0.000000
O O20 0.500000 0.500000 0.646397
O O21 0.563519 0.404570 0.500000
#
# Coordination Sequence:
#
# PCOD9426864 Si02
#       8
#     8   8   8   8   8   8   8   8
#     4  10  22  39  57  83 120 154 190 236 293 353
#     4  10  20  34  59  85 108 145 194 243 293 348
#     4  10  22  37  57  84 116 154 195 242 299 356
#     4   9  19  35  55  79 109 144 183 235 289 341
#     4   9  19  37  55  82 119 147 190 253 299 346
#     4  10  20  35  57  82 112 156 203 247 299 355
#     4  10  20  35  55  82 115 149 191 243 295 351
#     4  10  21  37  60  87 114 150 197 243 292 348
#
# _framework density 18.487549999999999
#
# number of rings (size 3 to 8) (size 9 to 14) (size 15 to 20)
#    0.000    2.250    1.250    1.875    1.750    5.250 
#    0.000    3.750    0.000    0.000    0.000    0.000 
#    0.000    0.000    0.000    0.000    0.000    0.000 
#
# Total GULP energy -356536.322239 kJ/mol
# GULP energy per Si atom -5570.880035 kJ/mol
# Density = 1.844547 g / cm^3
# Si number density = 18.487550 Si / 1000 Ang^3
#
#
#
# Elastic Constant Matrix: (Units=GPa)
#
#
# Indices 1 2 3 4 5 6 
#
# 1 47.1113 37.9299 39.8751 0.0000 0.0000 0.0000
# 2 37.9299 118.2399 52.4721 0.0000 0.0000 0.0000
# 3 39.8751 52.4721 71.2805 0.0000 0.0000 0.0000
# 4 0.0000 0.0000 0.0000 76.6769 0.0000 0.0000
# 5 0.0000 0.0000 0.0000 0.0000 22.6339 0.0000
# 6 0.0000 0.0000 0.0000 0.0000 0.0000 23.5844
#
#
#
# Elastic Compliance Matrix: (Units=1/GPa)
#
#
# Indices 1 2 3 4 5 6 
#
# 1 0.041875 -0.004511 -0.020104 0.000000 0.000000 0.000000
# 2 -0.004511 0.013047 -0.007081 0.000000 0.000000 0.000000
# 3 -0.020104 -0.007081 0.030488 0.000000 0.000000 0.000000
# 4 0.000000 0.000000 0.000000 0.013042 0.000000 0.000000
# 5 0.000000 0.000000 0.000000 0.000000 0.044181 0.000000
# 6 0.000000 0.000000 0.000000 0.000000 0.000000 0.042401
#
#
# Mechanical properties :
#
#
# Convention : Reuss Voigt Hill
#
# Bulk Modulus (GPa) = 45.41898 55.24287 50.33092
# Shear Modulus (GPa) = 19.54925 31.66936 25.60931
#
# Velocity S-wave (km/s) = 3.25534 4.14334 3.72589
# Velocity P-wave (km/s) = 6.22497 7.26882 6.76705
#
# Compressibility (1/GPa) = 0.02201723
#
# Stress axis : x y z
#
# Youngs Moduli (GPa) = 23.88086 76.64803 32.79981
#
# Poissons Ratio (x) = 0.34576 0.65942
# Poissons Ratio (y) = 0.10773 0.23224
# Poissons Ratio (z) = 0.48011 0.54271
#
# Static dielectric constant tensor:
#      x y z
#    x 1.662130 0.000000 0.000000 
#    y 0.000000 1.646300 0.000000 
#    z 0.000000 0.000000 1.641860 
# 
# From -- ./inp_files/10716.got.cif
#   From: 2010.05.17/outbox.cif.g08.bks.cpg/sg55_6_cif.got.tgz:10716.got - 2010.06.03 13:27:54.
