data_PCOD9426120
_publ_section_title
;
Structure prediction by ZEFSAII (Michael W. Deem and Ramdas Pophale) SiO2 
 PCOD9426120
Probable space group: P B A M
;
_chemical_formula_sum "Si O2"
_cell_formula_units_Z 64
_cell_length_a 20.237238
_cell_length_b 20.299995
_cell_length_c 7.918315
_cell_angle_alpha 90.000000
_cell_angle_beta 90.000000
_cell_angle_gamma 90.000000
_cell_volume 3252.969151
_symmetry_space_group_name_H-M "P B A M"
_symmetry_group_IT_number 55
_symmetry_cell_setting 'orthorhombic'
loop_
_space_group_symop_operation_xyz
x,y,z
-x,-y,z
1/2+x,1/2-y,-z
1/2-x,1/2+y,-z
-x,-y,-z
x,y,-z
1/2-x,1/2+y,z
1/2+x,1/2-y,z
loop_
_atom_site_type_symbol
_atom_site_label
_atom_site_fract_x
_atom_site_fract_y
_atom_site_fract_z
Si Si1 0.934146 0.963801 0.203527
Si Si2 0.032787 0.567487 0.703584
Si Si3 0.428741 0.826102 0.706304
Si Si4 0.716620 0.136257 0.304307
Si Si5 0.791588 0.008355 0.199902
Si Si6 0.181956 0.593648 0.796289
Si Si7 0.248970 0.220321 0.801946
Si Si8 0.895835 0.819192 0.297378
O O1 0.931100 0.886325 0.245350
O O2 0.865269 0.995661 0.268113
O O3 0.934754 0.970046 0.000000
O O4 0.000000 0.000000 0.268028
O O5 0.028795 0.567229 0.500000
O O6 0.108916 0.571841 0.750765
O O7 0.000000 0.500000 0.765808
O O8 0.989524 0.629533 0.764003
O O9 0.427108 0.827161 0.500000
O O10 0.358469 0.856893 0.764191
O O11 0.430689 0.749318 0.755360
O O12 0.711146 0.118089 0.500000
O O13 0.762200 0.081080 0.222456
O O14 0.746057 0.209519 0.287955
O O15 0.737495 0.956870 0.269457
O O16 0.795934 0.995580 0.000000
O O17 0.198377 0.667494 0.736702
O O18 0.187071 0.594995 0.000000
O O19 0.177610 0.185469 0.779725
O O20 0.259716 0.233105 0.000000
O O21 0.888914 0.818190 0.500000
#
# Coordination Sequence:
#
# PCOD9426120 Si02
#       8
#     8   8   8   8   8   8   8   8
#     4  10  21  39  60  80 107 146 191 235 283 344
#     4  10  20  35  55  79 111 151 187 224 278 332
#     4   8  17  34  53  78 113 146 181 226 271 325
#     4  10  20  35  57  86 113 143 187 231 275 330
#     4  10  20  37  57  81 112 145 181 228 283 333
#     4  10  21  36  56  81 111 145 186 232 273 324
#     4  10  19  36  58  80 111 147 184 227 277 330
#     4  10  19  34  58  83 111 144 185 234 281 332
#
# _framework density 19.674333000000001
#
# number of rings (size 3 to 8) (size 9 to 14) (size 15 to 20)
#    0.000    2.250    1.250    2.625    0.000    3.500 
#    2.250    3.750    0.000    0.000    0.000    0.000 
#    0.000    0.000    0.000    0.000    0.000    0.000 
#
# Total GULP energy -357176.235863 kJ/mol
# GULP energy per Si atom -5580.878685 kJ/mol
# Density = 1.962955 g / cm^3
# Si number density = 19.674333 Si / 1000 Ang^3
#
#
#
# Elastic Constant Matrix: (Units=GPa)
#
#
# Indices 1 2 3 4 5 6 
#
# 1 149.5570 86.0809 5.3345 0.0000 0.0000 0.0000
# 2 86.0809 117.0186 -5.3786 0.0000 0.0000 0.0000
# 3 5.3345 -5.3786 15.4070 0.0000 0.0000 0.0000
# 4 0.0000 0.0000 0.0000 15.9917 0.0000 0.0000
# 5 0.0000 0.0000 0.0000 0.0000 31.7016 0.0000
# 6 0.0000 0.0000 0.0000 0.0000 0.0000 27.5670
#
#
#
# Elastic Compliance Matrix: (Units=1/GPa)
#
#
# Indices 1 2 3 4 5 6 
#
# 1 0.012416 -0.009483 -0.007610 0.000000 0.000000 0.000000
# 2 -0.009483 0.015928 0.008844 0.000000 0.000000 0.000000
# 3 -0.007610 0.008844 0.070628 0.000000 0.000000 0.000000
# 4 0.000000 0.000000 0.000000 0.062532 0.000000 0.000000
# 5 0.000000 0.000000 0.000000 0.000000 0.031544 0.000000
# 6 0.000000 0.000000 0.000000 0.000000 0.000000 0.036275
#
#
# Mechanical properties :
#
#
# Convention : Reuss Voigt Hill
#
# Bulk Modulus (GPa) = 12.12495 50.45068 31.28781
# Shear Modulus (GPa) = 18.29403 28.11511 23.20457
#
# Velocity S-wave (km/s) = 3.05264 3.78435 3.43801
# Velocity P-wave (km/s) = 4.31289 6.69280 5.63004
#
# Compressibility (1/GPa) = 0.08247457
#
# Stress axis : x y z
#
# Youngs Moduli (GPa) = 80.54028 62.78168 14.15872
#
# Poissons Ratio (x) = 0.59538 0.10774
# Poissons Ratio (y) = 0.76379 -0.12522
# Poissons Ratio (z) = 0.61287 -0.55524
#
# Static dielectric constant tensor:
#      x y z
#    x 1.675990 0.000000 0.000000 
#    y 0.000000 1.667870 0.000000 
#    z 0.000000 0.000000 1.713650 
# 
# From -- ./inp_files/7958.got.cif
#   From: 2010.05.17/outbox.cif.g08.bks.cpg/sg55_4_cif.got.tgz:7958.got - 2010.06.03 13:27:54.
