data_PCOD9426930
_publ_section_title
;
Structure prediction by ZEFSAII (Michael W. Deem and Ramdas Pophale) SiO2 
 PCOD9426930
Probable space group: P B A M
;
_chemical_formula_sum "Si O2"
_cell_formula_units_Z 34
_cell_length_a 21.304497
_cell_length_b 9.509506
_cell_length_c 7.592479
_cell_angle_alpha 90.000000
_cell_angle_beta 90.000000
_cell_angle_gamma 90.000000
_cell_volume 1538.200121
_symmetry_space_group_name_H-M "P B A M"
_symmetry_group_IT_number 55
_symmetry_cell_setting 'orthorhombic'
loop_
_space_group_symop_operation_xyz
x,y,z
-x,-y,z
1/2+x,1/2-y,-z
1/2-x,1/2+y,-z
-x,-y,-z
x,y,-z
1/2-x,1/2+y,z
1/2+x,1/2-y,z
loop_
_atom_site_type_symbol
_atom_site_label
_atom_site_fract_x
_atom_site_fract_y
_atom_site_fract_z
Si Si1 0.076397 0.702500 0.797988
Si Si2 0.852366 0.578296 0.204002
Si Si3 0.165586 0.821077 0.500000
Si Si4 0.762790 0.459647 0.500000
Si Si5 0.000000 0.000000 0.500000
Si Si6 0.559696 0.330470 0.792624
O O1 0.092102 0.537570 0.778510
O O2 0.122801 0.781218 0.666399
O O3 0.004261 0.739481 0.762018
O O4 0.089585 0.741316 0.000000
O O5 0.798206 0.525047 0.330819
O O6 0.881577 0.729740 0.244689
O O7 0.832329 0.577748 0.000000
O O8 0.222976 0.706474 0.500000
O O9 0.193908 0.975883 0.500000
O O10 0.050047 0.046142 0.344417
O O11 0.561178 0.370809 0.000000
#
# Coordination Sequence:
#
# PCOD9426930 Si02
#       6
#     8   8   4   4   2   8
#     4   9  18  35  60  84 106 134 175 229 278 322
#     4   9  18  35  60  84 106 134 175 229 278 322
#     4  10  21  37  54  79 111 145 187 229 270 324
#     4  10  21  37  54  79 111 145 187 229 270 324
#     4  12  22  32  46  70 120 164 170 202 256 320
#     4  10  20  35  55  83 111 140 179 218 272 334
#
# _framework density 22.103757999999999
#
# number of rings (size 3 to 8) (size 9 to 14) (size 15 to 20)
#    0.000    2.353    0.000    2.471    0.000    3.765 
#    8.471    4.706    0.000    0.000    0.000    0.000 
#    0.000    0.000    0.000    0.000    0.000    0.000 
#
# Total GULP energy -189519.098764 kJ/mol
# GULP energy per Si atom -5574.091140 kJ/mol
# Density = 2.205345 g / cm^3
# Si number density = 22.103758 Si / 1000 Ang^3
#
#
#
# Elastic Constant Matrix: (Units=GPa)
#
#
# Indices 1 2 3 4 5 6 
#
# 1 34.4649 9.7810 15.6725 0.0000 0.0000 0.0000
# 2 9.7810 63.5387 23.1872 0.0000 0.0000 0.0000
# 3 15.6725 23.1872 44.7385 0.0000 0.0000 0.0000
# 4 0.0000 0.0000 0.0000 15.9125 0.0000 0.0000
# 5 0.0000 0.0000 0.0000 0.0000 11.6790 0.0000
# 6 0.0000 0.0000 0.0000 0.0000 0.0000 47.3373
#
#
#
# Elastic Compliance Matrix: (Units=1/GPa)
#
#
# Indices 1 2 3 4 5 6 
#
# 1 0.034577 -0.001113 -0.011536 0.000000 0.000000 0.000000
# 2 -0.001113 0.019445 -0.009688 0.000000 0.000000 0.000000
# 3 -0.011536 -0.009688 0.031415 0.000000 0.000000 0.000000
# 4 0.000000 0.000000 0.000000 0.062844 0.000000 0.000000
# 5 0.000000 0.000000 0.000000 0.000000 0.085624 0.000000
# 6 0.000000 0.000000 0.000000 0.000000 0.000000 0.021125
#
#
# Mechanical properties :
#
#
# Convention : Reuss Voigt Hill
#
# Bulk Modulus (GPa) = 24.53241 26.66927 25.60084
# Shear Modulus (GPa) = 15.95961 21.25917 18.60939
#
# Velocity S-wave (km/s) = 2.68998 3.10464 2.90472
# Velocity P-wave (km/s) = 4.55750 4.99434 4.78091
#
# Compressibility (1/GPa) = 0.04076241
#
# Stress axis : x y z
#
# Youngs Moduli (GPa) = 28.92121 51.42625 31.83230
#
# Poissons Ratio (x) = 0.05723 0.36722
# Poissons Ratio (y) = 0.03218 0.30840
# Poissons Ratio (z) = 0.33363 0.49823
#
# Static dielectric constant tensor:
#      x y z
#    x 1.783240 0.000000 0.000000 
#    y 0.000000 1.871770 0.000000 
#    z 0.000000 0.000000 1.779340 
# 
# From -- ./inp_files/2186.got.cif
#   From: 2010.05.17/outbox.cif.g08.bks.cpg/sg55_2_cif.got.tgz:2186.got - 2010.06.03 13:27:54.
