data_PCOD9426464
_publ_section_title
;
Structure prediction by ZEFSAII (Michael W. Deem and Ramdas Pophale) SiO2 
 PCOD9426464
Probable space group: P B A M
;
_chemical_formula_sum "Si O2"
_cell_formula_units_Z 48
_cell_length_a 8.153670
_cell_length_b 18.921007
_cell_length_c 13.557435
_cell_angle_alpha 90.000000
_cell_angle_beta 90.000000
_cell_angle_gamma 90.000000
_cell_volume 2091.582058
_symmetry_space_group_name_H-M "P B A M"
_symmetry_group_IT_number 55
_symmetry_cell_setting 'orthorhombic'
loop_
_space_group_symop_operation_xyz
x,y,z
-x,-y,z
1/2+x,1/2-y,-z
1/2-x,1/2+y,-z
-x,-y,-z
x,y,-z
1/2-x,1/2+y,z
1/2+x,1/2-y,z
loop_
_atom_site_type_symbol
_atom_site_label
_atom_site_fract_x
_atom_site_fract_y
_atom_site_fract_z
Si Si1 0.749395 0.298327 0.612911
Si Si2 0.419871 0.072361 0.301582
Si Si3 0.605588 0.660686 0.692911
Si Si4 0.552126 0.847614 0.887791
Si Si5 0.810338 0.015315 0.388773
Si Si6 0.438406 0.688226 0.112500
O O1 0.759268 0.276213 0.500000
O O2 0.886756 0.358299 0.633838
O O3 0.566700 0.326287 0.635373
O O4 0.789888 0.231702 0.680454
O O5 0.490013 0.096978 0.197703
O O6 0.500000 0.000000 0.342982
O O7 0.239744 0.038002 0.301221
O O8 0.705065 0.595930 0.646324
O O9 0.551348 0.651613 0.805921
O O10 0.461177 0.772779 0.874084
O O11 0.747538 0.832169 0.876097
O O12 0.522837 0.871657 0.000000
O O13 0.741345 0.002870 0.500000
O O14 0.000000 0.000000 0.399936
O O15 0.488604 0.672490 0.000000
#
# Coordination Sequence:
#
# PCOD9426464 Si02
#       6
#     8   8   8   8   8   8
#     4  12  25  42  64  94 129 167 216 268 318 379
#     4  12  26  42  63  91 132 174 213 266 318 383
#     4  12  23  42  66  95 128 164 215 270 321 385
#     4  10  21  41  66  96 129 165 211 265 326 385
#     4  11  23  42  64  87 126 177 218 259 321 383
#     4  10  19  37  68  97 124 160 205 265 325 381
#
# _framework density 22.949135999999999
#
# number of rings (size 3 to 8) (size 9 to 14) (size 15 to 20)
#    0.000    0.833    5.000    2.000    2.333    3.000 
#    0.000    0.833    0.000    3.000    0.000    0.000 
#    0.000    0.000    0.000    0.000    0.000    0.000 
#
# Total GULP energy -268148.971299 kJ/mol
# GULP energy per Si atom -5586.436902 kJ/mol
# Density = 2.289690 g / cm^3
# Si number density = 22.949136 Si / 1000 Ang^3
#
#
#
# Elastic Constant Matrix: (Units=GPa)
#
#
# Indices 1 2 3 4 5 6 
#
# 1 12.0904 -12.4884 6.2375 0.0000 0.0000 0.0000
# 2 -12.4884 74.1216 1.3042 0.0000 0.0000 0.0000
# 3 6.2375 1.3042 112.5996 0.0000 0.0000 0.0000
# 4 0.0000 0.0000 0.0000 50.6937 0.0000 0.0000
# 5 0.0000 0.0000 0.0000 0.0000 30.9620 0.0000
# 6 0.0000 0.0000 0.0000 0.0000 0.0000 39.7888
#
#
#
# Elastic Compliance Matrix: (Units=1/GPa)
#
#
# Indices 1 2 3 4 5 6 
#
# 1 0.103994 0.017626 -0.005965 0.000000 0.000000 0.000000
# 2 0.017626 0.016482 -0.001167 0.000000 0.000000 0.000000
# 3 -0.005965 -0.001167 0.009225 0.000000 0.000000 0.000000
# 4 0.000000 0.000000 0.000000 0.019726 0.000000 0.000000
# 5 0.000000 0.000000 0.000000 0.000000 0.032298 0.000000
# 6 0.000000 0.000000 0.000000 0.000000 0.000000 0.025133
#
#
# Mechanical properties :
#
#
# Convention : Reuss Voigt Hill
#
# Bulk Modulus (GPa) = 6.63617 20.99091 13.81354
# Shear Modulus (GPa) = 21.17755 37.87278 29.52516
#
# Velocity S-wave (km/s) = 3.04106 4.06679 3.59074
# Velocity P-wave (km/s) = 3.90240 5.58733 4.81907
#
# Compressibility (1/GPa) = 0.15068924
#
# Stress axis : x y z
#
# Youngs Moduli (GPa) = 9.61591 60.67341 108.40127
#
# Poissons Ratio (x) = -1.06946 0.64661
# Poissons Ratio (y) = -0.16949 0.12654
# Poissons Ratio (z) = 0.05736 0.07083
#
# Static dielectric constant tensor:
#      x y z
#    x 2.567010 0.000000 0.000000 
#    y 0.000000 1.871480 0.000000 
#    z 0.000000 0.000000 1.846510 
# 
# From -- ./inp_files/17347.got.cif
#   From: 2010.05.17/outbox.cif.g08.bks.cpg/sg55_9_cif.got.tgz:17347.got - 2010.06.03 13:27:54.
