data_PCOD9426551
_publ_section_title
;
Structure prediction by ZEFSAII (Michael W. Deem and Ramdas Pophale) SiO2 
 PCOD9426551
Probable space group: P B A M
;
_chemical_formula_sum "Si O2"
_cell_formula_units_Z 48
_cell_length_a 13.227747
_cell_length_b 16.449651
_cell_length_c 10.674776
_cell_angle_alpha 90.000000
_cell_angle_beta 90.000000
_cell_angle_gamma 90.000000
_cell_volume 2322.743956
_symmetry_space_group_name_H-M "P B A M"
_symmetry_group_IT_number 55
_symmetry_cell_setting 'orthorhombic'
loop_
_space_group_symop_operation_xyz
x,y,z
-x,-y,z
1/2+x,1/2-y,-z
1/2-x,1/2+y,-z
-x,-y,-z
x,y,-z
1/2-x,1/2+y,z
1/2+x,1/2-y,z
loop_
_atom_site_type_symbol
_atom_site_label
_atom_site_fract_x
_atom_site_fract_y
_atom_site_fract_z
Si Si1 0.594265 0.413066 0.634839
Si Si2 0.547567 0.192144 0.147803
Si Si3 0.232962 0.224385 0.274961
Si Si4 0.132461 0.589750 0.852400
Si Si5 0.093351 0.829806 0.742329
Si Si6 0.190339 0.983021 0.147197
O O1 0.606247 0.454407 0.500000
O O2 0.669853 0.336256 0.639137
O O3 0.482268 0.378899 0.654225
O O4 0.621867 0.465049 0.757240
O O5 0.652026 0.214424 0.214202
O O6 0.477209 0.117707 0.197840
O O7 0.476981 0.271253 0.173367
O O8 0.565720 0.181676 0.000000
O O9 0.288941 0.163294 0.176954
O O10 0.325360 0.275210 0.330398
O O11 0.194498 0.508670 0.816748
O O12 0.117156 0.584123 0.000000
O O13 0.156857 0.891409 0.828206
O O14 0.175960 0.003416 0.000000
#
# Coordination Sequence:
#
# PCOD9426551 Si02
#       6
#     8   8   8   8   8   8
#     4  10  22  38  55  77 106 139 176 221 270 316
#     4   9  16  28  47  71 101 136 174 216 260 309
#     4   9  18  32  50  73  99 134 177 220 263 314
#     4   8  15  28  45  68 101 138 172 209 257 311
#     4  10  20  32  51  77 104 135 175 219 266 318
#     4  10  20  34  53  79 112 146 177 213 263 322
#
# _framework density 20.665213999999999
#
# number of rings (size 3 to 8) (size 9 to 14) (size 15 to 20)
#    0.000    2.667    0.000    1.500    0.000    9.333 
#    0.000    0.833    0.000    3.000    0.000    0.000 
#    0.000   12.000    0.000    0.000    0.000    0.000 
#
# Total GULP energy -267355.845622 kJ/mol
# GULP energy per Si atom -5569.913450 kJ/mol
# Density = 2.061818 g / cm^3
# Si number density = 20.665214 Si / 1000 Ang^3
#
#
#
# Elastic Constant Matrix: (Units=GPa)
#
#
# Indices 1 2 3 4 5 6 
#
# 1 93.3526 17.8384 7.0035 0.0000 0.0000 0.0000
# 2 17.8384 29.8900 13.4220 0.0000 0.0000 0.0000
# 3 7.0035 13.4220 64.8142 0.0000 0.0000 0.0000
# 4 0.0000 0.0000 0.0000 5.9296 0.0000 0.0000
# 5 0.0000 0.0000 0.0000 0.0000 -0.8909 0.0000
# 6 0.0000 0.0000 0.0000 0.0000 0.0000 26.2677
#
#
#
# Elastic Compliance Matrix: (Units=1/GPa)
#
#
# Indices 1 2 3 4 5 6 
#
# 1 0.012093 -0.007310 0.000207 0.000000 0.000000 0.000000
# 2 -0.007310 0.041305 -0.007764 0.000000 0.000000 0.000000
# 3 0.000207 -0.007764 0.017014 0.000000 0.000000 0.000000
# 4 0.000000 0.000000 0.000000 0.168645 0.000000 0.000000
# 5 0.000000 0.000000 0.000000 0.000000 -1.122507 0.000000
# 6 0.000000 0.000000 0.000000 0.000000 0.000000 0.038070
#
#
# Mechanical properties :
#
#
# Convention : Reuss Voigt Hill
#
# Bulk Modulus (GPa) = 24.58291 29.39829 26.99060
# Shear Modulus (GPa) = -6.23374 16.24749 5.00687
#
# Velocity S-wave (km/s) = -1.73870 2.80701 1.55824
# Velocity P-wave (km/s) = 2.80906 4.97620 4.04063
#
# Compressibility (1/GPa) = 0.04067867
#
# Stress axis : x y z
#
# Youngs Moduli (GPa) = 82.68940 24.21002 58.77475
#
# Poissons Ratio (x) = 0.17699 -0.01217
# Poissons Ratio (y) = 0.60449 0.45631
# Poissons Ratio (z) = -0.01713 0.18796
#
# Static dielectric constant tensor:
#      x y z
#    x 1.774380 0.000000 0.000000 
#    y 0.000000 1.808000 0.000000 
#    z 0.000000 0.000000 1.693570 
# 
# From -- ./inp_files/13203.got.cif
#   From: 2010.05.17/outbox.cif.g08.bks.cpg/sg55_7_cif.got.tgz:13203.got - 2010.06.03 13:27:54.
