data_PCOD9426250
_publ_section_title
;
Structure prediction by ZEFSAII (Michael W. Deem and Ramdas Pophale) SiO2 
 PCOD9426250
Probable space group: P B A M
;
_chemical_formula_sum "Si O2"
_cell_formula_units_Z 64
_cell_length_a 20.502374
_cell_length_b 18.988788
_cell_length_c 7.628720
_cell_angle_alpha 90.000000
_cell_angle_beta 90.000000
_cell_angle_gamma 90.000000
_cell_volume 2969.976907
_symmetry_space_group_name_H-M "P B A M"
_symmetry_group_IT_number 55
_symmetry_cell_setting 'orthorhombic'
loop_
_space_group_symop_operation_xyz
x,y,z
-x,-y,z
1/2+x,1/2-y,-z
1/2-x,1/2+y,-z
-x,-y,-z
x,y,-z
1/2-x,1/2+y,z
1/2+x,1/2-y,z
loop_
_atom_site_type_symbol
_atom_site_label
_atom_site_fract_x
_atom_site_fract_y
_atom_site_fract_z
Si Si1 0.443362 0.053585 0.285122
Si Si2 0.621036 0.259091 0.294526
Si Si3 0.122598 0.821136 0.794926
Si Si4 0.516747 0.792957 0.295197
Si Si5 0.767410 0.650853 0.208237
Si Si6 0.300240 0.010416 0.711442
Si Si7 0.323704 0.593419 0.285540
Si Si8 0.571506 0.524318 0.712209
O O1 0.441398 0.053876 0.500000
O O2 0.460241 0.132093 0.222773
O O3 0.372639 0.027600 0.224833
O O4 0.500000 0.000000 0.232868
O O5 0.609424 0.274539 0.500000
O O6 0.550899 0.236994 0.218193
O O7 0.672888 0.196191 0.281470
O O8 0.652809 0.330517 0.221473
O O9 0.074189 0.763961 0.714743
O O10 0.196501 0.824630 0.722886
O O11 0.091818 0.898633 0.774626
O O12 0.126772 0.804324 0.000000
O O13 0.502682 0.806808 0.500000
O O14 0.777593 0.568230 0.242691
O O15 0.767419 0.661288 0.000000
O O16 0.301406 0.013672 0.500000
O O17 0.247120 0.067203 0.773453
O O18 0.322004 0.594954 0.500000
O O19 0.375566 0.533686 0.234342
O O20 0.500000 0.500000 0.770502
O O21 0.571050 0.526870 0.500000
#
# Coordination Sequence:
#
# PCOD9426250 Si02
#       8
#     8   8   8   8   8   8   8   8
#     4   9  18  33  57  88 116 142 182 238 295 345
#     4  10  21  38  62  89 115 147 193 246 300 353
#     4  11  24  39  55  82 121 161 196 233 283 351
#     4  10  21  38  62  90 118 152 196 247 300 355
#     4  11  24  40  57  83 119 160 200 237 288 355
#     4  10  19  35  59  83 109 147 193 242 293 344
#     4   9  18  32  54  86 112 138 185 239 287 340
#     4  10  19  35  60  85 111 144 186 237 287 338
#
# _framework density 21.548988000000001
#
# number of rings (size 3 to 8) (size 9 to 14) (size 15 to 20)
#    0.000    2.000    1.250    2.250    1.750    6.250 
#    0.000    1.875    0.000    1.500    0.000    0.000 
#    0.000    0.000    0.000    0.000    0.000    0.000 
#
# Total GULP energy -357675.993124 kJ/mol
# GULP energy per Si atom -5588.687393 kJ/mol
# Density = 2.149994 g / cm^3
# Si number density = 21.548988 Si / 1000 Ang^3
#
#
#
# Elastic Constant Matrix: (Units=GPa)
#
#
# Indices 1 2 3 4 5 6 
#
# 1 200.0931 74.2020 -4.6100 0.0000 0.0000 0.0000
# 2 74.2020 128.9682 -13.0954 0.0000 0.0000 0.0000
# 3 -4.6100 -13.0954 37.9264 0.0000 0.0000 0.0000
# 4 0.0000 0.0000 0.0000 -233.4062 0.0000 0.0000
# 5 0.0000 0.0000 0.0000 0.0000 -2.8448 0.0000
# 6 0.0000 0.0000 0.0000 0.0000 0.0000 28.5014
#
#
#
# Elastic Compliance Matrix: (Units=1/GPa)
#
#
# Indices 1 2 3 4 5 6 
#
# 1 0.006363 -0.003712 -0.000508 0.000000 0.000000 0.000000
# 2 -0.003712 0.010202 0.003071 0.000000 0.000000 0.000000
# 3 -0.000508 0.003071 0.027365 0.000000 0.000000 0.000000
# 4 0.000000 0.000000 0.000000 -0.004284 0.000000 0.000000
# 5 0.000000 0.000000 0.000000 0.000000 -0.351514 0.000000
# 6 0.000000 0.000000 0.000000 0.000000 0.000000 0.035086
#
#
# Mechanical properties :
#
#
# Convention : Reuss Voigt Hill
#
# Bulk Modulus (GPa) = 24.02082 53.33120 38.67601
# Shear Modulus (GPa) = -19.18598 -20.85051 -20.01824
#
# Velocity S-wave (km/s) = -2.98710 -3.11398 -3.05120
# Velocity P-wave (km/s) = 0.85190 3.44578 2.36090
#
# Compressibility (1/GPa) = 0.04163055
#
# Stress axis : x y z
#
# Youngs Moduli (GPa) = 157.16720 98.02363 36.54237
#
# Poissons Ratio (x) = 0.36390 0.01858
# Poissons Ratio (y) = 0.58346 -0.11223
# Poissons Ratio (z) = 0.07991 -0.30105
#
# Static dielectric constant tensor:
#      x y z
#    x 1.797950 0.000000 0.000000 
#    y 0.000000 1.724630 0.000000 
#    z 0.000000 0.000000 1.800710 
# 
# From -- ./inp_files/7975.got.cif
#   From: 2010.05.17/outbox.cif.g08.bks.cpg/sg55_4_cif.got.tgz:7975.got - 2010.06.03 13:27:54.
