data_PCOD9426904
_publ_section_title
;
Structure prediction by ZEFSAII (Michael W. Deem and Ramdas Pophale) SiO2 
 PCOD9426904
Probable space group: P B A M
;
_chemical_formula_sum "Si O2"
_cell_formula_units_Z 58
_cell_length_a 12.287240
_cell_length_b 26.778396
_cell_length_c 9.129887
_cell_angle_alpha 90.000000
_cell_angle_beta 90.000000
_cell_angle_gamma 90.000000
_cell_volume 3004.030261
_symmetry_space_group_name_H-M "P B A M"
_symmetry_group_IT_number 55
_symmetry_cell_setting 'orthorhombic'
loop_
_space_group_symop_operation_xyz
x,y,z
-x,-y,z
1/2+x,1/2-y,-z
1/2-x,1/2+y,-z
-x,-y,-z
x,y,-z
1/2-x,1/2+y,z
1/2+x,1/2-y,z
loop_
_atom_site_type_symbol
_atom_site_label
_atom_site_fract_x
_atom_site_fract_y
_atom_site_fract_z
Si Si1 0.120571 0.078608 0.673691
Si Si2 0.603969 0.215352 0.330462
Si Si3 0.728726 0.991384 0.159933
Si Si4 0.594855 0.782376 0.830968
Si Si5 0.163552 0.181893 0.169850
Si Si6 0.402563 0.423475 0.826687
Si Si7 0.655194 0.679377 0.670764
Si Si8 0.000000 0.500000 0.000000
O O1 0.110020 0.078657 0.500000
O O2 0.227844 0.048601 0.724392
O O3 0.128873 0.134506 0.737233
O O4 0.011242 0.056742 0.747708
O O5 0.580377 0.225815 0.500000
O O6 0.502718 0.190060 0.250779
O O7 0.623352 0.266917 0.243361
O O8 0.714061 0.183970 0.323146
O O9 0.795654 0.042031 0.193907
O O10 0.600124 0.998331 0.126552
O O11 0.772415 0.973392 0.000000
O O12 0.705786 0.813258 0.827084
O O13 0.614122 0.730248 0.746353
O O14 0.567966 0.772558 0.000000
O O15 0.128823 0.178308 0.000000
O O16 0.380893 0.369204 0.757632
O O17 0.422060 0.419663 0.000000
O O18 0.621918 0.677391 0.500000
#
# Coordination Sequence:
#
# PCOD9426904 Si02
#       8
#     8   8   8   8   8   8   8   2
#     4  12  24  38  61  94 127 157 194 248 306 363
#     4  10  20  35  54  78 115 157 198 248 303 359
#     4   9  21  43  68  90 118 156 195 241 292 354
#     4  10  20  35  55  79 108 153 204 252 293 350
#     4  10  21  37  56  81 114 155 204 249 297 352
#     4  11  22  38  62  92 120 156 197 245 298 354
#     4  10  21  36  54  80 118 156 194 243 303 357
#     4   8  20  48  72  88 120 156 202 242 296 348
#
# _framework density 19.307395
#
# number of rings (size 3 to 8) (size 9 to 14) (size 15 to 20)
#    0.414    1.379    0.000    4.552    0.000    6.069 
#    2.483    0.345    0.000    0.000    0.000    0.000 
#    0.000    0.000    0.000    0.000    0.000    0.000 
#
# Total GULP energy -323139.653545 kJ/mol
# GULP energy per Si atom -5571.373337 kJ/mol
# Density = 1.926345 g / cm^3
# Si number density = 19.307395 Si / 1000 Ang^3
#
#
#
# Elastic Constant Matrix: (Units=GPa)
#
#
# Indices 1 2 3 4 5 6 
#
# 1 141.4180 21.4912 52.8529 0.0000 0.0000 0.0000
# 2 21.4912 61.5596 34.0258 0.0000 0.0000 0.0000
# 3 52.8529 34.0258 146.5618 0.0000 0.0000 0.0000
# 4 0.0000 0.0000 0.0000 0.4897 0.0000 0.0000
# 5 0.0000 0.0000 0.0000 0.0000 29.6424 0.0000
# 6 0.0000 0.0000 0.0000 0.0000 0.0000 -6.3096
#
#
#
# Elastic Compliance Matrix: (Units=1/GPa)
#
#
# Indices 1 2 3 4 5 6 
#
# 1 0.008280 -0.001423 -0.002656 0.000000 0.000000 0.000000
# 2 -0.001423 0.018880 -0.003870 0.000000 0.000000 0.000000
# 3 -0.002656 -0.003870 0.008679 0.000000 0.000000 0.000000
# 4 0.000000 0.000000 0.000000 2.042162 0.000000 0.000000
# 5 0.000000 0.000000 0.000000 0.000000 0.033736 0.000000
# 6 0.000000 0.000000 0.000000 0.000000 0.000000 -0.158488
#
#
# Mechanical properties :
#
#
# Convention : Reuss Voigt Hill
#
# Bulk Modulus (GPa) = 50.14453 62.91991 56.53222
# Shear Modulus (GPa) = 2.53063 20.84245 11.68654
#
# Velocity S-wave (km/s) = 1.14610 3.28915 2.46293
# Velocity P-wave (km/s) = 5.27062 6.86177 6.11814
#
# Compressibility (1/GPa) = 0.01994235
#
# Stress axis : x y z
#
# Youngs Moduli (GPa) = 120.77378 52.96525 115.21789
#
# Poissons Ratio (x) = 0.07536 0.30597
# Poissons Ratio (y) = 0.17184 0.44591
# Poissons Ratio (z) = 0.32072 0.20498
#
# Static dielectric constant tensor:
#      x y z
#    x 1.728100 0.000000 0.000000 
#    y 0.000000 1.666950 0.000000 
#    z 0.000000 0.000000 1.656280 
# 
# From -- ./inp_files/4292.got.cif
#   From: 2010.05.17/outbox.cif.g08.bks.cpg/sg55_3_cif.got.tgz:4292.got - 2010.06.03 13:27:54.
