data_PCOD9426016
_publ_section_title
;
Structure prediction by ZEFSAII (Michael W. Deem and Ramdas Pophale) SiO2 
 PCOD9426016
Probable space group: P B A M
;
_chemical_formula_sum "Si O2"
_cell_formula_units_Z 58
_cell_length_a 14.671305
_cell_length_b 25.805397
_cell_length_c 7.424735
_cell_angle_alpha 90.000000
_cell_angle_beta 90.000000
_cell_angle_gamma 90.000000
_cell_volume 2810.996133
_symmetry_space_group_name_H-M "P B A M"
_symmetry_group_IT_number 55
_symmetry_cell_setting 'orthorhombic'
loop_
_space_group_symop_operation_xyz
x,y,z
-x,-y,z
1/2+x,1/2-y,-z
1/2-x,1/2+y,-z
-x,-y,-z
x,y,-z
1/2-x,1/2+y,z
1/2+x,1/2-y,z
loop_
_atom_site_type_symbol
_atom_site_label
_atom_site_fract_x
_atom_site_fract_y
_atom_site_fract_z
Si Si1 0.231144 0.271420 0.705277
Si Si2 0.561235 0.737581 0.211382
Si Si3 0.893541 0.823645 0.794882
Si Si4 0.061436 0.644589 0.219983
Si Si5 0.363683 0.878962 0.784327
Si Si6 0.165068 0.492374 0.782840
Si Si7 0.252331 0.595210 0.781579
Si Si8 0.000000 0.500000 0.500000
O O1 0.237281 0.254345 0.500000
O O2 0.333836 0.278233 0.773558
O O3 0.175036 0.225722 0.800063
O O4 0.179510 0.326024 0.715685
O O5 0.486786 0.698195 0.289195
O O6 0.553017 0.796051 0.282003
O O7 0.538529 0.742079 0.000000
O O8 0.837210 0.871316 0.713145
O O9 0.915707 0.839256 0.000000
O O10 0.968895 0.616133 0.278366
O O11 0.156755 0.620695 0.279762
O O12 0.063315 0.643580 0.000000
O O13 0.312871 0.932321 0.742183
O O14 0.365437 0.873580 0.000000
O O15 0.243321 0.534414 0.743654
O O16 0.079262 0.505419 0.658920
O O17 0.144116 0.496097 0.000000
O O18 0.253342 0.600760 0.000000
#
# Coordination Sequence:
#
# PCOD9426016 Si02
#       8
#     8   8   8   8   8   8   8   2
#     4  12  24  35  52  82 118 149 185 237 295 351
#     4  10  19  34  55  79 106 144 192 230 277 342
#     4  10  19  36  61  83 108 149 195 237 286 346
#     4   9  15  26  52  81 107 140 181 229 272 330
#     4  10  20  37  58  79 110 155 199 235 282 343
#     4  10  22  38  57  85 120 160 201 244 295 352
#     4   9  17  33  56  83 114 147 189 237 285 342
#     4  12  22  36  60  86 124 162 198 248 288 356
#
# _framework density 20.633254000000001
#
# number of rings (size 3 to 8) (size 9 to 14) (size 15 to 20)
#    0.000    1.931    2.759    2.276    0.966    2.759 
#    1.241    0.000    0.000    0.828    0.000    5.793 
#    0.000    0.000    0.000    0.000    0.000    0.000 
#
# Total GULP energy -323228.941914 kJ/mol
# GULP energy per Si atom -5572.912792 kJ/mol
# Density = 2.058629 g / cm^3
# Si number density = 20.633254 Si / 1000 Ang^3
#
#
#
# Elastic Constant Matrix: (Units=GPa)
#
#
# Indices 1 2 3 4 5 6 
#
# 1 54.0488 -8.8484 -15.5898 0.0000 0.0000 0.0000
# 2 -8.8484 49.2432 -6.6024 0.0000 0.0000 0.0000
# 3 -15.5898 -6.6024 73.1463 0.0000 0.0000 0.0000
# 4 0.0000 0.0000 0.0000 -31.6977 0.0000 0.0000
# 5 0.0000 0.0000 0.0000 0.0000 20.5715 0.0000
# 6 0.0000 0.0000 0.0000 0.0000 0.0000 26.9367
#
#
#
# Elastic Compliance Matrix: (Units=1/GPa)
#
#
# Indices 1 2 3 4 5 6 
#
# 1 0.020591 0.004341 0.004781 0.000000 0.000000 0.000000
# 2 0.004341 0.021471 0.002863 0.000000 0.000000 0.000000
# 3 0.004781 0.002863 0.014949 0.000000 0.000000 0.000000
# 4 0.000000 0.000000 0.000000 -0.031548 0.000000 0.000000
# 5 0.000000 0.000000 0.000000 0.000000 0.048611 0.000000
# 6 0.000000 0.000000 0.000000 0.000000 0.000000 0.037124
#
#
# Mechanical properties :
#
#
# Convention : Reuss Voigt Hill
#
# Bulk Modulus (GPa) = 12.34862 12.70634 12.52748
# Shear Modulus (GPa) = 43.77427 16.99402 30.38414
#
# Velocity S-wave (km/s) = 4.61101 2.87300 3.84159
# Velocity P-wave (km/s) = 5.86058 4.14452 5.07560
#
# Compressibility (1/GPa) = 0.08098070
#
# Stress axis : x y z
#
# Youngs Moduli (GPa) = 48.56404 46.57385 66.89609
#
# Poissons Ratio (x) = -0.20218 -0.31980
# Poissons Ratio (y) = -0.21082 -0.19154
# Poissons Ratio (z) = -0.23216 -0.13335
#
# Static dielectric constant tensor:
#      x y z
#    x 1.726310 0.000000 0.000000 
#    y 0.000000 1.768510 0.000000 
#    z 0.000000 0.000000 1.580900 
# 
# From -- ./inp_files/6839.got.cif
#   From: 2010.05.17/outbox.cif.g08.bks.cpg/sg55_4_cif.got.tgz:6839.got - 2010.06.03 13:27:54.
