data_PCOD9426163
_publ_section_title
;
Structure prediction by ZEFSAII (Michael W. Deem and Ramdas Pophale) SiO2 
 PCOD9426163
Probable space group: P B A M
;
_chemical_formula_sum "Si O2"
_cell_formula_units_Z 56
_cell_length_a 16.047326
_cell_length_b 20.660103
_cell_length_c 8.164458
_cell_angle_alpha 90.000000
_cell_angle_beta 90.000000
_cell_angle_gamma 90.000000
_cell_volume 2706.839572
_symmetry_space_group_name_H-M "P B A M"
_symmetry_group_IT_number 55
_symmetry_cell_setting 'orthorhombic'
loop_
_space_group_symop_operation_xyz
x,y,z
-x,-y,z
1/2+x,1/2-y,-z
1/2-x,1/2+y,-z
-x,-y,-z
x,y,-z
1/2-x,1/2+y,z
1/2+x,1/2-y,z
loop_
_atom_site_type_symbol
_atom_site_label
_atom_site_fract_x
_atom_site_fract_y
_atom_site_fract_z
Si Si1 0.674717 0.172360 0.689999
Si Si2 0.260427 0.965922 0.700247
Si Si3 0.818344 0.814985 0.807642
Si Si4 0.493026 0.317333 0.693964
Si Si5 0.336220 0.098540 0.304755
Si Si6 0.574304 0.545711 0.700022
Si Si7 0.506784 0.822818 0.187081
O O1 0.699159 0.179928 0.500000
O O2 0.712564 0.105473 0.754511
O O3 0.698972 0.238619 0.779581
O O4 0.574621 0.166147 0.702772
O O5 0.262973 0.965323 0.500000
O O6 0.165170 0.977772 0.750726
O O7 0.317799 0.025447 0.753222
O O8 0.745069 0.858294 0.733864
O O9 0.908311 0.827907 0.725571
O O10 0.825347 0.827738 0.000000
O O11 0.480240 0.308609 0.500000
O O12 0.443482 0.380589 0.749424
O O13 0.467090 0.251503 0.782401
O O14 0.348527 0.097814 0.500000
O O15 0.417037 0.130469 0.225261
O O16 0.500000 0.500000 0.757973
O O17 0.572610 0.545018 0.500000
O O18 0.479471 0.829833 0.000000
#
# Coordination Sequence:
#
# PCOD9426163 Si02
#       7
#     8   8   8   8   8   8   8
#     4  10  20  38  62  87 115 152 201 247 297 353
#     4   9  20  36  58  89 117 148 195 253 298 344
#     4  11  22  37  57  85 122 157 193 240 297 350
#     4  10  19  34  60  88 114 152 199 239 288 350
#     4  11  22  39  62  86 114 151 200 246 294 352
#     4   9  17  31  55  88 121 148 186 240 294 343
#     4  11  23  39  57  83 119 153 194 244 301 354
#
# _framework density 20.688333
#
# number of rings (size 3 to 8) (size 9 to 14) (size 15 to 20)
#    0.000    1.857    0.000    6.429    2.000    2.857 
#    0.000    5.714    0.000    9.429    0.000    0.000 
#    0.000    0.000    0.000    0.000    0.000    0.000 
#
# Total GULP energy -312978.710705 kJ/mol
# GULP energy per Si atom -5588.905548 kJ/mol
# Density = 2.064125 g / cm^3
# Si number density = 20.688333 Si / 1000 Ang^3
#
#
#
# Elastic Constant Matrix: (Units=GPa)
#
#
# Indices 1 2 3 4 5 6 
#
# 1 16.3160 6.8654 -12.5739 0.0000 0.0000 0.0000
# 2 6.8654 57.7984 -8.5001 0.0000 0.0000 0.0000
# 3 -12.5739 -8.5001 33.6842 0.0000 0.0000 0.0000
# 4 0.0000 0.0000 0.0000 -42.3562 0.0000 0.0000
# 5 0.0000 0.0000 0.0000 0.0000 -2.5093 0.0000
# 6 0.0000 0.0000 0.0000 0.0000 0.0000 35.1631
#
#
#
# Elastic Compliance Matrix: (Units=1/GPa)
#
#
# Indices 1 2 3 4 5 6 
#
# 1 0.087893 -0.005831 0.031338 0.000000 0.000000 0.000000
# 2 -0.005831 0.018355 0.002455 0.000000 0.000000 0.000000
# 3 0.031338 0.002455 0.042005 0.000000 0.000000 0.000000
# 4 0.000000 0.000000 0.000000 -0.023609 0.000000 0.000000
# 5 0.000000 0.000000 0.000000 0.000000 -0.398512 0.000000
# 6 0.000000 0.000000 0.000000 0.000000 0.000000 0.028439
#
#
# Mechanical properties :
#
#
# Convention : Reuss Voigt Hill
#
# Bulk Modulus (GPa) = 4.89771 8.82017 6.85894
# Shear Modulus (GPa) = -21.43232 6.19332 -7.61950
#
# Velocity S-wave (km/s) = -3.22213 1.73209 -1.92119
# Velocity P-wave (km/s) = 3.38678 2.87624 1.26442
#
# Compressibility (1/GPa) = 0.20417685
#
# Stress axis : x y z
#
# Youngs Moduli (GPa) = 11.37741 54.48035 23.80663
#
# Poissons Ratio (x) = 0.31770 -0.74605
# Poissons Ratio (y) = 0.06635 -0.05845
# Poissons Ratio (z) = -0.35654 -0.13375
#
# Static dielectric constant tensor:
#      x y z
#    x 1.711750 0.000000 0.000000 
#    y 0.000000 1.733900 0.000000 
#    z 0.000000 0.000000 1.713250 
# 
# From -- ./inp_files/6193.got.cif
#   From: 2010.05.17/outbox.cif.g08.bks.cpg/sg55_4_cif.got.tgz:6193.got - 2010.06.03 13:27:54.
