data_PCOD9426861
_publ_section_title
;
Structure prediction by ZEFSAII (Michael W. Deem and Ramdas Pophale) SiO2 
 PCOD9426861
Probable space group: P B A M
;
_chemical_formula_sum "Si O2"
_cell_formula_units_Z 48
_cell_length_a 24.283097
_cell_length_b 12.033247
_cell_length_c 7.547774
_cell_angle_alpha 90.000000
_cell_angle_beta 90.000000
_cell_angle_gamma 90.000000
_cell_volume 2205.493559
_symmetry_space_group_name_H-M "P B A M"
_symmetry_group_IT_number 55
_symmetry_cell_setting 'orthorhombic'
loop_
_space_group_symop_operation_xyz
x,y,z
-x,-y,z
1/2+x,1/2-y,-z
1/2-x,1/2+y,-z
-x,-y,-z
x,y,-z
1/2-x,1/2+y,z
1/2+x,1/2-y,z
loop_
_atom_site_type_symbol
_atom_site_label
_atom_site_fract_x
_atom_site_fract_y
_atom_site_fract_z
Si Si1 0.281983 0.552433 0.500000
Si Si2 0.634823 0.177188 0.799710
Si Si3 0.041659 0.151295 0.213840
Si Si4 0.076904 0.771933 0.785063
Si Si5 0.775116 0.693848 0.500000
Si Si6 0.633417 0.516108 0.212312
Si Si7 0.062471 0.518971 0.294306
O O1 0.253982 0.428791 0.500000
O O2 0.252656 0.675713 0.500000
O O3 0.321039 0.545882 0.326451
O O4 0.584491 0.253502 0.733603
O O5 0.686048 0.187788 0.672345
O O6 0.608137 0.055448 0.798761
O O7 0.648493 0.211228 0.000000
O O8 0.981324 0.178434 0.280820
O O9 0.074001 0.038890 0.254465
O O10 0.037068 0.153309 0.000000
O O11 0.126309 0.854833 0.736817
O O12 0.078896 0.646823 0.720901
O O13 0.075708 0.770402 0.000000
O O14 0.642425 0.506380 0.000000
O O15 0.061803 0.485162 0.500000
O O16 0.000000 0.500000 0.224307
#
# Coordination Sequence:
#
# PCOD9426861 Si02
#       7
#     4   8   8   8   4   8   8
#     4  12  28  48  74  95 128 169 216 286 349 398
#     4  11  22  41  69  94 126 172 217 263 321 391
#     4   9  17  34  63  93 128 170 211 253 305 380
#     4  10  20  34  58  95 137 177 218 262 311 378
#     4  12  28  50  70 100 124 161 224 287 347 400
#     4  10  22  42  66  96 130 171 217 263 326 397
#     4  11  22  34  54  91 139 181 219 261 309 380
#
# _framework density 21.763836000000001
#
# number of rings (size 3 to 8) (size 9 to 14) (size 15 to 20)
#    0.000    1.500    4.167    1.000    1.167    4.667 
#    1.500    0.833    0.000    0.000    0.000    0.000 
#    0.000    0.000    0.000    0.000    0.000    0.000 
#
# Total GULP energy -267899.614832 kJ/mol
# GULP energy per Si atom -5581.241976 kJ/mol
# Density = 2.171430 g / cm^3
# Si number density = 21.763836 Si / 1000 Ang^3
#
#
#
# Elastic Constant Matrix: (Units=GPa)
#
#
# Indices 1 2 3 4 5 6 
#
# 1 20.2831 27.0287 13.2253 0.0000 0.0000 0.0000
# 2 27.0287 165.3214 6.6841 0.0000 0.0000 0.0000
# 3 13.2253 6.6841 82.1604 0.0000 0.0000 0.0000
# 4 0.0000 0.0000 0.0000 24.6200 0.0000 0.0000
# 5 0.0000 0.0000 0.0000 0.0000 17.5246 0.0000
# 6 0.0000 0.0000 0.0000 0.0000 0.0000 34.4691
#
#
#
# Elastic Compliance Matrix: (Units=1/GPa)
#
#
# Indices 1 2 3 4 5 6 
#
# 1 0.071090 -0.011197 -0.010532 0.000000 0.000000 0.000000
# 2 -0.011197 0.007832 0.001165 0.000000 0.000000 0.000000
# 3 -0.010532 0.001165 0.013772 0.000000 0.000000 0.000000
# 4 0.000000 0.000000 0.000000 0.040617 0.000000 0.000000
# 5 0.000000 0.000000 0.000000 0.000000 0.057063 0.000000
# 6 0.000000 0.000000 0.000000 0.000000 0.000000 0.029011
#
#
# Mechanical properties :
#
#
# Convention : Reuss Voigt Hill
#
# Bulk Modulus (GPa) = 19.39255 40.18236 29.78746
# Shear Modulus (GPa) = 18.00486 30.04453 24.02469
#
# Velocity S-wave (km/s) = 2.87937 3.71951 3.32608
# Velocity P-wave (km/s) = 4.47037 6.07860 5.33542
#
# Compressibility (1/GPa) = 0.05156618
#
# Stress axis : x y z
#
# Youngs Moduli (GPa) = 14.06664 127.67629 72.61149
#
# Poissons Ratio (x) = 1.42957 0.76477
# Poissons Ratio (y) = 0.15750 -0.08460
# Poissons Ratio (z) = 0.14816 -0.14876
#
# Static dielectric constant tensor:
#      x y z
#    x 1.769050 0.000000 0.000000 
#    y 0.000000 1.880990 0.000000 
#    z 0.000000 0.000000 1.804640 
# 
# From -- ./inp_files/9480.got.cif
#   From: 2010.05.17/outbox.cif.g08.bks.cpg/sg55_5_cif.got.tgz:9480.got - 2010.06.03 13:27:54.
