data_PCOD9426696
_publ_section_title
;
Structure prediction by ZEFSAII (Michael W. Deem and Ramdas Pophale) SiO2 
 PCOD9426696
Probable space group: P B A M
;
_chemical_formula_sum "Si O2"
_cell_formula_units_Z 64
_cell_length_a 17.550962
_cell_length_b 10.021303
_cell_length_c 20.100575
_cell_angle_alpha 90.000000
_cell_angle_beta 90.000000
_cell_angle_gamma 90.000000
_cell_volume 3535.359647
_symmetry_space_group_name_H-M "P B A M"
_symmetry_group_IT_number 55
_symmetry_cell_setting 'orthorhombic'
loop_
_space_group_symop_operation_xyz
x,y,z
-x,-y,z
1/2+x,1/2-y,-z
1/2-x,1/2+y,-z
-x,-y,-z
x,y,-z
1/2-x,1/2+y,z
1/2+x,1/2-y,z
loop_
_atom_site_type_symbol
_atom_site_label
_atom_site_fract_x
_atom_site_fract_y
_atom_site_fract_z
Si Si1 0.729782 0.583727 0.072900
Si Si2 0.450084 0.367686 0.072393
Si Si3 0.589200 0.728527 0.788480
Si Si4 0.248060 0.670114 0.155941
Si Si5 0.554001 0.629639 0.422319
Si Si6 0.514571 0.154312 0.672698
Si Si7 0.824393 0.058898 0.686067
Si Si8 0.681571 0.252289 0.287406
O O1 0.638443 0.590895 0.071048
O O2 0.749507 0.479452 0.130064
O O3 0.755662 0.730824 0.093651
O O4 0.758747 0.544967 0.000000
O O5 0.500000 0.500000 0.074867
O O6 0.456739 0.294146 0.143084
O O7 0.465798 0.300152 0.000000
O O8 0.666468 0.804568 0.809350
O O9 0.538692 0.805209 0.735055
O O10 0.620598 0.596389 0.749440
O O11 0.310809 0.714505 0.209083
O O12 0.500000 0.500000 0.414996
O O13 0.569563 0.650271 0.500000
O O14 0.511144 0.753766 0.388734
O O15 0.629310 0.603357 0.378976
O O16 0.601155 0.190505 0.691720
O O17 0.500000 0.000000 0.658200
O O18 0.748856 0.148602 0.694601
O O19 0.808245 0.901218 0.682376
#
# Coordination Sequence:
#
# PCOD9426696 Si02
#       8
#     8   8   8   8   8   8   8   8
#     4  10  20  34  52  75 105 148 196 243 301 365
#     4   9  18  31  50  78 107 141 193 253 300 353
#     4   9  21  35  57  80 116 150 203 240 308 355
#     4  10  20  34  54  79 110 148 189 251 302 355
#     4  10  21  44  69  92 123 161 203 237 288 356
#     4  11  25  38  63  93 123 161 201 254 301 359
#     4  10  22  38  61  93 120 159 196 248 295 358
#     4  11  22  37  61  89 124 154 202 248 303 354
#
# _framework density 18.102826
#
# number of rings (size 3 to 8) (size 9 to 14) (size 15 to 20)
#    0.000    2.000    1.250    2.625   10.500    0.750 
#    0.000    1.250    0.000    0.375    0.000    0.000 
#    0.000    0.000    0.000    0.000    0.000    0.000 
#
# Total GULP energy -356860.056931 kJ/mol
# GULP energy per Si atom -5575.938390 kJ/mol
# Density = 1.806162 g / cm^3
# Si number density = 18.102826 Si / 1000 Ang^3
#
#
#
# Elastic Constant Matrix: (Units=GPa)
#
#
# Indices 1 2 3 4 5 6 
#
# 1 40.5317 38.5206 27.7222 0.0000 0.0000 0.0000
# 2 38.5206 102.3476 34.0414 0.0000 0.0000 0.0000
# 3 27.7222 34.0414 120.6644 0.0000 0.0000 0.0000
# 4 0.0000 0.0000 0.0000 26.5468 0.0000 0.0000
# 5 0.0000 0.0000 0.0000 0.0000 29.9823 0.0000
# 6 0.0000 0.0000 0.0000 0.0000 0.0000 19.9233
#
#
#
# Elastic Compliance Matrix: (Units=1/GPa)
#
#
# Indices 1 2 3 4 5 6 
#
# 1 0.041666 -0.013792 -0.005682 0.000000 0.000000 0.000000
# 2 -0.013792 0.015348 -0.001161 0.000000 0.000000 0.000000
# 3 -0.005682 -0.001161 0.009920 0.000000 0.000000 0.000000
# 4 0.000000 0.000000 0.000000 0.037669 0.000000 0.000000
# 5 0.000000 0.000000 0.000000 0.000000 0.033353 0.000000
# 6 0.000000 0.000000 0.000000 0.000000 0.000000 0.050192
#
#
# Mechanical properties :
#
#
# Convention : Reuss Voigt Hill
#
# Bulk Modulus (GPa) = 38.96467 51.56801 45.26634
# Shear Modulus (GPa) = 21.01078 26.17445 23.59262
#
# Velocity S-wave (km/s) = 3.41051 3.80659 3.61398
# Velocity P-wave (km/s) = 6.08930 6.91869 6.51720
#
# Compressibility (1/GPa) = 0.02566427
#
# Stress axis : x y z
#
# Youngs Moduli (GPa) = 24.00050 65.15611 100.80265
#
# Poissons Ratio (x) = 0.89864 0.57272
# Poissons Ratio (y) = 0.33102 0.11705
# Poissons Ratio (z) = 0.13636 0.07566
#
# Static dielectric constant tensor:
#      x y z
#    x 1.607120 0.000000 0.000000 
#    y 0.000000 1.609320 0.000000 
#    z 0.000000 0.000000 1.648600 
# 
# From -- ./inp_files/22722.got.cif
#   From: 2010.05.17/outbox.cif.g08.bks.cpg/sg55_12_cif.got.tgz:22722.got - 2010.06.03 13:27:54.
