data_PCOD9426787
_publ_section_title
;
Structure prediction by ZEFSAII (Michael W. Deem and Ramdas Pophale) SiO2 
 PCOD9426787
Probable space group: P B A M
;
_chemical_formula_sum "Si O2"
_cell_formula_units_Z 64
_cell_length_a 14.676715
_cell_length_b 25.110624
_cell_length_c 8.961190
_cell_angle_alpha 90.000000
_cell_angle_beta 90.000000
_cell_angle_gamma 90.000000
_cell_volume 3302.570153
_symmetry_space_group_name_H-M "P B A M"
_symmetry_group_IT_number 55
_symmetry_cell_setting 'orthorhombic'
loop_
_space_group_symop_operation_xyz
x,y,z
-x,-y,z
1/2+x,1/2-y,-z
1/2-x,1/2+y,-z
-x,-y,-z
x,y,-z
1/2-x,1/2+y,z
1/2+x,1/2-y,z
loop_
_atom_site_type_symbol
_atom_site_label
_atom_site_fract_x
_atom_site_fract_y
_atom_site_fract_z
Si Si1 0.747473 0.166070 0.677813
Si Si2 0.787295 0.444309 0.322449
Si Si3 0.869230 0.880565 0.176199
Si Si4 0.053467 0.713713 0.678160
Si Si5 0.748686 0.274843 0.176805
Si Si6 0.461803 0.333941 0.678021
Si Si7 0.465227 0.105349 0.823151
Si Si8 0.634687 0.059668 0.323095
O O1 0.740209 0.177135 0.500000
O O2 0.713526 0.217711 0.766761
O O3 0.693985 0.112056 0.709846
O O4 0.854910 0.158557 0.712132
O O5 0.790460 0.435576 0.500000
O O6 0.691516 0.424539 0.258468
O O7 0.809634 0.506067 0.292207
O O8 0.868302 0.411109 0.245554
O O9 0.818575 0.823948 0.203379
O O10 0.970542 0.873175 0.238262
O O11 0.869324 0.890472 0.000000
O O12 0.048618 0.707091 0.500000
O O13 0.015936 0.772229 0.716609
O O14 0.009237 0.663313 0.757878
O O15 0.158437 0.715050 0.731965
O O16 0.768905 0.272772 0.000000
O O17 0.473171 0.339843 0.500000
O O18 0.541807 0.064346 0.768557
O O19 0.458794 0.107423 0.000000
O O20 0.612200 0.059898 0.500000
#
# Coordination Sequence:
#
# PCOD9426787 Si02
#       8
#     8   8   8   8   8   8   8   8
#     4   9  20  40  62  85 116 153 198 248 295 344
#     4  11  23  41  64  86 115 155 202 250 293 345
#     4  11  23  37  57  87 122 157 195 242 294 351
#     4  10  20  36  58  85 117 156 197 238 286 344
#     4  10  20  34  54  84 119 154 190 234 293 350
#     4   9  20  37  59  86 116 154 196 240 292 348
#     4  12  24  37  57  88 124 158 192 238 296 359
#     4  10  23  42  63  87 114 153 204 251 294 348
#
# _framework density 19.378845999999999
#
# number of rings (size 3 to 8) (size 9 to 14) (size 15 to 20)
#    0.000    1.750    1.250    3.750    1.750    7.000 
#    0.000    0.625    0.000    3.750    0.000    0.000 
#    0.000    0.000    0.000    0.000    0.000    0.000 
#
# Total GULP energy -357720.866302 kJ/mol
# GULP energy per Si atom -5589.388536 kJ/mol
# Density = 1.933474 g / cm^3
# Si number density = 19.378846 Si / 1000 Ang^3
#
#
#
# Elastic Constant Matrix: (Units=GPa)
#
#
# Indices 1 2 3 4 5 6 
#
# 1 32.6207 5.3655 10.1586 0.0000 0.0000 0.0000
# 2 5.3655 64.5520 26.5212 0.0000 0.0000 0.0000
# 3 10.1586 26.5212 36.4495 0.0000 0.0000 0.0000
# 4 0.0000 0.0000 0.0000 -2.3681 0.0000 0.0000
# 5 0.0000 0.0000 0.0000 0.0000 86.4799 0.0000
# 6 0.0000 0.0000 0.0000 0.0000 0.0000 29.7783
#
#
#
# Elastic Compliance Matrix: (Units=1/GPa)
#
#
# Indices 1 2 3 4 5 6 
#
# 1 0.033671 0.001507 -0.010481 0.000000 0.000000 0.000000
# 2 0.001507 0.022165 -0.016547 0.000000 0.000000 0.000000
# 3 -0.010481 -0.016547 0.042397 0.000000 0.000000 0.000000
# 4 0.000000 0.000000 0.000000 -0.422279 0.000000 0.000000
# 5 0.000000 0.000000 0.000000 0.000000 0.011563 0.000000
# 6 0.000000 0.000000 0.000000 0.000000 0.000000 0.033581
#
#
# Mechanical properties :
#
#
# Convention : Reuss Voigt Hill
#
# Bulk Modulus (GPa) = 21.19080 24.19029 22.69055
# Shear Modulus (GPa) = -23.57058 28.88315 2.65628
#
# Velocity S-wave (km/s) = -3.49134 3.86482 1.17204
# Velocity P-wave (km/s) = 2.30084 5.69436 3.68320
#
# Compressibility (1/GPa) = 0.04719030
#
# Stress axis : x y z
#
# Youngs Moduli (GPa) = 29.69875 45.11696 23.58682
#
# Poissons Ratio (x) = -0.06801 0.24722
# Poissons Ratio (y) = -0.04477 0.39030
# Poissons Ratio (z) = 0.31128 0.74657
#
# Static dielectric constant tensor:
#      x y z
#    x 1.673700 0.000000 0.000000 
#    y 0.000000 1.688260 0.000000 
#    z 0.000000 0.000000 1.646700 
# 
# From -- ./inp_files/6661.got.cif
#   From: 2010.05.17/outbox.cif.g08.bks.cpg/sg55_4_cif.got.tgz:6661.got - 2010.06.03 13:27:54.
