data_PCOD9426472
_publ_section_title
;
Structure prediction by ZEFSAII (Michael W. Deem and Ramdas Pophale) SiO2 
 PCOD9426472
Probable space group: P B A M
;
_chemical_formula_sum "Si O2"
_cell_formula_units_Z 34
_cell_length_a 5.073438
_cell_length_b 11.059527
_cell_length_c 24.569668
_cell_angle_alpha 90.000000
_cell_angle_beta 90.000000
_cell_angle_gamma 90.000000
_cell_volume 1378.599761
_symmetry_space_group_name_H-M "P B A M"
_symmetry_group_IT_number 55
_symmetry_cell_setting 'orthorhombic'
loop_
_space_group_symop_operation_xyz
x,y,z
-x,-y,z
1/2+x,1/2-y,-z
1/2-x,1/2+y,-z
-x,-y,-z
x,y,-z
1/2-x,1/2+y,z
1/2+x,1/2-y,z
loop_
_atom_site_type_symbol
_atom_site_label
_atom_site_fract_x
_atom_site_fract_y
_atom_site_fract_z
Si Si1 0.000000 0.500000 0.000000
Si Si2 0.750664 0.912392 0.616471
Si Si3 0.500000 0.000000 0.192195
Si Si4 0.713997 0.167929 0.901931
Si Si5 0.250564 0.089044 0.500000
Si Si6 0.317575 0.680353 0.264323
O O1 0.853052 0.582139 0.952528
O O2 0.742582 0.844183 0.558150
O O3 0.778907 0.837324 0.671145
O O4 0.500000 0.000000 0.621020
O O5 0.000000 0.000000 0.615150
O O6 0.645723 0.093550 0.152066
O O7 0.294542 0.069159 0.230600
O O8 0.010880 0.218490 0.903894
O O9 0.500000 0.000000 0.500000
O O10 0.000000 0.000000 0.500000
O O11 0.616725 0.710924 0.251298
#
# Coordination Sequence:
#
# PCOD9426472 Si02
#       6
#     2   8   4   8   4   8
#     4  10  24  42  76 104 144 180 208 280 332 374
#     4  10  19  38  61  88 122 164 208 268 333 400
#     4  11  26  45  68  91 136 183 218 282 332 377
#     4  11  25  45  69 104 137 177 229 267 324 394
#     4   8  16  30  58  86 114 157 207 254 330 404
#     4  12  26  41  63  95 126 168 224 273 328 399
#
# _framework density 24.662706
#
# number of rings (size 3 to 8) (size 9 to 14) (size 15 to 20)
#    0.000    1.412    1.176    3.529    0.000    6.588 
#    0.000    1.176    0.000    0.000    0.000    0.000 
#    0.000    0.000    0.000    0.000    0.000    0.000 
#
# Total GULP energy -190058.400610 kJ/mol
# GULP energy per Si atom -5589.952959 kJ/mol
# Density = 2.460657 g / cm^3
# Si number density = 24.662706 Si / 1000 Ang^3
#
#
#
# Elastic Constant Matrix: (Units=GPa)
#
#
# Indices 1 2 3 4 5 6 
#
# 1 112.2446 5.7477 11.6022 0.0000 0.0000 0.0000
# 2 5.7477 58.6821 50.9437 0.0000 0.0000 0.0000
# 3 11.6022 50.9437 222.4791 0.0000 0.0000 0.0000
# 4 0.0000 0.0000 0.0000 260.1001 0.0000 0.0000
# 5 0.0000 0.0000 0.0000 0.0000 -16.9192 0.0000
# 6 0.0000 0.0000 0.0000 0.0000 0.0000 36.1687
#
#
#
# Elastic Compliance Matrix: (Units=1/GPa)
#
#
# Indices 1 2 3 4 5 6 
#
# 1 0.008974 -0.000590 -0.000333 0.000000 0.000000 0.000000
# 2 -0.000590 0.021308 -0.004848 0.000000 0.000000 0.000000
# 3 -0.000333 -0.004848 0.005622 0.000000 0.000000 0.000000
# 4 0.000000 0.000000 0.000000 0.003845 0.000000 0.000000
# 5 0.000000 0.000000 0.000000 0.000000 -0.059105 0.000000
# 6 0.000000 0.000000 0.000000 0.000000 0.000000 0.027648
#
#
# Mechanical properties :
#
#
# Convention : Reuss Voigt Hill
#
# Bulk Modulus (GPa) = 41.04843 58.88811 49.96827
# Shear Modulus (GPa) = 178.85943 77.54406 128.20174
#
# Velocity S-wave (km/s) = 8.52524 5.61338 7.21768
# Velocity P-wave (km/s) = 10.65769 8.12051 9.47441
#
# Compressibility (1/GPa) = 0.02436147
#
# Stress axis : x y z
#
# Youngs Moduli (GPa) = 111.43635 46.93138 177.86188
#
# Poissons Ratio (x) = 0.02769 0.05921
# Poissons Ratio (y) = 0.06574 0.86233
# Poissons Ratio (z) = 0.03710 0.22754
#
# Static dielectric constant tensor:
#      x y z
#    x 1.890020 0.000000 0.000000 
#    y 0.000000 2.015010 0.000000 
#    z 0.000000 0.000000 1.964590 
# 
# From -- ./inp_files/23257.got.cif
#   From: 2010.05.17/outbox.cif.g08.bks.cpg/sg55_12_cif.got.tgz:23257.got - 2010.06.03 13:27:54.
