data_PCOD9426106
_publ_section_title
;
Structure prediction by ZEFSAII (Michael W. Deem and Ramdas Pophale) SiO2 
 PCOD9426106
Probable space group: P B A M
;
_chemical_formula_sum "Si O2"
_cell_formula_units_Z 64
_cell_length_a 21.872959
_cell_length_b 15.869060
_cell_length_c 9.673749
_cell_angle_alpha 90.000000
_cell_angle_beta 90.000000
_cell_angle_gamma 90.000000
_cell_volume 3357.790189
_symmetry_space_group_name_H-M "P B A M"
_symmetry_group_IT_number 55
_symmetry_cell_setting 'orthorhombic'
loop_
_space_group_symop_operation_xyz
x,y,z
-x,-y,z
1/2+x,1/2-y,-z
1/2-x,1/2+y,-z
-x,-y,-z
x,y,-z
1/2-x,1/2+y,z
1/2+x,1/2-y,z
loop_
_atom_site_type_symbol
_atom_site_label
_atom_site_fract_x
_atom_site_fract_y
_atom_site_fract_z
Si Si1 0.755708 0.823643 0.846466
Si Si2 0.521333 0.229933 0.660909
Si Si3 0.662901 0.900041 0.658510
Si Si4 0.835109 0.717163 0.347495
Si Si5 0.047583 0.076817 0.662341
Si Si6 0.160002 0.014671 0.846313
Si Si7 0.746622 0.559236 0.649474
Si Si8 0.957610 0.416824 0.165852
O O1 0.698710 0.827391 0.742132
O O2 0.809196 0.770732 0.776987
O O3 0.787069 0.914992 0.858774
O O4 0.738490 0.795065 0.000000
O O5 0.500661 0.220307 0.500000
O O6 0.592873 0.204427 0.664624
O O7 0.520498 0.330136 0.696245
O O8 0.486999 0.166762 0.764207
O O9 0.646451 0.878136 0.500000
O O10 0.605561 0.928255 0.750646
O O11 0.711899 0.975593 0.651420
O O12 0.824332 0.757486 0.500000
O O13 0.795580 0.633085 0.342238
O O14 0.065392 0.081709 0.500000
O O15 0.105708 0.053920 0.755744
O O16 0.000000 0.000000 0.677719
O O17 0.194952 0.940745 0.765628
O O18 0.138904 0.992142 0.000000
O O19 0.715096 0.562968 0.500000
O O20 0.000000 0.500000 0.186035
O O21 0.948668 0.406757 0.000000
#
# Coordination Sequence:
#
# PCOD9426106 Si02
#       8
#     8   8   8   8   8   8   8   8
#     4  10  20  34  55  82 114 147 183 231 290 351
#     4  10  21  38  62  89 118 156 208 255 297 357
#     4  10  20  37  60  82 110 150 194 236 285 344
#     4  10  19  34  57  85 112 145 192 241 291 349
#     4  10  21  39  63  87 113 152 202 256 305 349
#     4  10  20  35  56  82 113 149 187 231 292 355
#     4   9  19  34  56  85 113 144 186 238 289 346
#     4  11  24  40  59  87 124 162 199 245 305 365
#
# _framework density 19.060155000000002
#
# number of rings (size 3 to 8) (size 9 to 14) (size 15 to 20)
#    0.000    2.000    1.250    2.250    0.000    5.250 
#    2.250    0.000    0.000    0.000    0.000    0.000 
#    0.000    0.000    0.000    0.000    0.000    0.000 
#
# Total GULP energy -356661.736633 kJ/mol
# GULP energy per Si atom -5572.839635 kJ/mol
# Density = 1.901677 g / cm^3
# Si number density = 19.060155 Si / 1000 Ang^3
#
#
#
# Elastic Constant Matrix: (Units=GPa)
#
#
# Indices 1 2 3 4 5 6 
#
# 1 41.4162 5.3463 46.0785 0.0000 0.0000 0.0000
# 2 5.3463 46.4554 31.1452 0.0000 0.0000 0.0000
# 3 46.0785 31.1452 140.7608 0.0000 0.0000 0.0000
# 4 0.0000 0.0000 0.0000 16.6157 0.0000 0.0000
# 5 0.0000 0.0000 0.0000 0.0000 15.2533 0.0000
# 6 0.0000 0.0000 0.0000 0.0000 0.0000 22.0236
#
#
#
# Elastic Compliance Matrix: (Units=1/GPa)
#
#
# Indices 1 2 3 4 5 6 
#
# 1 0.038853 0.004762 -0.013772 0.000000 0.000000 0.000000
# 2 0.004762 0.025859 -0.007281 0.000000 0.000000 0.000000
# 3 -0.013772 -0.007281 0.013224 0.000000 0.000000 0.000000
# 4 0.000000 0.000000 0.000000 0.060184 0.000000 0.000000
# 5 0.000000 0.000000 0.000000 0.000000 0.065560 0.000000
# 6 0.000000 0.000000 0.000000 0.000000 0.000000 0.045406
#
#
# Mechanical properties :
#
#
# Convention : Reuss Voigt Hill
#
# Bulk Modulus (GPa) = 22.04866 43.75248 32.90057
# Shear Modulus (GPa) = 16.84720 20.51602 18.68161
#
# Velocity S-wave (km/s) = 2.97626 3.28439 3.13411
# Velocity P-wave (km/s) = 4.83776 6.11455 5.51324
#
# Compressibility (1/GPa) = 0.04535423
#
# Stress axis : x y z
#
# Youngs Moduli (GPa) = 25.73787 38.67107 75.62227
#
# Poissons Ratio (x) = -0.18416 1.04150
# Poissons Ratio (y) = -0.12257 0.55057
# Poissons Ratio (z) = 0.35447 0.28155
#
# Static dielectric constant tensor:
#      x y z
#    x 1.603970 0.000000 0.000000 
#    y 0.000000 1.794140 0.000000 
#    z 0.000000 0.000000 1.706800 
# 
# From -- ./inp_files/9707.got.cif
#   From: 2010.05.17/outbox.cif.g08.bks.cpg/sg55_5_cif.got.tgz:9707.got - 2010.06.03 13:27:54.
