data_PCOD9426682
_publ_section_title
;
Structure prediction by ZEFSAII (Michael W. Deem and Ramdas Pophale) SiO2 
 PCOD9426682
Probable space group: P B A M
;
_chemical_formula_sum "Si O2"
_cell_formula_units_Z 48
_cell_length_a 10.342123
_cell_length_b 30.251990
_cell_length_c 7.412509
_cell_angle_alpha 90.000000
_cell_angle_beta 90.000000
_cell_angle_gamma 90.000000
_cell_volume 2319.150220
_symmetry_space_group_name_H-M "P B A M"
_symmetry_group_IT_number 55
_symmetry_cell_setting 'orthorhombic'
loop_
_space_group_symop_operation_xyz
x,y,z
-x,-y,z
1/2+x,1/2-y,-z
1/2-x,1/2+y,-z
-x,-y,-z
x,y,-z
1/2-x,1/2+y,z
1/2+x,1/2-y,z
loop_
_atom_site_type_symbol
_atom_site_label
_atom_site_fract_x
_atom_site_fract_y
_atom_site_fract_z
Si Si1 0.441638 0.710997 0.779904
Si Si2 0.262259 0.283880 0.780100
Si Si3 0.753368 0.615980 0.220338
Si Si4 0.392485 0.968499 0.204970
Si Si5 0.136519 0.017545 0.291362
Si Si6 0.043914 0.111128 0.782403
O O1 0.588477 0.722593 0.725195
O O2 0.335787 0.746174 0.718640
O O3 0.415710 0.660332 0.724708
O O4 0.440669 0.711277 0.000000
O O5 0.221368 0.333499 0.726003
O O6 0.261674 0.283442 0.000000
O O7 0.852898 0.578873 0.284911
O O8 0.605890 0.604618 0.274680
O O9 0.754082 0.614606 0.000000
O O10 0.500000 0.000000 0.291396
O O11 0.259635 0.996054 0.199667
O O12 0.437774 0.959369 0.000000
O O13 0.143340 0.003846 0.500000
O O14 0.129713 0.070439 0.280901
O O15 0.000000 0.000000 0.215946
O O16 0.045165 0.110472 0.000000
#
# Coordination Sequence:
#
# PCOD9426682 Si02
#       6
#     8   8   8   8   8   8
#     4   8  14  24  40  64  93 123 152 187 237 291
#     4   8  13  23  38  61  93 123 149 184 235 287
#     4   8  14  26  45  66  96 131 155 189 243 293
#     4  10  20  34  51  74 102 131 165 203 248 299
#     4  11  22  34  51  74  97 128 169 207 247 291
#     4   9  16  29  50  72  95 126 161 199 246 290
#
# _framework density 20.697237999999999
#
# number of rings (size 3 to 8) (size 9 to 14) (size 15 to 20)
#    0.000    3.000    1.667    2.500    0.000    1.000 
#    3.000    0.000    0.000    0.000    0.000    5.833 
#    0.000    0.000    0.000    0.000    0.000    0.000 
#
# Total GULP energy -267793.021417 kJ/mol
# GULP energy per Si atom -5579.021280 kJ/mol
# Density = 2.065013 g / cm^3
# Si number density = 20.697238 Si / 1000 Ang^3
#
#
#
# Elastic Constant Matrix: (Units=GPa)
#
#
# Indices 1 2 3 4 5 6 
#
# 1 70.1948 56.4197 -4.0364 0.0000 0.0000 0.0000
# 2 56.4197 142.7139 -6.3093 0.0000 0.0000 0.0000
# 3 -4.0364 -6.3093 69.3729 0.0000 0.0000 0.0000
# 4 0.0000 0.0000 0.0000 -72.3738 0.0000 0.0000
# 5 0.0000 0.0000 0.0000 0.0000 -10.7864 0.0000
# 6 0.0000 0.0000 0.0000 0.0000 0.0000 44.6179
#
#
#
# Elastic Compliance Matrix: (Units=1/GPa)
#
#
# Indices 1 2 3 4 5 6 
#
# 1 0.020896 -0.008240 0.000466 0.000000 0.000000 0.000000
# 2 -0.008240 0.010285 0.000456 0.000000 0.000000 0.000000
# 3 0.000466 0.000456 0.014483 0.000000 0.000000 0.000000
# 4 0.000000 0.000000 0.000000 -0.013817 0.000000 0.000000
# 5 0.000000 0.000000 0.000000 0.000000 -0.092709 0.000000
# 6 0.000000 0.000000 0.000000 0.000000 0.000000 0.022413
#
#
# Mechanical properties :
#
#
# Convention : Reuss Voigt Hill
#
# Bulk Modulus (GPa) = 32.22851 41.60327 36.91589
# Shear Modulus (GPa) = -371.18849 8.03869 -181.57490
#
# Velocity S-wave (km/s) = -13.40639 1.97291 -9.37654
# Velocity P-wave (km/s) = 14.96785 5.03332 9.96750
#
# Compressibility (1/GPa) = 0.03102843
#
# Stress axis : x y z
#
# Youngs Moduli (GPa) = 47.85572 97.23018 69.04426
#
# Poissons Ratio (x) = 0.80121 -0.03220
# Poissons Ratio (y) = 0.39435 -0.03148
# Poissons Ratio (z) = -0.02232 -0.04433
#
# Static dielectric constant tensor:
#      x y z
#    x 1.701780 0.000000 0.000000 
#    y 0.000000 1.740890 0.000000 
#    z 0.000000 0.000000 1.790290 
# 
# From -- ./inp_files/2877.got.cif
#   From: 2010.05.17/outbox.cif.g08.bks.cpg/sg55_2_cif.got.tgz:2877.got - 2010.06.03 13:27:54.
