data_PCOD9426284
_publ_section_title
;
Structure prediction by ZEFSAII (Michael W. Deem and Ramdas Pophale) SiO2 
 PCOD9426284
Probable space group: P B A M
;
_chemical_formula_sum "Si O2"
_cell_formula_units_Z 48
_cell_length_a 11.283680
_cell_length_b 13.728287
_cell_length_c 13.661809
_cell_angle_alpha 90.000000
_cell_angle_beta 90.000000
_cell_angle_gamma 90.000000
_cell_volume 2116.290685
_symmetry_space_group_name_H-M "P B A M"
_symmetry_group_IT_number 55
_symmetry_cell_setting 'orthorhombic'
loop_
_space_group_symop_operation_xyz
x,y,z
-x,-y,z
1/2+x,1/2-y,-z
1/2-x,1/2+y,-z
-x,-y,-z
x,y,-z
1/2-x,1/2+y,z
1/2+x,1/2-y,z
loop_
_atom_site_type_symbol
_atom_site_label
_atom_site_fract_x
_atom_site_fract_y
_atom_site_fract_z
Si Si1 0.280867 0.282971 0.794120
Si Si2 0.745706 0.918928 0.810192
Si Si3 0.603467 0.074489 0.110007
Si Si4 0.859844 0.513778 0.609941
Si Si5 0.844244 0.747501 0.390955
Si Si6 0.494371 0.608950 0.274512
O O1 0.313774 0.182383 0.847261
O O2 0.158663 0.333699 0.831013
O O3 0.257255 0.235331 0.687633
O O4 0.386292 0.358451 0.779183
O O5 0.884530 0.897861 0.799754
O O6 0.714490 0.001594 0.886958
O O7 0.702906 0.965241 0.704263
O O8 0.500000 0.000000 0.148642
O O9 0.571346 0.103260 0.000000
O O10 0.819865 0.481686 0.500000
O O11 0.849916 0.630726 0.611931
O O12 0.000000 0.500000 0.616748
O O13 0.816730 0.778032 0.500000
O O14 0.957141 0.807855 0.352221
O O15 0.500000 0.500000 0.319114
#
# Coordination Sequence:
#
# PCOD9426284 Si02
#       6
#     8   8   8   8   8   8
#     4  11  24  42  66  94 138 177 222 278 344 412
#     4  11  23  39  69  95 134 175 220 276 347 405
#     4  11  25  46  72  99 128 171 229 286 345 419
#     4  10  19  35  60  92 127 172 224 270 319 385
#     4  10  22  37  59  93 130 178 225 265 318 394
#     4  11  22  40  62  97 133 185 221 277 345 406
#
# _framework density 22.681193
#
# number of rings (size 3 to 8) (size 9 to 14) (size 15 to 20)
#    0.000    1.333    3.333    1.500    4.667    4.333 
#    0.000    1.667    0.000    0.000    0.000    0.000 
#    0.000    0.000    0.000    0.000    0.000    0.000 
#
# Total GULP energy -267371.108341 kJ/mol
# GULP energy per Si atom -5570.231424 kJ/mol
# Density = 2.262957 g / cm^3
# Si number density = 22.681193 Si / 1000 Ang^3
#
#
#
# Elastic Constant Matrix: (Units=GPa)
#
#
# Indices 1 2 3 4 5 6 
#
# 1 76.8776 23.9926 15.5584 0.0000 0.0000 0.0000
# 2 23.9926 146.2384 15.0180 0.0000 0.0000 0.0000
# 3 15.5584 15.0180 80.3185 0.0000 0.0000 0.0000
# 4 0.0000 0.0000 0.0000 14.4654 0.0000 0.0000
# 5 0.0000 0.0000 0.0000 0.0000 28.3844 0.0000
# 6 0.0000 0.0000 0.0000 0.0000 0.0000 39.0989
#
#
#
# Elastic Compliance Matrix: (Units=1/GPa)
#
#
# Indices 1 2 3 4 5 6 
#
# 1 0.014131 -0.002077 -0.002349 0.000000 0.000000 0.000000
# 2 -0.002077 0.007277 -0.000958 0.000000 0.000000 0.000000
# 3 -0.002349 -0.000958 0.013085 0.000000 0.000000 0.000000
# 4 0.000000 0.000000 0.000000 0.069131 0.000000 0.000000
# 5 0.000000 0.000000 0.000000 0.000000 0.035231 0.000000
# 6 0.000000 0.000000 0.000000 0.000000 0.000000 0.025576
#
#
# Mechanical properties :
#
#
# Convention : Reuss Voigt Hill
#
# Bulk Modulus (GPa) = 42.15093 45.84138 43.99615
# Shear Modulus (GPa) = 27.30629 32.98076 30.14353
#
# Velocity S-wave (km/s) = 3.47352 3.81741 3.64951
# Velocity P-wave (km/s) = 5.89165 6.29962 6.09904
#
# Compressibility (1/GPa) = 0.02372427
#
# Stress axis : x y z
#
# Youngs Moduli (GPa) = 70.76461 137.41226 76.42550
#
# Poissons Ratio (x) = 0.28544 0.17952
# Poissons Ratio (y) = 0.14699 0.07324
# Poissons Ratio (z) = 0.16622 0.13169
#
# Static dielectric constant tensor:
#      x y z
#    x 4.850570 0.000000 0.000000 
#    y 0.000000 0.184130 0.000000 
#    z 0.000000 0.000000 1.878530 
# 
# From -- ./inp_files/18266.got.cif
#   From: 2010.05.17/outbox.cif.g08.bks.cpg/sg55_10_cif.got.tgz:18266.got - 2010.06.03 13:27:54.
