data_PCOD9426773
_publ_section_title
;
Structure prediction by ZEFSAII (Michael W. Deem and Ramdas Pophale) SiO2 
 PCOD9426773
Probable space group: P B A M
;
_chemical_formula_sum "Si O2"
_cell_formula_units_Z 40
_cell_length_a 7.946996
_cell_length_b 23.998205
_cell_length_c 9.444835
_cell_angle_alpha 90.000000
_cell_angle_beta 90.000000
_cell_angle_gamma 90.000000
_cell_volume 1801.258854
_symmetry_space_group_name_H-M "P B A M"
_symmetry_group_IT_number 55
_symmetry_cell_setting 'orthorhombic'
loop_
_space_group_symop_operation_xyz
x,y,z
-x,-y,z
1/2+x,1/2-y,-z
1/2-x,1/2+y,-z
-x,-y,-z
x,y,-z
1/2-x,1/2+y,z
1/2+x,1/2-y,z
loop_
_atom_site_type_symbol
_atom_site_label
_atom_site_fract_x
_atom_site_fract_y
_atom_site_fract_z
Si Si1 0.487481 0.837174 0.336673
Si Si2 0.683963 0.470185 0.661566
Si Si3 0.972748 0.873624 0.837191
Si Si4 0.652661 0.277409 0.664153
Si Si5 0.338219 0.932852 0.836560
O O1 0.463290 0.854638 0.500000
O O2 0.663872 0.804822 0.324776
O O3 0.354357 0.788019 0.303630
O O4 0.464964 0.890235 0.237789
O O5 0.500000 0.500000 0.655910
O O6 0.739787 0.460839 0.500000
O O7 0.646375 0.413506 0.744076
O O8 0.805381 0.511041 0.748204
O O9 0.963079 0.813111 0.767936
O O10 0.157995 0.900566 0.833166
O O11 0.917311 0.872516 0.000000
O O12 0.596032 0.283444 0.500000
O O13 0.379672 0.943965 0.000000
#
# Coordination Sequence:
#
# PCOD9426773 Si02
#       5
#     8   8   8   8   8
#     4  10  21  37  57  80 106 139 180 224 269 318
#     4   9  17  31  54  81 108 141 180 220 262 311
#     4  10  20  34  54  81 112 144 178 218 265 317
#     4  10  21  37  57  80 106 139 180 224 269 318
#     4  10  20  34  54  81 112 144 178 218 265 317
#
# _framework density 22.206693000000001
#
# number of rings (size 3 to 8) (size 9 to 14) (size 15 to 20)
#    0.000    2.200    0.000    3.000    0.000    8.000 
#    0.000    1.000    0.000    6.000    0.000    0.000 
#    0.000    0.000    0.000    0.000    0.000    0.000 
#
# Total GULP energy -223791.160239 kJ/mol
# GULP energy per Si atom -5594.779006 kJ/mol
# Density = 2.215615 g / cm^3
# Si number density = 22.206693 Si / 1000 Ang^3
#
#
#
# Elastic Constant Matrix: (Units=GPa)
#
#
# Indices 1 2 3 4 5 6 
#
# 1 64.1186 20.4943 30.3613 0.0000 0.0000 0.0000
# 2 20.4943 83.1992 48.4914 0.0000 0.0000 0.0000
# 3 30.3613 48.4914 124.3256 0.0000 0.0000 0.0000
# 4 0.0000 0.0000 0.0000 13.3048 0.0000 0.0000
# 5 0.0000 0.0000 0.0000 0.0000 14.8270 0.0000
# 6 0.0000 0.0000 0.0000 0.0000 0.0000 39.3314
#
#
#
# Elastic Compliance Matrix: (Units=1/GPa)
#
#
# Indices 1 2 3 4 5 6 
#
# 1 0.018005 -0.002423 -0.003452 0.000000 0.000000 0.000000
# 2 -0.002423 0.015882 -0.005603 0.000000 0.000000 0.000000
# 3 -0.003452 -0.005603 0.011072 0.000000 0.000000 0.000000
# 4 0.000000 0.000000 0.000000 0.075161 0.000000 0.000000
# 5 0.000000 0.000000 0.000000 0.000000 0.067445 0.000000
# 6 0.000000 0.000000 0.000000 0.000000 0.000000 0.025425
#
#
# Mechanical properties :
#
#
# Convention : Reuss Voigt Hill
#
# Bulk Modulus (GPa) = 45.44860 52.25971 48.85416
# Shear Modulus (GPa) = 20.55255 24.97905 22.76580
#
# Velocity S-wave (km/s) = 3.04552 3.35751 3.20531
# Velocity P-wave (km/s) = 5.73389 6.21409 5.97881
#
# Compressibility (1/GPa) = 0.02200288
#
# Stress axis : x y z
#
# Youngs Moduli (GPa) = 55.53961 62.96560 90.32135
#
# Poissons Ratio (x) = 0.15259 0.31177
# Poissons Ratio (y) = 0.13459 0.50604
# Poissons Ratio (z) = 0.19171 0.35277
#
# Static dielectric constant tensor:
#      x y z
#    x 1.879650 0.000000 0.000000 
#    y 0.000000 1.772960 0.000000 
#    z 0.000000 0.000000 1.758620 
# 
# From -- ./inp_files/2279.got.cif
#   From: 2010.05.17/outbox.cif.g08.bks.cpg/sg55_2_cif.got.tgz:2279.got - 2010.06.03 13:27:54.
