data_PCOD9426945
_publ_section_title
;
Structure prediction by ZEFSAII (Michael W. Deem and Ramdas Pophale) SiO2 
 PCOD9426945
Probable space group: P B A M
;
_chemical_formula_sum "Si O2"
_cell_formula_units_Z 48
_cell_length_a 18.485003
_cell_length_b 15.774073
_cell_length_c 7.594293
_cell_angle_alpha 90.000000
_cell_angle_beta 90.000000
_cell_angle_gamma 90.000000
_cell_volume 2214.372710
_symmetry_space_group_name_H-M "P B A M"
_symmetry_group_IT_number 55
_symmetry_cell_setting 'orthorhombic'
loop_
_space_group_symop_operation_xyz
x,y,z
-x,-y,z
1/2+x,1/2-y,-z
1/2-x,1/2+y,-z
-x,-y,-z
x,y,-z
1/2-x,1/2+y,z
1/2+x,1/2-y,z
loop_
_atom_site_type_symbol
_atom_site_label
_atom_site_fract_x
_atom_site_fract_y
_atom_site_fract_z
Si Si1 0.789617 0.566805 0.213108
Si Si2 0.207713 0.106610 0.708003
Si Si3 0.959889 0.251367 0.212539
Si Si4 0.202024 0.771612 0.793561
Si Si5 0.955065 0.582492 0.215450
Si Si6 0.545394 0.420193 0.289781
O O1 0.755764 0.476641 0.261280
O O2 0.740628 0.644636 0.280254
O O3 0.872117 0.577001 0.274121
O O4 0.791295 0.570932 0.000000
O O5 0.201505 0.121117 0.500000
O O6 0.246473 0.190116 0.780858
O O7 0.126995 0.089975 0.780339
O O8 0.877515 0.247971 0.280183
O O9 0.004633 0.332654 0.275927
O O10 0.001138 0.165336 0.258068
O O11 0.957443 0.258601 0.000000
O O12 0.190748 0.789489 0.000000
O O13 0.000000 0.500000 0.269306
O O14 0.954270 0.583379 0.000000
O O15 0.500000 0.500000 0.218706
O O16 0.552428 0.433294 0.500000
#
# Coordination Sequence:
#
# PCOD9426945 Si02
#       6
#     8   8   8   8   8   8
#     4  10  20  35  56  80 107 141 182 229 276 324
#     4  11  23  37  56  82 112 149 187 225 276 333
#     4  10  20  35  58  85 109 139 182 229 277 327
#     4  10  21  37  58  84 112 144 184 231 281 331
#     4   9  17  31  52  77 106 139 173 215 269 322
#     4  10  22  39  56  77 110 149 184 223 275 329
#
# _framework density 21.676568
#
# number of rings (size 3 to 8) (size 9 to 14) (size 15 to 20)
#    0.000    2.000    0.000    3.500    0.000    7.000 
#    0.000    0.833    0.000    2.000    0.000    0.000 
#    0.000    0.000    0.000    0.000    0.000    0.000 
#
# Total GULP energy -268349.794783 kJ/mol
# GULP energy per Si atom -5590.620725 kJ/mol
# Density = 2.162723 g / cm^3
# Si number density = 21.676568 Si / 1000 Ang^3
#
#
#
# Elastic Constant Matrix: (Units=GPa)
#
#
# Indices 1 2 3 4 5 6 
#
# 1 116.2123 13.0706 -9.5819 0.0000 0.0000 0.0000
# 2 13.0706 108.4598 -28.4755 0.0000 0.0000 0.0000
# 3 -9.5819 -28.4755 38.0901 0.0000 0.0000 0.0000
# 4 0.0000 0.0000 0.0000 41.6815 0.0000 0.0000
# 5 0.0000 0.0000 0.0000 0.0000 5.2790 0.0000
# 6 0.0000 0.0000 0.0000 0.0000 0.0000 44.7062
#
#
#
# Elastic Compliance Matrix: (Units=1/GPa)
#
#
# Indices 1 2 3 4 5 6 
#
# 1 0.008818 -0.000598 0.001772 0.000000 0.000000 0.000000
# 2 -0.000598 0.011512 0.008456 0.000000 0.000000 0.000000
# 3 0.001772 0.008456 0.033021 0.000000 0.000000 0.000000
# 4 0.000000 0.000000 0.000000 0.023991 0.000000 0.000000
# 5 0.000000 0.000000 0.000000 0.000000 0.189429 0.000000
# 6 0.000000 0.000000 0.000000 0.000000 0.000000 0.022368
#
#
# Mechanical properties :
#
#
# Convention : Reuss Voigt Hill
#
# Bulk Modulus (GPa) = 13.77206 23.64318 18.70762
# Shear Modulus (GPa) = 17.00198 37.51661 27.25930
#
# Velocity S-wave (km/s) = 2.80366 4.16474 3.55004
# Velocity P-wave (km/s) = 4.10462 5.83589 5.04507
#
# Compressibility (1/GPa) = 0.07261079
#
# Stress axis : x y z
#
# Youngs Moduli (GPa) = 113.40159 86.86528 30.28402
#
# Poissons Ratio (x) = 0.05191 -0.05365
# Poissons Ratio (y) = 0.06777 -0.25608
# Poissons Ratio (z) = -0.20090 -0.73453
#
# Static dielectric constant tensor:
#      x y z
#    x 1.774050 0.000000 0.000000 
#    y 0.000000 1.716570 0.000000 
#    z 0.000000 0.000000 1.730470 
# 
# From -- ./inp_files/5583.got.cif
#   From: 2010.05.17/outbox.cif.g08.bks.cpg/sg55_3_cif.got.tgz:5583.got - 2010.06.03 13:27:54.
