data_PCOD9426428
_publ_section_title
;
Structure prediction by ZEFSAII (Michael W. Deem and Ramdas Pophale) SiO2 
 PCOD9426428
Probable space group: P B A M
;
_chemical_formula_sum "Si O2"
_cell_formula_units_Z 48
_cell_length_a 19.205908
_cell_length_b 15.448729
_cell_length_c 7.716783
_cell_angle_alpha 90.000000
_cell_angle_beta 90.000000
_cell_angle_gamma 90.000000
_cell_volume 2289.622514
_symmetry_space_group_name_H-M "P B A M"
_symmetry_group_IT_number 55
_symmetry_cell_setting 'orthorhombic'
loop_
_space_group_symop_operation_xyz
x,y,z
-x,-y,z
1/2+x,1/2-y,-z
1/2-x,1/2+y,-z
-x,-y,-z
x,y,-z
1/2-x,1/2+y,z
1/2+x,1/2-y,z
loop_
_atom_site_type_symbol
_atom_site_label
_atom_site_fract_x
_atom_site_fract_y
_atom_site_fract_z
Si Si1 0.768995 0.703323 0.200531
Si Si2 0.567233 0.445287 0.287340
Si Si3 0.823391 0.364247 0.708997
Si Si4 0.519878 0.903297 0.287294
Si Si5 0.282526 0.487555 0.709215
Si Si6 0.421938 0.749979 0.299659
O O1 0.709314 0.772616 0.241802
O O2 0.742725 0.607459 0.241433
O O3 0.840194 0.728141 0.296588
O O4 0.786806 0.709243 0.000000
O O5 0.500000 0.500000 0.233986
O O6 0.568119 0.444226 0.500000
O O7 0.639686 0.489054 0.231455
O O8 0.565639 0.345744 0.225543
O O9 0.824324 0.368488 0.500000
O O10 0.902107 0.379205 0.767796
O O11 0.771816 0.439906 0.771700
O O12 0.518228 0.904721 0.500000
O O13 0.465927 0.829974 0.225946
O O14 0.500000 0.000000 0.230923
O O15 0.283073 0.491600 0.500000
O O16 0.444239 0.743547 0.500000
#
# Coordination Sequence:
#
# PCOD9426428 Si02
#       6
#     8   8   8   8   8   8
#     4  12  25  38  56  84 120 159 195 235 288 348
#     4   9  18  32  56  90 116 143 189 246 296 336
#     4  10  20  38  63  91 116 147 193 243 293 344
#     4   9  18  32  58  92 118 141 182 243 298 344
#     4  10  20  37  62  86 114 150 196 246 290 343
#     4  10  19  37  61  85 114 151 194 240 291 344
#
# _framework density 20.964154000000001
#
# number of rings (size 3 to 8) (size 9 to 14) (size 15 to 20)
#    0.000    2.000    1.667    2.500    2.333    3.333 
#    0.000    0.833    0.000    3.000    0.000    0.000 
#    0.000    0.000    0.000    0.000    0.000    0.000 
#
# Total GULP energy -268206.363803 kJ/mol
# GULP energy per Si atom -5587.632579 kJ/mol
# Density = 2.091644 g / cm^3
# Si number density = 20.964154 Si / 1000 Ang^3
#
#
#
# Elastic Constant Matrix: (Units=GPa)
#
#
# Indices 1 2 3 4 5 6 
#
# 1 88.3400 46.7736 2.1246 0.0000 0.0000 0.0000
# 2 46.7736 160.2189 1.4138 0.0000 0.0000 0.0000
# 3 2.1246 1.4138 31.6220 0.0000 0.0000 0.0000
# 4 0.0000 0.0000 0.0000 1178.0119 0.0000 0.0000
# 5 0.0000 0.0000 0.0000 0.0000 -15.4436 0.0000
# 6 0.0000 0.0000 0.0000 0.0000 0.0000 44.3931
#
#
#
# Elastic Compliance Matrix: (Units=1/GPa)
#
#
# Indices 1 2 3 4 5 6 
#
# 1 0.013406 -0.003907 -0.000726 0.000000 0.000000 0.000000
# 2 -0.003907 0.007383 -0.000068 0.000000 0.000000 0.000000
# 3 -0.000726 -0.000068 0.031675 0.000000 0.000000 0.000000
# 4 0.000000 0.000000 0.000000 0.000849 0.000000 0.000000
# 5 0.000000 0.000000 0.000000 0.000000 -0.064752 0.000000
# 6 0.000000 0.000000 0.000000 0.000000 0.000000 0.022526
#
#
# Mechanical properties :
#
#
# Convention : Reuss Voigt Hill
#
# Bulk Modulus (GPa) = 23.22211 42.31167 32.76689
# Shear Modulus (GPa) = 143.49844 256.71687 200.10766
#
# Velocity S-wave (km/s) = 8.28239 11.07795 9.78057
# Velocity P-wave (km/s) = 10.12744 13.55930 11.96703
#
# Compressibility (1/GPa) = 0.04306240
#
# Stress axis : x y z
#
# Youngs Moduli (GPa) = 74.59245 135.45100 31.57030
#
# Poissons Ratio (x) = 0.52925 0.02292
# Poissons Ratio (y) = 0.29146 0.00213
# Poissons Ratio (z) = 0.05416 0.00915
#
# Static dielectric constant tensor:
#      x y z
#    x 1.713220 0.000000 0.000000 
#    y 0.000000 1.713570 0.000000 
#    z 0.000000 0.000000 1.769190 
# 
# From -- ./inp_files/5659.got.cif
#   From: 2010.05.17/outbox.cif.g08.bks.cpg/sg55_3_cif.got.tgz:5659.got - 2010.06.03 13:27:54.
