data_PCOD9426595
_publ_section_title
;
Structure prediction by ZEFSAII (Michael W. Deem and Ramdas Pophale) SiO2 
 PCOD9426595
Probable space group: P B A M
;
_chemical_formula_sum "Si O2"
_cell_formula_units_Z 48
_cell_length_a 19.823199
_cell_length_b 12.484831
_cell_length_c 7.667446
_cell_angle_alpha 90.000000
_cell_angle_beta 90.000000
_cell_angle_gamma 90.000000
_cell_volume 1897.610762
_symmetry_space_group_name_H-M "P B A M"
_symmetry_group_IT_number 55
_symmetry_cell_setting 'orthorhombic'
loop_
_space_group_symop_operation_xyz
x,y,z
-x,-y,z
1/2+x,1/2-y,-z
1/2-x,1/2+y,-z
-x,-y,-z
x,y,-z
1/2-x,1/2+y,z
1/2+x,1/2-y,z
loop_
_atom_site_type_symbol
_atom_site_label
_atom_site_fract_x
_atom_site_fract_y
_atom_site_fract_z
Si Si1 0.439856 0.430792 0.199370
Si Si2 0.894339 0.690454 0.300784
Si Si3 0.235244 0.410693 0.289941
Si Si4 0.032065 0.615239 0.287671
Si Si5 0.178651 0.103031 0.806850
Si Si6 0.150374 0.745101 0.696633
O O1 0.500000 0.500000 0.277457
O O2 0.379086 0.514035 0.185269
O O3 0.409876 0.333377 0.306463
O O4 0.457859 0.397846 0.000000
O O5 0.903675 0.654459 0.500000
O O6 0.839400 0.611009 0.219842
O O7 0.970101 0.693380 0.229736
O O8 0.854034 0.801689 0.300510
O O9 0.235833 0.399536 0.500000
O O10 0.259003 0.531550 0.254166
O O11 0.287352 0.315835 0.226578
O O12 0.040291 0.618021 0.500000
O O13 0.000000 0.500000 0.242621
O O14 0.106488 0.648565 0.220690
O O15 0.191999 0.145223 0.000000
O O16 0.171385 0.715285 0.500000
#
# Coordination Sequence:
#
# PCOD9426595 Si02
#       6
#     8   8   8   8   8   8
#     4   9  17  29  46  69  97 128 159 195 244 298
#     4  10  20  34  54  78 104 136 174 217 262 309
#     4   9  19  34  52  76 104 136 176 219 262 309
#     4   9  18  32  51  76 104 135 172 214 261 311
#     4  10  20  33  51  75 103 134 168 210 259 311
#     4   9  17  30  49  72  97 127 165 208 251 297
#
# _framework density 25.294967
#
# number of rings (size 3 to 8) (size 9 to 14) (size 15 to 20)
#    0.000    2.667    0.000    1.500    0.000    3.000 
#    0.000    5.000    0.000    2.000    0.000    0.000 
#    0.000    0.000    0.000    0.000    0.000    0.000 
#
# Total GULP energy -267619.404101 kJ/mol
# GULP energy per Si atom -5575.404252 kJ/mol
# Density = 2.523739 g / cm^3
# Si number density = 25.294967 Si / 1000 Ang^3
#
#
#
# Elastic Constant Matrix: (Units=GPa)
#
#
# Indices 1 2 3 4 5 6 
#
# 1 111.8704 16.0737 9.2074 0.0000 0.0000 0.0000
# 2 16.0737 65.8100 3.1080 0.0000 0.0000 0.0000
# 3 9.2074 3.1080 55.0339 0.0000 0.0000 0.0000
# 4 0.0000 0.0000 0.0000 -100.9317 0.0000 0.0000
# 5 0.0000 0.0000 0.0000 0.0000 2.9263 0.0000
# 6 0.0000 0.0000 0.0000 0.0000 0.0000 38.9837
#
#
#
# Elastic Compliance Matrix: (Units=1/GPa)
#
#
# Indices 1 2 3 4 5 6 
#
# 1 0.009377 -0.002222 -0.001443 0.000000 0.000000 0.000000
# 2 -0.002222 0.015762 -0.000518 0.000000 0.000000 0.000000
# 3 -0.001443 -0.000518 0.018441 0.000000 0.000000 0.000000
# 4 0.000000 0.000000 0.000000 -0.009908 0.000000 0.000000
# 5 0.000000 0.000000 0.000000 0.000000 0.341723 0.000000
# 6 0.000000 0.000000 0.000000 0.000000 0.000000 0.025652
#
#
# Mechanical properties :
#
#
# Convention : Reuss Voigt Hill
#
# Bulk Modulus (GPa) = 28.39845 32.16582 30.28213
# Shear Modulus (GPa) = 11.87216 1.81734 6.84475
#
# Velocity S-wave (km/s) = 2.16880 0.84854 1.64677
# Velocity P-wave (km/s) = 4.18603 3.70188 3.95138
#
# Compressibility (1/GPa) = 0.03521319
#
# Stress axis : x y z
#
# Youngs Moduli (GPa) = 106.64410 63.44179 54.22586
#
# Poissons Ratio (x) = 0.14097 0.07827
# Poissons Ratio (y) = 0.23697 0.02811
# Poissons Ratio (z) = 0.15392 0.03289
#
# Static dielectric constant tensor:
#      x y z
#    x 2.062460 0.000000 0.000000 
#    y 0.000000 2.086530 0.000000 
#    z 0.000000 0.000000 2.011860 
# 
# From -- ./inp_files/9427.got.cif
#   From: 2010.05.17/outbox.cif.g08.bks.cpg/sg55_5_cif.got.tgz:9427.got - 2010.06.03 13:27:54.
