data_PCOD9426510
_publ_section_title
;
Structure prediction by ZEFSAII (Michael W. Deem and Ramdas Pophale) SiO2 
 PCOD9426510
Probable space group: P B A M
;
_chemical_formula_sum "Si O2"
_cell_formula_units_Z 28
_cell_length_a 5.128660
_cell_length_b 18.328202
_cell_length_c 13.736455
_cell_angle_alpha 90.000000
_cell_angle_beta 90.000000
_cell_angle_gamma 90.000000
_cell_volume 1291.214633
_symmetry_space_group_name_H-M "P B A M"
_symmetry_group_IT_number 55
_symmetry_cell_setting 'orthorhombic'
loop_
_space_group_symop_operation_xyz
x,y,z
-x,-y,z
1/2+x,1/2-y,-z
1/2-x,1/2+y,-z
-x,-y,-z
x,y,-z
1/2-x,1/2+y,z
1/2+x,1/2-y,z
loop_
_atom_site_type_symbol
_atom_site_label
_atom_site_fract_x
_atom_site_fract_y
_atom_site_fract_z
Si Si1 0.247080 0.448100 0.500000
Si Si2 0.790586 0.299972 0.385026
Si Si3 0.440708 0.413506 0.697652
Si Si4 0.752826 0.552183 0.892482
O O1 0.500000 0.500000 0.500000
O O2 0.269520 0.403162 0.599685
O O3 0.000000 0.500000 0.500000
O O4 0.781828 0.320857 0.500000
O O5 0.055732 0.257317 0.366778
O O6 0.704611 0.368983 0.320880
O O7 0.500000 0.500000 0.701054
O O8 0.300966 0.396817 0.799580
O O9 0.500000 0.500000 0.899575
O O10 0.000000 0.500000 0.873262
O O11 0.789352 0.586348 0.000000
#
# Coordination Sequence:
#
# PCOD9426510 Si02
#       4
#     4   8   8   8
#     4  10  20  30  46  78 108 128 163 220 265 300
#     4  10  22  38  53  75 110 149 180 217 274 335
#     4  10  20  36  57  83 108 142 184 230 269 321
#     4   9  18  32  51  78 109 138 173 220 272 318
#
# _framework density 21.685006000000001
#
# number of rings (size 3 to 8) (size 9 to 14) (size 15 to 20)
#    0.000    2.286    1.429    0.857    0.000    9.143 
#    0.000    0.000    0.000    1.714    0.000    0.000 
#    0.000    0.000    0.000    0.000    0.000    0.000 
#
# Total GULP energy -156454.819139 kJ/mol
# GULP energy per Si atom -5587.672112 kJ/mol
# Density = 2.163565 g / cm^3
# Si number density = 21.685006 Si / 1000 Ang^3
#
#
#
# Elastic Constant Matrix: (Units=GPa)
#
#
# Indices 1 2 3 4 5 6 
#
# 1 117.4956 12.9064 1.7001 0.0000 0.0000 0.0000
# 2 12.9064 82.1594 1.6243 0.0000 0.0000 0.0000
# 3 1.7001 1.6243 166.9756 0.0000 0.0000 0.0000
# 4 0.0000 0.0000 0.0000 4.8246 0.0000 0.0000
# 5 0.0000 0.0000 0.0000 0.0000 22.5808 0.0000
# 6 0.0000 0.0000 0.0000 0.0000 0.0000 34.5425
#
#
#
# Elastic Compliance Matrix: (Units=1/GPa)
#
#
# Indices 1 2 3 4 5 6 
#
# 1 0.008661 -0.001359 -0.000075 0.000000 0.000000 0.000000
# 2 -0.001359 0.012387 -0.000107 0.000000 0.000000 0.000000
# 3 -0.000075 -0.000107 0.005991 0.000000 0.000000 0.000000
# 4 0.000000 0.000000 0.000000 0.207271 0.000000 0.000000
# 5 0.000000 0.000000 0.000000 0.000000 0.044285 0.000000
# 6 0.000000 0.000000 0.000000 0.000000 0.000000 0.028950
#
#
# Mechanical properties :
#
#
# Convention : Reuss Voigt Hill
#
# Bulk Modulus (GPa) = 41.74039 44.34357 43.04198
# Shear Modulus (GPa) = 15.69304 35.74957 25.72131
#
# Velocity S-wave (km/s) = 2.69305 4.06468 3.44776
# Velocity P-wave (km/s) = 5.38148 6.52090 5.97840
#
# Compressibility (1/GPa) = 0.02395761
#
# Stress axis : x y z
#
# Youngs Moduli (GPa) = 115.45562 80.72927 166.92542
#
# Poissons Ratio (x) = 0.10972 0.01251
# Poissons Ratio (y) = 0.15692 0.01780
# Poissons Ratio (z) = 0.00866 0.00861
#
# Static dielectric constant tensor:
#      x y z
#    x 1.796470 0.000000 0.000000 
#    y 0.000000 1.767050 0.000000 
#    z 0.000000 0.000000 1.898800 
# 
# From -- ./inp_files/16387.got.cif
#   From: 2010.05.17/outbox.cif.g08.bks.cpg/sg55_9_cif.got.tgz:16387.got - 2010.06.03 13:27:54.
