data_PCOD9426130
_publ_section_title
;
Structure prediction by ZEFSAII (Michael W. Deem and Ramdas Pophale) SiO2 
 PCOD9426130
Probable space group: P B A M
;
_chemical_formula_sum "Si O2"
_cell_formula_units_Z 56
_cell_length_a 19.439926
_cell_length_b 17.198021
_cell_length_c 7.567730
_cell_angle_alpha 90.000000
_cell_angle_beta 90.000000
_cell_angle_gamma 90.000000
_cell_volume 2530.105970
_symmetry_space_group_name_H-M "P B A M"
_symmetry_group_IT_number 55
_symmetry_cell_setting 'orthorhombic'
loop_
_space_group_symop_operation_xyz
x,y,z
-x,-y,z
1/2+x,1/2-y,-z
1/2-x,1/2+y,-z
-x,-y,-z
x,y,-z
1/2-x,1/2+y,z
1/2+x,1/2-y,z
loop_
_atom_site_type_symbol
_atom_site_label
_atom_site_fract_x
_atom_site_fract_y
_atom_site_fract_z
Si Si1 0.075496 0.494500 0.199991
Si Si2 0.373889 0.156519 0.700066
Si Si3 0.146480 0.956853 0.784375
Si Si4 0.051810 0.813970 0.213847
Si Si5 0.293527 0.904405 0.216577
Si Si6 0.096014 0.123965 0.216147
Si Si7 0.725491 0.273638 0.213342
O O1 0.106592 0.580889 0.190358
O O2 0.134732 0.440195 0.279897
O O3 0.000000 0.500000 0.284179
O O4 0.064093 0.463765 0.000000
O O5 0.378952 0.129797 0.500000
O O6 0.424797 0.228829 0.729429
O O7 0.297575 0.188558 0.734226
O O8 0.106619 0.879238 0.727745
O O9 0.226112 0.953038 0.729687
O O10 0.108364 0.035184 0.727556
O O11 0.145744 0.956728 0.000000
O O12 0.976250 0.839913 0.273349
O O13 0.052386 0.814062 0.000000
O O14 0.281964 0.815481 0.271673
O O15 0.294851 0.906261 0.000000
O O16 0.160773 0.175486 0.272800
O O17 0.095126 0.123819 0.000000
O O18 0.724742 0.272507 0.000000
#
# Coordination Sequence:
#
# PCOD9426130 Si02
#       7
#     8   8   8   8   8   8   8
#     4  10  22  39  64  92 119 151 197 254 305 351
#     4  12  25  40  57  81 119 163 202 233 283 352
#     4   9  15  28  51  84 117 143 176 227 287 342
#     4  10  19  34  58  85 114 148 189 240 294 345
#     4   9  17  31  56  89 116 144 186 239 295 345
#     4   9  18  29  55  90 115 138 180 241 299 346
#     4  10  19  36  61  87 114 147 192 245 291 340
#
# _framework density 22.133459999999999
#
# number of rings (size 3 to 8) (size 9 to 14) (size 15 to 20)
#    0.000    2.143    1.429    2.571    2.000    4.286 
#    0.000    1.429    0.000    1.714    0.000    0.000 
#    0.000    0.000    0.000    0.000    0.000    0.000 
#
# Total GULP energy -312994.399510 kJ/mol
# GULP energy per Si atom -5589.185706 kJ/mol
# Density = 2.208308 g / cm^3
# Si number density = 22.133460 Si / 1000 Ang^3
#
#
#
# Elastic Constant Matrix: (Units=GPa)
#
#
# Indices 1 2 3 4 5 6 
#
# 1 116.6390 46.3124 2.5182 0.0000 0.0000 0.0000
# 2 46.3124 71.4461 -4.2205 0.0000 0.0000 0.0000
# 3 2.5182 -4.2205 57.8934 0.0000 0.0000 0.0000
# 4 0.0000 0.0000 0.0000 163.7723 0.0000 0.0000
# 5 0.0000 0.0000 0.0000 0.0000 11.4067 0.0000
# 6 0.0000 0.0000 0.0000 0.0000 0.0000 27.2652
#
#
#
# Elastic Compliance Matrix: (Units=1/GPa)
#
#
# Indices 1 2 3 4 5 6 
#
# 1 0.011609 -0.007588 -0.001058 0.000000 0.000000 0.000000
# 2 -0.007588 0.019016 0.001716 0.000000 0.000000 0.000000
# 3 -0.001058 0.001716 0.017444 0.000000 0.000000 0.000000
# 4 0.000000 0.000000 0.000000 0.006106 0.000000 0.000000
# 5 0.000000 0.000000 0.000000 0.000000 0.087668 0.000000
# 6 0.000000 0.000000 0.000000 0.000000 0.000000 0.036677
#
#
# Mechanical properties :
#
#
# Convention : Reuss Voigt Hill
#
# Bulk Modulus (GPa) = 29.23047 37.24431 33.23739
# Shear Modulus (GPa) = 24.53593 53.91341 39.22467
#
# Velocity S-wave (km/s) = 3.33309 4.94077 4.21430
# Velocity P-wave (km/s) = 5.29602 7.02936 6.22333
#
# Compressibility (1/GPa) = 0.03421088
#
# Stress axis : x y z
#
# Youngs Moduli (GPa) = 86.13981 52.58630 57.32536
#
# Poissons Ratio (x) = 0.39901 0.06066
# Poissons Ratio (y) = 0.65360 -0.09839
# Poissons Ratio (z) = 0.09115 -0.09026
#
# Static dielectric constant tensor:
#      x y z
#    x 1.784220 0.000000 0.000000 
#    y 0.000000 1.758950 0.000000 
#    z 0.000000 0.000000 1.869400 
# 
# From -- ./inp_files/8764.got.cif
#   From: 2010.05.17/outbox.cif.g08.bks.cpg/sg55_5_cif.got.tgz:8764.got - 2010.06.03 13:27:54.
