data_PCOD9426929
_publ_section_title
;
Structure prediction by ZEFSAII (Michael W. Deem and Ramdas Pophale) SiO2 
 PCOD9426929
Probable space group: P B A M
;
_chemical_formula_sum "Si O2"
_cell_formula_units_Z 64
_cell_length_a 14.371626
_cell_length_b 21.701331
_cell_length_c 8.779352
_cell_angle_alpha 90.000000
_cell_angle_beta 90.000000
_cell_angle_gamma 90.000000
_cell_volume 2738.134264
_symmetry_space_group_name_H-M "P B A M"
_symmetry_group_IT_number 55
_symmetry_cell_setting 'orthorhombic'
loop_
_space_group_symop_operation_xyz
x,y,z
-x,-y,z
1/2+x,1/2-y,-z
1/2-x,1/2+y,-z
-x,-y,-z
x,y,-z
1/2-x,1/2+y,z
1/2+x,1/2-y,z
loop_
_atom_site_type_symbol
_atom_site_label
_atom_site_fract_x
_atom_site_fract_y
_atom_site_fract_z
Si Si1 0.804493 0.349467 0.825184
Si Si2 0.362780 0.881141 0.678175
Si Si3 0.917103 0.125435 0.676353
Si Si4 0.280329 0.467338 0.826140
Si Si5 0.842473 0.755833 0.318425
Si Si6 0.959938 0.433990 0.183281
Si Si7 0.045882 0.758146 0.172537
Si Si8 0.415291 0.550121 0.327740
O O1 0.724776 0.310754 0.738741
O O2 0.858109 0.410544 0.762526
O O3 0.892232 0.302674 0.830759
O O4 0.773563 0.360277 0.000000
O O5 0.383884 0.882381 0.500000
O O6 0.301281 0.939991 0.723924
O O7 0.310840 0.815925 0.708434
O O8 0.458333 0.887426 0.769318
O O9 0.894591 0.109471 0.500000
O O10 0.860205 0.083584 0.792514
O O11 0.903242 0.195901 0.711905
O O12 0.027025 0.111662 0.699962
O O13 0.332859 0.530092 0.781111
O O14 0.249892 0.468352 0.000000
O O15 0.856028 0.763134 0.500000
O O16 0.940978 0.754078 0.231754
O O17 0.000000 0.500000 0.236660
O O18 0.953040 0.436250 0.000000
O O19 0.045457 0.783439 0.000000
O O20 0.500000 0.500000 0.320907
O O21 0.379396 0.549633 0.500000
#
# Coordination Sequence:
#
# PCOD9426929 Si02
#       8
#     8   8   8   8   8   8   8   8
#     4  10  22  41  66  96 129 167 210 268 331 391
#     4  11  23  40  63  91 124 163 211 265 318 381
#     4  10  20  35  55  82 121 163 204 252 314 382
#     4  11  21  33  55  86 118 157 207 258 309 373
#     4  11  24  40  63  94 126 166 211 262 324 392
#     4  10  22  44  71  96 127 169 217 271 331 392
#     4  11  22  38  62  90 123 162 206 260 322 388
#     4   8  16  32  51  72 107 152 192 239 295 353
#
# _framework density 23.373578999999999
#
# number of rings (size 3 to 8) (size 9 to 14) (size 15 to 20)
#    0.000    1.750    1.250    4.125    0.000    8.000 
#    2.250    0.000    0.000    0.000    0.000    0.000 
#    0.000    0.000    0.000    0.000    0.000    0.000 
#
# Total GULP energy -357396.182663 kJ/mol
# GULP energy per Si atom -5584.315354 kJ/mol
# Density = 2.332038 g / cm^3
# Si number density = 23.373579 Si / 1000 Ang^3
#
#
#
# Elastic Constant Matrix: (Units=GPa)
#
#
# Indices 1 2 3 4 5 6 
#
# 1 107.2742 13.4799 19.2970 0.0000 0.0000 0.0000
# 2 13.4799 67.1727 13.1030 0.0000 0.0000 0.0000
# 3 19.2970 13.1030 35.7715 0.0000 0.0000 0.0000
# 4 0.0000 0.0000 0.0000 23.3514 0.0000 0.0000
# 5 0.0000 0.0000 0.0000 0.0000 -0.1932 0.0000
# 6 0.0000 0.0000 0.0000 0.0000 0.0000 38.7972
#
#
#
# Elastic Compliance Matrix: (Units=1/GPa)
#
#
# Indices 1 2 3 4 5 6 
#
# 1 0.010394 -0.001068 -0.005216 0.000000 0.000000 0.000000
# 2 -0.001068 0.016142 -0.005337 0.000000 0.000000 0.000000
# 3 -0.005216 -0.005337 0.032724 0.000000 0.000000 0.000000
# 4 0.000000 0.000000 0.000000 0.042824 0.000000 0.000000
# 5 0.000000 0.000000 0.000000 0.000000 -5.175751 0.000000
# 6 0.000000 0.000000 0.000000 0.000000 0.000000 0.025775
#
#
# Mechanical properties :
#
#
# Convention : Reuss Voigt Hill
#
# Bulk Modulus (GPa) = 27.76334 33.55312 30.65823
# Shear Modulus (GPa) = -0.99748 23.34698 11.17475
#
# Velocity S-wave (km/s) = -0.65397 3.16391 2.18891
# Velocity P-wave (km/s) = 3.36655 5.26625 4.41967
#
# Compressibility (1/GPa) = 0.03601872
#
# Stress axis : x y z
#
# Youngs Moduli (GPa) = 96.20534 61.94869 30.55885
#
# Poissons Ratio (x) = 0.06619 0.15939
# Poissons Ratio (y) = 0.10279 0.16308
# Poissons Ratio (z) = 0.50180 0.33059
#
# Static dielectric constant tensor:
#      x y z
#    x 1.913910 0.000000 0.000000 
#    y 0.000000 1.999960 0.000000 
#    z 0.000000 0.000000 1.793860 
# 
# From -- ./inp_files/6528.got.cif
#   From: 2010.05.17/outbox.cif.g08.bks.cpg/sg55_4_cif.got.tgz:6528.got - 2010.06.03 13:27:54.
