data_PCOD9426555
_publ_section_title
;
Structure prediction by ZEFSAII (Michael W. Deem and Ramdas Pophale) SiO2 
 PCOD9426555
Probable space group: P B A M
;
_chemical_formula_sum "Si O2"
_cell_formula_units_Z 64
_cell_length_a 12.722525
_cell_length_b 23.851873
_cell_length_c 11.294005
_cell_angle_alpha 90.000000
_cell_angle_beta 90.000000
_cell_angle_gamma 90.000000
_cell_volume 3427.234152
_symmetry_space_group_name_H-M "P B A M"
_symmetry_group_IT_number 55
_symmetry_cell_setting 'orthorhombic'
loop_
_space_group_symop_operation_xyz
x,y,z
-x,-y,z
1/2+x,1/2-y,-z
1/2-x,1/2+y,-z
-x,-y,-z
x,y,-z
1/2-x,1/2+y,z
1/2+x,1/2-y,z
loop_
_atom_site_type_symbol
_atom_site_label
_atom_site_fract_x
_atom_site_fract_y
_atom_site_fract_z
Si Si1 0.177134 0.690785 0.785555
Si Si2 0.748928 0.403970 0.633935
Si Si3 0.004464 0.566913 0.629503
Si Si4 0.512667 0.736385 0.639402
Si Si5 0.979122 0.626762 0.873449
Si Si6 0.823446 0.714620 0.211794
Si Si7 0.335480 0.361468 0.641282
Si Si8 0.618972 0.512540 0.643826
O O1 0.256637 0.648327 0.720950
O O2 0.103445 0.721509 0.687209
O O3 0.244150 0.740245 0.844280
O O4 0.094220 0.655355 0.861547
O O5 0.710966 0.391052 0.500000
O O6 0.873301 0.416300 0.626967
O O7 0.691975 0.460240 0.677273
O O8 0.957837 0.584423 0.500000
O O9 0.000000 0.500000 0.634750
O O10 0.960951 0.592722 0.751167
O O11 0.499531 0.744366 0.500000
O O12 0.407041 0.752390 0.706766
O O13 0.556802 0.673726 0.660965
O O14 0.893950 0.676237 0.871331
O O15 0.972672 0.596144 0.000000
O O16 0.754016 0.673003 0.292119
O O17 0.316392 0.360576 0.500000
O O18 0.344236 0.425782 0.682088
O O19 0.500000 0.500000 0.681358
O O20 0.620270 0.514178 0.500000
#
# Coordination Sequence:
#
# PCOD9426555 Si02
#       8
#     8   8   8   8   8   8   8   8
#     4   9  19  34  49  72 102 138 186 227 270 325
#     4   9  17  29  47  71 104 142 181 217 263 325
#     4   9  19  35  57  83 111 143 179 222 274 330
#     4   9  17  29  46  72 106 141 176 227 283 327
#     4  10  22  38  56  81 112 144 183 230 277 330
#     4  10  20  32  52  75 100 138 184 230 275 325
#     4   9  18  30  45  72 107 141 181 223 273 332
#     4   9  18  29  42  67 102 142 180 217 262 322
#
# _framework density 18.673950999999999
#
# number of rings (size 3 to 8) (size 9 to 14) (size 15 to 20)
#    0.000    2.750    0.000    0.750    3.500    5.750 
#    0.000    0.000    0.000    0.000    0.000    0.000 
#    0.000    8.500    0.000    0.000    0.000    0.000 
#
# Total GULP energy -356655.082302 kJ/mol
# GULP energy per Si atom -5572.735661 kJ/mol
# Density = 1.863145 g / cm^3
# Si number density = 18.673951 Si / 1000 Ang^3
#
#
#
# Elastic Constant Matrix: (Units=GPa)
#
#
# Indices 1 2 3 4 5 6 
#
# 1 53.2379 27.1993 16.9250 0.0000 0.0000 0.0000
# 2 27.1993 103.1175 31.7584 0.0000 0.0000 0.0000
# 3 16.9250 31.7584 90.2884 0.0000 0.0000 0.0000
# 4 0.0000 0.0000 0.0000 2.9951 0.0000 0.0000
# 5 0.0000 0.0000 0.0000 0.0000 -16.9163 0.0000
# 6 0.0000 0.0000 0.0000 0.0000 0.0000 31.7130
#
#
#
# Elastic Compliance Matrix: (Units=1/GPa)
#
#
# Indices 1 2 3 4 5 6 
#
# 1 0.022145 -0.005117 -0.002351 0.000000 0.000000 0.000000
# 2 -0.005117 0.012058 -0.003282 0.000000 0.000000 0.000000
# 3 -0.002351 -0.003282 0.012671 0.000000 0.000000 0.000000
# 4 0.000000 0.000000 0.000000 0.333877 0.000000 0.000000
# 5 0.000000 0.000000 0.000000 0.000000 -0.059115 0.000000
# 6 0.000000 0.000000 0.000000 0.000000 0.000000 0.031533
#
#
# Mechanical properties :
#
#
# Convention : Reuss Voigt Hill
#
# Bulk Modulus (GPa) = 39.41154 44.26769 41.83962
# Shear Modulus (GPa) = 13.05045 14.94245 13.99645
#
# Velocity S-wave (km/s) = 2.64646 2.83181 2.74070
# Velocity P-wave (km/s) = 5.52171 5.86935 5.69818
#
# Compressibility (1/GPa) = 0.02537328
#
# Stress axis : x y z
#
# Youngs Moduli (GPa) = 45.15596 82.93056 78.92110
#
# Poissons Ratio (x) = 0.42437 0.18557
# Poissons Ratio (y) = 0.23107 0.25903
# Poissons Ratio (z) = 0.10618 0.27219
#
# Static dielectric constant tensor:
#      x y z
#    x 1.656520 0.000000 0.000000 
#    y 0.000000 1.678900 0.000000 
#    z 0.000000 0.000000 1.641560 
# 
# From -- ./inp_files/13586.got.cif
#   From: 2010.05.17/outbox.cif.g08.bks.cpg/sg55_7_cif.got.tgz:13586.got - 2010.06.03 13:27:54.
