data_PCOD9426218
_publ_section_title
;
Structure prediction by ZEFSAII (Michael W. Deem and Ramdas Pophale) SiO2 
 PCOD9426218
Probable space group: P B A M
;
_chemical_formula_sum "Si O2"
_cell_formula_units_Z 48
_cell_length_a 5.339641
_cell_length_b 16.693289
_cell_length_c 24.481455
_cell_angle_alpha 90.000000
_cell_angle_beta 90.000000
_cell_angle_gamma 90.000000
_cell_volume 2182.183144
_symmetry_space_group_name_H-M "P B A M"
_symmetry_group_IT_number 55
_symmetry_cell_setting 'orthorhombic'
loop_
_space_group_symop_operation_xyz
x,y,z
-x,-y,z
1/2+x,1/2-y,-z
1/2-x,1/2+y,-z
-x,-y,-z
x,y,-z
1/2-x,1/2+y,z
1/2+x,1/2-y,z
loop_
_atom_site_type_symbol
_atom_site_label
_atom_site_fract_x
_atom_site_fract_y
_atom_site_fract_z
Si Si1 0.210857 0.698839 0.500000
Si Si2 0.250021 0.446407 0.000000
Si Si3 0.698153 0.301381 0.618347
Si Si4 0.749876 0.021435 0.803772
Si Si5 0.247209 0.796303 0.790152
Si Si6 0.749823 0.954929 0.686091
Si Si7 0.247215 0.797780 0.077869
O O1 0.424089 0.769539 0.500000
O O2 0.263853 0.658577 0.558249
O O3 0.500000 0.500000 0.000000
O O4 0.250457 0.385120 0.948633
O O5 0.000000 0.500000 0.000000
O O6 0.420310 0.264287 0.621673
O O7 0.742069 0.365730 0.664798
O O8 0.750640 0.109543 0.777386
O O9 0.500000 0.000000 0.835812
O O10 0.749300 0.961462 0.751906
O O11 0.000000 0.000000 0.835715
O O12 0.496605 0.749658 0.772221
O O13 0.247214 0.799924 0.856308
O O14 0.500000 0.000000 0.667051
O O15 0.000000 0.000000 0.667090
O O16 0.496220 0.749452 0.061727
#
# Coordination Sequence:
#
# PCOD9426218 Si02
#       7
#     4   4   8   8   8   8   8
#     4   8  16  30  52  80 106 134 176 228 270 304
#     4  12  24  36  56  90 120 148 188 226 270 332
#     4  10  19  35  58  81 106 142 186 225 263 323
#     4  10  21  38  56  78 112 146 175 226 285 327
#     4  10  21  38  61  85 106 143 194 232 269 326
#     4  10  21  38  53  77 113 145 176 220 280 329
#     4  10  21  39  60  81 113 152 187 227 276 324
#
# _framework density 21.996319
#
# number of rings (size 3 to 8) (size 9 to 14) (size 15 to 20)
#    0.000    2.000    0.000    3.500    0.000    1.333 
#    0.000   20.833    0.000    0.000    0.000    0.000 
#    0.000    0.000    0.000    0.000    0.000    0.000 
#
# Total GULP energy -268220.689758 kJ/mol
# GULP energy per Si atom -5587.931037 kJ/mol
# Density = 2.194625 g / cm^3
# Si number density = 21.996319 Si / 1000 Ang^3
#
#
#
# Elastic Constant Matrix: (Units=GPa)
#
#
# Indices 1 2 3 4 5 6 
#
# 1 219.4170 67.7382 2.5462 0.0000 0.0000 0.0000
# 2 67.7382 88.7206 13.4967 0.0000 0.0000 0.0000
# 3 2.5462 13.4967 60.3818 0.0000 0.0000 0.0000
# 4 0.0000 0.0000 0.0000 2.9389 0.0000 0.0000
# 5 0.0000 0.0000 0.0000 0.0000 -11.6841 0.0000
# 6 0.0000 0.0000 0.0000 0.0000 0.0000 43.6352
#
#
#
# Elastic Compliance Matrix: (Units=1/GPa)
#
#
# Indices 1 2 3 4 5 6 
#
# 1 0.006000 -0.004702 0.000798 0.000000 0.000000 0.000000
# 2 -0.004702 0.015354 -0.003234 0.000000 0.000000 0.000000
# 3 0.000798 -0.003234 0.017250 0.000000 0.000000 0.000000
# 4 0.000000 0.000000 0.000000 0.340264 0.000000 0.000000
# 5 0.000000 0.000000 0.000000 0.000000 -0.085586 0.000000
# 6 0.000000 0.000000 0.000000 0.000000 0.000000 0.022917
#
#
# Mechanical properties :
#
#
# Convention : Reuss Voigt Hill
#
# Bulk Modulus (GPa) = 41.10463 59.56461 50.33462
# Shear Modulus (GPa) = 14.76738 25.96054 20.36396
#
# Velocity S-wave (km/s) = 2.59387 3.43916 3.04598
# Velocity P-wave (km/s) = 5.26293 6.55047 5.94168
#
# Compressibility (1/GPa) = 0.02432816
#
# Stress axis : x y z
#
# Youngs Moduli (GPa) = 166.66690 65.13156 57.96963
#
# Poissons Ratio (x) = 0.30627 -0.04626
# Poissons Ratio (y) = 0.78374 0.18745
# Poissons Ratio (z) = -0.13301 0.21061
#
# Static dielectric constant tensor:
#      x y z
#    x 1.884140 0.000000 0.000000 
#    y 0.000000 1.799030 0.000000 
#    z 0.000000 0.000000 1.835850 
# 
# From -- ./inp_files/23820.got.cif
#   From: 2010.05.17/outbox.cif.g08.bks.cpg/sg55_12_cif.got.tgz:23820.got - 2010.06.03 13:27:54.
