data_PCOD9426875
_publ_section_title
;
Structure prediction by ZEFSAII (Michael W. Deem and Ramdas Pophale) SiO2 
 PCOD9426875
Probable space group: P B A M
;
_chemical_formula_sum "Si O2"
_cell_formula_units_Z 40
_cell_length_a 23.356824
_cell_length_b 7.584505
_cell_length_c 8.969476
_cell_angle_alpha 90.000000
_cell_angle_beta 90.000000
_cell_angle_gamma 90.000000
_cell_volume 1588.942211
_symmetry_space_group_name_H-M "P B A M"
_symmetry_group_IT_number 55
_symmetry_cell_setting 'orthorhombic'
loop_
_space_group_symop_operation_xyz
x,y,z
-x,-y,z
1/2+x,1/2-y,-z
1/2-x,1/2+y,-z
-x,-y,-z
x,y,-z
1/2-x,1/2+y,z
1/2+x,1/2-y,z
loop_
_atom_site_type_symbol
_atom_site_label
_atom_site_fract_x
_atom_site_fract_y
_atom_site_fract_z
Si Si1 0.435281 0.864254 0.668987
Si Si2 0.264769 0.728715 0.674902
Si Si3 0.667082 0.962196 0.174581
Si Si4 0.965598 0.186776 0.167517
Si Si5 0.631656 0.513267 0.666208
O O1 0.434261 0.930231 0.500000
O O2 0.396763 0.987270 0.774066
O O3 0.498299 0.812818 0.724826
O O4 0.402029 0.675233 0.667670
O O5 0.268950 0.782750 0.500000
O O6 0.200989 0.679146 0.724761
O O7 0.296203 0.861728 0.786249
O O8 0.303341 0.550130 0.686677
O O9 0.670301 0.921943 0.000000
O O10 0.902037 0.133049 0.217203
O O11 0.967137 0.256066 0.000000
O O12 0.000000 0.000000 0.168043
O O13 0.624129 0.588124 0.500000
#
# Coordination Sequence:
#
# PCOD9426875 Si02
#       5
#     8   8   8   8   8
#     4   9  16  27  42  61  89 124 158 192 235 288
#     4  10  20  35  52  71  98 133 168 200 241 294
#     4  11  21  33  50  74 101 128 163 207 249 286
#     4   9  15  22  36  60  89 118 149 190 239 284
#     4   8  15  26  41  61  87 120 156 192 232 283
#
# _framework density 25.173981000000001
#
# number of rings (size 3 to 8) (size 9 to 14) (size 15 to 20)
#    0.000    2.600    0.000    4.800    0.000    8.000 
#    0.000    0.000    0.000    0.000    0.000    1.400 
#    0.000   11.200    0.000    0.000    0.000    0.000 
#
# Total GULP energy -224053.946029 kJ/mol
# GULP energy per Si atom -5601.348651 kJ/mol
# Density = 2.511668 g / cm^3
# Si number density = 25.173981 Si / 1000 Ang^3
#
#
#
# Elastic Constant Matrix: (Units=GPa)
#
#
# Indices 1 2 3 4 5 6 
#
# 1 172.1634 -7.9152 28.3925 0.0000 0.0000 0.0000
# 2 -7.9152 71.5321 7.8993 0.0000 0.0000 0.0000
# 3 28.3925 7.8993 120.9338 0.0000 0.0000 0.0000
# 4 0.0000 0.0000 0.0000 33.4350 0.0000 0.0000
# 5 0.0000 0.0000 0.0000 0.0000 35.0972 0.0000
# 6 0.0000 0.0000 0.0000 0.0000 0.0000 48.7784
#
#
#
# Elastic Compliance Matrix: (Units=1/GPa)
#
#
# Indices 1 2 3 4 5 6 
#
# 1 0.006092 0.000838 -0.001485 0.000000 0.000000 0.000000
# 2 0.000838 0.014197 -0.001124 0.000000 0.000000 0.000000
# 3 -0.001485 -0.001124 0.008691 0.000000 0.000000 0.000000
# 4 0.000000 0.000000 0.000000 0.029909 0.000000 0.000000
# 5 0.000000 0.000000 0.000000 0.000000 0.028492 0.000000
# 6 0.000000 0.000000 0.000000 0.000000 0.000000 0.020501
#
#
# Mechanical properties :
#
#
# Convention : Reuss Voigt Hill
#
# Bulk Modulus (GPa) = 39.31196 46.82028 43.06612
# Shear Modulus (GPa) = 41.70054 45.87900 43.78977
#
# Velocity S-wave (km/s) = 4.07442 4.27368 4.17524
# Velocity P-wave (km/s) = 6.14691 6.55679 6.35516
#
# Compressibility (1/GPa) = 0.02543755
#
# Stress axis : x y z
#
# Youngs Moduli (GPa) = 164.15352 70.43944 115.06099
#
# Poissons Ratio (x) = -0.05903 0.17086
# Poissons Ratio (y) = -0.13757 0.12934
# Poissons Ratio (z) = 0.24376 0.07918
#
# Static dielectric constant tensor:
#      x y z
#    x 2.015040 0.000000 0.000000 
#    y 0.000000 2.091670 0.000000 
#    z 0.000000 0.000000 1.820970 
# 
# From -- ./inp_files/2288.got.cif
#   From: 2010.05.17/outbox.cif.g08.bks.cpg/sg55_2_cif.got.tgz:2288.got - 2010.06.03 13:27:54.
