data_PCOD9426086
_publ_section_title
;
Structure prediction by ZEFSAII (Michael W. Deem and Ramdas Pophale) SiO2 
 PCOD9426086
Probable space group: P B A M
;
_chemical_formula_sum "Si O2"
_cell_formula_units_Z 56
_cell_length_a 20.010210
_cell_length_b 14.273175
_cell_length_c 7.776605
_cell_angle_alpha 90.000000
_cell_angle_beta 90.000000
_cell_angle_gamma 90.000000
_cell_volume 2221.070159
_symmetry_space_group_name_H-M "P B A M"
_symmetry_group_IT_number 55
_symmetry_cell_setting 'orthorhombic'
loop_
_space_group_symop_operation_xyz
x,y,z
-x,-y,z
1/2+x,1/2-y,-z
1/2-x,1/2+y,-z
-x,-y,-z
x,y,-z
1/2-x,1/2+y,z
1/2+x,1/2-y,z
loop_
_atom_site_type_symbol
_atom_site_label
_atom_site_fract_x
_atom_site_fract_y
_atom_site_fract_z
Si Si1 0.350973 0.214131 0.798230
Si Si2 0.928532 0.894398 0.302728
Si Si3 0.494605 0.219757 0.203643
Si Si4 0.708764 0.075922 0.298645
Si Si5 0.704440 0.290419 0.798982
Si Si6 0.930908 0.547387 0.793314
Si Si7 0.145087 0.931224 0.709264
O O1 0.423185 0.187612 0.722431
O O2 0.278564 0.186781 0.725990
O O3 0.356332 0.327386 0.784201
O O4 0.349222 0.188025 0.000000
O O5 0.947477 0.907401 0.500000
O O6 0.857904 0.838712 0.292041
O O7 0.984399 0.826598 0.227090
O O8 0.910475 0.995940 0.227962
O O9 0.554699 0.154083 0.265573
O O10 0.489638 0.203056 0.000000
O O11 0.713458 0.096472 0.500000
O O12 0.700809 0.176921 0.208495
O O13 0.641811 0.017077 0.268042
O O14 0.779889 0.032511 0.247260
O O15 0.700304 0.316658 0.000000
O O16 0.000000 0.500000 0.738810
O O17 0.927763 0.540489 0.000000
O O18 0.139530 0.925253 0.500000
#
# Coordination Sequence:
#
# PCOD9426086 Si02
#       7
#     8   8   8   8   8   8   8
#     4   9  20  37  57  81 111 148 189 232 281 335
#     4  11  22  36  56  83 113 149 191 229 281 340
#     4  10  21  38  57  81 115 150 187 232 283 337
#     4  10  19  35  57  79 107 143 185 230 279 333
#     4  10  19  34  57  82 108 143 187 234 280 331
#     4  10  21  36  56  82 114 150 186 228 283 338
#     4   9  21  38  55  80 113 147 185 235 283 328
#
# _framework density 25.213070999999999
#
# number of rings (size 3 to 8) (size 9 to 14) (size 15 to 20)
#    0.000    2.143    1.429    1.286    0.000    4.857 
#    0.000    4.286    0.000    0.000    0.000    0.000 
#    0.000    0.000    0.000    0.000    0.000    0.000 
#
# Total GULP energy -312905.493678 kJ/mol
# GULP energy per Si atom -5587.598101 kJ/mol
# Density = 2.515568 g / cm^3
# Si number density = 25.213071 Si / 1000 Ang^3
#
#
#
# Elastic Constant Matrix: (Units=GPa)
#
#
# Indices 1 2 3 4 5 6 
#
# 1 137.9836 5.1290 0.5571 0.0000 0.0000 0.0000
# 2 5.1290 57.2362 -7.2912 0.0000 0.0000 0.0000
# 3 0.5571 -7.2912 44.9029 0.0000 0.0000 0.0000
# 4 0.0000 0.0000 0.0000 13.6802 0.0000 0.0000
# 5 0.0000 0.0000 0.0000 0.0000 35.0285 0.0000
# 6 0.0000 0.0000 0.0000 0.0000 0.0000 44.7844
#
#
#
# Elastic Compliance Matrix: (Units=1/GPa)
#
#
# Indices 1 2 3 4 5 6 
#
# 1 0.007273 -0.000677 -0.000200 0.000000 0.000000 0.000000
# 2 -0.000677 0.017904 0.002916 0.000000 0.000000 0.000000
# 3 -0.000200 0.002916 0.022746 0.000000 0.000000 0.000000
# 4 0.000000 0.000000 0.000000 0.073098 0.000000 0.000000
# 5 0.000000 0.000000 0.000000 0.000000 0.028548 0.000000
# 6 0.000000 0.000000 0.000000 0.000000 0.000000 0.022329
#
#
# Mechanical properties :
#
#
# Convention : Reuss Voigt Hill
#
# Bulk Modulus (GPa) = 19.23110 26.32361 22.77736
# Shear Modulus (GPa) = 27.00430 34.81380 30.90905
#
# Velocity S-wave (km/s) = 3.27623 3.71992 3.50510
# Velocity P-wave (km/s) = 4.68568 5.37713 5.04327
#
# Compressibility (1/GPa) = 0.05199910
#
# Stress axis : x y z
#
# Youngs Moduli (GPa) = 137.49065 55.85477 43.96342
#
# Poissons Ratio (x) = 0.03783 0.00880
# Poissons Ratio (y) = 0.09312 -0.12818
# Poissons Ratio (z) = 0.02753 -0.16285
#
# Static dielectric constant tensor:
#      x y z
#    x 2.025300 0.000000 0.000000 
#    y 0.000000 2.059830 0.000000 
#    z 0.000000 0.000000 1.917300 
# 
# From -- ./inp_files/6142.got.cif
#   From: 2010.05.17/outbox.cif.g08.bks.cpg/sg55_4_cif.got.tgz:6142.got - 2010.06.03 13:27:54.
