data_PCOD9426321
_publ_section_title
;
Structure prediction by ZEFSAII (Michael W. Deem and Ramdas Pophale) SiO2 
 PCOD9426321
Probable space group: P B A M
;
_chemical_formula_sum "Si O2"
_cell_formula_units_Z 64
_cell_length_a 27.061853
_cell_length_b 9.661576
_cell_length_c 14.116047
_cell_angle_alpha 90.000000
_cell_angle_beta 90.000000
_cell_angle_gamma 90.000000
_cell_volume 3690.783758
_symmetry_space_group_name_H-M "P B A M"
_symmetry_group_IT_number 55
_symmetry_cell_setting 'orthorhombic'
loop_
_space_group_symop_operation_xyz
x,y,z
-x,-y,z
1/2+x,1/2-y,-z
1/2-x,1/2+y,-z
-x,-y,-z
x,y,-z
1/2-x,1/2+y,z
1/2+x,1/2-y,z
loop_
_atom_site_type_symbol
_atom_site_label
_atom_site_fract_x
_atom_site_fract_y
_atom_site_fract_z
Si Si1 0.229452 0.859473 0.387374
Si Si2 0.771689 0.312057 0.107954
Si Si3 0.629917 0.513672 0.301215
Si Si4 0.908953 0.468436 0.611092
Si Si5 0.429736 0.718648 0.613452
Si Si6 0.303062 0.073125 0.699259
Si Si7 0.816079 0.011865 0.892048
Si Si8 0.459304 0.316790 0.388174
O O1 0.237208 0.867661 0.500000
O O2 0.223602 0.701448 0.353915
O O3 0.177906 0.933000 0.358110
O O4 0.273083 0.937201 0.331560
O O5 0.801064 0.390337 0.190070
O O6 0.716492 0.372859 0.119290
O O7 0.780651 0.147647 0.119189
O O8 0.786601 0.347006 0.000000
O O9 0.613691 0.361690 0.334037
O O10 0.644215 0.520025 0.191125
O O11 0.582895 0.606549 0.329494
O O12 0.895316 0.471142 0.500000
O O13 0.928539 0.619418 0.636140
O O14 0.859230 0.434788 0.666596
O O15 0.948392 0.346579 0.621964
O O16 0.423612 0.703119 0.500000
O O17 0.483789 0.658191 0.637442
O O18 0.835164 0.016233 0.000000
O O19 0.452871 0.352246 0.500000
#
# Coordination Sequence:
#
# PCOD9426321 Si02
#       8
#     8   8   8   8   8   8   8   8
#     4  12  24  35  50  76 115 152 180 210 257 328
#     4  10  19  36  56  77 103 139 186 232 268 307
#     4  12  21  35  55  79 110 140 178 224 268 326
#     4  10  20  35  54  77 110 146 185 224 266 323
#     4  10  22  35  54  81 106 141 184 229 272 318
#     4  12  22  37  52  78 110 150 184 215 267 320
#     4  10  21  37  57  79 104 139 182 229 275 318
#     4  10  19  36  57  78 107 142 184 227 271 318
#
# _framework density 17.340489000000002
#
# number of rings (size 3 to 8) (size 9 to 14) (size 15 to 20)
#    0.000    1.250    3.750    3.000    1.750    3.500 
#    0.000    0.000    0.000    1.500    0.000    0.000 
#    0.000    5.000    0.000    0.000    0.000    0.000 
#
# Total GULP energy -357372.418437 kJ/mol
# GULP energy per Si atom -5583.944038 kJ/mol
# Density = 1.730102 g / cm^3
# Si number density = 17.340489 Si / 1000 Ang^3
#
#
#
# Elastic Constant Matrix: (Units=GPa)
#
#
# Indices 1 2 3 4 5 6 
#
# 1 42.8035 15.4815 25.6333 0.0000 0.0000 0.0000
# 2 15.4815 62.3793 24.2698 0.0000 0.0000 0.0000
# 3 25.6333 24.2698 82.2742 0.0000 0.0000 0.0000
# 4 0.0000 0.0000 0.0000 193.3730 0.0000 0.0000
# 5 0.0000 0.0000 0.0000 0.0000 13.1006 0.0000
# 6 0.0000 0.0000 0.0000 0.0000 0.0000 24.5283
#
#
#
# Elastic Compliance Matrix: (Units=1/GPa)
#
#
# Indices 1 2 3 4 5 6 
#
# 1 0.029690 -0.004258 -0.007994 0.000000 0.000000 0.000000
# 2 -0.004258 0.018720 -0.004195 0.000000 0.000000 0.000000
# 3 -0.007994 -0.004195 0.015883 0.000000 0.000000 0.000000
# 4 0.000000 0.000000 0.000000 0.005171 0.000000 0.000000
# 5 0.000000 0.000000 0.000000 0.000000 0.076332 0.000000
# 6 0.000000 0.000000 0.000000 0.000000 0.000000 0.040769
#
#
# Mechanical properties :
#
#
# Convention : Reuss Voigt Hill
#
# Bulk Modulus (GPa) = 31.84998 35.35846 33.60422
# Shear Modulus (GPa) = 21.74601 54.33855 38.04228
#
# Velocity S-wave (km/s) = 3.54511 5.60395 4.68893
# Velocity P-wave (km/s) = 5.92996 7.89350 6.98111
#
# Compressibility (1/GPa) = 0.03139719
#
# Stress axis : x y z
#
# Youngs Moduli (GPa) = 33.68123 53.41842 62.96156
#
# Poissons Ratio (x) = 0.22747 0.50332
# Poissons Ratio (y) = 0.14343 0.26415
# Poissons Ratio (z) = 0.26925 0.22411
#
# Static dielectric constant tensor:
#      x y z
#    x 1.559050 0.000000 0.000000 
#    y 0.000000 1.637990 0.000000 
#    z 0.000000 0.000000 1.576910 
# 
# From -- ./inp_files/19996.got.cif
#   From: 2010.05.17/outbox.cif.g08.bks.cpg/sg55_10_cif.got.tgz:19996.got - 2010.06.03 13:27:54.
