data_PCOD9426949
_publ_section_title
;
Structure prediction by ZEFSAII (Michael W. Deem and Ramdas Pophale) SiO2 
 PCOD9426949
Probable space group: P B A M
;
_chemical_formula_sum "Si O2"
_cell_formula_units_Z 40
_cell_length_a 9.909309
_cell_length_b 25.437249
_cell_length_c 8.805504
_cell_angle_alpha 90.000000
_cell_angle_beta 90.000000
_cell_angle_gamma 90.000000
_cell_volume 2219.564301
_symmetry_space_group_name_H-M "P B A M"
_symmetry_group_IT_number 55
_symmetry_cell_setting 'orthorhombic'
loop_
_space_group_symop_operation_xyz
x,y,z
-x,-y,z
1/2+x,1/2-y,-z
1/2-x,1/2+y,-z
-x,-y,-z
x,y,-z
1/2-x,1/2+y,z
1/2+x,1/2-y,z
loop_
_atom_site_type_symbol
_atom_site_label
_atom_site_fract_x
_atom_site_fract_y
_atom_site_fract_z
Si Si1 0.853934 0.917688 0.680598
Si Si2 0.334789 0.704694 0.680296
Si Si3 0.854270 0.095300 0.817265
Si Si4 0.623822 0.716323 0.818952
Si Si5 0.844830 0.503953 0.183427
O O1 0.857067 0.925364 0.500000
O O2 0.813239 0.857159 0.712569
O O3 0.748179 0.957290 0.754307
O O4 0.005277 0.924316 0.745439
O O5 0.356700 0.710008 0.500000
O O6 0.468940 0.721488 0.769439
O O7 0.213320 0.740847 0.734773
O O8 0.834844 0.156474 0.776020
O O9 0.730096 0.058164 0.772700
O O10 0.868987 0.092975 0.000000
O O11 0.637627 0.722014 0.000000
O O12 0.000000 0.500000 0.235276
O O13 0.845041 0.501282 0.000000
#
# Coordination Sequence:
#
# PCOD9426949 Si02
#       5
#     8   8   8   8   8
#     4  10  21  36  55  79 106 140 180 218 260 315
#     4  10  21  37  55  79 112 145 177 219 274 324
#     4   9  19  36  56  78 105 139 178 218 262 314
#     4  10  20  35  56  81 107 140 185 227 263 315
#     4  10  21  36  54  78 108 140 174 218 271 318
#
# _framework density 18.021553000000001
#
# number of rings (size 3 to 8) (size 9 to 14) (size 15 to 20)
#    0.000    2.200    0.000    2.400    0.000    8.400 
#    0.000    2.000    0.000    0.000    0.000    0.000 
#    0.000    0.000    0.000    0.000    0.000    0.000 
#
# Total GULP energy -223328.414415 kJ/mol
# GULP energy per Si atom -5583.210360 kJ/mol
# Density = 1.798054 g / cm^3
# Si number density = 18.021553 Si / 1000 Ang^3
#
#
#
# Elastic Constant Matrix: (Units=GPa)
#
#
# Indices 1 2 3 4 5 6 
#
# 1 -53.7654 -60.8780 -16.5262 0.0000 0.0000 0.0000
# 2 -60.8780 -31.1072 -7.0973 0.0000 0.0000 0.0000
# 3 -16.5262 -7.0973 8.4307 0.0000 0.0000 0.0000
# 4 0.0000 0.0000 0.0000 28.4012 0.0000 0.0000
# 5 0.0000 0.0000 0.0000 0.0000 15.6651 0.0000
# 6 0.0000 0.0000 0.0000 0.0000 0.0000 36.6346
#
#
#
# Elastic Compliance Matrix: (Units=1/GPa)
#
#
# Indices 1 2 3 4 5 6 
#
# 1 0.015460 -0.031181 0.004056 0.000000 0.000000 0.000000
# 2 -0.031181 0.035921 -0.030882 0.000000 0.000000 0.000000
# 3 0.004056 -0.030882 0.100566 0.000000 0.000000 0.000000
# 4 0.000000 0.000000 0.000000 0.035210 0.000000 0.000000
# 5 0.000000 0.000000 0.000000 0.000000 0.063836 0.000000
# 6 0.000000 0.000000 0.000000 0.000000 0.000000 0.027297
#
#
# Mechanical properties :
#
#
# Convention : Reuss Voigt Hill
#
# Bulk Modulus (GPa) = 27.82959 -27.27166 0.27897
# Shear Modulus (GPa) = 12.30671 16.67749 14.49210
#
# Velocity S-wave (km/s) = 2.61605 3.04537 2.83884
# Velocity P-wave (km/s) = 4.95993 1.67330 3.30158
#
# Compressibility (1/GPa) = 0.03593298
#
# Stress axis : x y z
#
# Youngs Moduli (GPa) = 64.68330 27.83856 9.94368
#
# Poissons Ratio (x) = 0.86803 -0.04033
# Poissons Ratio (y) = 2.01689 0.30708
# Poissons Ratio (z) = -0.26234 0.85971
#
# Static dielectric constant tensor:
#      x y z
#    x 1.580570 0.000000 0.000000 
#    y 0.000000 1.615940 0.000000 
#    z 0.000000 0.000000 1.602820 
# 
# From -- ./inp_files/2274.got.cif
#   From: 2010.05.17/outbox.cif.g08.bks.cpg/sg55_2_cif.got.tgz:2274.got - 2010.06.03 13:27:54.
