data_PCOD9426116
_publ_section_title
;
Structure prediction by ZEFSAII (Michael W. Deem and Ramdas Pophale) SiO2 
 PCOD9426116
Probable space group: P B A M
;
_chemical_formula_sum "Si O2"
_cell_formula_units_Z 64
_cell_length_a 14.546645
_cell_length_b 25.224180
_cell_length_c 8.660626
_cell_angle_alpha 90.000000
_cell_angle_beta 90.000000
_cell_angle_gamma 90.000000
_cell_volume 3177.819178
_symmetry_space_group_name_H-M "P B A M"
_symmetry_group_IT_number 55
_symmetry_cell_setting 'orthorhombic'
loop_
_space_group_symop_operation_xyz
x,y,z
-x,-y,z
1/2+x,1/2-y,-z
1/2-x,1/2+y,-z
-x,-y,-z
x,y,-z
1/2-x,1/2+y,z
1/2+x,1/2-y,z
loop_
_atom_site_type_symbol
_atom_site_label
_atom_site_fract_x
_atom_site_fract_y
_atom_site_fract_z
Si Si1 0.132987 0.126379 0.819036
Si Si2 0.776626 0.449246 0.681877
Si Si3 0.460276 0.101582 0.813747
Si Si4 0.257848 0.841634 0.682414
Si Si5 0.848784 0.556115 0.817876
Si Si6 0.745296 0.276972 0.316204
Si Si7 0.538824 0.667806 0.319330
Si Si8 0.448061 0.219629 0.182662
O O1 0.187670 0.074469 0.766109
O O2 0.178682 0.175597 0.728202
O O3 0.026009 0.128705 0.775886
O O4 0.146074 0.134571 0.000000
O O5 0.764768 0.443486 0.500000
O O6 0.865665 0.415827 0.736456
O O7 0.798791 0.509417 0.727406
O O8 0.544285 0.063102 0.773165
O O9 0.486138 0.162052 0.771324
O O10 0.448193 0.100410 0.000000
O O11 0.274827 0.851523 0.500000
O O12 0.302227 0.887673 0.782012
O O13 0.291335 0.782047 0.719746
O O14 0.147411 0.840620 0.706248
O O15 0.845432 0.544244 0.000000
O O16 0.766006 0.277813 0.500000
O O17 0.839586 0.284050 0.222097
O O18 0.520146 0.661154 0.500000
O O19 0.517622 0.728434 0.270557
O O20 0.461801 0.227285 0.000000
#
# Coordination Sequence:
#
# PCOD9426116 Si02
#       8
#     8   8   8   8   8   8   8   8
#     4  12  24  39  62  91 123 160 206 256 309 370
#     4  12  25  42  64  89 121 161 208 256 309 366
#     4  10  22  39  59  89 126 164 203 249 303 361
#     4   9  21  41  62  88 123 159 202 252 304 359
#     4  11  24  41  63  89 122 162 206 254 307 363
#     4  10  20  36  58  88 123 161 200 247 306 363
#     4  10  22  40  61  88 126 165 203 254 308 365
#     4  10  19  34  57  88 125 163 201 244 297 360
#
# _framework density 20.139596999999998
#
# number of rings (size 3 to 8) (size 9 to 14) (size 15 to 20)
#    0.000    1.500    1.250    4.875    1.750    6.000 
#    0.000    0.625    0.000    3.750    0.000    0.000 
#    0.000    0.000    0.000    0.000    0.000    0.000 
#
# Total GULP energy -357849.089150 kJ/mol
# GULP energy per Si atom -5591.392018 kJ/mol
# Density = 2.009376 g / cm^3
# Si number density = 20.139597 Si / 1000 Ang^3
#
#
#
# Elastic Constant Matrix: (Units=GPa)
#
#
# Indices 1 2 3 4 5 6 
#
# 1 18.6724 -0.6512 1.9752 0.0000 0.0000 0.0000
# 2 -0.6512 57.0602 6.2098 0.0000 0.0000 0.0000
# 3 1.9752 6.2098 30.5934 0.0000 0.0000 0.0000
# 4 0.0000 0.0000 0.0000 37.0990 0.0000 0.0000
# 5 0.0000 0.0000 0.0000 0.0000 29.2772 0.0000
# 6 0.0000 0.0000 0.0000 0.0000 0.0000 29.8778
#
#
#
# Elastic Compliance Matrix: (Units=1/GPa)
#
#
# Indices 1 2 3 4 5 6 
#
# 1 0.053981 0.001018 -0.003692 0.000000 0.000000 0.000000
# 2 0.001018 0.017940 -0.003707 0.000000 0.000000 0.000000
# 3 -0.003692 -0.003707 0.033678 0.000000 0.000000 0.000000
# 4 0.000000 0.000000 0.000000 0.026955 0.000000 0.000000
# 5 0.000000 0.000000 0.000000 0.000000 0.034156 0.000000
# 6 0.000000 0.000000 0.000000 0.000000 0.000000 0.033470
#
#
# Mechanical properties :
#
#
# Convention : Reuss Voigt Hill
#
# Bulk Modulus (GPa) = 10.77158 13.48816 12.12987
# Shear Modulus (GPa) = 20.50122 25.83695 23.16908
#
# Velocity S-wave (km/s) = 3.19400 3.58564 3.39547
# Velocity P-wave (km/s) = 4.35457 4.88408 4.62691
#
# Compressibility (1/GPa) = 0.09283690
#
# Stress axis : x y z
#
# Youngs Moduli (GPa) = 18.52500 55.74008 29.69326
#
# Poissons Ratio (x) = -0.05673 0.10962
# Poissons Ratio (y) = -0.01886 0.11008
# Poissons Ratio (z) = 0.06839 0.20664
#
# Static dielectric constant tensor:
#      x y z
#    x 1.717580 0.000000 0.000000 
#    y 0.000000 1.711360 0.000000 
#    z 0.000000 0.000000 1.667210 
# 
# From -- ./inp_files/6492.got.cif
#   From: 2010.05.17/outbox.cif.g08.bks.cpg/sg55_4_cif.got.tgz:6492.got - 2010.06.03 13:27:54.
