data_PCOD9426877
_publ_section_title
;
Structure prediction by ZEFSAII (Michael W. Deem and Ramdas Pophale) SiO2 
 PCOD9426877
Probable space group: P B A M
;
_chemical_formula_sum "Si O2"
_cell_formula_units_Z 64
_cell_length_a 13.803522
_cell_length_b 20.695470
_cell_length_c 13.936127
_cell_angle_alpha 90.000000
_cell_angle_beta 90.000000
_cell_angle_gamma 90.000000
_cell_volume 3981.138632
_symmetry_space_group_name_H-M "P B A M"
_symmetry_group_IT_number 55
_symmetry_cell_setting 'orthorhombic'
loop_
_space_group_symop_operation_xyz
x,y,z
-x,-y,z
1/2+x,1/2-y,-z
1/2-x,1/2+y,-z
-x,-y,-z
x,y,-z
1/2-x,1/2+y,z
1/2+x,1/2-y,z
loop_
_atom_site_type_symbol
_atom_site_label
_atom_site_fract_x
_atom_site_fract_y
_atom_site_fract_z
Si Si1 0.407274 0.045017 0.890025
Si Si2 0.007577 0.618338 0.615738
Si Si3 0.205313 0.425096 0.614497
Si Si4 0.297823 0.056154 0.703165
Si Si5 0.666107 0.697324 0.615149
Si Si6 0.112031 0.696183 0.888455
Si Si7 0.507439 0.255621 0.724692
Si Si8 0.275620 0.693962 0.731369
O O1 0.325553 0.034542 0.810770
O O2 0.427130 0.122142 0.882782
O O3 0.500000 0.000000 0.870147
O O4 0.377216 0.032365 0.000000
O O5 0.013420 0.623861 0.500000
O O6 0.907604 0.582509 0.642445
O O7 0.999356 0.688659 0.664345
O O8 0.101335 0.580825 0.654815
O O9 0.206910 0.424286 0.500000
O O10 0.241960 0.493753 0.650285
O O11 0.268000 0.363493 0.645673
O O12 0.230350 0.118859 0.703302
O O13 0.658249 0.699132 0.500000
O O14 0.561873 0.696071 0.665858
O O15 0.718403 0.761964 0.654277
O O16 0.213337 0.698868 0.829913
O O17 0.039824 0.740718 0.827839
O O18 0.122131 0.712920 0.000000
O O19 0.616060 0.280027 0.735741
#
# Coordination Sequence:
#
# PCOD9426877 Si02
#       8
#     8   8   8   8   8   8   8   8
#     4   9  16  27  47  74 103 134 163 201 261 320
#     4  11  19  30  51  79 106 134 169 216 268 318
#     4  10  21  33  50  76 107 140 175 218 269 313
#     4  11  20  33  50  75 107 144 173 222 265 318
#     4  10  20  35  52  74 107 142 176 219 259 307
#     4   9  19  35  52  78 108 132 169 218 269 320
#     4  11  20  34  54  78 103 138 178 217 259 314
#     4  10  21  34  53  77 103 141 181 212 259 319
#
# _framework density 16.075803000000001
#
# number of rings (size 3 to 8) (size 9 to 14) (size 15 to 20)
#    0.000    1.875    5.000    1.875    0.000    2.500 
#    0.000    0.625    0.000    4.500    0.000    0.000 
#    0.000    8.000    0.000    0.000    0.000    0.000 
#
# Total GULP energy -356810.157727 kJ/mol
# GULP energy per Si atom -5575.158714 kJ/mol
# Density = 1.603921 g / cm^3
# Si number density = 16.075803 Si / 1000 Ang^3
#
#
#
# Elastic Constant Matrix: (Units=GPa)
#
#
# Indices 1 2 3 4 5 6 
#
# 1 62.5240 18.4902 31.9828 0.0000 0.0000 0.0000
# 2 18.4902 71.2533 28.3527 0.0000 0.0000 0.0000
# 3 31.9828 28.3527 70.7883 0.0000 0.0000 0.0000
# 4 0.0000 0.0000 0.0000 21.5654 0.0000 0.0000
# 5 0.0000 0.0000 0.0000 0.0000 12.8918 0.0000
# 6 0.0000 0.0000 0.0000 0.0000 0.0000 26.8757
#
#
#
# Elastic Compliance Matrix: (Units=1/GPa)
#
#
# Indices 1 2 3 4 5 6 
#
# 1 0.021037 -0.001995 -0.008706 0.000000 0.000000 0.000000
# 2 -0.001995 0.016884 -0.005861 0.000000 0.000000 0.000000
# 3 -0.008706 -0.005861 0.020408 0.000000 0.000000 0.000000
# 4 0.000000 0.000000 0.000000 0.046371 0.000000 0.000000
# 5 0.000000 0.000000 0.000000 0.000000 0.077569 0.000000
# 6 0.000000 0.000000 0.000000 0.000000 0.000000 0.037208
#
#
# Mechanical properties :
#
#
# Convention : Reuss Voigt Hill
#
# Bulk Modulus (GPa) = 39.67461 40.24634 39.96048
# Shear Modulus (GPa) = 19.15690 20.64922 19.90306
#
# Velocity S-wave (km/s) = 3.45579 3.58787 3.52245
# Velocity P-wave (km/s) = 6.37625 6.50026 6.43856
#
# Compressibility (1/GPa) = 0.02520503
#
# Stress axis : x y z
#
# Youngs Moduli (GPa) = 47.53514 59.22608 49.00136
#
# Poissons Ratio (x) = 0.11815 0.42659
# Poissons Ratio (y) = 0.09483 0.28721
# Poissons Ratio (z) = 0.41383 0.34715
#
# Static dielectric constant tensor:
#      x y z
#    x 1.529400 0.000000 0.000000 
#    y 0.000000 1.547700 0.000000 
#    z 0.000000 0.000000 1.548240 
# 
# From -- ./inp_files/19131.got.cif
#   From: 2010.05.17/outbox.cif.g08.bks.cpg/sg55_10_cif.got.tgz:19131.got - 2010.06.03 13:27:54.
