data_PCOD9426444
_publ_section_title
;
Structure prediction by ZEFSAII (Michael W. Deem and Ramdas Pophale) SiO2 
 PCOD9426444
Probable space group: P B A M
;
_chemical_formula_sum "Si O2"
_cell_formula_units_Z 58
_cell_length_a 14.315627
_cell_length_b 22.665893
_cell_length_c 7.604037
_cell_angle_alpha 90.000000
_cell_angle_beta 90.000000
_cell_angle_gamma 90.000000
_cell_volume 2467.331082
_symmetry_space_group_name_H-M "P B A M"
_symmetry_group_IT_number 55
_symmetry_cell_setting 'orthorhombic'
loop_
_space_group_symop_operation_xyz
x,y,z
-x,-y,z
1/2+x,1/2-y,-z
1/2-x,1/2+y,-z
-x,-y,-z
x,y,-z
1/2-x,1/2+y,z
1/2+x,1/2-y,z
loop_
_atom_site_type_symbol
_atom_site_label
_atom_site_fract_x
_atom_site_fract_y
_atom_site_fract_z
Si Si1 0.959787 0.410128 0.287653
Si Si2 0.674379 0.595963 0.284986
Si Si3 0.049829 0.210957 0.202748
Si Si4 0.646856 0.027162 0.286012
Si Si5 0.000000 0.000000 0.500000
Si Si6 0.380755 0.217122 0.207376
Si Si7 0.784821 0.712962 0.697338
Si Si8 0.542090 0.416454 0.201083
O O1 0.960435 0.410010 0.500000
O O2 0.891447 0.463377 0.230647
O O3 0.922131 0.347658 0.227122
O O4 0.065446 0.426610 0.231622
O O5 0.660302 0.593277 0.500000
O O6 0.750282 0.546967 0.230890
O O7 0.725598 0.657416 0.236698
O O8 0.571265 0.591750 0.207360
O O9 0.124007 0.263379 0.208872
O O10 0.955833 0.236613 0.284029
O O11 0.080727 0.146940 0.267846
O O12 0.028785 0.198553 0.000000
O O13 0.647963 0.027806 0.500000
O O14 0.939684 0.966187 0.655688
O O15 0.284171 0.231214 0.299670
O O16 0.365869 0.227865 0.000000
O O17 0.813673 0.696826 0.500000
O O18 0.570622 0.429843 0.000000
#
# Coordination Sequence:
#
# PCOD9426444 Si02
#       8
#     8   8   8   8   2   8   8   8
#     4   9  17  34  56  85 119 161 202 250 307 377
#     4  10  19  37  62  94 124 165 217 273 323 387
#     4  10  23  42  64  90 126 168 210 266 331 399
#     4   8  16  32  58  85 119 157 203 253 312 375
#     4  12  26  48  72  94 124 166 218 282 328 386
#     4  11  22  38  58  85 126 165 200 253 317 380
#     4  11  23  36  63  96 124 161 212 265 326 394
#     4  11  24  45  70  95 127 171 220 273 337 395
#
# _framework density 23.507180000000002
#
# number of rings (size 3 to 8) (size 9 to 14) (size 15 to 20)
#    0.000    1.931    2.069    2.690    0.966    2.759 
#    2.483    2.759    0.000    0.000    0.000    0.000 
#    0.000    0.000    0.000    0.000    0.000    0.000 
#
# Total GULP energy -323562.060798 kJ/mol
# GULP energy per Si atom -5578.656221 kJ/mol
# Density = 2.345368 g / cm^3
# Si number density = 23.507180 Si / 1000 Ang^3
#
#
#
# Elastic Constant Matrix: (Units=GPa)
#
#
# Indices 1 2 3 4 5 6 
#
# 1 54.4010 -9.9492 -2.2290 0.0000 0.0000 0.0000
# 2 -9.9492 67.3417 14.1609 0.0000 0.0000 0.0000
# 3 -2.2290 14.1609 84.6493 0.0000 0.0000 0.0000
# 4 0.0000 0.0000 0.0000 5.7621 0.0000 0.0000
# 5 0.0000 0.0000 0.0000 0.0000 16.6075 0.0000
# 6 0.0000 0.0000 0.0000 0.0000 0.0000 31.7598
#
#
#
# Elastic Compliance Matrix: (Units=1/GPa)
#
#
# Indices 1 2 3 4 5 6 
#
# 1 0.018893 0.002785 0.000032 0.000000 0.000000 0.000000
# 2 0.002785 0.015801 -0.002570 0.000000 0.000000 0.000000
# 3 0.000032 -0.002570 0.012244 0.000000 0.000000 0.000000
# 4 0.000000 0.000000 0.000000 0.173549 0.000000 0.000000
# 5 0.000000 0.000000 0.000000 0.000000 0.060214 0.000000
# 6 0.000000 0.000000 0.000000 0.000000 0.000000 0.031486
#
#
# Mechanical properties :
#
#
# Convention : Reuss Voigt Hill
#
# Bulk Modulus (GPa) = 21.08344 23.37303 22.22824
# Shear Modulus (GPa) = 15.26692 24.45316 19.86004
#
# Velocity S-wave (km/s) = 2.55121 3.22878 2.90978
# Velocity P-wave (km/s) = 4.20317 4.88513 4.55693
#
# Compressibility (1/GPa) = 0.04743058
#
# Stress axis : x y z
#
# Youngs Moduli (GPa) = 52.93082 63.28517 81.67113
#
# Poissons Ratio (x) = -0.17622 -0.00259
# Poissons Ratio (y) = -0.14739 0.20990
# Poissons Ratio (z) = -0.00168 0.16265
#
# Static dielectric constant tensor:
#      x y z
#    x 1.862540 0.000000 0.000000 
#    y 0.000000 1.962100 0.000000 
#    z 0.000000 0.000000 1.887860 
# 
# From -- ./inp_files/6403.got.cif
#   From: 2010.05.17/outbox.cif.g08.bks.cpg/sg55_4_cif.got.tgz:6403.got - 2010.06.03 13:27:54.
