data_PCOD9426584
_publ_section_title
;
Structure prediction by ZEFSAII (Michael W. Deem and Ramdas Pophale) SiO2 
 PCOD9426584
Probable space group: P B A M
;
_chemical_formula_sum "Si O2"
_cell_formula_units_Z 64
_cell_length_a 21.426578
_cell_length_b 19.648026
_cell_length_c 7.561439
_cell_angle_alpha 90.000000
_cell_angle_beta 90.000000
_cell_angle_gamma 90.000000
_cell_volume 3183.289915
_symmetry_space_group_name_H-M "P B A M"
_symmetry_group_IT_number 55
_symmetry_cell_setting 'orthorhombic'
loop_
_space_group_symop_operation_xyz
x,y,z
-x,-y,z
1/2+x,1/2-y,-z
1/2-x,1/2+y,-z
-x,-y,-z
x,y,-z
1/2-x,1/2+y,z
1/2+x,1/2-y,z
loop_
_atom_site_type_symbol
_atom_site_label
_atom_site_fract_x
_atom_site_fract_y
_atom_site_fract_z
Si Si1 0.762370 0.333603 0.786190
Si Si2 0.617718 0.179126 0.216261
Si Si3 0.691225 0.538163 0.293264
Si Si4 0.434833 0.526273 0.292346
Si Si5 0.738256 0.680252 0.786445
Si Si6 0.681499 0.973649 0.705855
Si Si7 0.881614 0.832597 0.786451
Si Si8 0.555527 0.044508 0.796226
O O1 0.778790 0.256777 0.730400
O O2 0.806689 0.393214 0.720464
O O3 0.690294 0.346215 0.730041
O O4 0.763037 0.335164 0.000000
O O5 0.689862 0.167124 0.269460
O O6 0.601132 0.256030 0.269912
O O7 0.574013 0.118156 0.280545
O O8 0.617634 0.177642 0.000000
O O9 0.692478 0.518303 0.500000
O O10 0.627913 0.507662 0.215028
O O11 0.695509 0.619254 0.278782
O O12 0.755590 0.507954 0.216882
O O13 0.500000 0.500000 0.215716
O O14 0.435459 0.507529 0.500000
O O15 0.425453 0.607037 0.277013
O O16 0.737470 0.679131 0.000000
O O17 0.675839 0.992708 0.500000
O O18 0.619069 0.000872 0.794332
O O19 0.881717 0.833308 0.000000
O O20 0.500000 0.000000 0.714334
O O21 0.537026 0.057934 0.000000
#
# Coordination Sequence:
#
# PCOD9426584 Si02
#       8
#     8   8   8   8   8   8   8   8
#     4   9  18  32  52  79 105 133 172 217 265 313
#     4   8  15  30  51  76 103 130 167 213 260 308
#     4  10  20  33  50  76 104 132 170 212 259 309
#     4  10  21  37  53  72 105 143 175 211 256 313
#     4   9  17  31  53  78 103 133 170 216 265 309
#     4  11  21  33  52  78 107 138 173 217 261 306
#     4   9  17  31  53  77 101 130 169 219 262 303
#     4  10  20  35  56  79 106 143 179 214 263 318
#
# _framework density 20.104987000000001
#
# number of rings (size 3 to 8) (size 9 to 14) (size 15 to 20)
#    0.000    2.500    2.500    1.875    0.000    2.000 
#    0.000    3.750    0.000    4.500    0.000    0.000 
#    0.000    0.000    0.000    0.000    0.000    0.000 
#
# Total GULP energy -357091.194980 kJ/mol
# GULP energy per Si atom -5579.549922 kJ/mol
# Density = 2.005923 g / cm^3
# Si number density = 20.104987 Si / 1000 Ang^3
#
#
#
# Elastic Constant Matrix: (Units=GPa)
#
#
# Indices 1 2 3 4 5 6 
#
# 1 110.5535 68.3940 0.0204 0.0000 0.0000 0.0000
# 2 68.3940 140.0310 -15.2077 0.0000 0.0000 0.0000
# 3 0.0204 -15.2077 46.3096 0.0000 0.0000 0.0000
# 4 0.0000 0.0000 0.0000 20.5726 0.0000 0.0000
# 5 0.0000 0.0000 0.0000 0.0000 -3.3360 0.0000
# 6 0.0000 0.0000 0.0000 0.0000 0.0000 31.5520
#
#
#
# Elastic Compliance Matrix: (Units=1/GPa)
#
#
# Indices 1 2 3 4 5 6 
#
# 1 0.013174 -0.006673 -0.002197 0.000000 0.000000 0.000000
# 2 -0.006673 0.010786 0.003545 0.000000 0.000000 0.000000
# 3 -0.002197 0.003545 0.022759 0.000000 0.000000 0.000000
# 4 0.000000 0.000000 0.000000 0.048608 0.000000 0.000000
# 5 0.000000 0.000000 0.000000 0.000000 -0.299763 0.000000
# 6 0.000000 0.000000 0.000000 0.000000 0.000000 0.031694
#
#
# Mechanical properties :
#
#
# Convention : Reuss Voigt Hill
#
# Bulk Modulus (GPa) = 27.72581 44.81195 36.26888
# Shear Modulus (GPa) = -33.31807 26.00356 -3.65725
#
# Velocity S-wave (km/s) = -4.07529 3.60027 -1.35020
# Velocity P-wave (km/s) = 2.88506 6.29444 3.95578
#
# Compressibility (1/GPa) = 0.03606748
#
# Stress axis : x y z
#
# Youngs Moduli (GPa) = 75.90622 92.71663 43.93896
#
# Poissons Ratio (x) = 0.61871 0.09654
# Poissons Ratio (y) = 0.50653 -0.15576
# Poissons Ratio (z) = 0.16678 -0.32866
#
# Static dielectric constant tensor:
#      x y z
#    x 1.697840 0.000000 0.000000 
#    y 0.000000 1.723170 0.000000 
#    z 0.000000 0.000000 1.770620 
# 
# From -- ./inp_files/9867.got.cif
#   From: 2010.05.17/outbox.cif.g08.bks.cpg/sg55_5_cif.got.tgz:9867.got - 2010.06.03 13:27:54.
