data_PCOD9426445
_publ_section_title
;
Structure prediction by ZEFSAII (Michael W. Deem and Ramdas Pophale) SiO2 
 PCOD9426445
Probable space group: P B A M
;
_chemical_formula_sum "Si O2"
_cell_formula_units_Z 40
_cell_length_a 23.674258
_cell_length_b 10.574625
_cell_length_c 8.467198
_cell_angle_alpha 90.000000
_cell_angle_beta 90.000000
_cell_angle_gamma 90.000000
_cell_volume 2119.732542
_symmetry_space_group_name_H-M "P B A M"
_symmetry_group_IT_number 55
_symmetry_cell_setting 'orthorhombic'
loop_
_space_group_symop_operation_xyz
x,y,z
-x,-y,z
1/2+x,1/2-y,-z
1/2-x,1/2+y,-z
-x,-y,-z
x,y,-z
1/2-x,1/2+y,z
1/2+x,1/2-y,z
loop_
_atom_site_type_symbol
_atom_site_label
_atom_site_fract_x
_atom_site_fract_y
_atom_site_fract_z
Si Si1 0.693274 0.001432 0.808831
Si Si2 0.622132 0.239353 0.312556
Si Si3 0.379959 0.240735 0.192684
Si Si4 0.502409 0.147899 0.191000
Si Si5 0.676171 0.497308 0.191196
O O1 0.659399 0.876346 0.756978
O O2 0.758385 0.997934 0.757468
O O3 0.661304 0.125962 0.751243
O O4 0.692498 0.003235 0.000000
O O5 0.624301 0.239535 0.500000
O O6 0.558459 0.211840 0.256786
O O7 0.644930 0.372216 0.248644
O O8 0.444289 0.214543 0.241733
O O9 0.354886 0.374597 0.244638
O O10 0.379542 0.240471 0.000000
O O11 0.500000 0.000000 0.237019
O O12 0.505271 0.151686 0.000000
O O13 0.675964 0.496678 0.000000
#
# Coordination Sequence:
#
# PCOD9426445 Si02
#       5
#     8   8   8   8   8
#     4  10  19  38  65  89 113 148 198 247 290 341
#     4  12  25  38  56  86 125 160 192 231 291 361
#     4   9  18  34  60  90 111 142 194 251 299 333
#     4  10  19  37  63  84 112 150 200 255 293 339
#     4  10  21  38  62  89 117 149 194 245 291 343
#
# _framework density 18.870304999999998
#
# number of rings (size 3 to 8) (size 9 to 14) (size 15 to 20)
#    0.000    1.800    2.000    3.000    0.000    5.200 
#    0.000    6.000    0.000    0.000    0.000    0.000 
#    0.000    0.000    0.000    0.000    0.000    0.000 
#
# Total GULP energy -223497.402642 kJ/mol
# GULP energy per Si atom -5587.435066 kJ/mol
# Density = 1.882736 g / cm^3
# Si number density = 18.870305 Si / 1000 Ang^3
#
#
#
# Elastic Constant Matrix: (Units=GPa)
#
#
# Indices 1 2 3 4 5 6 
#
# 1 221.7627 133.3730 31.3530 0.0000 0.0000 0.0000
# 2 133.3730 211.4632 26.3663 0.0000 0.0000 0.0000
# 3 31.3530 26.3663 13.3529 0.0000 0.0000 0.0000
# 4 0.0000 0.0000 0.0000 -16.2752 0.0000 0.0000
# 5 0.0000 0.0000 0.0000 0.0000 -11.3336 0.0000
# 6 0.0000 0.0000 0.0000 0.0000 0.0000 -0.0018
#
#
#
# Elastic Compliance Matrix: (Units=1/GPa)
#
#
# Indices 1 2 3 4 5 6 
#
# 1 0.008613 -0.003861 -0.012599 0.000000 0.000000 0.000000
# 2 -0.003861 0.008005 -0.006739 0.000000 0.000000 0.000000
# 3 -0.012599 -0.006739 0.117779 0.000000 0.000000 0.000000
# 4 0.000000 0.000000 0.000000 -0.061443 0.000000 0.000000
# 5 0.000000 0.000000 0.000000 0.000000 -0.088233 0.000000
# 6 0.000000 0.000000 0.000000 0.000000 0.000000**********
#
#
# Mechanical properties :
#
#
# Convention : Reuss Voigt Hill
#
# Bulk Modulus (GPa) = 11.36388 92.08481 51.72434
# Shear Modulus (GPa) = -0.00895 11.51033 5.75069
#
# Velocity S-wave (km/s) = -0.06895 2.47244 1.74760
# Velocity P-wave (km/s) = 2.45537 7.55350 5.61623
#
# Compressibility (1/GPa) = 0.08799813
#
# Stress axis : x y z
#
# Youngs Moduli (GPa) = 116.10557 124.92721 8.49049
#
# Poissons Ratio (x) = 0.48239 0.10697
# Poissons Ratio (y) = 0.44833 0.05722
# Poissons Ratio (z) = 1.46277 0.84190
#
# Static dielectric constant tensor:
#      x y z
#    x 1.634330 0.000000 0.000000 
#    y 0.000000 1.619620 0.000000 
#    z 0.000000 0.000000 1.635030 
# 
# From -- ./inp_files/2305.got.cif
#   From: 2010.05.17/outbox.cif.g08.bks.cpg/sg55_2_cif.got.tgz:2305.got - 2010.06.03 13:27:54.
