data_PCOD9426272
_publ_section_title
;
Structure prediction by ZEFSAII (Michael W. Deem and Ramdas Pophale) SiO2 
 PCOD9426272
Probable space group: P B A M
;
_chemical_formula_sum "Si O2"
_cell_formula_units_Z 64
_cell_length_a 18.590802
_cell_length_b 20.383507
_cell_length_c 7.680146
_cell_angle_alpha 90.000000
_cell_angle_beta 90.000000
_cell_angle_gamma 90.000000
_cell_volume 2910.358630
_symmetry_space_group_name_H-M "P B A M"
_symmetry_group_IT_number 55
_symmetry_cell_setting 'orthorhombic'
loop_
_space_group_symop_operation_xyz
x,y,z
-x,-y,z
1/2+x,1/2-y,-z
1/2-x,1/2+y,-z
-x,-y,-z
x,y,-z
1/2-x,1/2+y,z
1/2+x,1/2-y,z
loop_
_atom_site_type_symbol
_atom_site_label
_atom_site_fract_x
_atom_site_fract_y
_atom_site_fract_z
Si Si1 0.329436 0.372974 0.212886
Si Si2 0.457772 0.938963 0.299552
Si Si3 0.298868 0.966370 0.798465
Si Si4 0.611963 0.325001 0.295645
Si Si5 0.514236 0.574877 0.788801
Si Si6 0.256827 0.110881 0.297886
Si Si7 0.980357 0.706874 0.288675
Si Si8 0.644624 0.771322 0.206158
O O1 0.265173 0.420242 0.269538
O O2 0.407155 0.400580 0.267886
O O3 0.321910 0.297452 0.269263
O O4 0.330078 0.373352 0.000000
O O5 0.483610 0.934240 0.500000
O O6 0.373692 0.954780 0.296887
O O7 0.470882 0.867145 0.222689
O O8 0.500000 0.000000 0.217071
O O9 0.276481 0.042304 0.788960
O O10 0.311249 0.948897 0.000000
O O11 0.626702 0.313488 0.500000
O O12 0.548286 0.377768 0.277871
O O13 0.685295 0.354974 0.221326
O O14 0.580370 0.257093 0.222721
O O15 0.500000 0.500000 0.735708
O O16 0.512274 0.577407 0.000000
O O17 0.243380 0.094753 0.500000
O O18 0.320170 0.164243 0.287353
O O19 0.975915 0.706800 0.500000
O O20 0.059501 0.731507 0.239643
O O21 0.656553 0.776064 0.000000
#
# Coordination Sequence:
#
# PCOD9426272 Si02
#       8
#     8   8   8   8   8   8   8   8
#     4   9  20  37  56  87 124 156 193 243 299 357
#     4  10  22  40  63  89 122 161 200 248 309 365
#     4  11  23  41  64  91 122 157 204 254 303 364
#     4  10  22  38  57  86 121 158 202 248 292 352
#     4  10  19  35  60  85 116 157 196 238 293 350
#     4  11  24  41  60  86 122 160 202 250 304 362
#     4  10  21  39  61  88 123 161 201 247 301 359
#     4  11  22  39  63  90 121 159 203 249 302 362
#
# _framework density 21.990417999999998
#
# number of rings (size 3 to 8) (size 9 to 14) (size 15 to 20)
#    0.000    1.750    1.250    2.625    1.750    4.000 
#    0.000    3.125    0.000    0.000    0.000    0.000 
#    0.000    0.000    0.000    0.000    0.000    0.000 
#
# Total GULP energy -357803.178918 kJ/mol
# GULP energy per Si atom -5590.674671 kJ/mol
# Density = 2.194037 g / cm^3
# Si number density = 21.990418 Si / 1000 Ang^3
#
#
#
# Elastic Constant Matrix: (Units=GPa)
#
#
# Indices 1 2 3 4 5 6 
#
# 1 62.6035 15.8670 -13.5828 0.0000 0.0000 0.0000
# 2 15.8670 143.8514 -5.4925 0.0000 0.0000 0.0000
# 3 -13.5828 -5.4925 43.0307 0.0000 0.0000 0.0000
# 4 0.0000 0.0000 0.0000 -12.6009 0.0000 0.0000
# 5 0.0000 0.0000 0.0000 0.0000 16.4333 0.0000
# 6 0.0000 0.0000 0.0000 0.0000 0.0000 41.3318
#
#
#
# Elastic Compliance Matrix: (Units=1/GPa)
#
#
# Indices 1 2 3 4 5 6 
#
# 1 0.017568 -0.001735 0.005324 0.000000 0.000000 0.000000
# 2 -0.001735 0.007157 0.000366 0.000000 0.000000 0.000000
# 3 0.005324 0.000366 0.024966 0.000000 0.000000 0.000000
# 4 0.000000 0.000000 0.000000 -0.079359 0.000000 0.000000
# 5 0.000000 0.000000 0.000000 0.000000 0.060852 0.000000
# 6 0.000000 0.000000 0.000000 0.000000 0.000000 0.024194
#
#
# Mechanical properties :
#
#
# Convention : Reuss Voigt Hill
#
# Bulk Modulus (GPa) = 17.36025 27.00767 22.18396
# Shear Modulus (GPa) = 74.99783 25.87910 50.43847
#
# Velocity S-wave (km/s) = 5.84627 3.43423 4.79441
# Velocity P-wave (km/s) = 7.31323 5.29466 6.38423
#
# Compressibility (1/GPa) = 0.05760286
#
# Stress axis : x y z
#
# Youngs Moduli (GPa) = 56.92068 139.72505 40.05370
#
# Poissons Ratio (x) = 0.24236 -0.21325
# Poissons Ratio (y) = 0.09873 -0.01466
# Poissons Ratio (z) = -0.30305 -0.05114
#
# Static dielectric constant tensor:
#      x y z
#    x 1.755660 0.000000 0.000000 
#    y 0.000000 1.740290 0.000000 
#    z 0.000000 0.000000 1.898030 
# 
# From -- ./inp_files/7974.got.cif
#   From: 2010.05.17/outbox.cif.g08.bks.cpg/sg55_4_cif.got.tgz:7974.got - 2010.06.03 13:27:54.
