data_PCOD9426057
_publ_section_title
;
Structure prediction by ZEFSAII (Michael W. Deem and Ramdas Pophale) SiO2 
 PCOD9426057
Probable space group: P B A M
;
_chemical_formula_sum "Si O2"
_cell_formula_units_Z 52
_cell_length_a 14.679370
_cell_length_b 19.154324
_cell_length_c 9.391296
_cell_angle_alpha 90.000000
_cell_angle_beta 90.000000
_cell_angle_gamma 90.000000
_cell_volume 2640.582712
_symmetry_space_group_name_H-M "P B A M"
_symmetry_group_IT_number 55
_symmetry_cell_setting 'orthorhombic'
loop_
_space_group_symop_operation_xyz
x,y,z
-x,-y,z
1/2+x,1/2-y,-z
1/2-x,1/2+y,-z
-x,-y,-z
x,y,-z
1/2-x,1/2+y,z
1/2+x,1/2-y,z
loop_
_atom_site_type_symbol
_atom_site_label
_atom_site_fract_x
_atom_site_fract_y
_atom_site_fract_z
Si Si1 0.177736 0.076404 0.339645
Si Si2 0.500000 0.500000 0.260563
Si Si3 0.611027 0.626051 0.163876
Si Si4 0.685473 0.287814 0.830404
Si Si5 0.099457 0.721841 0.828140
Si Si6 0.216462 0.463212 0.173231
Si Si7 0.424730 0.853404 0.827355
O O1 0.208927 0.089780 0.500000
O O2 0.087562 0.028228 0.342989
O O3 0.150441 0.147175 0.259594
O O4 0.253514 0.034666 0.248057
O O5 0.537121 0.565375 0.172012
O O6 0.578841 0.699581 0.226253
O O7 0.705050 0.592649 0.217620
O O8 0.631824 0.641983 0.000000
O O9 0.638448 0.214118 0.793879
O O10 0.793857 0.287842 0.801820
O O11 0.670789 0.298765 0.000000
O O12 0.025880 0.665873 0.774586
O O13 0.087932 0.719872 0.000000
O O14 0.122651 0.425749 0.216991
O O15 0.219604 0.472165 0.000000
O O16 0.425316 0.857688 0.000000
#
# Coordination Sequence:
#
# PCOD9426057 Si02
#       7
#     8   4   8   8   8   8   8
#     4  11  23  37  52  73 107 143 177 220 269 319
#     4  10  20  32  52  76 105 142 179 212 269 332
#     4   9  15  26  47  80 112 135 164 213 265 317
#     4  10  19  34  56  82 110 140 176 219 268 318
#     4   9  16  27  49  80 111 138 170 216 269 316
#     4   9  17  32  53  76 103 136 174 213 259 312
#     4   9  16  29  53  82 108 134 171 220 266 312
#
# _framework density 19.692622
#
# number of rings (size 3 to 8) (size 9 to 14) (size 15 to 20)
#    0.000    2.462    1.538    1.846    0.000    3.077 
#    0.000    1.538    0.000    6.462    0.000    0.000 
#    0.000    0.000    0.000    0.000    0.000    0.000 
#
# Total GULP energy -289574.239794 kJ/mol
# GULP energy per Si atom -5568.735381 kJ/mol
# Density = 1.964780 g / cm^3
# Si number density = 19.692622 Si / 1000 Ang^3
#
#
#
# Elastic Constant Matrix: (Units=GPa)
#
#
# Indices 1 2 3 4 5 6 
#
# 1 37.8405 -17.9135 4.7351 0.0000 0.0000 0.0000
# 2 -17.9135 35.7986 15.0999 0.0000 0.0000 0.0000
# 3 4.7351 15.0999 32.1765 0.0000 0.0000 0.0000
# 4 0.0000 0.0000 0.0000 -0.9041 0.0000 0.0000
# 5 0.0000 0.0000 0.0000 0.0000 3.4738 0.0000
# 6 0.0000 0.0000 0.0000 0.0000 0.0000 26.7601
#
#
#
# Elastic Compliance Matrix: (Units=1/GPa)
#
#
# Indices 1 2 3 4 5 6 
#
# 1 0.043435 0.030460 -0.020687 0.000000 0.000000 0.000000
# 2 0.030460 0.056190 -0.030851 0.000000 0.000000 0.000000
# 3 -0.020687 -0.030851 0.048601 0.000000 0.000000 0.000000
# 4 0.000000 0.000000 0.000000 -1.106051 0.000000 0.000000
# 5 0.000000 0.000000 0.000000 0.000000 0.287870 0.000000
# 6 0.000000 0.000000 0.000000 0.000000 0.000000 0.037369
#
#
# Mechanical properties :
#
#
# Convention : Reuss Voigt Hill
#
# Bulk Modulus (GPa) = 9.42767 12.18427 10.80597
# Shear Modulus (GPa) = -9.00780 12.79222 1.89221
#
# Velocity S-wave (km/s) = -2.14106 2.55148 0.98130
# Velocity P-wave (km/s) = 1.14646 3.85755 2.60445
#
# Compressibility (1/GPa) = 0.10607072
#
# Stress axis : x y z
#
# Youngs Moduli (GPa) = 23.02278 17.79692 20.57575
#
# Poissons Ratio (x) = -0.54210 0.42564
# Poissons Ratio (y) = -0.70129 0.63479
# Poissons Ratio (z) = 0.47626 0.54906
#
# Static dielectric constant tensor:
#      x y z
#    x 1.766310 0.000000 0.000000 
#    y 0.000000 1.717860 0.000000 
#    z 0.000000 0.000000 1.667450 
# 
# From -- ./inp_files/5905.got.cif
#   From: 2010.05.17/outbox.cif.g08.bks.cpg/sg55_3_cif.got.tgz:5905.got - 2010.06.03 13:27:54.
