data_PCOD9426936
_publ_section_title
;
Structure prediction by ZEFSAII (Michael W. Deem and Ramdas Pophale) SiO2 
 PCOD9426936
Probable space group: P B A M
;
_chemical_formula_sum "Si O2"
_cell_formula_units_Z 64
_cell_length_a 24.008433
_cell_length_b 15.137621
_cell_length_c 8.811884
_cell_angle_alpha 90.000000
_cell_angle_beta 90.000000
_cell_angle_gamma 90.000000
_cell_volume 3202.507933
_symmetry_space_group_name_H-M "P B A M"
_symmetry_group_IT_number 55
_symmetry_cell_setting 'orthorhombic'
loop_
_space_group_symop_operation_xyz
x,y,z
-x,-y,z
1/2+x,1/2-y,-z
1/2-x,1/2+y,-z
-x,-y,-z
x,y,-z
1/2-x,1/2+y,z
1/2+x,1/2-y,z
loop_
_atom_site_type_symbol
_atom_site_label
_atom_site_fract_x
_atom_site_fract_y
_atom_site_fract_z
Si Si1 0.451244 0.070262 0.182495
Si Si2 0.959775 0.084250 0.824154
Si Si3 0.521515 0.237258 0.181839
Si Si4 0.759546 0.270861 0.316473
Si Si5 0.171258 0.552183 0.682186
Si Si6 0.130896 0.206481 0.679861
Si Si7 0.860299 0.994812 0.322940
Si Si8 0.242777 0.919558 0.821234
O O1 0.479021 0.162127 0.232430
O O2 0.392213 0.053847 0.260889
O O3 0.500000 0.000000 0.213756
O O4 0.442122 0.071433 0.000000
O O5 0.994112 0.169601 0.776642
O O6 0.907862 0.064208 0.717645
O O7 0.941121 0.095868 0.000000
O O8 0.000000 0.000000 0.820185
O O9 0.584001 0.233568 0.244670
O O10 0.525417 0.232311 0.000000
O O11 0.762108 0.266528 0.500000
O O12 0.796610 0.356229 0.271002
O O13 0.694751 0.282532 0.270727
O O14 0.774212 0.175288 0.248817
O O15 0.173426 0.548172 0.500000
O O16 0.203464 0.466711 0.747555
O O17 0.129156 0.221643 0.500000
O O18 0.117445 0.103481 0.708674
O O19 0.843855 0.998274 0.500000
O O20 0.807514 0.014868 0.219947
O O21 0.250625 0.910520 0.000000
#
# Coordination Sequence:
#
# PCOD9426936 Si02
#       8
#     8   8   8   8   8   8   8   8
#     4  10  24  45  65  90 128 171 219 272 319 370
#     4  10  20  35  55  86 125 164 203 248 308 375
#     4  10  22  39  60  87 125 167 210 258 311 374
#     4  10  23  44  66  94 130 168 208 263 324 384
#     4  11  24  46  71  97 132 170 216 271 326 386
#     4  10  21  39  63  90 124 161 206 257 313 378
#     4  11  22  39  61  89 126 166 208 255 310 376
#     4  12  26  42  66  96 127 167 211 260 324 390
#
# _framework density 19.98434
#
# number of rings (size 3 to 8) (size 9 to 14) (size 15 to 20)
#    0.000    1.500    2.500    1.875    3.500    3.500 
#    0.000    0.000    0.000    0.000    0.000    0.000 
#    0.000    0.000    0.000    0.000    0.000    0.000 
#
# Total GULP energy -357475.383249 kJ/mol
# GULP energy per Si atom -5585.552863 kJ/mol
# Density = 1.993885 g / cm^3
# Si number density = 19.984340 Si / 1000 Ang^3
#
#
#
# Elastic Constant Matrix: (Units=GPa)
#
#
# Indices 1 2 3 4 5 6 
#
# 1 86.7903 -3.0384 27.9384 0.0000 0.0000 0.0000
# 2 -3.0384 57.1181 19.9158 0.0000 0.0000 0.0000
# 3 27.9384 19.9158 33.8010 0.0000 0.0000 0.0000
# 4 0.0000 0.0000 0.0000 13.8611 0.0000 0.0000
# 5 0.0000 0.0000 0.0000 0.0000 37.3880 0.0000
# 6 0.0000 0.0000 0.0000 0.0000 0.0000 23.1432
#
#
#
# Elastic Compliance Matrix: (Units=1/GPa)
#
#
# Indices 1 2 3 4 5 6 
#
# 1 0.018077 0.007767 -0.019518 0.000000 0.000000 0.000000
# 2 0.007767 0.025372 -0.021369 0.000000 0.000000 0.000000
# 3 -0.019518 -0.021369 0.058309 0.000000 0.000000 0.000000
# 4 0.000000 0.000000 0.000000 0.072145 0.000000 0.000000
# 5 0.000000 0.000000 0.000000 0.000000 0.026747 0.000000
# 6 0.000000 0.000000 0.000000 0.000000 0.000000 0.043209
#
#
# Mechanical properties :
#
#
# Convention : Reuss Voigt Hill
#
# Bulk Modulus (GPa) = 28.15551 29.70456 28.93004
# Shear Modulus (GPa) = 15.53099 23.73801 19.63450
#
# Velocity S-wave (km/s) = 2.79078 3.45023 3.13788
# Velocity P-wave (km/s) = 4.95015 5.54692 5.25701
#
# Compressibility (1/GPa) = 0.03551703
#
# Stress axis : x y z
#
# Youngs Moduli (GPa) = 55.31908 39.41395 17.15013
#
# Poissons Ratio (x) = -0.30613 0.33474
# Poissons Ratio (y) = -0.42967 0.36648
# Poissons Ratio (z) = 1.07972 0.84224
#
# Static dielectric constant tensor:
#      x y z
#    x 1.700250 0.000000 0.000000 
#    y 0.000000 1.733170 0.000000 
#    z 0.000000 0.000000 1.681770 
# 
# From -- ./inp_files/9786.got.cif
#   From: 2010.05.17/outbox.cif.g08.bks.cpg/sg55_5_cif.got.tgz:9786.got - 2010.06.03 13:27:54.
