data_PCOD9426653
_publ_section_title
;
Structure prediction by ZEFSAII (Michael W. Deem and Ramdas Pophale) SiO2 
 PCOD9426653
Probable space group: P B A M
;
_chemical_formula_sum "Si O2"
_cell_formula_units_Z 56
_cell_length_a 16.771063
_cell_length_b 12.317354
_cell_length_c 12.588619
_cell_angle_alpha 90.000000
_cell_angle_beta 90.000000
_cell_angle_gamma 90.000000
_cell_volume 2600.495480
_symmetry_space_group_name_H-M "P B A M"
_symmetry_group_IT_number 55
_symmetry_cell_setting 'orthorhombic'
loop_
_space_group_symop_operation_xyz
x,y,z
-x,-y,z
1/2+x,1/2-y,-z
1/2-x,1/2+y,-z
-x,-y,-z
x,y,-z
1/2-x,1/2+y,z
1/2+x,1/2-y,z
loop_
_atom_site_type_symbol
_atom_site_label
_atom_site_fract_x
_atom_site_fract_y
_atom_site_fract_z
Si Si1 0.493073 0.122623 0.825991
Si Si2 0.747794 0.094180 0.872692
Si Si3 0.687531 0.285883 0.378223
Si Si4 0.831294 0.398952 0.735966
Si Si5 0.877752 0.786485 0.163768
Si Si6 0.412964 0.477327 0.118715
Si Si7 0.594737 0.079568 0.384762
O O1 0.401338 0.150778 0.807788
O O2 0.545455 0.218519 0.874439
O O3 0.537365 0.109746 0.711784
O O4 0.500000 0.000000 0.873243
O O5 0.696134 0.203915 0.855246
O O6 0.707175 0.995311 0.807667
O O7 0.840730 0.095804 0.836958
O O8 0.746429 0.073448 0.000000
O O9 0.680816 0.326108 0.500000
O O10 0.767511 0.323350 0.320479
O O11 0.621001 0.316838 0.290149
O O12 0.672356 0.156998 0.382734
O O13 0.875692 0.460099 0.639701
O O14 0.873502 0.903122 0.111639
O O15 0.500000 0.500000 0.169957
O O16 0.430072 0.434916 0.000000
O O17 0.557721 0.094491 0.500000
#
# Coordination Sequence:
#
# PCOD9426653 Si02
#       7
#     8   8   8   8   8   8   8
#     4   9  18  32  53  82 118 150 193 243 302 349
#     4  11  22  38  63  90 116 157 204 250 303 360
#     4  10  20  33  55  84 115 154 199 242 297 361
#     4  11  19  35  55  81 119 149 196 248 299 352
#     4  11  20  40  62  85 124 161 195 255 306 355
#     4  10  23  43  64  89 120 159 206 248 302 371
#     4   9  18  33  53  78 113 152 192 240 294 352
#
# _framework density 21.534357
#
# number of rings (size 3 to 8) (size 9 to 14) (size 15 to 20)
#    0.000    1.857    5.714    0.857    0.000    4.286 
#    0.000    2.143    0.000    0.429    0.000    0.000 
#    0.000    0.000    0.000    0.000    0.000    0.000 
#
# Total GULP energy -311761.358720 kJ/mol
# GULP energy per Si atom -5567.167120 kJ/mol
# Density = 2.148534 g / cm^3
# Si number density = 21.534357 Si / 1000 Ang^3
#
#
#
# Elastic Constant Matrix: (Units=GPa)
#
#
# Indices 1 2 3 4 5 6 
#
# 1 115.9392 39.5817 11.8089 0.0000 0.0000 0.0000
# 2 39.5817 73.4226 10.1637 0.0000 0.0000 0.0000
# 3 11.8089 10.1637 99.2991 0.0000 0.0000 0.0000
# 4 0.0000 0.0000 0.0000 10.0279 0.0000 0.0000
# 5 0.0000 0.0000 0.0000 0.0000 14.1757 0.0000
# 6 0.0000 0.0000 0.0000 0.0000 0.0000 43.6234
#
#
#
# Elastic Compliance Matrix: (Units=1/GPa)
#
#
# Indices 1 2 3 4 5 6 
#
# 1 0.010617 -0.005628 -0.000686 0.000000 0.000000 0.000000
# 2 -0.005628 0.016799 -0.001050 0.000000 0.000000 0.000000
# 3 -0.000686 -0.001050 0.010260 0.000000 0.000000 0.000000
# 4 0.000000 0.000000 0.000000 0.099722 0.000000 0.000000
# 5 0.000000 0.000000 0.000000 0.000000 0.070543 0.000000
# 6 0.000000 0.000000 0.000000 0.000000 0.000000 0.022923
#
#
# Mechanical properties :
#
#
# Convention : Reuss Voigt Hill
#
# Bulk Modulus (GPa) = 43.58100 45.75218 44.66659
# Shear Modulus (GPa) = 19.74388 28.70583 24.22486
#
# Velocity S-wave (km/s) = 3.03125 3.65502 3.35765
# Velocity P-wave (km/s) = 5.70378 6.25336 5.98488
#
# Compressibility (1/GPa) = 0.02294578
#
# Stress axis : x y z
#
# Youngs Moduli (GPa) = 94.19162 59.52600 97.46865
#
# Poissons Ratio (x) = 0.33503 0.06691
# Poissons Ratio (y) = 0.53014 0.10236
# Poissons Ratio (z) = 0.06466 0.06251
#
# Static dielectric constant tensor:
#      x y z
#    x 1.864350 0.000000 0.000000 
#    y 0.000000 1.819360 0.000000 
#    z 0.000000 0.000000 1.842300 
# 
# From -- ./inp_files/19049.got.cif
#   From: 2010.05.17/outbox.cif.g08.bks.cpg/sg55_10_cif.got.tgz:19049.got - 2010.06.03 13:27:54.
