data_PCOD9426785
_publ_section_title
;
Structure prediction by ZEFSAII (Michael W. Deem and Ramdas Pophale) SiO2 
 PCOD9426785
Probable space group: P B A M
;
_chemical_formula_sum "Si O2"
_cell_formula_units_Z 56
_cell_length_a 14.275741
_cell_length_b 20.876945
_cell_length_c 9.039775
_cell_angle_alpha 90.000000
_cell_angle_beta 90.000000
_cell_angle_gamma 90.000000
_cell_volume 2694.159034
_symmetry_space_group_name_H-M "P B A M"
_symmetry_group_IT_number 55
_symmetry_cell_setting 'orthorhombic'
loop_
_space_group_symop_operation_xyz
x,y,z
-x,-y,z
1/2+x,1/2-y,-z
1/2-x,1/2+y,-z
-x,-y,-z
x,y,-z
1/2-x,1/2+y,z
1/2+x,1/2-y,z
loop_
_atom_site_type_symbol
_atom_site_label
_atom_site_fract_x
_atom_site_fract_y
_atom_site_fract_z
Si Si1 0.509560 0.236801 0.170634
Si Si2 0.555642 0.356871 0.334096
Si Si3 0.210111 0.743603 0.175533
Si Si4 0.709531 0.023118 0.827612
Si Si5 0.239611 0.606195 0.671669
Si Si6 0.572537 0.558776 0.162675
Si Si7 0.849337 0.652886 0.676079
O O1 0.565789 0.300066 0.217555
O O2 0.401207 0.254137 0.192797
O O3 0.550643 0.181028 0.272511
O O4 0.524455 0.219979 0.000000
O O5 0.551018 0.330020 0.500000
O O6 0.647075 0.401246 0.326122
O O7 0.463418 0.395710 0.291727
O O8 0.224102 0.673995 0.248987
O O9 0.271511 0.799134 0.252280
O O10 0.231459 0.742530 0.000000
O O11 0.821385 0.036714 0.821944
O O12 0.663728 0.081970 0.740805
O O13 0.694209 0.953865 0.754325
O O14 0.681851 0.023004 0.000000
O O15 0.210887 0.609313 0.500000
O O16 0.500000 0.500000 0.161028
O O17 0.564046 0.591258 0.000000
O O18 0.839976 0.653721 0.500000
#
# Coordination Sequence:
#
# PCOD9426785 Si02
#       7
#     8   8   8   8   8   8   8
#     4  11  24  42  66  93 123 162 214 264 313 375
#     4  11  22  35  57  89 124 161 200 251 315 372
#     4  11  24  43  68  96 126 168 216 264 316 377
#     4  11  23  40  62  88 125 170 213 262 315 376
#     4  11  23  39  61  92 127 165 207 257 316 375
#     4  10  20  34  54  83 118 160 204 246 301 368
#     4  12  25  42  65  95 131 168 209 264 323 379
#
# _framework density 20.785706999999999
#
# number of rings (size 3 to 8) (size 9 to 14) (size 15 to 20)
#    0.000    1.000    2.857    4.286    0.000    8.286 
#    0.000    0.714    0.000    4.286    0.000    0.000 
#    0.000    0.000    0.000    0.000    0.000    0.000 
#
# Total GULP energy -313006.364158 kJ/mol
# GULP energy per Si atom -5589.399360 kJ/mol
# Density = 2.073840 g / cm^3
# Si number density = 20.785707 Si / 1000 Ang^3
#
#
#
# Elastic Constant Matrix: (Units=GPa)
#
#
# Indices 1 2 3 4 5 6 
#
# 1 22.2633 -7.6614 17.7062 0.0000 0.0000 0.0000
# 2 -7.6614 101.8538 54.2851 0.0000 0.0000 0.0000
# 3 17.7062 54.2851 148.4028 0.0000 0.0000 0.0000
# 4 0.0000 0.0000 0.0000 29.4863 0.0000 0.0000
# 5 0.0000 0.0000 0.0000 0.0000 15.1132 0.0000
# 6 0.0000 0.0000 0.0000 0.0000 0.0000 26.1047
#
#
#
# Elastic Compliance Matrix: (Units=1/GPa)
#
#
# Indices 1 2 3 4 5 6 
#
# 1 0.056456 0.009734 -0.010297 0.000000 0.000000 0.000000
# 2 0.009734 0.013874 -0.006237 0.000000 0.000000 0.000000
# 3 -0.010297 -0.006237 0.010248 0.000000 0.000000 0.000000
# 4 0.000000 0.000000 0.000000 0.033914 0.000000 0.000000
# 5 0.000000 0.000000 0.000000 0.000000 0.066167 0.000000
# 6 0.000000 0.000000 0.000000 0.000000 0.000000 0.038307
#
#
# Mechanical properties :
#
#
# Convention : Reuss Voigt Hill
#
# Bulk Modulus (GPa) = 14.92972 44.57555 29.75264
# Shear Modulus (GPa) = 19.61624 28.02019 23.81821
#
# Velocity S-wave (km/s) = 3.07536 3.67556 3.38878
# Velocity P-wave (km/s) = 4.45070 6.28529 5.44581
#
# Compressibility (1/GPa) = 0.06698050
#
# Stress axis : x y z
#
# Youngs Moduli (GPa) = 17.71298 72.07686 97.57795
#
# Poissons Ratio (x) = -0.70162 1.00473
# Poissons Ratio (y) = -0.17242 0.60855
# Poissons Ratio (z) = 0.18238 0.44951
#
# Static dielectric constant tensor:
#      x y z
#    x 1.768880 0.000000 0.000000 
#    y 0.000000 1.739020 0.000000 
#    z 0.000000 0.000000 1.721110 
# 
# From -- ./inp_files/6002.got.cif
#   From: 2010.05.17/outbox.cif.g08.bks.cpg/sg55_4_cif.got.tgz:6002.got - 2010.06.03 13:27:54.
