data_PCOD9426548
_publ_section_title
;
Structure prediction by ZEFSAII (Michael W. Deem and Ramdas Pophale) SiO2 
 PCOD9426548
Probable space group: P B A M
;
_chemical_formula_sum "Si O2"
_cell_formula_units_Z 28
_cell_length_a 22.744969
_cell_length_b 5.030044
_cell_length_c 13.170850
_cell_angle_alpha 90.000000
_cell_angle_beta 90.000000
_cell_angle_gamma 90.000000
_cell_volume 1506.853173
_symmetry_space_group_name_H-M "P B A M"
_symmetry_group_IT_number 55
_symmetry_cell_setting 'orthorhombic'
loop_
_space_group_symop_operation_xyz
x,y,z
-x,-y,z
1/2+x,1/2-y,-z
1/2-x,1/2+y,-z
-x,-y,-z
x,y,-z
1/2-x,1/2+y,z
1/2+x,1/2-y,z
loop_
_atom_site_type_symbol
_atom_site_label
_atom_site_fract_x
_atom_site_fract_y
_atom_site_fract_z
Si Si1 0.211750 0.103939 0.500000
Si Si2 0.429456 0.073723 0.783487
Si Si3 0.039852 0.253021 0.500000
Si Si4 0.380763 0.594467 0.678475
Si Si5 0.543264 0.752682 0.000000
O O1 0.232819 0.407559 0.500000
O O2 0.176283 0.053315 0.393975
O O3 0.408209 0.310642 0.709066
O O4 0.500000 0.000000 0.771846
O O5 0.388381 0.810388 0.769729
O O6 0.422484 0.208379 0.894870
O O7 0.078281 0.245146 0.401178
O O8 0.000000 0.500000 0.500000
O O9 0.000000 0.000000 0.500000
O O10 0.500000 0.500000 0.000000
O O11 0.500000 0.000000 0.000000
#
# Coordination Sequence:
#
# PCOD9426548 Si02
#       5
#     4   8   4   8   4
#     4  11  24  43  59  78 105 136 186 244 284 330
#     4  11  20  34  53  82 118 148 178 213 254 321
#     4  11  20  29  44  72 108 136 160 200 253 318
#     4  11  22  34  54  79 103 143 184 217 272 325
#     4  10  20  32  50  78 116 158 184 206 248 306
#
# _framework density 18.581769999999999
#
# number of rings (size 3 to 8) (size 9 to 14) (size 15 to 20)
#    0.000    1.143    0.000   10.286    0.000    4.571 
#    0.000    2.143    0.000    0.000    0.000   20.000 
#    0.000    0.000    0.000    0.000    0.000    0.000 
#
# Total GULP energy -155879.740918 kJ/mol
# GULP energy per Si atom -5567.133604 kJ/mol
# Density = 1.853948 g / cm^3
# Si number density = 18.581770 Si / 1000 Ang^3
#
#
#
# Elastic Constant Matrix: (Units=GPa)
#
#
# Indices 1 2 3 4 5 6 
#
# 1 42.0166 12.1975 24.4298 0.0000 0.0000 0.0000
# 2 12.1975 127.9864 19.3719 0.0000 0.0000 0.0000
# 3 24.4298 19.3719 88.6370 0.0000 0.0000 0.0000
# 4 0.0000 0.0000 0.0000 249.3820 0.0000 0.0000
# 5 0.0000 0.0000 0.0000 0.0000 20.6419 0.0000
# 6 0.0000 0.0000 0.0000 0.0000 0.0000 32.5070
#
#
#
# Elastic Compliance Matrix: (Units=1/GPa)
#
#
# Indices 1 2 3 4 5 6 
#
# 1 0.028651 -0.001588 -0.007550 0.000000 0.000000 0.000000
# 2 -0.001588 0.008169 -0.001348 0.000000 0.000000 0.000000
# 3 -0.007550 -0.001348 0.013657 0.000000 0.000000 0.000000
# 4 0.000000 0.000000 0.000000 0.004010 0.000000 0.000000
# 5 0.000000 0.000000 0.000000 0.000000 0.048445 0.000000
# 6 0.000000 0.000000 0.000000 0.000000 0.000000 0.030763
#
#
# Mechanical properties :
#
#
# Convention : Reuss Voigt Hill
#
# Bulk Modulus (GPa) = 33.89082 41.18203 37.53643
# Shear Modulus (GPa) = 30.39521 74.01558 52.20540
#
# Velocity S-wave (km/s) = 4.04883 6.31814 5.30622
# Velocity P-wave (km/s) = 6.33528 8.68538 7.60170
#
# Compressibility (1/GPa) = 0.02950652
#
# Stress axis : x y z
#
# Youngs Moduli (GPa) = 34.90329 122.41956 73.22099
#
# Poissons Ratio (x) = 0.19438 0.55279
# Poissons Ratio (y) = 0.05542 0.09868
# Poissons Ratio (z) = 0.26350 0.16498
#
# Static dielectric constant tensor:
#      x y z
#    x 1.650210 0.000000 0.000000 
#    y 0.000000 1.642350 0.000000 
#    z 0.000000 0.000000 1.716920 
# 
# From -- ./inp_files/15117.got.cif
#   From: 2010.05.17/outbox.cif.g08.bks.cpg/sg55_8_cif.got.tgz:15117.got - 2010.06.03 13:27:54.
