data_PCOD9426387
_publ_section_title
;
Structure prediction by ZEFSAII (Michael W. Deem and Ramdas Pophale) SiO2 
 PCOD9426387
Probable space group: P B A M
;
_chemical_formula_sum "Si O2"
_cell_formula_units_Z 40
_cell_length_a 7.455226
_cell_length_b 16.964798
_cell_length_c 13.199683
_cell_angle_alpha 90.000000
_cell_angle_beta 90.000000
_cell_angle_gamma 90.000000
_cell_volume 1669.448428
_symmetry_space_group_name_H-M "P B A M"
_symmetry_group_IT_number 55
_symmetry_cell_setting 'orthorhombic'
loop_
_space_group_symop_operation_xyz
x,y,z
-x,-y,z
1/2+x,1/2-y,-z
1/2-x,1/2+y,-z
-x,-y,-z
x,y,-z
1/2-x,1/2+y,z
1/2+x,1/2-y,z
loop_
_atom_site_type_symbol
_atom_site_label
_atom_site_fract_x
_atom_site_fract_y
_atom_site_fract_z
Si Si1 0.236863 0.576614 0.169196
Si Si2 0.693860 0.098532 0.164269
Si Si3 0.734046 0.365715 0.609195
Si Si4 0.585884 0.201006 0.319332
Si Si5 0.004906 0.787813 0.891132
O O1 0.274605 0.486667 0.140114
O O2 0.289005 0.584595 0.288361
O O3 0.348716 0.646143 0.117285
O O4 0.021869 0.588080 0.152221
O O5 0.717692 0.132496 0.279240
O O6 0.808477 0.164656 0.108541
O O7 0.681324 0.398565 0.500000
O O8 0.651604 0.278640 0.625492
O O9 0.943506 0.344566 0.614373
O O10 0.505614 0.236857 0.212397
O O11 0.993354 0.746444 0.000000
#
# Coordination Sequence:
#
# PCOD9426387 Si02
#       5
#     8   8   8   8   8
#     4   9  22  39  62  86 123 153 197 250 295 353
#     4  10  20  41  60  84 122 159 190 248 302 338
#     4  10  19  36  61  87 116 156 195 242 302 356
#     4  10  20  38  57  87 122 152 197 251 292 349
#     4  11  23  39  62  87 119 162 203 242 299 356
#
# _framework density 23.960007000000001
#
# number of rings (size 3 to 8) (size 9 to 14) (size 15 to 20)
#    0.000    2.000    2.000    1.200    0.000    3.200 
#    0.000   11.000    0.000    2.400    0.000    0.000 
#    0.000    0.000    0.000    0.000    0.000    0.000 
#
# Total GULP energy -223041.943124 kJ/mol
# GULP energy per Si atom -5576.048578 kJ/mol
# Density = 2.390547 g / cm^3
# Si number density = 23.960007 Si / 1000 Ang^3
#
#
#
# Elastic Constant Matrix: (Units=GPa)
#
#
# Indices 1 2 3 4 5 6 
#
# 1 50.0836 -1.2076 6.5996 0.0000 0.0000 0.0000
# 2 -1.2076 75.8376 -7.9230 0.0000 0.0000 0.0000
# 3 6.5996 -7.9230 135.5933 0.0000 0.0000 0.0000
# 4 0.0000 0.0000 0.0000 -24.2224 0.0000 0.0000
# 5 0.0000 0.0000 0.0000 0.0000 207.2160 0.0000
# 6 0.0000 0.0000 0.0000 0.0000 0.0000 28.6357
#
#
#
# Elastic Compliance Matrix: (Units=1/GPa)
#
#
# Indices 1 2 3 4 5 6 
#
# 1 0.020099 0.000219 -0.000965 0.000000 0.000000 0.000000
# 2 0.000219 0.013269 0.000765 0.000000 0.000000 0.000000
# 3 -0.000965 0.000765 0.007467 0.000000 0.000000 0.000000
# 4 0.000000 0.000000 0.000000 -0.041284 0.000000 0.000000
# 5 0.000000 0.000000 0.000000 0.000000 0.004826 0.000000
# 6 0.000000 0.000000 0.000000 0.000000 0.000000 0.034921
#
#
# Mechanical properties :
#
#
# Convention : Reuss Voigt Hill
#
# Bulk Modulus (GPa) = 24.46658 28.49473 26.48066
# Shear Modulus (GPa) = 94.54347 59.92888 77.23617
#
# Velocity S-wave (km/s) = 6.28844 5.00663 5.68379
# Velocity P-wave (km/s) = 7.93471 6.73352 7.35866
#
# Compressibility (1/GPa) = 0.04087208
#
# Stress axis : x y z
#
# Youngs Moduli (GPa) = 49.75339 75.36110 133.92856
#
# Poissons Ratio (x) = -0.01652 0.12930
# Poissons Ratio (y) = -0.01090 -0.10241
# Poissons Ratio (z) = 0.04803 -0.05763
#
# Static dielectric constant tensor:
#      x y z
#    x 2.029440 0.000000 0.000000 
#    y 0.000000 1.932940 0.000000 
#    z 0.000000 0.000000 1.930880 
# 
# From -- ./inp_files/11890.got.cif
#   From: 2010.05.17/outbox.cif.g08.bks.cpg/sg55_6_cif.got.tgz:11890.got - 2010.06.03 13:27:54.
