data_PCOD9426880
_publ_section_title
;
Structure prediction by ZEFSAII (Michael W. Deem and Ramdas Pophale) SiO2 
 PCOD9426880
Probable space group: P B A M
;
_chemical_formula_sum "Si O2"
_cell_formula_units_Z 64
_cell_length_a 20.323407
_cell_length_b 20.986362
_cell_length_c 8.409025
_cell_angle_alpha 90.000000
_cell_angle_beta 90.000000
_cell_angle_gamma 90.000000
_cell_volume 3586.570054
_symmetry_space_group_name_H-M "P B A M"
_symmetry_group_IT_number 55
_symmetry_cell_setting 'orthorhombic'
loop_
_space_group_symop_operation_xyz
x,y,z
-x,-y,z
1/2+x,1/2-y,-z
1/2-x,1/2+y,-z
-x,-y,-z
x,y,-z
1/2-x,1/2+y,z
1/2+x,1/2-y,z
loop_
_atom_site_type_symbol
_atom_site_label
_atom_site_fract_x
_atom_site_fract_y
_atom_site_fract_z
Si Si1 0.174998 0.427971 0.693793
Si Si2 0.923673 0.178626 0.809673
Si Si3 0.423650 0.181010 0.692266
Si Si4 0.823421 0.427655 0.692355
Si Si5 0.325747 0.429460 0.309630
Si Si6 0.074912 0.319609 0.692225
Si Si7 0.324388 0.570741 0.809381
Si Si8 0.574935 0.320716 0.807891
O O1 0.173754 0.427012 0.500000
O O2 0.158246 0.500318 0.742995
O O3 0.250451 0.415386 0.742799
O O4 0.124031 0.374644 0.749446
O O5 0.903848 0.248850 0.750341
O O6 0.875662 0.124088 0.748050
O O7 0.999380 0.168021 0.755773
O O8 0.922999 0.178214 0.000000
O O9 0.423001 0.181172 0.500000
O O10 0.374415 0.125867 0.747844
O O11 0.499233 0.169567 0.743859
O O12 0.823367 0.427195 0.500000
O O13 0.749142 0.415339 0.748362
O O14 0.325822 0.431372 0.500000
O O15 0.342876 0.499888 0.247501
O O16 0.075499 0.320047 0.500000
O O17 0.094854 0.249319 0.748952
O O18 0.375928 0.624038 0.753025
O O19 0.323787 0.571162 0.000000
O O20 0.575351 0.320257 0.000000
#
# Coordination Sequence:
#
# PCOD9426880 Si02
#       8
#     8   8   8   8   8   8   8   8
#     4   8  16  31  50  73 100 129 161 201 246 289
#     4  10  20  35  53  72  98 132 166 202 247 297
#     4   9  18  32  51  75 101 130 166 207 247 290
#     4   9  18  33  51  73 103 134 164 204 252 294
#     4  10  20  35  53  75 103 130 161 204 251 297
#     4   9  17  31  52  75  98 128 167 205 243 293
#     4  10  20  35  53  73  98 130 169 207 246 297
#     4   9  20  36  51  70  99 131 163 204 249 291
#
# _framework density 17.844346999999999
#
# number of rings (size 3 to 8) (size 9 to 14) (size 15 to 20)
#    0.000    2.750    0.000    1.875    0.000    4.000 
#    0.000   11.875    0.000    0.000    0.000    7.000 
#    0.000    0.000    0.000    0.000    0.000    0.000 
#
# Total GULP energy -356903.796428 kJ/mol
# GULP energy per Si atom -5576.621819 kJ/mol
# Density = 1.780373 g / cm^3
# Si number density = 17.844347 Si / 1000 Ang^3
#
#
#
# Elastic Constant Matrix: (Units=GPa)
#
#
# Indices 1 2 3 4 5 6 
#
# 1 114.1829 136.8449 18.0329 0.0000 0.0000 0.0000
# 2 136.8449 197.0959 23.6526 0.0000 0.0000 0.0000
# 3 18.0329 23.6526 12.7348 0.0000 0.0000 0.0000
# 4 0.0000 0.0000 0.0000 195.7355 0.0000 0.0000
# 5 0.0000 0.0000 0.0000 0.0000 20.1046 0.0000
# 6 0.0000 0.0000 0.0000 0.0000 0.0000 45.3262
#
#
#
# Elastic Compliance Matrix: (Units=1/GPa)
#
#
# Indices 1 2 3 4 5 6 
#
# 1 0.052886 -0.035686 -0.008608 0.000000 0.000000 0.000000
# 2 -0.035686 0.030609 -0.006318 0.000000 0.000000 0.000000
# 3 -0.008608 -0.006318 0.102449 0.000000 0.000000 0.000000
# 4 0.000000 0.000000 0.000000 0.005109 0.000000 0.000000
# 5 0.000000 0.000000 0.000000 0.000000 0.049740 0.000000
# 6 0.000000 0.000000 0.000000 0.000000 0.000000 0.022062
#
#
# Mechanical properties :
#
#
# Convention : Reuss Voigt Hill
#
# Bulk Modulus (GPa) = 11.80363 75.67494 43.73928
# Shear Modulus (GPa) = 12.74471 61.93212 37.33841
#
# Velocity S-wave (km/s) = 2.67538 5.89764 4.57929
# Velocity P-wave (km/s) = 4.02153 9.42744 7.24739
#
# Compressibility (1/GPa) = 0.08471968
#
# Stress axis : x y z
#
# Youngs Moduli (GPa) = 18.90842 32.66999 9.76100
#
# Poissons Ratio (x) = 1.16587 0.08402
# Poissons Ratio (y) = 0.67477 0.06167
# Poissons Ratio (z) = 0.16277 0.20640
#
# Static dielectric constant tensor:
#      x y z
#    x 1.605310 0.000000 0.000000 
#    y 0.000000 1.586520 0.000000 
#    z 0.000000 0.000000 1.616710 
# 
# From -- ./inp_files/7979.got.cif
#   From: 2010.05.17/outbox.cif.g08.bks.cpg/sg55_4_cif.got.tgz:7979.got - 2010.06.03 13:27:54.
