data_PCOD9426944
_publ_section_title
;
Structure prediction by ZEFSAII (Michael W. Deem and Ramdas Pophale) SiO2 
 PCOD9426944
Probable space group: P B A M
;
_chemical_formula_sum "Si O2"
_cell_formula_units_Z 64
_cell_length_a 23.042576
_cell_length_b 16.152814
_cell_length_c 9.532156
_cell_angle_alpha 90.000000
_cell_angle_beta 90.000000
_cell_angle_gamma 90.000000
_cell_volume 3547.891762
_symmetry_space_group_name_H-M "P B A M"
_symmetry_group_IT_number 55
_symmetry_cell_setting 'orthorhombic'
loop_
_space_group_symop_operation_xyz
x,y,z
-x,-y,z
1/2+x,1/2-y,-z
1/2-x,1/2+y,-z
-x,-y,-z
x,y,-z
1/2-x,1/2+y,z
1/2+x,1/2-y,z
loop_
_atom_site_type_symbol
_atom_site_label
_atom_site_fract_x
_atom_site_fract_y
_atom_site_fract_z
Si Si1 0.163568 0.041169 0.169307
Si Si2 0.465689 0.915161 0.831833
Si Si3 0.223080 0.893702 0.661346
Si Si4 0.511344 0.753996 0.331585
Si Si5 0.855943 0.268044 0.341047
Si Si6 0.171471 0.423069 0.159147
Si Si7 0.454532 0.575068 0.332451
Si Si8 0.782275 0.388600 0.157547
O O1 0.102750 0.062742 0.239822
O O2 0.214670 0.107795 0.199293
O O3 0.188298 0.958873 0.243100
O O4 0.160012 0.032071 0.000000
O O5 0.487011 0.833778 0.749847
O O6 0.396597 0.923511 0.806862
O O7 0.500000 0.000000 0.792205
O O8 0.474379 0.904413 0.000000
O O9 0.229131 0.923390 0.500000
O O10 0.184671 0.811877 0.660441
O O11 0.285969 0.879035 0.731048
O O12 0.506030 0.766722 0.500000
O O13 0.579264 0.746777 0.293865
O O14 0.481310 0.665614 0.301308
O O15 0.861018 0.298497 0.500000
O O16 0.824316 0.336650 0.252178
O O17 0.194417 0.517417 0.157537
O O18 0.178753 0.390014 0.000000
O O19 0.500000 0.500000 0.305649
O O20 0.440983 0.571664 0.500000
O O21 0.785357 0.355888 0.000000
#
# Coordination Sequence:
#
# PCOD9426944 Si02
#       8
#     8   8   8   8   8   8   8   8
#     4  10  21  37  56  81 111 142 182 227 273 327
#     4  10  21  38  59  81 111 152 190 227 277 335
#     4  10  20  35  56  80 107 141 180 222 272 329
#     4  10  22  38  56  82 113 144 185 234 279 330
#     4  10  21  36  54  78 107 139 178 223 271 325
#     4   9  19  36  55  78 108 140 179 224 271 324
#     4  10  21  39  61  82 112 153 189 228 281 335
#     4   9  19  35  55  78 105 138 175 220 270 321
#
# _framework density 18.038882000000001
#
# number of rings (size 3 to 8) (size 9 to 14) (size 15 to 20)
#    0.000    2.250    0.000    3.000    0.000    9.500 
#    0.000    6.250    0.000    0.000    0.000    0.000 
#    0.000    0.000    0.000    0.000    0.000    0.000 
#
# Total GULP energy -356870.272128 kJ/mol
# GULP energy per Si atom -5576.098002 kJ/mol
# Density = 1.799782 g / cm^3
# Si number density = 18.038882 Si / 1000 Ang^3
#
#
#
# Elastic Constant Matrix: (Units=GPa)
#
#
# Indices 1 2 3 4 5 6 
#
# 1 142.9092 42.1324 57.6650 0.0000 0.0000 0.0000
# 2 42.1324 72.0124 33.9466 0.0000 0.0000 0.0000
# 3 57.6650 33.9466 51.8861 0.0000 0.0000 0.0000
# 4 0.0000 0.0000 0.0000 35.8575 0.0000 0.0000
# 5 0.0000 0.0000 0.0000 0.0000 33.9273 0.0000
# 6 0.0000 0.0000 0.0000 0.0000 0.0000 26.5048
#
#
#
# Elastic Compliance Matrix: (Units=1/GPa)
#
#
# Indices 1 2 3 4 5 6 
#
# 1 0.012750 -0.001128 -0.013432 0.000000 0.000000 0.000000
# 2 -0.001128 0.020179 -0.011949 0.000000 0.000000 0.000000
# 3 -0.013432 -0.011949 0.042019 0.000000 0.000000 0.000000
# 4 0.000000 0.000000 0.000000 0.027888 0.000000 0.000000
# 5 0.000000 0.000000 0.000000 0.000000 0.029475 0.000000
# 6 0.000000 0.000000 0.000000 0.000000 0.000000 0.037729
#
#
# Mechanical properties :
#
#
# Convention : Reuss Voigt Hill
#
# Bulk Modulus (GPa) = 45.59918 59.36619 52.48269
# Shear Modulus (GPa) = 21.70452 28.12883 24.91667
#
# Velocity S-wave (km/s) = 3.47249 3.95314 3.72058
# Velocity P-wave (km/s) = 6.43512 7.33607 6.90032
#
# Compressibility (1/GPa) = 0.02193022
#
# Stress axis : x y z
#
# Youngs Moduli (GPa) = 78.43205 49.55664 23.79898
#
# Poissons Ratio (x) = 0.05589 0.31967
# Poissons Ratio (y) = 0.08845 0.28437
# Poissons Ratio (z) = 1.05351 0.59214
#
# Static dielectric constant tensor:
#      x y z
#    x 1.617230 0.000000 0.000000 
#    y 0.000000 1.602980 0.000000 
#    z 0.000000 0.000000 1.626400 
# 
# From -- ./inp_files/9740.got.cif
#   From: 2010.05.17/outbox.cif.g08.bks.cpg/sg55_5_cif.got.tgz:9740.got - 2010.06.03 13:27:54.
