data_PCOD9426375
_publ_section_title
;
Structure prediction by ZEFSAII (Michael W. Deem and Ramdas Pophale) SiO2 
 PCOD9426375
Probable space group: P B A M
;
_chemical_formula_sum "Si O2"
_cell_formula_units_Z 44
_cell_length_a 13.181226
_cell_length_b 16.517290
_cell_length_c 10.234420
_cell_angle_alpha 90.000000
_cell_angle_beta 90.000000
_cell_angle_gamma 90.000000
_cell_volume 2228.218809
_symmetry_space_group_name_H-M "P B A M"
_symmetry_group_IT_number 55
_symmetry_cell_setting 'orthorhombic'
loop_
_space_group_symop_operation_xyz
x,y,z
-x,-y,z
1/2+x,1/2-y,-z
1/2-x,1/2+y,-z
-x,-y,-z
x,y,-z
1/2-x,1/2+y,z
1/2+x,1/2-y,z
loop_
_atom_site_type_symbol
_atom_site_label
_atom_site_fract_x
_atom_site_fract_y
_atom_site_fract_z
Si Si1 0.469375 0.593969 0.140983
Si Si2 0.389173 0.151580 0.642711
Si Si3 0.818740 0.945054 0.647303
Si Si4 0.840463 0.213683 0.146511
Si Si5 0.000000 0.500000 0.763291
Si Si6 0.784387 0.565367 0.849707
O O1 0.500000 0.500000 0.140242
O O2 0.401612 0.603190 0.268979
O O3 0.569354 0.647914 0.146204
O O4 0.417887 0.611693 0.000000
O O5 0.417622 0.184566 0.500000
O O6 0.279342 0.110524 0.634481
O O7 0.375091 0.219326 0.751732
O O8 0.463266 0.077879 0.681255
O O9 0.851041 0.969280 0.500000
O O10 0.780737 0.017975 0.740749
O O11 0.738730 0.160779 0.173437
O O12 0.831744 0.248440 0.000000
O O13 0.100003 0.466700 0.838088
O O14 0.750708 0.549508 0.000000
#
# Coordination Sequence:
#
# PCOD9426375 Si02
#       6
#     8   8   8   8   4   8
#     4  10  19  36  60  86 119 158 195 241 303 361
#     4  10  23  42  60  84 121 161 202 252 308 364
#     4  10  21  36  57  85 115 153 199 242 297 363
#     4  10  22  38  59  88 123 157 199 251 307 364
#     4  10  22  40  68  92 116 164 218 258 304 370
#     4  10  20  38  61  88 119 155 200 253 303 360
#
# _framework density 19.746714000000001
#
# number of rings (size 3 to 8) (size 9 to 14) (size 15 to 20)
#    0.000    2.000    1.818    1.091    0.000    8.364 
#    0.000    5.455    0.000    0.000    0.000    0.000 
#    0.000    0.000    0.000    0.000    0.000    0.000 
#
# Total GULP energy -245169.668352 kJ/mol
# GULP energy per Si atom -5572.037917 kJ/mol
# Density = 1.970177 g / cm^3
# Si number density = 19.746714 Si / 1000 Ang^3
#
#
#
# Elastic Constant Matrix: (Units=GPa)
#
#
# Indices 1 2 3 4 5 6 
#
# 1 64.6898 13.1214 43.5191 0.0000 0.0000 0.0000
# 2 13.1214 97.4510 65.4209 0.0000 0.0000 0.0000
# 3 43.5191 65.4209 168.8111 0.0000 0.0000 0.0000
# 4 0.0000 0.0000 0.0000 26.8979 0.0000 0.0000
# 5 0.0000 0.0000 0.0000 0.0000 -114.2057 0.0000
# 6 0.0000 0.0000 0.0000 0.0000 0.0000 26.3507
#
#
#
# Elastic Compliance Matrix: (Units=1/GPa)
#
#
# Indices 1 2 3 4 5 6 
#
# 1 0.018770 0.000975 -0.005217 0.000000 0.000000 0.000000
# 2 0.000975 0.013921 -0.005646 0.000000 0.000000 0.000000
# 3 -0.005217 -0.005646 0.009457 0.000000 0.000000 0.000000
# 4 0.000000 0.000000 0.000000 0.037178 0.000000 0.000000
# 5 0.000000 0.000000 0.000000 0.000000 -0.008756 0.000000
# 6 0.000000 0.000000 0.000000 0.000000 0.000000 0.037950
#
#
# Mechanical properties :
#
#
# Convention : Reuss Voigt Hill
#
# Bulk Modulus (GPa) = 44.69979 63.89717 54.29848
# Shear Modulus (GPa) = 36.83197 1.73462 19.28330
#
# Velocity S-wave (km/s) = 4.32351 0.93827 3.12834
# Velocity P-wave (km/s) = 6.89995 5.79676 6.37227
#
# Compressibility (1/GPa) = 0.02237147
#
# Stress axis : x y z
#
# Youngs Moduli (GPa) = 53.27624 71.83575 105.74535
#
# Poissons Ratio (x) = -0.07002 0.55163
# Poissons Ratio (y) = -0.05193 0.59705
# Poissons Ratio (z) = 0.27792 0.40559
#
# Static dielectric constant tensor:
#      x y z
#    x 1.732700 0.000000 0.000000 
#    y 0.000000 1.697470 0.000000 
#    z 0.000000 0.000000 1.754110 
# 
# From -- ./inp_files/5450.got.cif
#   From: 2010.05.17/outbox.cif.g08.bks.cpg/sg55_3_cif.got.tgz:5450.got - 2010.06.03 13:27:54.
