data_PCOD9426279
_publ_section_title
;
Structure prediction by ZEFSAII (Michael W. Deem and Ramdas Pophale) SiO2 
 PCOD9426279
Probable space group: P B A M
;
_chemical_formula_sum "Si O2"
_cell_formula_units_Z 64
_cell_length_a 11.916338
_cell_length_b 29.502441
_cell_length_c 8.854452
_cell_angle_alpha 90.000000
_cell_angle_beta 90.000000
_cell_angle_gamma 90.000000
_cell_volume 3112.880520
_symmetry_space_group_name_H-M "P B A M"
_symmetry_group_IT_number 55
_symmetry_cell_setting 'orthorhombic'
loop_
_space_group_symop_operation_xyz
x,y,z
-x,-y,z
1/2+x,1/2-y,-z
1/2-x,1/2+y,-z
-x,-y,-z
x,y,-z
1/2-x,1/2+y,z
1/2+x,1/2-y,z
loop_
_atom_site_type_symbol
_atom_site_label
_atom_site_fract_x
_atom_site_fract_y
_atom_site_fract_z
Si Si1 0.774819 0.831294 0.320240
Si Si2 0.805696 0.937087 0.680277
Si Si3 0.832347 0.159314 0.322868
Si Si4 0.716760 0.022241 0.822244
Si Si5 0.507795 0.270150 0.318271
Si Si6 0.457571 0.178188 0.177658
Si Si7 0.437395 0.437158 0.676643
Si Si8 0.610433 0.107488 0.681430
O O1 0.750459 0.827459 0.500000
O O2 0.790142 0.884351 0.284432
O O3 0.886477 0.802655 0.291019
O O4 0.670493 0.813946 0.225259
O O5 0.794643 0.942525 0.500000
O O6 0.935628 0.948677 0.718508
O O7 0.720710 0.971133 0.760719
O O8 0.811330 0.168790 0.500000
O O9 0.715778 0.138937 0.262890
O O10 0.896169 0.203232 0.261919
O O11 0.918920 0.117083 0.316290
O O12 0.631419 0.057167 0.743589
O O13 0.839908 0.041467 0.776447
O O14 0.700429 0.023175 0.000000
O O15 0.498505 0.263884 0.500000
O O16 0.522396 0.221909 0.241042
O O17 0.501299 0.132957 0.259945
O O18 0.471203 0.173610 0.000000
O O19 0.418384 0.449951 0.500000
O O20 0.613342 0.105927 0.500000
#
# Coordination Sequence:
#
# PCOD9426279 Si02
#       8
#     8   8   8   8   8   8   8   8
#     4  10  22  42  68  93 119 157 209 258 300 354
#     4  10  19  35  60  88 118 158 210 263 302 350
#     4   8  15  31  59  90 114 144 193 252 299 336
#     4  11  22  34  53  87 128 166 200 245 312 380
#     4  10  20  39  66  93 118 153 205 255 299 357
#     4  12  27  43  60  88 128 164 197 247 312 374
#     4   9  16  31  54  83 119 159 203 252 298 345
#     4  10  21  41  66  88 115 158 213 262 298 349
#
# _framework density 20.559733999999999
#
# number of rings (size 3 to 8) (size 9 to 14) (size 15 to 20)
#    0.000    2.000    1.250    3.750    1.750    3.000 
#    0.000    3.125    0.000    3.750    0.000    0.000 
#    0.000    0.000    0.000    0.000    0.000    0.000 
#
# Total GULP energy -357461.193238 kJ/mol
# GULP energy per Si atom -5585.331144 kJ/mol
# Density = 2.051294 g / cm^3
# Si number density = 20.559734 Si / 1000 Ang^3
#
#
#
# Elastic Constant Matrix: (Units=GPa)
#
#
# Indices 1 2 3 4 5 6 
#
# 1 19.0013 -3.9224 14.3130 0.0000 0.0000 0.0000
# 2 -3.9224 82.8773 37.0075 0.0000 0.0000 0.0000
# 3 14.3130 37.0075 54.8050 0.0000 0.0000 0.0000
# 4 0.0000 0.0000 0.0000 -13.9965 0.0000 0.0000
# 5 0.0000 0.0000 0.0000 0.0000 -4.4487 0.0000
# 6 0.0000 0.0000 0.0000 0.0000 0.0000 18.2481
#
#
#
# Elastic Compliance Matrix: (Units=1/GPa)
#
#
# Indices 1 2 3 4 5 6 
#
# 1 0.082822 0.019440 -0.034757 0.000000 0.000000 0.000000
# 2 0.019440 0.021838 -0.019823 0.000000 0.000000 0.000000
# 3 -0.034757 -0.019823 0.040709 0.000000 0.000000 0.000000
# 4 0.000000 0.000000 0.000000 -0.071446 0.000000 0.000000
# 5 0.000000 0.000000 0.000000 0.000000 -0.224786 0.000000
# 6 0.000000 0.000000 0.000000 0.000000 0.000000 0.054800
#
#
# Mechanical properties :
#
#
# Convention : Reuss Voigt Hill
#
# Bulk Modulus (GPa) = 13.31752 27.94220 20.62986
# Shear Modulus (GPa) = -6644.41110 7.24628 -3318.58241
#
# Velocity S-wave (km/s) = -56.91024 1.87940 -40.21967
# Velocity P-wave (km/s) = 65.66487 4.28133 46.33328
#
# Compressibility (1/GPa) = 0.07508905
#
# Stress axis : x y z
#
# Youngs Moduli (GPa) = 12.07405 45.79225 24.56431
#
# Poissons Ratio (x) = -0.89020 0.85378
# Poissons Ratio (y) = -0.23472 0.48694
# Poissons Ratio (z) = 0.41966 0.90774
#
# Static dielectric constant tensor:
#      x y z
#    x 1.748890 0.000000 0.000000 
#    y 0.000000 1.764010 0.000000 
#    z 0.000000 0.000000 1.687140 
# 
# From -- ./inp_files/4573.got.cif
#   From: 2010.05.17/outbox.cif.g08.bks.cpg/sg55_3_cif.got.tgz:4573.got - 2010.06.03 13:27:54.
