data_PCOD9426008
_publ_section_title
;
Structure prediction by ZEFSAII (Michael W. Deem and Ramdas Pophale) SiO2 
 PCOD9426008
Probable space group: P B A M
;
_chemical_formula_sum "Si O2"
_cell_formula_units_Z 48
_cell_length_a 9.548940
_cell_length_b 31.972583
_cell_length_c 7.687998
_cell_angle_alpha 90.000000
_cell_angle_beta 90.000000
_cell_angle_gamma 90.000000
_cell_volume 2347.178669
_symmetry_space_group_name_H-M "P B A M"
_symmetry_group_IT_number 55
_symmetry_cell_setting 'orthorhombic'
loop_
_space_group_symop_operation_xyz
x,y,z
-x,-y,z
1/2+x,1/2-y,-z
1/2-x,1/2+y,-z
-x,-y,-z
x,y,-z
1/2-x,1/2+y,z
1/2+x,1/2-y,z
loop_
_atom_site_type_symbol
_atom_site_label
_atom_site_fract_x
_atom_site_fract_y
_atom_site_fract_z
Si Si1 0.911210 0.539633 0.287196
Si Si2 0.914827 0.286193 0.202166
Si Si3 0.421633 0.867814 0.297904
Si Si4 0.597390 0.632591 0.795091
Si Si5 0.902549 0.791693 0.785981
Si Si6 0.410930 0.460667 0.289712
O O1 0.914646 0.540325 0.500000
O O2 0.958478 0.585808 0.228945
O O3 0.750091 0.534616 0.234472
O O4 0.000000 0.500000 0.228714
O O5 0.758112 0.290195 0.275534
O O6 0.998597 0.329547 0.211715
O O7 0.011184 0.248995 0.274218
O O8 0.895400 0.275089 0.000000
O O9 0.460352 0.866384 0.500000
O O10 0.252886 0.863815 0.284829
O O11 0.488445 0.667223 0.730913
O O12 0.542693 0.585520 0.766428
O O13 0.617670 0.639340 0.000000
O O14 0.899013 0.792306 0.000000
O O15 0.500000 0.500000 0.226934
O O16 0.413964 0.460938 0.500000
#
# Coordination Sequence:
#
# PCOD9426008 Si02
#       6
#     8   8   8   8   8   8
#     4   8  15  29  48  68  93 128 167 203 242 295
#     4  10  19  35  56  76 100 132 170 208 251 305
#     4  10  20  34  52  77 105 133 169 212 259 308
#     4  10  19  34  55  77 103 138 177 216 258 304
#     4   9  19  34  55  79 101 132 173 212 252 304
#     4   9  18  32  50  73 102 136 172 211 258 309
#
# _framework density 20.450084
#
# number of rings (size 3 to 8) (size 9 to 14) (size 15 to 20)
#    0.000    2.667    0.000    3.000    0.000    4.333 
#    0.000    7.500    0.000   12.500    0.000    0.000 
#    0.000    0.000    0.000    0.000    0.000    0.000 
#
# Total GULP energy -267839.382693 kJ/mol
# GULP energy per Si atom -5579.987139 kJ/mol
# Density = 2.040354 g / cm^3
# Si number density = 20.450084 Si / 1000 Ang^3
#
#
#
# Elastic Constant Matrix: (Units=GPa)
#
#
# Indices 1 2 3 4 5 6 
#
# 1 109.4431 107.4885 -6.2564 0.0000 0.0000 0.0000
# 2 107.4885 199.6999 -9.1275 0.0000 0.0000 0.0000
# 3 -6.2564 -9.1275 31.7330 0.0000 0.0000 0.0000
# 4 0.0000 0.0000 0.0000 22.3275 0.0000 0.0000
# 5 0.0000 0.0000 0.0000 0.0000 11.7485 0.0000
# 6 0.0000 0.0000 0.0000 0.0000 0.0000 39.6621
#
#
#
# Elastic Compliance Matrix: (Units=1/GPa)
#
#
# Indices 1 2 3 4 5 6 
#
# 1 0.019406 -0.010407 0.000833 0.000000 0.000000 0.000000
# 2 -0.010407 0.010656 0.001013 0.000000 0.000000 0.000000
# 3 0.000833 0.001013 0.031968 0.000000 0.000000 0.000000
# 4 0.000000 0.000000 0.000000 0.044788 0.000000 0.000000
# 5 0.000000 0.000000 0.000000 0.000000 0.085117 0.000000
# 6 0.000000 0.000000 0.000000 0.000000 0.000000 0.025213
#
#
# Mechanical properties :
#
#
# Convention : Reuss Voigt Hill
#
# Bulk Modulus (GPa) = 22.26838 58.34280 40.30559
# Shear Modulus (GPa) = 20.06093 31.33239 25.69666
#
# Velocity S-wave (km/s) = 3.13544 3.91850 3.54864
# Velocity P-wave (km/s) = 4.90110 7.00458 6.04504
#
# Compressibility (1/GPa) = 0.04490673
#
# Stress axis : x y z
#
# Youngs Moduli (GPa) = 51.52976 93.84753 31.28087
#
# Poissons Ratio (x) = 0.97671 -0.02604
# Poissons Ratio (y) = 0.53629 -0.03169
# Poissons Ratio (z) = -0.04290 -0.09507
#
# Static dielectric constant tensor:
#      x y z
#    x 1.695300 0.000000 0.000000 
#    y 0.000000 1.715270 0.000000 
#    z 0.000000 0.000000 1.762960 
# 
# From -- ./inp_files/2901.got.cif
#   From: 2010.05.17/outbox.cif.g08.bks.cpg/sg55_2_cif.got.tgz:2901.got - 2010.06.03 13:27:54.
