data_PCOD9426526
_publ_section_title
;
Structure prediction by ZEFSAII (Michael W. Deem and Ramdas Pophale) SiO2 
 PCOD9426526
Probable space group: P B A M
;
_chemical_formula_sum "Si O2"
_cell_formula_units_Z 48
_cell_length_a 15.253295
_cell_length_b 17.109748
_cell_length_c 7.395918
_cell_angle_alpha 90.000000
_cell_angle_beta 90.000000
_cell_angle_gamma 90.000000
_cell_volume 1930.186928
_symmetry_space_group_name_H-M "P B A M"
_symmetry_group_IT_number 55
_symmetry_cell_setting 'orthorhombic'
loop_
_space_group_symop_operation_xyz
x,y,z
-x,-y,z
1/2+x,1/2-y,-z
1/2-x,1/2+y,-z
-x,-y,-z
x,y,-z
1/2-x,1/2+y,z
1/2+x,1/2-y,z
loop_
_atom_site_type_symbol
_atom_site_label
_atom_site_fract_x
_atom_site_fract_y
_atom_site_fract_z
Si Si1 0.458105 0.580929 0.787076
Si Si2 0.727624 0.082957 0.292468
Si Si3 0.982627 0.584890 0.292206
Si Si4 0.240744 0.085111 0.703678
Si Si5 0.773063 0.749391 0.722352
Si Si6 0.522623 0.251632 0.717614
O O1 0.500000 0.500000 0.722828
O O2 0.364377 0.590568 0.693910
O O3 0.511572 0.661764 0.762537
O O4 0.441359 0.572339 0.000000
O O5 0.760982 0.077806 0.500000
O O6 0.622641 0.092147 0.298903
O O7 0.762464 0.165194 0.217170
O O8 0.742796 0.998472 0.206440
O O9 0.015441 0.580108 0.500000
O O10 0.015046 0.668348 0.216550
O O11 0.000000 0.500000 0.207841
O O12 0.278013 0.080806 0.500000
O O13 0.269153 0.168837 0.781565
O O14 0.771162 0.749175 0.500000
O O15 0.875353 0.752665 0.778447
O O16 0.521478 0.246263 0.500000
#
# Coordination Sequence:
#
# PCOD9426526 Si02
#       6
#     8   8   8   8   8   8
#     4  10  20  32  45  61  83 112 145 184 228 265
#     4   8  13  22  38  61  88 114 138 168 207 248
#     4   8  13  23  42  70  99 119 138 172 216 255
#     4   9  16  27  45  65  84 110 143 177 211 252
#     4   7  11  21  37  58  83 108 135 167 201 238
#     4   8  14  26  45  66  87 114 147 177 205 250
#
# _framework density 24.868058999999999
#
# number of rings (size 3 to 8) (size 9 to 14) (size 15 to 20)
#    0.000    3.667    0.000    3.500    0.000    1.333 
#    0.000    1.667    0.000   15.500    0.000    0.000 
#    0.000    0.000    0.000    0.000    0.000    0.000 
#
# Total GULP energy -267286.619208 kJ/mol
# GULP energy per Si atom -5568.471233 kJ/mol
# Density = 2.481146 g / cm^3
# Si number density = 24.868059 Si / 1000 Ang^3
#
#
#
# Elastic Constant Matrix: (Units=GPa)
#
#
# Indices 1 2 3 4 5 6 
#
# 1 47.3217 25.2956 -0.8604 0.0000 0.0000 0.0000
# 2 25.2956 364.6079 12.1211 0.0000 0.0000 0.0000
# 3 -0.8604 12.1211 91.4833 0.0000 0.0000 0.0000
# 4 0.0000 0.0000 0.0000 0.8530 0.0000 0.0000
# 5 0.0000 0.0000 0.0000 0.0000 -2.7464 0.0000
# 6 0.0000 0.0000 0.0000 0.0000 0.0000 29.0807
#
#
#
# Elastic Compliance Matrix: (Units=1/GPa)
#
#
# Indices 1 2 3 4 5 6 
#
# 1 0.021961 -0.001537 0.000410 0.000000 0.000000 0.000000
# 2 -0.001537 0.002862 -0.000394 0.000000 0.000000 0.000000
# 3 0.000410 -0.000394 0.010987 0.000000 0.000000 0.000000
# 4 0.000000 0.000000 0.000000 1.172360 0.000000 0.000000
# 5 0.000000 0.000000 0.000000 0.000000 -0.364109 0.000000
# 6 0.000000 0.000000 0.000000 0.000000 0.000000 0.034387
#
#
# Mechanical properties :
#
#
# Convention : Reuss Voigt Hill
#
# Bulk Modulus (GPa) = 30.51658 64.05838 47.28748
# Shear Modulus (GPa) = 5.60279 36.56123 21.08201
#
# Velocity S-wave (km/s) = 1.50263 3.83849 2.91478
# Velocity P-wave (km/s) = 3.91262 6.74244 5.51222
#
# Compressibility (1/GPa) = 0.03276907
#
# Stress axis : x y z
#
# Youngs Moduli (GPa) = 45.53497 349.35577 91.01683
#
# Poissons Ratio (x) = 0.53705 -0.03734
# Poissons Ratio (y) = 0.07000 0.03583
# Poissons Ratio (z) = -0.01868 0.13755
#
# Static dielectric constant tensor:
#      x y z
#    x 1.943130 0.000000 0.000000 
#    y 0.000000 2.121580 0.000000 
#    z 0.000000 0.000000 1.945000 
# 
# From -- ./inp_files/9499.got.cif
#   From: 2010.05.17/outbox.cif.g08.bks.cpg/sg55_5_cif.got.tgz:9499.got - 2010.06.03 13:27:54.
