data_PCOD9426224
_publ_section_title
;
Structure prediction by ZEFSAII (Michael W. Deem and Ramdas Pophale) SiO2 
 PCOD9426224
Probable space group: P B A M
;
_chemical_formula_sum "Si O2"
_cell_formula_units_Z 64
_cell_length_a 15.745214
_cell_length_b 23.092018
_cell_length_c 9.603076
_cell_angle_alpha 90.000000
_cell_angle_beta 90.000000
_cell_angle_gamma 90.000000
_cell_volume 3491.570544
_symmetry_space_group_name_H-M "P B A M"
_symmetry_group_IT_number 55
_symmetry_cell_setting 'orthorhombic'
loop_
_space_group_symop_operation_xyz
x,y,z
-x,-y,z
1/2+x,1/2-y,-z
1/2-x,1/2+y,-z
-x,-y,-z
x,y,-z
1/2-x,1/2+y,z
1/2+x,1/2-y,z
loop_
_atom_site_type_symbol
_atom_site_label
_atom_site_fract_x
_atom_site_fract_y
_atom_site_fract_z
Si Si1 0.311255 0.302946 0.339746
Si Si2 0.761734 0.436385 0.833044
Si Si3 0.875782 0.644388 0.339209
Si Si4 0.013025 0.845432 0.335149
Si Si5 0.258390 0.199198 0.159973
Si Si6 0.931664 0.746422 0.160935
Si Si7 0.567812 0.448216 0.162993
Si Si8 0.901350 0.508542 0.334661
O O1 0.321709 0.284978 0.500000
O O2 0.221147 0.334288 0.325923
O O3 0.386160 0.347971 0.309297
O O4 0.311551 0.245093 0.248404
O O5 0.760654 0.367833 0.795007
O O6 0.666661 0.461242 0.804710
O O7 0.835133 0.469916 0.751303
O O8 0.775265 0.440442 0.000000
O O9 0.902839 0.656066 0.500000
O O10 0.926049 0.682921 0.228026
O O11 0.881582 0.576336 0.314709
O O12 0.996165 0.845144 0.500000
O O13 0.986494 0.785921 0.262332
O O14 0.963368 0.896518 0.260054
O O15 0.161828 0.223479 0.164758
O O16 0.286563 0.201128 0.000000
O O17 0.959412 0.745927 0.000000
O O18 0.500000 0.500000 0.178362
O O19 0.566315 0.429655 0.000000
O O20 0.893400 0.495298 0.500000
O O21 0.000000 0.500000 0.295161
#
# Coordination Sequence:
#
# PCOD9426224 Si02
#       8
#     8   8   8   8   8   8   8   8
#     4   9  20  35  53  81 114 147 183 230 283 343
#     4  10  21  39  61  86 118 153 195 245 292 345
#     4   9  19  38  59  79 112 149 189 239 291 341
#     4  11  22  35  55  86 121 152 189 234 284 346
#     4   9  18  35  56  80 110 144 185 234 284 338
#     4  10  19  35  58  82 113 148 188 234 284 343
#     4  10  22  40  60  85 120 159 197 243 296 351
#     4  10  23  41  60  84 114 152 198 245 294 348
#
# _framework density 18.329861000000001
#
# number of rings (size 3 to 8) (size 9 to 14) (size 15 to 20)
#    0.000    2.250    1.250    0.750    1.750    4.500 
#    0.000    3.750    0.000    0.000    0.000    0.000 
#    0.000    0.000    0.000    0.000    0.000    0.000 
#
# Total GULP energy -356956.119561 kJ/mol
# GULP energy per Si atom -5577.439368 kJ/mol
# Density = 1.828814 g / cm^3
# Si number density = 18.329861 Si / 1000 Ang^3
#
#
#
# Elastic Constant Matrix: (Units=GPa)
#
#
# Indices 1 2 3 4 5 6 
#
# 1 79.5744 45.1398 52.5428 0.0000 0.0000 0.0000
# 2 45.1398 95.4530 53.4623 0.0000 0.0000 0.0000
# 3 52.5428 53.4623 63.8503 0.0000 0.0000 0.0000
# 4 0.0000 0.0000 0.0000 33.9478 0.0000 0.0000
# 5 0.0000 0.0000 0.0000 0.0000 25.9144 0.0000
# 6 0.0000 0.0000 0.0000 0.0000 0.0000 20.4179
#
#
#
# Elastic Compliance Matrix: (Units=1/GPa)
#
#
# Indices 1 2 3 4 5 6 
#
# 1 0.027540 -0.000622 -0.022142 0.000000 0.000000 0.000000
# 2 -0.000622 0.019742 -0.016018 0.000000 0.000000 0.000000
# 3 -0.022142 -0.016018 0.047295 0.000000 0.000000 0.000000
# 4 0.000000 0.000000 0.000000 0.029457 0.000000 0.000000
# 5 0.000000 0.000000 0.000000 0.000000 0.038589 0.000000
# 6 0.000000 0.000000 0.000000 0.000000 0.000000 0.048977
#
#
# Mechanical properties :
#
#
# Convention : Reuss Voigt Hill
#
# Bulk Modulus (GPa) = 58.78183 60.12970 59.45577
# Shear Modulus (GPa) = 16.95865 21.90487 19.43176
#
# Velocity S-wave (km/s) = 3.04500 3.46068 3.25947
# Velocity P-wave (km/s) = 6.67092 6.98884 6.83173
#
# Compressibility (1/GPa) = 0.01701206
#
# Stress axis : x y z
#
# Youngs Moduli (GPa) = 36.31074 50.65251 21.14409
#
# Poissons Ratio (x) = 0.03152 0.46817
# Poissons Ratio (y) = 0.02260 0.33869
# Poissons Ratio (z) = 0.80399 0.81137
#
# Static dielectric constant tensor:
#      x y z
#    x 1.666540 0.000000 0.000000 
#    y 0.000000 1.604140 0.000000 
#    z 0.000000 0.000000 1.619400 
# 
# From -- ./inp_files/8031.got.cif
#   From: 2010.05.17/outbox.cif.g08.bks.cpg/sg55_5_cif.got.tgz:8031.got - 2010.06.03 13:27:54.
