data_PCOD9426346
_publ_section_title
;
Structure prediction by ZEFSAII (Michael W. Deem and Ramdas Pophale) SiO2 
 PCOD9426346
Probable space group: P B A M
;
_chemical_formula_sum "Si O2"
_cell_formula_units_Z 40
_cell_length_a 12.752052
_cell_length_b 4.973517
_cell_length_c 27.843070
_cell_angle_alpha 90.000000
_cell_angle_beta 90.000000
_cell_angle_gamma 90.000000
_cell_volume 1765.878427
_symmetry_space_group_name_H-M "P B A M"
_symmetry_group_IT_number 55
_symmetry_cell_setting 'orthorhombic'
loop_
_space_group_symop_operation_xyz
x,y,z
-x,-y,z
1/2+x,1/2-y,-z
1/2-x,1/2+y,-z
-x,-y,-z
x,y,-z
1/2-x,1/2+y,z
1/2+x,1/2-y,z
loop_
_atom_site_type_symbol
_atom_site_label
_atom_site_fract_x
_atom_site_fract_y
_atom_site_fract_z
Si Si1 0.677092 0.181519 0.500000
Si Si2 0.678591 0.047481 0.601871
Si Si3 0.500000 0.500000 0.143188
Si Si4 0.069565 0.261774 0.301936
Si Si5 0.686938 0.276101 0.207564
Si Si6 0.325195 0.855927 0.000000
Si Si7 0.500000 0.000000 0.922236
O O1 0.720616 0.483913 0.500000
O O2 0.624562 0.115169 0.550832
O O3 0.780912 0.242736 0.603102
O O4 0.613255 0.124006 0.648321
O O5 0.591017 0.383038 0.176658
O O6 0.534678 0.747137 0.109721
O O7 0.158921 0.192776 0.263748
O O8 0.000000 0.500000 0.279250
O O9 0.000000 0.000000 0.310365
O O10 0.784899 0.469419 0.197305
O O11 0.402289 0.904962 0.954897
O O12 0.229050 0.065937 0.000000
#
# Coordination Sequence:
#
# PCOD9426346 Si02
#       7
#     4   8   4   8   8   4   4
#     4   8  16  30  54  80 112 146 194 258 318 387
#     4  10  19  36  58  85 112 154 207 258 322 398
#     4  12  26  45  68 102 144 173 230 286 330 398
#     4  12  24  40  61  87 125 164 213 275 329 388
#     4  12  26  44  68  95 129 181 225 275 339 397
#     4  11  24  45  74 104 142 185 232 271 323 397
#     4  11  26  44  70 106 142 182 222 283 336 376
#
# _framework density 22.651616000000001
#
# number of rings (size 3 to 8) (size 9 to 14) (size 15 to 20)
#    0.000    1.000    1.000    6.000    1.400    6.400 
#    0.000    1.000    0.000    0.000    0.000    0.000 
#    0.000    0.000    0.000    0.000    0.000    0.000 
#
# Total GULP energy -223931.524827 kJ/mol
# GULP energy per Si atom -5598.288121 kJ/mol
# Density = 2.260006 g / cm^3
# Si number density = 22.651616 Si / 1000 Ang^3
#
#
#
# Elastic Constant Matrix: (Units=GPa)
#
#
# Indices 1 2 3 4 5 6 
#
# 1 52.7601 5.9431 27.4862 0.0000 0.0000 0.0000
# 2 5.9431 79.3336 5.8469 0.0000 0.0000 0.0000
# 3 27.4862 5.8469 108.9998 0.0000 0.0000 0.0000
# 4 0.0000 0.0000 0.0000 35.3398 0.0000 0.0000
# 5 0.0000 0.0000 0.0000 0.0000 8.1322 0.0000
# 6 0.0000 0.0000 0.0000 0.0000 0.0000 42.4802
#
#
#
# Elastic Compliance Matrix: (Units=1/GPa)
#
#
# Indices 1 2 3 4 5 6 
#
# 1 0.021941 -0.001241 -0.005466 0.000000 0.000000 0.000000
# 2 -0.001241 0.012725 -0.000370 0.000000 0.000000 0.000000
# 3 -0.005466 -0.000370 0.010573 0.000000 0.000000 0.000000
# 4 0.000000 0.000000 0.000000 0.028297 0.000000 0.000000
# 5 0.000000 0.000000 0.000000 0.000000 0.122968 0.000000
# 6 0.000000 0.000000 0.000000 0.000000 0.000000 0.023540
#
#
# Mechanical properties :
#
#
# Convention : Reuss Voigt Hill
#
# Bulk Modulus (GPa) = 32.16945 35.51619 33.84282
# Shear Modulus (GPa) = 20.44491 30.64491 25.54491
#
# Velocity S-wave (km/s) = 3.00756 3.68214 3.36181
# Velocity P-wave (km/s) = 5.12769 5.81300 5.48106
#
# Compressibility (1/GPa) = 0.03108539
#
# Stress axis : x y z
#
# Youngs Moduli (GPa) = 45.57624 78.58418 94.58425
#
# Poissons Ratio (x) = 0.09751 0.51703
# Poissons Ratio (y) = 0.05655 0.03497
# Poissons Ratio (z) = 0.24913 0.02905
#
# Static dielectric constant tensor:
#      x y z
#    x 1.830420 0.000000 0.000000 
#    y 0.000000 1.785810 0.000000 
#    z 0.000000 0.000000 1.849300 
# 
# From -- ./inp_files/23930.got.cif
#   From: 2010.05.17/outbox.cif.g08.bks.cpg/sg55_12_cif.got.tgz:23930.got - 2010.06.03 13:27:54.
