data_PCOD9426212
_publ_section_title
;
Structure prediction by ZEFSAII (Michael W. Deem and Ramdas Pophale) SiO2 
 PCOD9426212
Probable space group: P B A M
;
_chemical_formula_sum "Si O2"
_cell_formula_units_Z 64
_cell_length_a 13.055901
_cell_length_b 28.328159
_cell_length_c 8.214505
_cell_angle_alpha 90.000000
_cell_angle_beta 90.000000
_cell_angle_gamma 90.000000
_cell_volume 3038.131712
_symmetry_space_group_name_H-M "P B A M"
_symmetry_group_IT_number 55
_symmetry_cell_setting 'orthorhombic'
loop_
_space_group_symop_operation_xyz
x,y,z
-x,-y,z
1/2+x,1/2-y,-z
1/2-x,1/2+y,-z
-x,-y,-z
x,y,-z
1/2-x,1/2+y,z
1/2+x,1/2-y,z
loop_
_atom_site_type_symbol
_atom_site_label
_atom_site_fract_x
_atom_site_fract_y
_atom_site_fract_z
Si Si1 0.790658 0.685996 0.810386
Si Si2 0.066270 0.844379 0.803414
Si Si3 0.967140 0.635484 0.691006
Si Si4 0.927989 0.455423 0.184256
Si Si5 0.625535 0.280948 0.306810
Si Si6 0.824447 0.329727 0.310077
Si Si7 0.225612 0.066213 0.685756
Si Si8 0.007398 0.053453 0.811633
O O1 0.675697 0.676812 0.746453
O O2 0.861616 0.640271 0.786045
O O3 0.860578 0.725556 0.723552
O O4 0.783058 0.698069 0.000000
O O5 0.972004 0.809478 0.760049
O O6 0.046322 0.898594 0.743579
O O7 0.070512 0.847006 0.000000
O O8 0.951167 0.644866 0.500000
O O9 0.014792 0.583813 0.710639
O O10 0.060797 0.668377 0.757341
O O11 0.817132 0.467217 0.257243
O O12 0.000000 0.500000 0.178405
O O13 0.912646 0.436912 0.000000
O O14 0.624576 0.290261 0.500000
O O15 0.734078 0.299292 0.234351
O O16 0.836082 0.315406 0.500000
O O17 0.777230 0.382200 0.308230
O O18 0.194034 0.057032 0.500000
O O19 0.127533 0.064849 0.798652
O O20 0.973601 0.049650 0.000000
O O21 0.000000 0.000000 0.739970
#
# Coordination Sequence:
#
# PCOD9426212 Si02
#       8
#     8   8   8   8   8   8   8   8
#     4  11  25  42  59  88 128 167 205 250 311 376
#     4  10  23  43  63  89 127 166 208 259 312 376
#     4  10  21  39  61  89 123 157 202 252 305 363
#     4  10  21  37  59  87 120 161 205 251 309 370
#     4  11  22  39  64  90 118 155 204 256 308 366
#     4   8  17  34  57  84 113 145 187 248 303 350
#     4  10  19  35  57  85 117 152 201 257 309 363
#     4  10  21  38  61  89 122 165 211 256 315 380
#
# _framework density 21.065577999999999
#
# number of rings (size 3 to 8) (size 9 to 14) (size 15 to 20)
#    0.000    2.000    1.250    2.625    1.750    3.250 
#    0.000    3.750    0.000    0.000    0.000    0.000 
#    0.000    0.000    0.000    0.000    0.000    0.000 
#
# Total GULP energy -356628.522686 kJ/mol
# GULP energy per Si atom -5572.320667 kJ/mol
# Density = 2.101763 g / cm^3
# Si number density = 21.065578 Si / 1000 Ang^3
#
#
#
# Elastic Constant Matrix: (Units=GPa)
#
#
# Indices 1 2 3 4 5 6 
#
# 1 120.6118 38.8810 4.5420 0.0000 0.0000 0.0000
# 2 38.8810 72.2164 6.5428 0.0000 0.0000 0.0000
# 3 4.5420 6.5428 31.8247 0.0000 0.0000 0.0000
# 4 0.0000 0.0000 0.0000 16.8508 0.0000 0.0000
# 5 0.0000 0.0000 0.0000 0.0000 18.9507 0.0000
# 6 0.0000 0.0000 0.0000 0.0000 0.0000 28.0998
#
#
#
# Elastic Compliance Matrix: (Units=1/GPa)
#
#
# Indices 1 2 3 4 5 6 
#
# 1 0.010036 -0.005373 -0.000328 0.000000 0.000000 0.000000
# 2 -0.005373 0.016987 -0.002725 0.000000 0.000000 0.000000
# 3 -0.000328 -0.002725 0.032029 0.000000 0.000000 0.000000
# 4 0.000000 0.000000 0.000000 0.059344 0.000000 0.000000
# 5 0.000000 0.000000 0.000000 0.000000 0.052769 0.000000
# 6 0.000000 0.000000 0.000000 0.000000 0.000000 0.035587
#
#
# Mechanical properties :
#
#
# Convention : Reuss Voigt Hill
#
# Bulk Modulus (GPa) = 23.69722 36.06495 29.88109
# Shear Modulus (GPa) = 21.03740 24.42605 22.73173
#
# Velocity S-wave (km/s) = 3.16359 3.40887 3.28852
# Velocity P-wave (km/s) = 4.96166 5.71414 5.35114
#
# Compressibility (1/GPa) = 0.04219904
#
# Stress axis : x y z
#
# Youngs Moduli (GPa) = 99.64511 58.86767 31.22155
#
# Poissons Ratio (x) = 0.31632 0.01023
# Poissons Ratio (y) = 0.53544 0.08509
# Poissons Ratio (z) = 0.03264 0.16044
#
# Static dielectric constant tensor:
#      x y z
#    x 1.788720 0.000000 0.000000 
#    y 0.000000 1.836190 0.000000 
#    z 0.000000 0.000000 1.764780 
# 
# From -- ./inp_files/4507.got.cif
#   From: 2010.05.17/outbox.cif.g08.bks.cpg/sg55_3_cif.got.tgz:4507.got - 2010.06.03 13:27:54.
