data_PCOD9426273
_publ_section_title
;
Structure prediction by ZEFSAII (Michael W. Deem and Ramdas Pophale) SiO2 
 PCOD9426273
Probable space group: P B A M
;
_chemical_formula_sum "Si O2"
_cell_formula_units_Z 40
_cell_length_a 12.468169
_cell_length_b 17.435790
_cell_length_c 7.542405
_cell_angle_alpha 90.000000
_cell_angle_beta 90.000000
_cell_angle_gamma 90.000000
_cell_volume 1639.661346
_symmetry_space_group_name_H-M "P B A M"
_symmetry_group_IT_number 55
_symmetry_cell_setting 'orthorhombic'
loop_
_space_group_symop_operation_xyz
x,y,z
-x,-y,z
1/2+x,1/2-y,-z
1/2-x,1/2+y,-z
-x,-y,-z
x,y,-z
1/2-x,1/2+y,z
1/2+x,1/2-y,z
loop_
_atom_site_type_symbol
_atom_site_label
_atom_site_fract_x
_atom_site_fract_y
_atom_site_fract_z
Si Si1 0.962848 0.914389 0.716181
Si Si2 0.850585 0.539988 0.703593
Si Si3 0.771345 0.808818 0.298273
Si Si4 0.818209 0.154912 0.283296
Si Si5 0.557345 0.882758 0.802064
O O1 0.957214 0.920591 0.500000
O O2 0.851225 0.874171 0.775849
O O3 0.057967 0.854783 0.764730
O O4 0.000000 0.000000 0.775718
O O5 0.838530 0.514518 0.500000
O O6 0.741298 0.576598 0.766923
O O7 0.892197 0.467909 0.809235
O O8 0.943102 0.604564 0.711745
O O9 0.809163 0.796834 0.500000
O O10 0.753027 0.725362 0.213564
O O11 0.648257 0.836758 0.298694
O O12 0.814768 0.158703 0.500000
O O13 0.543596 0.852147 0.000000
#
# Coordination Sequence:
#
# PCOD9426273 Si02
#       5
#     8   8   8   8   8
#     4   9  17  31  53  82 114 144 178 229 290 341
#     4  10  19  35  60  86 109 141 188 239 285 337
#     4  10  20  34  57  83 111 145 186 237 281 332
#     4   9  19  32  55  88 112 137 184 240 292 334
#     4  11  22  36  54  80 115 153 187 226 278 342
#
# _framework density 24.395281000000001
#
# number of rings (size 3 to 8) (size 9 to 14) (size 15 to 20)
#    0.000    2.200    0.000    4.800    2.800    3.200 
#    0.000    2.000    0.000    6.600    0.000    0.000 
#    0.000    0.000    0.000    0.000    0.000    0.000 
#
# Total GULP energy -223173.713470 kJ/mol
# GULP energy per Si atom -5579.342837 kJ/mol
# Density = 2.433976 g / cm^3
# Si number density = 24.395281 Si / 1000 Ang^3
#
#
#
# Elastic Constant Matrix: (Units=GPa)
#
#
# Indices 1 2 3 4 5 6 
#
# 1 54.7588 1.7039 -17.0238 0.0000 0.0000 0.0000
# 2 1.7039 75.1784 -2.4593 0.0000 0.0000 0.0000
# 3 -17.0238 -2.4593 70.6568 0.0000 0.0000 0.0000
# 4 0.0000 0.0000 0.0000 -5.5848 0.0000 0.0000
# 5 0.0000 0.0000 0.0000 0.0000 -110.2873 0.0000
# 6 0.0000 0.0000 0.0000 0.0000 0.0000 40.4007
#
#
#
# Elastic Compliance Matrix: (Units=1/GPa)
#
#
# Indices 1 2 3 4 5 6 
#
# 1 0.019747 -0.000292 0.004748 0.000000 0.000000 0.000000
# 2 -0.000292 0.013321 0.000393 0.000000 0.000000 0.000000
# 3 0.004748 0.000393 0.015310 0.000000 0.000000 0.000000
# 4 0.000000 0.000000 0.000000 -0.179057 0.000000 0.000000
# 5 0.000000 0.000000 0.000000 0.000000 -0.009067 0.000000
# 6 0.000000 0.000000 0.000000 0.000000 0.000000 0.024752
#
#
# Mechanical properties :
#
#
# Convention : Reuss Voigt Hill
#
# Bulk Modulus (GPa) = 17.21889 18.33730 17.77809
# Shear Modulus (GPa) = -47.46869 -0.53606 -24.00237
#
# Velocity S-wave (km/s) = -4.41592 -0.46927 -3.14011
# Velocity P-wave (km/s) = 4.35051 2.69062 2.41738
#
# Compressibility (1/GPa) = 0.05807576
#
# Stress axis : x y z
#
# Youngs Moduli (GPa) = 50.64074 75.06847 65.31474
#
# Poissons Ratio (x) = 0.02194 -0.31009
# Poissons Ratio (y) = 0.01480 -0.02568
# Poissons Ratio (z) = -0.24042 -0.02952
#
# Static dielectric constant tensor:
#      x y z
#    x 1.913170 0.000000 0.000000 
#    y 0.000000 2.016740 0.000000 
#    z 0.000000 0.000000 1.897570 
# 
# From -- ./inp_files/3605.got.cif
#   From: 2010.05.17/outbox.cif.g08.bks.cpg/sg55_2_cif.got.tgz:3605.got - 2010.06.03 13:27:54.
