data_PCOD9426506
_publ_section_title
;
Structure prediction by ZEFSAII (Michael W. Deem and Ramdas Pophale) SiO2 
 PCOD9426506
Probable space group: P B A M
;
_chemical_formula_sum "Si O2"
_cell_formula_units_Z 40
_cell_length_a 25.442237
_cell_length_b 5.100991
_cell_length_c 13.411945
_cell_angle_alpha 90.000000
_cell_angle_beta 90.000000
_cell_angle_gamma 90.000000
_cell_volume 1740.610564
_symmetry_space_group_name_H-M "P B A M"
_symmetry_group_IT_number 55
_symmetry_cell_setting 'orthorhombic'
loop_
_space_group_symop_operation_xyz
x,y,z
-x,-y,z
1/2+x,1/2-y,-z
1/2-x,1/2+y,-z
-x,-y,-z
x,y,-z
1/2-x,1/2+y,z
1/2+x,1/2-y,z
loop_
_atom_site_type_symbol
_atom_site_label
_atom_site_fract_x
_atom_site_fract_y
_atom_site_fract_z
Si Si1 0.714974 0.330400 0.788631
Si Si2 0.580937 0.871002 0.309516
Si Si3 0.500000 0.500000 0.761745
Si Si4 0.059522 0.381114 0.887338
Si Si5 0.713773 0.218437 0.000000
Si Si6 0.135643 0.145354 0.385980
O O1 0.737096 0.624301 0.787525
O O2 0.686511 0.280106 0.894876
O O3 0.680104 0.277621 0.692789
O O4 0.524112 0.731962 0.303723
O O5 0.617082 0.643816 0.354479
O O6 0.590995 0.949786 0.193646
O O7 0.590244 0.137016 0.370186
O O8 0.453356 0.606437 0.832803
O O9 0.000000 0.500000 0.893134
O O10 0.079337 0.367565 0.000000
O O11 0.763298 0.424126 0.000000
O O12 0.153055 0.147446 0.500000
#
# Coordination Sequence:
#
# PCOD9426506 Si02
#       6
#     8   8   4   8   4   8
#     4  10  21  41  68  94 125 163 208 254 322 396
#     4  11  23  43  62  93 131 168 216 268 326 381
#     4  10  19  40  69  88 134 170 223 259 326 406
#     4   9  18  35  65  95 127 167 208 263 321 384
#     4   8  16  34  62  92 122 157 191 247 313 384
#     4  12  26  44  64  92 131 170 218 280 321 362
#
# _framework density 22.980440000000002
#
# number of rings (size 3 to 8) (size 9 to 14) (size 15 to 20)
#    0.000    1.800    2.000    2.100    0.000    1.600 
#    3.600    3.000    0.000    0.000    0.000    0.000 
#    0.000    0.000    0.000    0.000    0.000    0.000 
#
# Total GULP energy -223381.178708 kJ/mol
# GULP energy per Si atom -5584.529468 kJ/mol
# Density = 2.292814 g / cm^3
# Si number density = 22.980440 Si / 1000 Ang^3
#
#
#
# Elastic Constant Matrix: (Units=GPa)
#
#
# Indices 1 2 3 4 5 6 
#
# 1 28.3463 9.3827 52.5898 0.0000 0.0000 0.0000
# 2 9.3827 125.3083 29.2416 0.0000 0.0000 0.0000
# 3 52.5898 29.2416 209.9709 0.0000 0.0000 0.0000
# 4 0.0000 0.0000 0.0000 19.7335 0.0000 0.0000
# 5 0.0000 0.0000 0.0000 0.0000 27.6140 0.0000
# 6 0.0000 0.0000 0.0000 0.0000 0.0000 20.8238
#
#
#
# Elastic Compliance Matrix: (Units=1/GPa)
#
#
# Indices 1 2 3 4 5 6 
#
# 1 0.066052 -0.001122 -0.016387 0.000000 0.000000 0.000000
# 2 -0.001122 0.008267 -0.000870 0.000000 0.000000 0.000000
# 3 -0.016387 -0.000870 0.008988 0.000000 0.000000 0.000000
# 4 0.000000 0.000000 0.000000 0.050675 0.000000 0.000000
# 5 0.000000 0.000000 0.000000 0.000000 0.036214 0.000000
# 6 0.000000 0.000000 0.000000 0.000000 0.000000 0.048022
#
#
# Mechanical properties :
#
#
# Convention : Reuss Voigt Hill
#
# Bulk Modulus (GPa) = 21.48280 60.67263 41.07772
# Shear Modulus (GPa) = 18.48471 31.79501 25.13986
#
# Velocity S-wave (km/s) = 2.83921 3.72367 3.31111
# Velocity P-wave (km/s) = 4.48517 6.70424 5.70366
#
# Compressibility (1/GPa) = 0.04654886
#
# Stress axis : x y z
#
# Youngs Moduli (GPa) = 15.13954 120.95659 111.25696
#
# Poissons Ratio (x) = 0.13568 1.82321
# Poissons Ratio (y) = 0.01698 0.09684
# Poissons Ratio (z) = 0.24810 0.10528
#
# Static dielectric constant tensor:
#      x y z
#    x 1.931730 0.000000 0.000000 
#    y 0.000000 1.898520 0.000000 
#    z 0.000000 0.000000 1.853180 
# 
# From -- ./inp_files/15859.got.cif
#   From: 2010.05.17/outbox.cif.g08.bks.cpg/sg55_8_cif.got.tgz:15859.got - 2010.06.03 13:27:54.
