data_PCOD9426676
_publ_section_title
;
Structure prediction by ZEFSAII (Michael W. Deem and Ramdas Pophale) SiO2 
 PCOD9426676
Probable space group: P B A M
;
_chemical_formula_sum "Si O2"
_cell_formula_units_Z 56
_cell_length_a 18.209364
_cell_length_b 13.323841
_cell_length_c 14.335038
_cell_angle_alpha 90.000000
_cell_angle_beta 90.000000
_cell_angle_gamma 90.000000
_cell_volume 3477.947863
_symmetry_space_group_name_H-M "P B A M"
_symmetry_group_IT_number 55
_symmetry_cell_setting 'orthorhombic'
loop_
_space_group_symop_operation_xyz
x,y,z
-x,-y,z
1/2+x,1/2-y,-z
1/2-x,1/2+y,-z
-x,-y,-z
x,y,-z
1/2-x,1/2+y,z
1/2+x,1/2-y,z
loop_
_atom_site_type_symbol
_atom_site_label
_atom_site_fract_x
_atom_site_fract_y
_atom_site_fract_z
Si Si1 0.215923 0.586779 0.109711
Si Si2 0.786065 0.616364 0.770555
Si Si3 0.140093 0.219509 0.894297
Si Si4 0.484300 0.385808 0.889859
Si Si5 0.364243 0.261984 0.223780
Si Si6 0.393665 0.924004 0.392295
Si Si7 0.052122 0.654414 0.609138
O O1 0.217484 0.483120 0.166060
O O2 0.297526 0.634213 0.113196
O O3 0.162619 0.666914 0.161115
O O4 0.196483 0.574477 0.000000
O O5 0.838598 0.694254 0.823632
O O6 0.707758 0.670329 0.758486
O O7 0.824877 0.593086 0.673330
O O8 0.060148 0.174322 0.879477
O O9 0.144367 0.259529 0.000000
O O10 0.500000 0.500000 0.859791
O O11 0.421299 0.329845 0.833416
O O12 0.464648 0.388579 0.000000
O O13 0.403374 0.221527 0.317552
O O14 0.376868 0.902778 0.500000
O O15 0.465554 0.857669 0.366930
O O16 0.417217 0.040613 0.385407
O O17 0.058333 0.685936 0.500000
#
# Coordination Sequence:
#
# PCOD9426676 Si02
#       7
#     8   8   8   8   8   8   8
#     4  10  20  34  50  74 109 143 175 216 261 306
#     4  11  20  32  52  77 106 135 168 215 265 306
#     4   9  19  33  49  71 101 137 177 209 249 308
#     4  10  20  35  53  74 102 141 181 214 249 304
#     4  11  21  33  54  81 107 137 179 219 263 312
#     4   9  18  34  56  77 100 134 172 210 262 320
#     4   9  18  35  57  78 102 133 171 217 263 314
#
# _framework density 16.101448999999999
#
# number of rings (size 3 to 8) (size 9 to 14) (size 15 to 20)
#    0.000    2.143    1.429    3.429    0.000    3.429 
#    0.000    0.000    0.000    3.857    0.000    0.000 
#    0.000    0.000    0.000    0.000    0.000    0.000 
#
# Total GULP energy -312303.802226 kJ/mol
# GULP energy per Si atom -5576.853611 kJ/mol
# Density = 1.606480 g / cm^3
# Si number density = 16.101449 Si / 1000 Ang^3
#
#
#
# Elastic Constant Matrix: (Units=GPa)
#
#
# Indices 1 2 3 4 5 6 
#
# 1 79.5970 39.1105 70.9526 0.0000 0.0000 0.0000
# 2 39.1105 84.7248 56.8378 0.0000 0.0000 0.0000
# 3 70.9526 56.8378 104.5977 0.0000 0.0000 0.0000
# 4 0.0000 0.0000 0.0000 21.5961 0.0000 0.0000
# 5 0.0000 0.0000 0.0000 0.0000 28.2775 0.0000
# 6 0.0000 0.0000 0.0000 0.0000 0.0000 16.3342
#
#
#
# Elastic Compliance Matrix: (Units=1/GPa)
#
#
# Indices 1 2 3 4 5 6 
#
# 1 0.031785 -0.000328 -0.021383 0.000000 0.000000 0.000000
# 2 -0.000328 0.018577 -0.009872 0.000000 0.000000 0.000000
# 3 -0.021383 -0.009872 0.029430 0.000000 0.000000 0.000000
# 4 0.000000 0.000000 0.000000 0.046305 0.000000 0.000000
# 5 0.000000 0.000000 0.000000 0.000000 0.035364 0.000000
# 6 0.000000 0.000000 0.000000 0.000000 0.000000 0.061221
#
#
# Mechanical properties :
#
#
# Convention : Reuss Voigt Hill
#
# Bulk Modulus (GPa) = 60.14697 66.96904 63.55801
# Shear Modulus (GPa) = 17.15917 20.04280 18.60099
#
# Velocity S-wave (km/s) = 3.26803 3.53197 3.40256
# Velocity P-wave (km/s) = 7.18861 7.63645 7.41591
#
# Compressibility (1/GPa) = 0.01662594
#
# Stress axis : x y z
#
# Youngs Moduli (GPa) = 31.46145 53.82967 33.97921
#
# Poissons Ratio (x) = 0.01765 0.72657
# Poissons Ratio (y) = 0.01031 0.33545
# Poissons Ratio (z) = 0.67273 0.53142
#
# Static dielectric constant tensor:
#      x y z
#    x 1.523530 0.000000 0.000000 
#    y 0.000000 1.527070 0.000000 
#    z 0.000000 0.000000 1.527490 
# 
# From -- ./inp_files/18360.got.cif
#   From: 2010.05.17/outbox.cif.g08.bks.cpg/sg55_10_cif.got.tgz:18360.got - 2010.06.03 13:27:54.
