data_PCOD9426543
_publ_section_title
;
Structure prediction by ZEFSAII (Michael W. Deem and Ramdas Pophale) SiO2 
 PCOD9426543
Probable space group: P B A M
;
_chemical_formula_sum "Si O2"
_cell_formula_units_Z 48
_cell_length_a 27.984905
_cell_length_b 7.135964
_cell_length_c 10.818009
_cell_angle_alpha 90.000000
_cell_angle_beta 90.000000
_cell_angle_gamma 90.000000
_cell_volume 2160.348550
_symmetry_space_group_name_H-M "P B A M"
_symmetry_group_IT_number 55
_symmetry_cell_setting 'orthorhombic'
loop_
_space_group_symop_operation_xyz
x,y,z
-x,-y,z
1/2+x,1/2-y,-z
1/2-x,1/2+y,-z
-x,-y,-z
x,y,-z
1/2-x,1/2+y,z
1/2+x,1/2-y,z
loop_
_atom_site_type_symbol
_atom_site_label
_atom_site_fract_x
_atom_site_fract_y
_atom_site_fract_z
Si Si1 0.211481 0.186437 0.000000
Si Si2 0.789508 0.808103 0.500000
Si Si3 0.820928 0.242460 0.500000
Si Si4 0.933625 0.665117 0.858500
Si Si5 0.834994 0.758916 0.249006
Si Si6 0.366261 0.315111 0.749979
Si Si7 0.462494 0.272244 0.141557
Si Si8 0.320416 0.254632 0.000000
O O1 0.194757 0.286601 0.874340
O O2 0.268192 0.167779 0.000000
O O3 0.188274 0.979641 0.000000
O O4 0.732405 0.823737 0.500000
O O5 0.808217 0.709154 0.375279
O O6 0.811396 0.017275 0.500000
O O7 0.850457 0.284852 0.375612
O O8 0.888901 0.688227 0.769150
O O9 0.950383 0.450004 0.859022
O O10 0.981333 0.784680 0.828568
O O11 0.918837 0.713708 0.000000
O O12 0.840316 0.984598 0.250379
O O13 0.422586 0.351415 0.767170
O O14 0.349000 0.211422 0.874814
O O15 0.455177 0.339418 0.000000
#
# Coordination Sequence:
#
# PCOD9426543 Si02
#       8
#     4   4   4   8   8   8   8   4
#     4  10  20  32  49  74 101 129 170 217 257 304
#     4  10  22  38  55  76 107 143 178 217 261 312
#     4  10  22  38  55  76 107 143 178 217 261 312
#     4   9  18  33  54  81 109 136 171 216 264 313
#     4  10  20  35  53  77 106 137 175 216 260 311
#     4  10  20  35  53  77 106 137 175 216 260 311
#     4   9  18  33  54  81 109 136 171 216 264 313
#     4  10  20  32  49  74 101 129 170 217 257 304
#
# _framework density 22.218636
#
# number of rings (size 3 to 8) (size 9 to 14) (size 15 to 20)
#    0.000    2.333    1.667    2.000    0.000    3.333 
#    0.000    2.500    0.000    5.000    0.000    0.000 
#    0.000    0.000    0.000    0.000    0.000    0.000 
#
# Total GULP energy -268311.509411 kJ/mol
# GULP energy per Si atom -5589.823113 kJ/mol
# Density = 2.216807 g / cm^3
# Si number density = 22.218636 Si / 1000 Ang^3
#
#
#
# Elastic Constant Matrix: (Units=GPa)
#
#
# Indices 1 2 3 4 5 6 
#
# 1 159.4469 0.2322 102.1735 0.0000 0.0000 0.0000
# 2 0.2322 41.7254 20.4338 0.0000 0.0000 0.0000
# 3 102.1735 20.4338 185.4210 0.0000 0.0000 0.0000
# 4 0.0000 0.0000 0.0000 5.0988 0.0000 0.0000
# 5 0.0000 0.0000 0.0000 0.0000 36.0329 0.0000
# 6 0.0000 0.0000 0.0000 0.0000 0.0000 31.9600
#
#
#
# Elastic Compliance Matrix: (Units=1/GPa)
#
#
# Indices 1 2 3 4 5 6 
#
# 1 0.009994 0.002792 -0.005814 0.000000 0.000000 0.000000
# 2 0.002792 0.026113 -0.004416 0.000000 0.000000 0.000000
# 3 -0.005814 -0.004416 0.009084 0.000000 0.000000 0.000000
# 4 0.000000 0.000000 0.000000 0.196124 0.000000 0.000000
# 5 0.000000 0.000000 0.000000 0.000000 0.027752 0.000000
# 6 0.000000 0.000000 0.000000 0.000000 0.000000 0.031289
#
#
# Mechanical properties :
#
#
# Convention : Reuss Voigt Hill
#
# Bulk Modulus (GPa) = 32.98897 70.25246 51.62072
# Shear Modulus (GPa) = 15.36863 32.20194 23.78528
#
# Velocity S-wave (km/s) = 2.63287 3.81112 3.27542
# Velocity P-wave (km/s) = 4.91145 7.14518 6.13090
#
# Compressibility (1/GPa) = 0.03031316
#
# Stress axis : x y z
#
# Youngs Moduli (GPa) = 100.06492 38.29453 110.08650
#
# Poissons Ratio (x) = -0.10691 0.64009
# Poissons Ratio (y) = -0.27937 0.48616
# Poissons Ratio (z) = 0.58182 0.16911
#
# Static dielectric constant tensor:
#      x y z
#    x 1.805100 0.000000 0.000000 
#    y 0.000000 1.903530 0.000000 
#    z 0.000000 0.000000 1.800800 
# 
# From -- ./inp_files/10606.got.cif
#   From: 2010.05.17/outbox.cif.g08.bks.cpg/sg55_6_cif.got.tgz:10606.got - 2010.06.03 13:27:54.
