data_PCOD9426789
_publ_section_title
;
Structure prediction by ZEFSAII (Michael W. Deem and Ramdas Pophale) SiO2 
 PCOD9426789
Probable space group: P B A M
;
_chemical_formula_sum "Si O2"
_cell_formula_units_Z 64
_cell_length_a 15.333577
_cell_length_b 25.215184
_cell_length_c 8.189595
_cell_angle_alpha 90.000000
_cell_angle_beta 90.000000
_cell_angle_gamma 90.000000
_cell_volume 3166.416538
_symmetry_space_group_name_H-M "P B A M"
_symmetry_group_IT_number 55
_symmetry_cell_setting 'orthorhombic'
loop_
_space_group_symop_operation_xyz
x,y,z
-x,-y,z
1/2+x,1/2-y,-z
1/2-x,1/2+y,-z
-x,-y,-z
x,y,-z
1/2-x,1/2+y,z
1/2+x,1/2-y,z
loop_
_atom_site_type_symbol
_atom_site_label
_atom_site_fract_x
_atom_site_fract_y
_atom_site_fract_z
Si Si1 0.155421 0.134026 0.808166
Si Si2 0.816802 0.432513 0.685921
Si Si3 0.495638 0.109616 0.808858
Si Si4 0.225949 0.856758 0.694105
Si Si5 0.841063 0.547365 0.808136
Si Si6 0.746365 0.263452 0.305799
Si Si7 0.530949 0.659679 0.197788
Si Si8 0.443197 0.220527 0.198174
O O1 0.227350 0.097691 0.723518
O O2 0.183887 0.195100 0.782191
O O3 0.055865 0.129002 0.749268
O O4 0.157952 0.122019 0.000000
O O5 0.841623 0.422019 0.500000
O O6 0.897277 0.410843 0.791855
O O7 0.809240 0.494937 0.717893
O O8 0.565760 0.068301 0.741073
O O9 0.496934 0.169593 0.742058
O O10 0.518034 0.113512 0.000000
O O11 0.240067 0.861265 0.500000
O O12 0.276143 0.903512 0.783996
O O13 0.258400 0.798043 0.747060
O O14 0.122714 0.858833 0.730367
O O15 0.848667 0.533777 0.000000
O O16 0.732068 0.266197 0.500000
O O17 0.845234 0.281712 0.267065
O O18 0.520791 0.721839 0.242845
O O19 0.536375 0.657062 0.000000
O O20 0.437606 0.217938 0.000000
#
# Coordination Sequence:
#
# PCOD9426789 Si02
#       8
#     8   8   8   8   8   8   8   8
#     4  11  22  37  61  89 119 156 203 251 296 351
#     4  12  25  41  61  86 122 159 199 248 302 358
#     4  10  21  37  60  89 120 157 199 244 292 350
#     4  10  22  40  60  87 124 159 196 245 301 356
#     4  11  24  41  64  88 116 157 206 251 297 353
#     4  10  20  34  54  85 121 158 193 234 294 354
#     4   9  20  37  60  88 119 157 199 245 296 351
#     4   9  17  33  56  84 118 154 192 235 286 347
#
# _framework density 20.212122000000001
#
# number of rings (size 3 to 8) (size 9 to 14) (size 15 to 20)
#    0.000    1.750    1.250    3.000    1.750    5.000 
#    0.000    0.625    0.000    3.750    0.000    0.000 
#    0.000    0.000    0.000    0.000    0.000    0.000 
#
# Total GULP energy -357538.788631 kJ/mol
# GULP energy per Si atom -5586.543572 kJ/mol
# Density = 2.016612 g / cm^3
# Si number density = 20.212122 Si / 1000 Ang^3
#
#
#
# Elastic Constant Matrix: (Units=GPa)
#
#
# Indices 1 2 3 4 5 6 
#
# 1 20.2325 20.9050 -10.9654 0.0000 0.0000 0.0000
# 2 20.9050 60.9226 -9.3168 0.0000 0.0000 0.0000
# 3 -10.9654 -9.3168 15.1448 0.0000 0.0000 0.0000
# 4 0.0000 0.0000 0.0000 20.0807 0.0000 0.0000
# 5 0.0000 0.0000 0.0000 0.0000 -168.8946 0.0000
# 6 0.0000 0.0000 0.0000 0.0000 0.0000 22.0843
#
#
#
# Elastic Compliance Matrix: (Units=1/GPa)
#
#
# Indices 1 2 3 4 5 6 
#
# 1 0.115466 -0.029623 0.065378 0.000000 0.000000 0.000000
# 2 -0.029623 0.025719 -0.005627 0.000000 0.000000 0.000000
# 3 0.065378 -0.005627 0.109904 0.000000 0.000000 0.000000
# 4 0.000000 0.000000 0.000000 0.049799 0.000000 0.000000
# 5 0.000000 0.000000 0.000000 0.000000 -0.005921 0.000000
# 6 0.000000 0.000000 0.000000 0.000000 0.000000 0.045281
#
#
# Mechanical properties :
#
#
# Convention : Reuss Voigt Hill
#
# Bulk Modulus (GPa) = 3.21185 10.83839 7.02512
# Shear Modulus (GPa) = 13.02855 -18.96747 -2.96946
#
# Velocity S-wave (km/s) = 2.54163 -3.06669 -1.21340
# Velocity P-wave (km/s) = 3.19464 2.67684 1.23293
#
# Compressibility (1/GPa) = 0.31134712
#
# Stress axis : x y z
#
# Youngs Moduli (GPa) = 8.66055 38.88232 9.09882
#
# Poissons Ratio (x) = 1.15181 -0.59487
# Poissons Ratio (y) = 0.25655 0.05119
# Poissons Ratio (z) = -0.56621 0.21877
#
# Static dielectric constant tensor:
#      x y z
#    x 1.709950 0.000000 0.000000 
#    y 0.000000 1.717210 0.000000 
#    z 0.000000 0.000000 1.708790 
# 
# From -- ./inp_files/6490.got.cif
#   From: 2010.05.17/outbox.cif.g08.bks.cpg/sg55_4_cif.got.tgz:6490.got - 2010.06.03 13:27:54.
