data_PCOD9426799
_publ_section_title
;
Structure prediction by ZEFSAII (Michael W. Deem and Ramdas Pophale) SiO2 
 PCOD9426799
Probable space group: P B A M
;
_chemical_formula_sum "Si O2"
_cell_formula_units_Z 64
_cell_length_a 29.476264
_cell_length_b 12.883730
_cell_length_c 7.593822
_cell_angle_alpha 90.000000
_cell_angle_beta 90.000000
_cell_angle_gamma 90.000000
_cell_volume 2883.861940
_symmetry_space_group_name_H-M "P B A M"
_symmetry_group_IT_number 55
_symmetry_cell_setting 'orthorhombic'
loop_
_space_group_symop_operation_xyz
x,y,z
-x,-y,z
1/2+x,1/2-y,-z
1/2-x,1/2+y,-z
-x,-y,-z
x,y,-z
1/2-x,1/2+y,z
1/2+x,1/2-y,z
loop_
_atom_site_type_symbol
_atom_site_label
_atom_site_fract_x
_atom_site_fract_y
_atom_site_fract_z
Si Si1 0.700101 0.423572 0.785820
Si Si2 0.519296 0.891367 0.790280
Si Si3 0.200912 0.518204 0.795271
Si Si4 0.663128 0.195029 0.707039
Si Si5 0.448169 0.516836 0.286694
Si Si6 0.862784 0.109938 0.796169
Si Si7 0.434028 0.750719 0.287730
Si Si8 0.879709 0.338398 0.216808
O O1 0.751180 0.444087 0.721095
O O2 0.681674 0.311023 0.733350
O O3 0.668283 0.517958 0.720395
O O4 0.699260 0.425604 0.000000
O O5 0.480830 0.805257 0.761236
O O6 0.569026 0.861140 0.722266
O O7 0.500000 0.000000 0.717936
O O8 0.524549 0.904360 0.000000
O O9 0.194147 0.394906 0.785325
O O10 0.156091 0.574775 0.724269
O O11 0.202588 0.547882 0.000000
O O12 0.661565 0.173885 0.500000
O O13 0.611360 0.192056 0.777473
O O14 0.500000 0.500000 0.234083
O O15 0.446011 0.512192 0.500000
O O16 0.414123 0.431431 0.214456
O O17 0.433018 0.631356 0.228427
O O18 0.862379 0.225663 0.721877
O O19 0.849024 0.119915 0.000000
O O20 0.431850 0.748983 0.500000
O O21 0.881279 0.336420 0.000000
#
# Coordination Sequence:
#
# PCOD9426799 Si02
#       8
#     8   8   8   8   8   8   8   8
#     4  10  22  38  62  90 113 150 197 244 296 352
#     4  10  20  34  55  82 112 150 195 239 290 348
#     4  10  22  40  65  89 116 153 198 247 294 350
#     4  11  23  40  61  86 122 156 192 242 295 354
#     4  10  20  35  54  78 111 152 193 232 284 345
#     4  10  20  35  56  84 115 146 189 240 293 348
#     4  10  21  36  54  80 113 152 193 237 286 341
#     4   9  19  36  57  85 120 152 187 244 300 344
#
# _framework density 22.192464000000001
#
# number of rings (size 3 to 8) (size 9 to 14) (size 15 to 20)
#    0.000    2.000    1.250    1.875    1.750    3.500 
#    0.000    1.250    0.000    0.000    0.000    0.000 
#    0.000    0.000    0.000    0.000    0.000    0.000 
#
# Total GULP energy -357645.078723 kJ/mol
# GULP energy per Si atom -5588.204355 kJ/mol
# Density = 2.214195 g / cm^3
# Si number density = 22.192464 Si / 1000 Ang^3
#
#
#
# Elastic Constant Matrix: (Units=GPa)
#
#
# Indices 1 2 3 4 5 6 
#
# 1 142.7640 41.8694 -3.7193 0.0000 0.0000 0.0000
# 2 41.8694 116.2560 -8.8620 0.0000 0.0000 0.0000
# 3 -3.7193 -8.8620 44.4691 0.0000 0.0000 0.0000
# 4 0.0000 0.0000 0.0000 16.0224 0.0000 0.0000
# 5 0.0000 0.0000 0.0000 0.0000 23.1673 0.0000
# 6 0.0000 0.0000 0.0000 0.0000 0.0000 34.6097
#
#
#
# Elastic Compliance Matrix: (Units=1/GPa)
#
#
# Indices 1 2 3 4 5 6 
#
# 1 0.007832 -0.002814 0.000094 0.000000 0.000000 0.000000
# 2 -0.002814 0.009745 0.001707 0.000000 0.000000 0.000000
# 3 0.000094 0.001707 0.022836 0.000000 0.000000 0.000000
# 4 0.000000 0.000000 0.000000 0.062413 0.000000 0.000000
# 5 0.000000 0.000000 0.000000 0.000000 0.043164 0.000000
# 6 0.000000 0.000000 0.000000 0.000000 0.000000 0.028894
#
#
# Mechanical properties :
#
#
# Convention : Reuss Voigt Hill
#
# Bulk Modulus (GPa) = 26.04987 40.22949 33.13968
# Shear Modulus (GPa) = 26.35679 33.03993 29.69836
#
# Velocity S-wave (km/s) = 3.44996 3.86267 3.66213
# Velocity P-wave (km/s) = 5.25674 6.16932 5.73122
#
# Compressibility (1/GPa) = 0.03838790
#
# Stress axis : x y z
#
# Youngs Moduli (GPa) = 127.67849 102.61564 43.79138
#
# Poissons Ratio (x) = 0.28871 -0.00413
# Poissons Ratio (y) = 0.35923 -0.07474
# Poissons Ratio (z) = -0.01205 -0.17514
#
# Static dielectric constant tensor:
#      x y z
#    x 1.801290 0.000000 0.000000 
#    y 0.000000 1.786420 0.000000 
#    z 0.000000 0.000000 1.824950 
# 
# From -- ./inp_files/10713.got.cif
#   From: 2010.05.17/outbox.cif.g08.bks.cpg/sg55_6_cif.got.tgz:10713.got - 2010.06.03 13:27:54.
