data_PCOD9426589
_publ_section_title
;
Structure prediction by ZEFSAII (Michael W. Deem and Ramdas Pophale) SiO2 
 PCOD9426589
Probable space group: P B A M
;
_chemical_formula_sum "Si O2"
_cell_formula_units_Z 64
_cell_length_a 33.802763
_cell_length_b 10.699339
_cell_length_c 7.414984
_cell_angle_alpha 90.000000
_cell_angle_beta 90.000000
_cell_angle_gamma 90.000000
_cell_volume 2681.756653
_symmetry_space_group_name_H-M "P B A M"
_symmetry_group_IT_number 55
_symmetry_cell_setting 'orthorhombic'
loop_
_space_group_symop_operation_xyz
x,y,z
-x,-y,z
1/2+x,1/2-y,-z
1/2-x,1/2+y,-z
-x,-y,-z
x,y,-z
1/2-x,1/2+y,z
1/2+x,1/2-y,z
loop_
_atom_site_type_symbol
_atom_site_label
_atom_site_fract_x
_atom_site_fract_y
_atom_site_fract_z
Si Si1 0.784184 0.245855 0.220400
Si Si2 0.856675 0.884337 0.781357
Si Si3 0.536647 0.192059 0.281382
Si Si4 0.940767 0.969534 0.709004
Si Si5 0.230242 0.026313 0.780175
Si Si6 0.133368 0.660552 0.216216
Si Si7 0.545757 0.741299 0.284202
Si Si8 0.879145 0.610015 0.208360
O O1 0.761279 0.369762 0.279726
O O2 0.764132 0.116509 0.278432
O O3 0.829946 0.255683 0.277901
O O4 0.783405 0.244432 0.000000
O O5 0.865198 0.742949 0.715084
O O6 0.893174 0.969577 0.720456
O O7 0.813856 0.931802 0.727061
O O8 0.858086 0.884439 0.000000
O O9 0.539053 0.184598 0.500000
O O10 0.546564 0.334340 0.219207
O O11 0.491223 0.173859 0.224303
O O12 0.572974 0.109174 0.214587
O O13 0.952748 0.966105 0.500000
O O14 0.956912 0.098711 0.786872
O O15 0.231494 0.026821 0.000000
O O16 0.089519 0.709621 0.251000
O O17 0.136534 0.518827 0.287703
O O18 0.136925 0.654078 0.000000
O O19 0.541542 0.733067 0.500000
O O20 0.866416 0.612718 0.000000
#
# Coordination Sequence:
#
# PCOD9426589 Si02
#       8
#     8   8   8   8   8   8   8   8
#     4   9  18  30  47  73 102 131 166 206 252 302
#     4   9  17  30  50  74 101 129 165 207 251 299
#     4   9  18  33  52  74  98 127 168 213 252 298
#     4   9  17  31  51  74  99 128 162 205 255 305
#     4   9  17  28  47  74 101 130 165 207 250 298
#     4  10  21  35  50  70 101 135 168 207 254 303
#     4  10  20  33  51  73  98 131 169 209 253 300
#     4   9  19  33  49  71 100 135 168 206 254 302
#
# _framework density 23.864954999999998
#
# number of rings (size 3 to 8) (size 9 to 14) (size 15 to 20)
#    0.000    2.750    0.000    1.125    1.750    4.500 
#    0.000    2.500    0.000    4.500    0.000    0.000 
#    0.000    0.000    0.000    0.000    0.000    0.000 
#
# Total GULP energy -357475.333023 kJ/mol
# GULP energy per Si atom -5585.552078 kJ/mol
# Density = 2.381064 g / cm^3
# Si number density = 23.864955 Si / 1000 Ang^3
#
#
#
# Elastic Constant Matrix: (Units=GPa)
#
#
# Indices 1 2 3 4 5 6 
#
# 1 77.3654 29.1781 -10.1253 0.0000 0.0000 0.0000
# 2 29.1781 100.4316 -1.9297 0.0000 0.0000 0.0000
# 3 -10.1253 -1.9297 77.8380 0.0000 0.0000 0.0000
# 4 0.0000 0.0000 0.0000 1.5977 0.0000 0.0000
# 5 0.0000 0.0000 0.0000 0.0000 14.8034 0.0000
# 6 0.0000 0.0000 0.0000 0.0000 0.0000 32.5913
#
#
#
# Elastic Compliance Matrix: (Units=1/GPa)
#
#
# Indices 1 2 3 4 5 6 
#
# 1 0.014768 -0.004256 0.001816 0.000000 0.000000 0.000000
# 2 -0.004256 0.011188 -0.000276 0.000000 0.000000 0.000000
# 3 0.001816 -0.000276 0.013077 0.000000 0.000000 0.000000
# 4 0.000000 0.000000 0.000000 0.625916 0.000000 0.000000
# 5 0.000000 0.000000 0.000000 0.000000 0.067552 0.000000
# 6 0.000000 0.000000 0.000000 0.000000 0.000000 0.030683
#
#
# Mechanical properties :
#
#
# Convention : Reuss Voigt Hill
#
# Bulk Modulus (GPa) = 29.76167 32.20901 30.98534
# Shear Modulus (GPa) = 6.41176 25.69926 16.05551
#
# Velocity S-wave (km/s) = 1.64089 3.28512 2.59659
# Velocity P-wave (km/s) = 4.01098 5.28346 4.69057
#
# Compressibility (1/GPa) = 0.03360027
#
# Stress axis : x y z
#
# Youngs Moduli (GPa) = 67.71251 89.38052 76.47292
#
# Poissons Ratio (x) = 0.38038 -0.13884
# Poissons Ratio (y) = 0.28817 0.02112
# Poissons Ratio (z) = -0.12294 0.02469
#
# Static dielectric constant tensor:
#      x y z
#    x 1.890990 0.000000 0.000000 
#    y 0.000000 1.907640 0.000000 
#    z 0.000000 0.000000 1.969490 
# 
# From -- ./inp_files/16058.got.cif
#   From: 2010.05.17/outbox.cif.g08.bks.cpg/sg55_9_cif.got.tgz:16058.got - 2010.06.03 13:27:54.
