data_PCOD9426177
_publ_section_title
;
Structure prediction by ZEFSAII (Michael W. Deem and Ramdas Pophale) SiO2 
 PCOD9426177
Probable space group: P B A M
;
_chemical_formula_sum "Si O2"
_cell_formula_units_Z 64
_cell_length_a 19.484013
_cell_length_b 23.669333
_cell_length_c 8.687414
_cell_angle_alpha 90.000000
_cell_angle_beta 90.000000
_cell_angle_gamma 90.000000
_cell_volume 4006.405918
_symmetry_space_group_name_H-M "P B A M"
_symmetry_group_IT_number 55
_symmetry_cell_setting 'orthorhombic'
loop_
_space_group_symop_operation_xyz
x,y,z
-x,-y,z
1/2+x,1/2-y,-z
1/2-x,1/2+y,-z
-x,-y,-z
x,y,-z
1/2-x,1/2+y,z
1/2+x,1/2-y,z
loop_
_atom_site_type_symbol
_atom_site_label
_atom_site_fract_x
_atom_site_fract_y
_atom_site_fract_z
Si Si1 0.507706 0.116574 0.315124
Si Si2 0.637542 0.940940 0.684906
Si Si3 0.641533 0.725559 0.183921
Si Si4 0.233344 0.337111 0.683505
Si Si5 0.496714 0.749837 0.315481
Si Si6 0.849732 0.769467 0.815945
Si Si7 0.775595 0.331905 0.315088
Si Si8 0.646648 0.064768 0.181941
O O1 0.517694 0.112037 0.500000
O O2 0.437296 0.084554 0.275594
O O3 0.501770 0.182977 0.278053
O O4 0.572682 0.089114 0.232956
O O5 0.638167 0.949684 0.500000
O O6 0.693516 0.892993 0.722075
O O7 0.650103 0.999846 0.767537
O O8 0.692046 0.677475 0.249013
O O9 0.564175 0.721917 0.243796
O O10 0.673485 0.784021 0.249042
O O11 0.644265 0.726228 0.000000
O O12 0.233974 0.331738 0.500000
O O13 0.182625 0.288993 0.751567
O O14 0.203450 0.397018 0.734076
O O15 0.497893 0.744679 0.500000
O O16 0.426274 0.725582 0.248198
O O17 0.798455 0.817766 0.754885
O O18 0.849229 0.767785 0.000000
O O19 0.773651 0.325774 0.500000
O O20 0.654579 0.070708 0.000000
#
# Coordination Sequence:
#
# PCOD9426177 Si02
#       8
#     8   8   8   8   8   8   8   8
#     4  10  20  35  52  71 101 142 183 216 247 300
#     4  10  21  37  54  72  99 139 184 217 252 304
#     4  11  21  33  52  78 107 133 166 218 267 308
#     4  11  21  36  54  72  99 138 178 214 256 312
#     4  11  20  34  54  77 104 142 177 209 255 314
#     4  11  21  33  51  78 106 133 168 217 268 308
#     4  10  19  35  54  74 100 137 178 214 255 312
#     4  12  24  35  50  75 105 137 177 221 266 305
#
# _framework density 15.974417000000001
#
# number of rings (size 3 to 8) (size 9 to 14) (size 15 to 20)
#    0.000    1.250    2.500    7.125    0.000    3.500 
#    0.000    0.000    0.000    0.000    0.000    0.875 
#    0.000    7.000    0.000    0.000    0.000    0.000 
#
# Total GULP energy -357657.223585 kJ/mol
# GULP energy per Si atom -5588.394119 kJ/mol
# Density = 1.593806 g / cm^3
# Si number density = 15.974417 Si / 1000 Ang^3
#
#
#
# Elastic Constant Matrix: (Units=GPa)
#
#
# Indices 1 2 3 4 5 6 
#
# 1 141.0311 51.5021 60.6197 0.0000 0.0000 0.0000
# 2 51.5021 68.9648 44.3797 0.0000 0.0000 0.0000
# 3 60.6197 44.3797 105.9347 0.0000 0.0000 0.0000
# 4 0.0000 0.0000 0.0000 -28.2195 0.0000 0.0000
# 5 0.0000 0.0000 0.0000 0.0000 44.4409 0.0000
# 6 0.0000 0.0000 0.0000 0.0000 0.0000 18.5960
#
#
#
# Elastic Compliance Matrix: (Units=1/GPa)
#
#
# Indices 1 2 3 4 5 6 
#
# 1 0.010774 -0.005584 -0.003826 0.000000 0.000000 0.000000
# 2 -0.005584 0.022746 -0.006334 0.000000 0.000000 0.000000
# 3 -0.003826 -0.006334 0.014283 0.000000 0.000000 0.000000
# 4 0.000000 0.000000 0.000000 -0.035436 0.000000 0.000000
# 5 0.000000 0.000000 0.000000 0.000000 0.022502 0.000000
# 6 0.000000 0.000000 0.000000 0.000000 0.000000 0.053775
#
#
# Mechanical properties :
#
#
# Convention : Reuss Voigt Hill
#
# Bulk Modulus (GPa) = 61.29216 69.88153 65.58684
# Shear Modulus (GPa) = 39.81844 17.59207 28.70526
#
# Velocity S-wave (km/s) = 4.99805 3.32213 4.24365
# Velocity P-wave (km/s) = 8.47110 7.65221 8.07205
#
# Compressibility (1/GPa) = 0.01631530
#
# Stress axis : x y z
#
# Youngs Moduli (GPa) = 92.81217 43.96360 70.01481
#
# Poissons Ratio (x) = 0.24549 0.26789
# Poissons Ratio (y) = 0.51827 0.44346
# Poissons Ratio (z) = 0.35512 0.27845
#
# Static dielectric constant tensor:
#      x y z
#    x 1.531330 0.000000 0.000000 
#    y 0.000000 1.513300 0.000000 
#    z 0.000000 0.000000 1.530220 
# 
# From -- ./inp_files/8184.got.cif
#   From: 2010.05.17/outbox.cif.g08.bks.cpg/sg55_5_cif.got.tgz:8184.got - 2010.06.03 13:27:54.
