data_PCOD9426275
_publ_section_title
;
Structure prediction by ZEFSAII (Michael W. Deem and Ramdas Pophale) SiO2 
 PCOD9426275
Probable space group: P B A M
;
_chemical_formula_sum "Si O2"
_cell_formula_units_Z 64
_cell_length_a 29.370975
_cell_length_b 12.852179
_cell_length_c 8.891674
_cell_angle_alpha 90.000000
_cell_angle_beta 90.000000
_cell_angle_gamma 90.000000
_cell_volume 3356.438243
_symmetry_space_group_name_H-M "P B A M"
_symmetry_group_IT_number 55
_symmetry_cell_setting 'orthorhombic'
loop_
_space_group_symop_operation_xyz
x,y,z
-x,-y,z
1/2+x,1/2-y,-z
1/2-x,1/2+y,-z
-x,-y,-z
x,y,-z
1/2-x,1/2+y,z
1/2+x,1/2-y,z
loop_
_atom_site_type_symbol
_atom_site_label
_atom_site_fract_x
_atom_site_fract_y
_atom_site_fract_z
Si Si1 0.165012 0.649128 0.173155
Si Si2 0.209089 0.427864 0.826352
Si Si3 0.966448 0.236793 0.821614
Si Si4 0.198672 0.856868 0.321898
Si Si5 0.400298 0.429134 0.679571
Si Si6 0.074001 0.570396 0.677798
Si Si7 0.941519 0.847968 0.680853
Si Si8 0.115484 0.355381 0.319197
O O1 0.198218 0.550445 0.177763
O O2 0.189373 0.751136 0.232190
O O3 0.122689 0.621057 0.279773
O O4 0.149004 0.661174 0.000000
O O5 0.254170 0.404147 0.733418
O O6 0.163906 0.373982 0.758968
O O7 0.215172 0.396333 0.000000
O O8 0.924451 0.166392 0.763067
O O9 0.961655 0.354248 0.758815
O O10 0.011332 0.181380 0.758263
O O11 0.966805 0.239029 0.000000
O O12 0.200466 0.836182 0.500000
O O13 0.153862 0.927169 0.293647
O O14 0.407432 0.414851 0.500000
O O15 0.422732 0.538725 0.723920
O O16 0.065532 0.574127 0.500000
O O17 0.081041 0.449891 0.724009
O O18 0.948174 0.848097 0.500000
O O19 0.906003 0.755978 0.716494
O O20 0.121502 0.363097 0.500000
#
# Coordination Sequence:
#
# PCOD9426275 Si02
#       8
#     8   8   8   8   8   8   8   8
#     4  10  20  36  57  83 115 152 190 239 298 347
#     4  10  22  38  58  86 121 156 192 239 299 358
#     4  12  24  37  58  88 119 155 198 246 298 356
#     4  11  22  36  59  88 116 153 200 244 291 351
#     4  10  22  40  61  85 115 153 198 249 297 347
#     4  10  19  35  60  86 114 150 196 244 291 346
#     4  10  22  41  62  85 119 158 196 243 298 356
#     4   9  20  39  62  87 116 155 199 245 296 354
#
# _framework density 19.067831000000002
#
# number of rings (size 3 to 8) (size 9 to 14) (size 15 to 20)
#    0.000    1.750    1.250    3.000    0.000    6.500 
#    0.000    3.750    0.000    0.000    0.000    0.000 
#    0.000    0.000    0.000    0.000    0.000    0.000 
#
# Total GULP energy -357512.240648 kJ/mol
# GULP energy per Si atom -5586.128760 kJ/mol
# Density = 1.902443 g / cm^3
# Si number density = 19.067831 Si / 1000 Ang^3
#
#
#
# Elastic Constant Matrix: (Units=GPa)
#
#
# Indices 1 2 3 4 5 6 
#
# 1 73.8131 89.6710 37.8057 0.0000 0.0000 0.0000
# 2 89.6710 545.4433 139.0068 0.0000 0.0000 0.0000
# 3 37.8057 139.0068 68.8050 0.0000 0.0000 0.0000
# 4 0.0000 0.0000 0.0000 19.9620 0.0000 0.0000
# 5 0.0000 0.0000 0.0000 0.0000 -194.1082 0.0000
# 6 0.0000 0.0000 0.0000 0.0000 0.0000 17.6188
#
#
#
# Elastic Compliance Matrix: (Units=1/GPa)
#
#
# Indices 1 2 3 4 5 6 
#
# 1 0.019094 -0.000959 -0.008554 0.000000 0.000000 0.000000
# 2 -0.000959 0.003827 -0.007205 0.000000 0.000000 0.000000
# 3 -0.008554 -0.007205 0.033791 0.000000 0.000000 0.000000
# 4 0.000000 0.000000 0.000000 0.050095 0.000000 0.000000
# 5 0.000000 0.000000 0.000000 0.000000 -0.005152 0.000000
# 6 0.000000 0.000000 0.000000 0.000000 0.000000 0.056757
#
#
# Mechanical properties :
#
#
# Convention : Reuss Voigt Hill
#
# Bulk Modulus (GPa) = 42.96314 135.66982 89.31648
# Shear Modulus (GPa) = 25.04908 -3.20030 10.92439
#
# Velocity S-wave (km/s) = 3.62841 -1.29693 2.39618
# Velocity P-wave (km/s) = 6.33518 8.31041 7.38909
#
# Compressibility (1/GPa) = 0.02327577
#
# Stress axis : x y z
#
# Youngs Moduli (GPa) = 52.37257 261.27643 29.59379
#
# Poissons Ratio (x) = 0.25060 0.25314
# Poissons Ratio (y) = 0.05023 0.21324
# Poissons Ratio (z) = 0.44798 1.88261
#
# Static dielectric constant tensor:
#      x y z
#    x 1.646290 0.000000 0.000000 
#    y 0.000000 1.654680 0.000000 
#    z 0.000000 0.000000 1.641840 
# 
# From -- ./inp_files/4654.got.cif
#   From: 2010.05.17/outbox.cif.g08.bks.cpg/sg55_3_cif.got.tgz:4654.got - 2010.06.03 13:27:54.
