data_PCOD9426084
_publ_section_title
;
Structure prediction by ZEFSAII (Michael W. Deem and Ramdas Pophale) SiO2 
 PCOD9426084
Probable space group: P B A M
;
_chemical_formula_sum "Si O2"
_cell_formula_units_Z 56
_cell_length_a 17.126517
_cell_length_b 14.220417
_cell_length_c 12.229646
_cell_angle_alpha 90.000000
_cell_angle_beta 90.000000
_cell_angle_gamma 90.000000
_cell_volume 2978.483976
_symmetry_space_group_name_H-M "P B A M"
_symmetry_group_IT_number 55
_symmetry_cell_setting 'orthorhombic'
loop_
_space_group_symop_operation_xyz
x,y,z
-x,-y,z
1/2+x,1/2-y,-z
1/2-x,1/2+y,-z
-x,-y,-z
x,y,-z
1/2-x,1/2+y,z
1/2+x,1/2-y,z
loop_
_atom_site_type_symbol
_atom_site_label
_atom_site_fract_x
_atom_site_fract_y
_atom_site_fract_z
Si Si1 0.308198 0.188093 0.875639
Si Si2 0.194036 0.040791 0.770005
Si Si3 0.059040 0.573812 0.219372
Si Si4 0.526093 0.401967 0.312615
Si Si5 0.045381 0.306689 0.621592
Si Si6 0.392433 0.378454 0.126927
Si Si7 0.327511 0.950595 0.370737
O O1 0.244099 0.129940 0.809231
O O2 0.384265 0.122350 0.865564
O O3 0.339201 0.289576 0.837314
O O4 0.281532 0.198640 0.000000
O O5 0.115213 0.080028 0.719212
O O6 0.162279 0.970243 0.863067
O O7 0.246730 0.976672 0.689016
O O8 0.109991 0.518025 0.310077
O O9 0.000000 0.500000 0.167134
O O10 0.008695 0.649205 0.285603
O O11 0.500000 0.500000 0.367737
O O12 0.529504 0.303927 0.375441
O O13 0.466474 0.389947 0.208567
O O14 0.024853 0.343101 0.500000
O O15 0.133552 0.346459 0.641743
O O16 0.416270 0.364471 0.000000
O O17 0.321106 0.969424 0.500000
#
# Coordination Sequence:
#
# PCOD9426084 Si02
#       7
#     8   8   8   8   8   8   8
#     4  10  20  35  57  85 114 145 183 231 284 336
#     4  10  22  36  59  80 116 148 186 239 278 333
#     4   9  17  33  57  82 112 143 181 229 276 335
#     4  10  22  38  57  82 111 148 189 229 277 328
#     4  10  19  34  57  81 111 146 186 226 274 336
#     4  10  21  39  60  82 112 150 191 228 277 344
#     4   9  19  35  57  84 111 147 186 228 281 336
#
# _framework density 18.801511000000001
#
# number of rings (size 3 to 8) (size 9 to 14) (size 15 to 20)
#    0.000    2.286    1.429    0.857    2.000    6.000 
#    0.000    2.143    0.000    0.000    0.000    0.000 
#    0.000    0.000    0.000    0.000    0.000    0.000 
#
# Total GULP energy -311754.349117 kJ/mol
# GULP energy per Si atom -5567.041949 kJ/mol
# Density = 1.875872 g / cm^3
# Si number density = 18.801511 Si / 1000 Ang^3
#
#
#
# Elastic Constant Matrix: (Units=GPa)
#
#
# Indices 1 2 3 4 5 6 
#
# 1 92.5305 20.0239 17.1760 0.0000 0.0000 0.0000
# 2 20.0239 87.0431 3.1582 0.0000 0.0000 0.0000
# 3 17.1760 3.1582 45.6132 0.0000 0.0000 0.0000
# 4 0.0000 0.0000 0.0000 12.7982 0.0000 0.0000
# 5 0.0000 0.0000 0.0000 0.0000 6.7443 0.0000
# 6 0.0000 0.0000 0.0000 0.0000 0.0000 29.6537
#
#
#
# Elastic Compliance Matrix: (Units=1/GPa)
#
#
# Indices 1 2 3 4 5 6 
#
# 1 0.012199 -0.002646 -0.004410 0.000000 0.000000 0.000000
# 2 -0.002646 0.012092 0.000159 0.000000 0.000000 0.000000
# 3 -0.004410 0.000159 0.023573 0.000000 0.000000 0.000000
# 4 0.000000 0.000000 0.000000 0.078136 0.000000 0.000000
# 5 0.000000 0.000000 0.000000 0.000000 0.148272 0.000000
# 6 0.000000 0.000000 0.000000 0.000000 0.000000 0.033723
#
#
# Mechanical properties :
#
#
# Convention : Reuss Voigt Hill
#
# Bulk Modulus (GPa) = 29.35232 33.98923 31.67077
# Shear Modulus (GPa) = 15.00849 22.16117 18.58483
#
# Velocity S-wave (km/s) = 2.82841 3.43693 3.14741
# Velocity P-wave (km/s) = 5.12954 5.81955 5.48540
#
# Compressibility (1/GPa) = 0.03406886
#
# Stress axis : x y z
#
# Youngs Moduli (GPa) = 81.97700 82.70250 42.42111
#
# Poissons Ratio (x) = 0.21885 0.18709
# Poissons Ratio (y) = 0.21693 -0.00676
# Poissons Ratio (z) = 0.36154 -0.01317
#
# Static dielectric constant tensor:
#      x y z
#    x 1.642790 0.000000 0.000000 
#    y 0.000000 1.689270 0.000000 
#    z 0.000000 0.000000 1.624180 
# 
# From -- ./inp_files/14242.got.cif
#   From: 2010.05.17/outbox.cif.g08.bks.cpg/sg55_8_cif.got.tgz:14242.got - 2010.06.03 13:27:54.
