data_PCOD9426962
_publ_section_title
;
Structure prediction by ZEFSAII (Michael W. Deem and Ramdas Pophale) SiO2 
 PCOD9426962
Probable space group: P B A M
;
_chemical_formula_sum "Si O2"
_cell_formula_units_Z 64
_cell_length_a 12.686769
_cell_length_b 14.814309
_cell_length_c 16.229803
_cell_angle_alpha 90.000000
_cell_angle_beta 90.000000
_cell_angle_gamma 90.000000
_cell_volume 3050.321948
_symmetry_space_group_name_H-M "P B A M"
_symmetry_group_IT_number 55
_symmetry_cell_setting 'orthorhombic'
loop_
_space_group_symop_operation_xyz
x,y,z
-x,-y,z
1/2+x,1/2-y,-z
1/2-x,1/2+y,-z
-x,-y,-z
x,y,-z
1/2-x,1/2+y,z
1/2+x,1/2-y,z
loop_
_atom_site_type_symbol
_atom_site_label
_atom_site_fract_x
_atom_site_fract_y
_atom_site_fract_z
Si Si1 0.967150 0.214518 0.326367
Si Si2 0.042465 0.403075 0.596890
Si Si3 0.623058 0.471787 0.092157
Si Si4 0.271956 0.863680 0.142732
Si Si5 0.272240 0.407140 0.666559
Si Si6 0.659852 0.795119 0.193922
Si Si7 0.007316 0.606042 0.911125
Si Si8 0.665151 0.396306 0.726006
O O1 0.869336 0.156239 0.361898
O O2 0.930857 0.233270 0.232710
O O3 0.991926 0.312597 0.364293
O O4 0.071225 0.154340 0.320020
O O5 0.018973 0.401075 0.500000
O O6 0.168022 0.401278 0.611897
O O7 0.000000 0.500000 0.630696
O O8 0.500000 0.500000 0.094196
O O9 0.701735 0.557866 0.101869
O O10 0.640459 0.416044 0.176855
O O11 0.642727 0.432256 0.000000
O O12 0.263387 0.877136 0.241464
O O13 0.222591 0.765510 0.129585
O O14 0.392792 0.863225 0.117759
O O15 0.310766 0.509737 0.680701
O O16 0.601207 0.876007 0.150926
O O17 0.733572 0.831767 0.266737
O O18 0.000000 0.500000 0.918577
O O19 0.031026 0.647720 0.000000
#
# Coordination Sequence:
#
# PCOD9426962 Si02
#       8
#     8   8   8   8   8   8   8   8
#     4  11  22  41  65  94 125 159 206 260 313 378
#     4  11  25  44  67  97 132 168 206 253 316 389
#     4  10  20  35  56  82 118 163 210 267 330 383
#     4  10  21  37  56  83 116 155 207 261 313 374
#     4  10  21  39  66  94 125 163 206 256 313 381
#     4  11  22  35  57  84 114 156 207 259 316 373
#     4  11  23  37  52  74 110 155 203 256 314 374
#     4  11  21  38  64  92 124 165 215 269 319 379
#
# _framework density 20.981392
#
# number of rings (size 3 to 8) (size 9 to 14) (size 15 to 20)
#    0.000    1.375    0.000    8.250    0.000    4.000 
#    0.000    5.000    0.000    1.500    0.000    0.000 
#    0.000    0.000    0.000    0.000    0.000    0.000 
#
# Total GULP energy -357355.641096 kJ/mol
# GULP energy per Si atom -5583.681892 kJ/mol
# Density = 2.093364 g / cm^3
# Si number density = 20.981392 Si / 1000 Ang^3
#
#
#
# Elastic Constant Matrix: (Units=GPa)
#
#
# Indices 1 2 3 4 5 6 
#
# 1 124.9338 51.9377 10.7119 0.0000 0.0000 0.0000
# 2 51.9377 108.6744 10.2117 0.0000 0.0000 0.0000
# 3 10.7119 10.2117 23.1288 0.0000 0.0000 0.0000
# 4 0.0000 0.0000 0.0000 10.5422 0.0000 0.0000
# 5 0.0000 0.0000 0.0000 0.0000 23.5929 0.0000
# 6 0.0000 0.0000 0.0000 0.0000 0.0000 39.2088
#
#
#
# Elastic Compliance Matrix: (Units=1/GPa)
#
#
# Indices 1 2 3 4 5 6 
#
# 1 0.010144 -0.004597 -0.002668 0.000000 0.000000 0.000000
# 2 -0.004597 0.011684 -0.003029 0.000000 0.000000 0.000000
# 3 -0.002668 -0.003029 0.045810 0.000000 0.000000 0.000000
# 4 0.000000 0.000000 0.000000 0.094857 0.000000 0.000000
# 5 0.000000 0.000000 0.000000 0.000000 0.042386 0.000000
# 6 0.000000 0.000000 0.000000 0.000000 0.000000 0.025504
#
#
# Mechanical properties :
#
#
# Convention : Reuss Voigt Hill
#
# Bulk Modulus (GPa) = 21.25521 44.71773 32.98647
# Shear Modulus (GPa) = 18.75068 26.92715 22.83891
#
# Velocity S-wave (km/s) = 2.99269 3.58632 3.30287
# Velocity P-wave (km/s) = 4.70044 6.20550 5.50465
#
# Compressibility (1/GPa) = 0.04704730
#
# Stress axis : x y z
#
# Youngs Moduli (GPa) = 98.57772 85.58970 21.82951
#
# Poissons Ratio (x) = 0.39349 0.05825
# Poissons Ratio (y) = 0.45320 0.06613
# Poissons Ratio (z) = 0.26305 0.25927
#
# Static dielectric constant tensor:
#      x y z
#    x 1.802000 0.000000 0.000000 
#    y 0.000000 1.788840 0.000000 
#    z 0.000000 0.000000 1.735930 
# 
# From -- ./inp_files/21323.got.cif
#   From: 2010.05.17/outbox.cif.g08.bks.cpg/sg55_11_cif.got.tgz:21323.got - 2010.06.03 13:27:54.
