data_PCOD9426829
_publ_section_title
;
Structure prediction by ZEFSAII (Michael W. Deem and Ramdas Pophale) SiO2 
 PCOD9426829
Probable space group: P B A M
;
_chemical_formula_sum "Si O2"
_cell_formula_units_Z 64
_cell_length_a 24.790288
_cell_length_b 15.419399
_cell_length_c 7.580831
_cell_angle_alpha 90.000000
_cell_angle_beta 90.000000
_cell_angle_gamma 90.000000
_cell_volume 2897.782823
_symmetry_space_group_name_H-M "P B A M"
_symmetry_group_IT_number 55
_symmetry_cell_setting 'orthorhombic'
loop_
_space_group_symop_operation_xyz
x,y,z
-x,-y,z
1/2+x,1/2-y,-z
1/2-x,1/2+y,-z
-x,-y,-z
x,y,-z
1/2-x,1/2+y,z
1/2+x,1/2-y,z
loop_
_atom_site_type_symbol
_atom_site_label
_atom_site_fract_x
_atom_site_fract_y
_atom_site_fract_z
Si Si1 0.012241 0.096102 0.205230
Si Si2 0.129519 0.062360 0.711214
Si Si3 0.344409 0.372364 0.285763
Si Si4 0.256162 0.643256 0.794424
Si Si5 0.047808 0.560616 0.288498
Si Si6 0.274312 0.834238 0.202519
Si Si7 0.434127 0.250204 0.294649
Si Si8 0.169178 0.503683 0.787004
O O1 0.076199 0.110170 0.223474
O O2 0.978468 0.174251 0.286187
O O3 0.997330 0.094139 0.000000
O O4 0.000000 0.000000 0.281656
O O5 0.131220 0.068698 0.500000
O O6 0.186159 0.096543 0.782108
O O7 0.125130 0.961035 0.760205
O O8 0.339931 0.369584 0.500000
O O9 0.285236 0.374850 0.207288
O O10 0.379020 0.290886 0.220445
O O11 0.265693 0.739060 0.714722
O O12 0.209641 0.579797 0.720752
O O13 0.241735 0.656996 0.000000
O O14 0.040072 0.564775 0.500000
O O15 0.047049 0.659136 0.217632
O O16 0.107455 0.523957 0.254502
O O17 0.000000 0.500000 0.217838
O O18 0.312600 0.908694 0.280450
O O19 0.292317 0.819973 0.000000
O O20 0.422243 0.233987 0.500000
O O21 0.175813 0.501178 0.000000
#
# Coordination Sequence:
#
# PCOD9426829 Si02
#       8
#     8   8   8   8   8   8   8   8
#     4  11  23  37  57  86 118 153 193 238 290 351
#     4  11  22  36  57  84 117 155 191 235 290 346
#     4  10  20  34  56  85 114 150 194 239 289 345
#     4  10  21  38  58  85 120 153 192 238 287 347
#     4  10  23  42  63  87 115 151 197 246 293 342
#     4  10  21  36  58  86 117 154 192 236 289 346
#     4  10  21  39  61  85 117 154 196 246 295 348
#     4  10  21  38  60  86 116 152 192 238 292 343
#
# _framework density 22.085851000000002
#
# number of rings (size 3 to 8) (size 9 to 14) (size 15 to 20)
#    0.000    1.750    2.500    1.500    0.000    4.750 
#    0.000    2.500    0.000    0.000    0.000    0.000 
#    0.000    0.000    0.000    0.000    0.000    0.000 
#
# Total GULP energy -357487.537928 kJ/mol
# GULP energy per Si atom -5585.742780 kJ/mol
# Density = 2.203558 g / cm^3
# Si number density = 22.085851 Si / 1000 Ang^3
#
#
#
# Elastic Constant Matrix: (Units=GPa)
#
#
# Indices 1 2 3 4 5 6 
#
# 1 124.9226 55.0223 -21.9587 0.0000 0.0000 0.0000
# 2 55.0223 148.0253 0.7706 0.0000 0.0000 0.0000
# 3 -21.9587 0.7706 50.0332 0.0000 0.0000 0.0000
# 4 0.0000 0.0000 0.0000 4.8188 0.0000 0.0000
# 5 0.0000 0.0000 0.0000 0.0000 20.2695 0.0000
# 6 0.0000 0.0000 0.0000 0.0000 0.0000 27.6322
#
#
#
# Elastic Compliance Matrix: (Units=1/GPa)
#
#
# Indices 1 2 3 4 5 6 
#
# 1 0.010573 -0.003955 0.004701 0.000000 0.000000 0.000000
# 2 -0.003955 0.008235 -0.001862 0.000000 0.000000 0.000000
# 3 0.004701 -0.001862 0.022079 0.000000 0.000000 0.000000
# 4 0.000000 0.000000 0.000000 0.207522 0.000000 0.000000
# 5 0.000000 0.000000 0.000000 0.000000 0.049335 0.000000
# 6 0.000000 0.000000 0.000000 0.000000 0.000000 0.036190
#
#
# Mechanical properties :
#
#
# Convention : Reuss Voigt Hill
#
# Bulk Modulus (GPa) = 25.86947 43.40551 34.63749
# Shear Modulus (GPa) = 14.32455 29.82054 22.07255
#
# Velocity S-wave (km/s) = 2.54950 3.67851 3.16475
# Velocity P-wave (km/s) = 4.51721 6.14310 5.39179
#
# Compressibility (1/GPa) = 0.03865560
#
# Stress axis : x y z
#
# Youngs Moduli (GPa) = 94.57919 121.42906 45.29244
#
# Poissons Ratio (x) = 0.48020 -0.21293
# Poissons Ratio (y) = 0.37402 0.08435
# Poissons Ratio (z) = -0.44464 0.22616
#
# Static dielectric constant tensor:
#      x y z
#    x 1.766770 0.000000 0.000000 
#    y 0.000000 1.860940 0.000000 
#    z 0.000000 0.000000 1.831760 
# 
# From -- ./inp_files/9753.got.cif
#   From: 2010.05.17/outbox.cif.g08.bks.cpg/sg55_5_cif.got.tgz:9753.got - 2010.06.03 13:27:54.
