data_PCOD9426498
_publ_section_title
;
Structure prediction by ZEFSAII (Michael W. Deem and Ramdas Pophale) SiO2 
 PCOD9426498
Probable space group: P B A M
;
_chemical_formula_sum "Si O2"
_cell_formula_units_Z 58
_cell_length_a 22.977334
_cell_length_b 14.496313
_cell_length_c 7.865500
_cell_angle_alpha 90.000000
_cell_angle_beta 90.000000
_cell_angle_gamma 90.000000
_cell_volume 2619.892853
_symmetry_space_group_name_H-M "P B A M"
_symmetry_group_IT_number 55
_symmetry_cell_setting 'orthorhombic'
loop_
_space_group_symop_operation_xyz
x,y,z
-x,-y,z
1/2+x,1/2-y,-z
1/2-x,1/2+y,-z
-x,-y,-z
x,y,-z
1/2-x,1/2+y,z
1/2+x,1/2-y,z
loop_
_atom_site_type_symbol
_atom_site_label
_atom_site_fract_x
_atom_site_fract_y
_atom_site_fract_z
Si Si1 0.532209 0.115049 0.685153
Si Si2 0.746756 0.205774 0.192995
Si Si3 0.160724 0.037526 0.794929
Si Si4 0.632021 0.656425 0.310253
Si Si5 0.000000 0.500000 0.000000
Si Si6 0.406708 0.149216 0.197624
Si Si7 0.215760 0.580076 0.193110
Si Si8 0.122654 0.240666 0.793798
O O1 0.548068 0.077019 0.500000
O O2 0.463743 0.137055 0.693351
O O3 0.567734 0.208569 0.716982
O O4 0.539905 0.049527 0.847203
O O5 0.798068 0.166979 0.304934
O O6 0.760112 0.315151 0.183012
O O7 0.680496 0.200244 0.251225
O O8 0.752717 0.169024 0.000000
O O9 0.227993 0.030114 0.729128
O O10 0.133050 0.134788 0.738516
O O11 0.123194 0.948095 0.749261
O O12 0.165563 0.041757 0.000000
O O13 0.609832 0.669776 0.500000
O O14 0.609617 0.742088 0.199194
O O15 0.349711 0.093585 0.260657
O O16 0.422721 0.122929 0.000000
O O17 0.207192 0.545803 0.000000
O O18 0.119164 0.240451 0.000000
#
# Coordination Sequence:
#
# PCOD9426498 Si02
#       8
#     8   8   8   8   2   8   8   8
#     4  12  25  44  70  96 122 157 201 253 311 365
#     4   8  15  31  55  78 108 154 201 242 299 362
#     4   9  17  33  57  86 118 159 205 245 296 363
#     4  11  21  32  50  86 128 160 202 256 302 357
#     4  12  26  52  68  90 122 160 202 260 296 364
#     4  10  19  39  64  84 117 163 207 251 308 371
#     4   7  13  28  54  81 106 148 199 242 292 355
#     4   9  18  38  64  87 118 161 206 251 307 373
#
# _framework density 22.138309
#
# number of rings (size 3 to 8) (size 9 to 14) (size 15 to 20)
#    0.000    2.483    1.379    4.345    0.000    1.103 
#    2.483    6.897    0.000    4.138    0.000    0.000 
#    0.000    0.000    0.000    0.000    0.000    0.000 
#
# Total GULP energy -323024.452955 kJ/mol
# GULP energy per Si atom -5569.387120 kJ/mol
# Density = 2.208792 g / cm^3
# Si number density = 22.138309 Si / 1000 Ang^3
#
#
#
# Elastic Constant Matrix: (Units=GPa)
#
#
# Indices 1 2 3 4 5 6 
#
# 1 72.3929 13.3865 16.5955 0.0000 0.0000 0.0000
# 2 13.3865 68.5696 25.1261 0.0000 0.0000 0.0000
# 3 16.5955 25.1261 96.4602 0.0000 0.0000 0.0000
# 4 0.0000 0.0000 0.0000 153.5343 0.0000 0.0000
# 5 0.0000 0.0000 0.0000 0.0000 -2.9793 0.0000
# 6 0.0000 0.0000 0.0000 0.0000 0.0000 19.8785
#
#
#
# Elastic Compliance Matrix: (Units=1/GPa)
#
#
# Indices 1 2 3 4 5 6 
#
# 1 0.014660 -0.002142 -0.001964 0.000000 0.000000 0.000000
# 2 -0.002142 0.016436 -0.003913 0.000000 0.000000 0.000000
# 3 -0.001964 -0.003913 0.011724 0.000000 0.000000 0.000000
# 4 0.000000 0.000000 0.000000 0.006513 0.000000 0.000000
# 5 0.000000 0.000000 0.000000 0.000000 -0.335647 0.000000
# 6 0.000000 0.000000 0.000000 0.000000 0.000000 0.050306
#
#
# Mechanical properties :
#
#
# Convention : Reuss Voigt Hill
#
# Bulk Modulus (GPa) = 37.33910 38.62654 37.98282
# Shear Modulus (GPa) = -23.69183 46.24101 11.27459
#
# Velocity S-wave (km/s) = -3.27490 4.57522 2.25917
# Velocity P-wave (km/s) = 1.61336 6.73765 4.89892
#
# Compressibility (1/GPa) = 0.02678157
#
# Stress axis : x y z
#
# Youngs Moduli (GPa) = 68.21328 60.84328 85.29466
#
# Poissons Ratio (x) = 0.13034 0.16753
# Poissons Ratio (y) = 0.14613 0.33373
# Poissons Ratio (z) = 0.13398 0.23806
#
# Static dielectric constant tensor:
#      x y z
#    x 1.747560 0.000000 0.000000 
#    y 0.000000 1.768150 0.000000 
#    z 0.000000 0.000000 1.703450 
# 
# From -- ./inp_files/9584.got.cif
#   From: 2010.05.17/outbox.cif.g08.bks.cpg/sg55_5_cif.got.tgz:9584.got - 2010.06.03 13:27:54.
