data_PCOD9426598
_publ_section_title
;
Structure prediction by ZEFSAII (Michael W. Deem and Ramdas Pophale) SiO2 
 PCOD9426598
Probable space group: P B A M
;
_chemical_formula_sum "Si O2"
_cell_formula_units_Z 64
_cell_length_a 17.764921
_cell_length_b 22.560472
_cell_length_c 7.504604
_cell_angle_alpha 90.000000
_cell_angle_beta 90.000000
_cell_angle_gamma 90.000000
_cell_volume 3007.732735
_symmetry_space_group_name_H-M "P B A M"
_symmetry_group_IT_number 55
_symmetry_cell_setting 'orthorhombic'
loop_
_space_group_symop_operation_xyz
x,y,z
-x,-y,z
1/2+x,1/2-y,-z
1/2-x,1/2+y,-z
-x,-y,-z
x,y,-z
1/2-x,1/2+y,z
1/2+x,1/2-y,z
loop_
_atom_site_type_symbol
_atom_site_label
_atom_site_fract_x
_atom_site_fract_y
_atom_site_fract_z
Si Si1 0.159409 0.779331 0.785371
Si Si2 0.595507 0.942167 0.217130
Si Si3 0.720239 0.126295 0.209738
Si Si4 0.569944 0.077306 0.782350
Si Si5 0.287970 0.152391 0.212848
Si Si6 0.536565 0.628192 0.287379
Si Si7 0.870016 0.898137 0.286017
Si Si8 0.158787 0.968061 0.284395
O O1 0.223991 0.824044 0.715061
O O2 0.176199 0.713476 0.719045
O O3 0.079897 0.810373 0.746188
O O4 0.164886 0.778057 0.000000
O O5 0.516214 0.911993 0.269715
O O6 0.666156 0.904533 0.281622
O O7 0.591195 0.010385 0.273719
O O8 0.597243 0.943767 0.000000
O O9 0.636131 0.120036 0.282076
O O10 0.764245 0.063948 0.228231
O O11 0.713262 0.138854 0.000000
O O12 0.571036 0.078025 0.000000
O O13 0.199672 0.144503 0.245460
O O14 0.298186 0.152742 0.000000
O O15 0.533085 0.620768 0.500000
O O16 0.451581 0.622879 0.218954
O O17 0.590921 0.574989 0.221538
O O18 0.874762 0.901857 0.500000
O O19 0.851336 0.964785 0.221166
O O20 0.157649 0.968401 0.500000
#
# Coordination Sequence:
#
# PCOD9426598 Si02
#       8
#     8   8   8   8   8   8   8   8
#     4   9  19  34  48  69  99 128 163 204 244 288
#     4   8  14  25  42  65  91 117 151 193 236 282
#     4   9  16  28  47  70  96 125 159 198 240 289
#     4   8  13  23  42  67  89 114 153 196 233 277
#     4  10  20  34  49  70 100 132 165 203 249 294
#     4   9  18  34  54  73  96 131 168 202 244 295
#     4  10  20  33  51  76 101 127 164 205 246 299
#     4   9  17  30  50  75 102 129 158 199 250 297
#
# _framework density 21.278486000000001
#
# number of rings (size 3 to 8) (size 9 to 14) (size 15 to 20)
#    0.000    3.000    0.000    1.875    0.000    4.000 
#    2.250    0.000    0.000    4.500    0.000    3.500 
#    0.000    0.000    0.000    0.000    0.000    0.000 
#
# Total GULP energy -357054.543456 kJ/mol
# GULP energy per Si atom -5578.977242 kJ/mol
# Density = 2.123006 g / cm^3
# Si number density = 21.278486 Si / 1000 Ang^3
#
#
#
# Elastic Constant Matrix: (Units=GPa)
#
#
# Indices 1 2 3 4 5 6 
#
# 1 89.7030 2.5306 -10.5830 0.0000 0.0000 0.0000
# 2 2.5306 46.5584 -4.4985 0.0000 0.0000 0.0000
# 3 -10.5830 -4.4985 55.0696 0.0000 0.0000 0.0000
# 4 0.0000 0.0000 0.0000 9.6419 0.0000 0.0000
# 5 0.0000 0.0000 0.0000 0.0000 17.2926 0.0000
# 6 0.0000 0.0000 0.0000 0.0000 0.0000 10.9260
#
#
#
# Elastic Compliance Matrix: (Units=1/GPa)
#
#
# Indices 1 2 3 4 5 6 
#
# 1 0.011414 -0.000412 0.002160 0.000000 0.000000 0.000000
# 2 -0.000412 0.021664 0.001691 0.000000 0.000000 0.000000
# 3 0.002160 0.001691 0.018712 0.000000 0.000000 0.000000
# 4 0.000000 0.000000 0.000000 0.103714 0.000000 0.000000
# 5 0.000000 0.000000 0.000000 0.000000 0.057828 0.000000
# 6 0.000000 0.000000 0.000000 0.000000 0.000000 0.091525
#
#
# Mechanical properties :
#
#
# Convention : Reuss Voigt Hill
#
# Bulk Modulus (GPa) = 17.04506 18.46991 17.75748
# Shear Modulus (GPa) = 15.74627 21.16424 18.45525
#
# Velocity S-wave (km/s) = 2.72326 3.15720 2.94822
# Velocity P-wave (km/s) = 4.23274 4.68929 4.46685
#
# Compressibility (1/GPa) = 0.05866804
#
# Stress axis : x y z
#
# Youngs Moduli (GPa) = 87.60914 46.15927 53.44162
#
# Poissons Ratio (x) = 0.01900 -0.11543
# Poissons Ratio (y) = 0.03607 -0.09035
# Poissons Ratio (z) = -0.18923 -0.07804
#
# Static dielectric constant tensor:
#      x y z
#    x 1.769490 0.000000 0.000000 
#    y 0.000000 1.751290 0.000000 
#    z 0.000000 0.000000 1.813910 
# 
# From -- ./inp_files/8202.got.cif
#   From: 2010.05.17/outbox.cif.g08.bks.cpg/sg55_5_cif.got.tgz:8202.got - 2010.06.03 13:27:54.
