data_PCOD9426667
_publ_section_title
;
Structure prediction by ZEFSAII (Michael W. Deem and Ramdas Pophale) SiO2 
 PCOD9426667
Probable space group: P B A M
;
_chemical_formula_sum "Si O2"
_cell_formula_units_Z 58
_cell_length_a 13.821442
_cell_length_b 25.507650
_cell_length_c 9.342587
_cell_angle_alpha 90.000000
_cell_angle_beta 90.000000
_cell_angle_gamma 90.000000
_cell_volume 3293.752450
_symmetry_space_group_name_H-M "P B A M"
_symmetry_group_IT_number 55
_symmetry_cell_setting 'orthorhombic'
loop_
_space_group_symop_operation_xyz
x,y,z
-x,-y,z
1/2+x,1/2-y,-z
1/2-x,1/2+y,-z
-x,-y,-z
x,y,-z
1/2-x,1/2+y,z
1/2+x,1/2-y,z
loop_
_atom_site_type_symbol
_atom_site_label
_atom_site_fract_x
_atom_site_fract_y
_atom_site_fract_z
Si Si1 0.169267 0.052605 0.331179
Si Si2 0.271636 0.450848 0.830055
Si Si3 0.598432 0.094949 0.342193
Si Si4 0.965923 0.306019 0.671495
Si Si5 0.500000 0.000000 0.500000
Si Si6 0.744214 0.329910 0.331260
Si Si7 0.014315 0.908301 0.168386
Si Si8 0.939724 0.791321 0.830553
O O1 0.163640 0.041268 0.500000
O O2 0.223481 0.108128 0.312629
O O3 0.063186 0.060230 0.262789
O O4 0.224414 0.006406 0.250654
O O5 0.183919 0.417522 0.766235
O O6 0.375748 0.424000 0.801509
O O7 0.262300 0.457742 0.000000
O O8 0.640982 0.109237 0.500000
O O9 0.529470 0.142404 0.296439
O O10 0.536093 0.042875 0.377510
O O11 0.971798 0.297549 0.500000
O O12 0.853949 0.316566 0.706467
O O13 0.006425 0.256133 0.754071
O O14 0.728846 0.318438 0.500000
O O15 0.666024 0.299219 0.237864
O O16 0.994849 0.846699 0.193158
O O17 0.994648 0.919254 0.000000
O O18 0.933211 0.782722 0.000000
#
# Coordination Sequence:
#
# PCOD9426667 Si02
#       8
#     8   8   8   8   2   8   8   8
#     4  10  20  33  57  85 113 146 193 237 280 335
#     4  11  22  35  54  83 117 152 186 231 284 335
#     4   9  21  37  61  81 108 145 183 226 278 333
#     4  10  21  38  60  85 110 143 184 232 280 327
#     4   8  20  40  66  76 110 152 182 232 282 328
#     4   9  20  37  60  83 108 147 191 237 281 332
#     4   9  20  38  54  75 114 155 188 228 281 332
#     4  10  21  38  58  81 114 150 186 229 279 335
#
# _framework density 17.609096000000001
#
# number of rings (size 3 to 8) (size 9 to 14) (size 15 to 20)
#    0.414    1.931    0.000    1.655    1.931    6.069 
#    0.000    3.103    0.000    0.000    0.000    0.000 
#    0.000    0.000    0.000    0.000    0.000    0.000 
#
# Total GULP energy -323048.236023 kJ/mol
# GULP energy per Si atom -5569.797173 kJ/mol
# Density = 1.756902 g / cm^3
# Si number density = 17.609096 Si / 1000 Ang^3
#
#
#
# Elastic Constant Matrix: (Units=GPa)
#
#
# Indices 1 2 3 4 5 6 
#
# 1 100.2108 55.8900 64.1218 0.0000 0.0000 0.0000
# 2 55.8900 66.7497 50.8722 0.0000 0.0000 0.0000
# 3 64.1218 50.8722 65.3338 0.0000 0.0000 0.0000
# 4 0.0000 0.0000 0.0000 19.8694 0.0000 0.0000
# 5 0.0000 0.0000 0.0000 0.0000 10.3399 0.0000
# 6 0.0000 0.0000 0.0000 0.0000 0.0000 24.5424
#
#
#
# Elastic Compliance Matrix: (Units=1/GPa)
#
#
# Indices 1 2 3 4 5 6 
#
# 1 0.027802 -0.006107 -0.022530 0.000000 0.000000 0.000000
# 2 -0.006107 0.038190 -0.023743 0.000000 0.000000 0.000000
# 3 -0.022530 -0.023743 0.055906 0.000000 0.000000 0.000000
# 4 0.000000 0.000000 0.000000 0.050329 0.000000 0.000000
# 5 0.000000 0.000000 0.000000 0.000000 0.096712 0.000000
# 6 0.000000 0.000000 0.000000 0.000000 0.000000 0.040746
#
#
# Mechanical properties :
#
#
# Convention : Reuss Voigt Hill
#
# Bulk Modulus (GPa) = 58.35468 63.78469 61.06968
# Shear Modulus (GPa) = 11.90028 15.04436 13.47232
#
# Velocity S-wave (km/s) = 2.60244 2.92610 2.76900
# Velocity P-wave (km/s) = 6.49932 6.90777 6.70666
#
# Compressibility (1/GPa) = 0.01713659
#
# Stress axis : x y z
#
# Youngs Moduli (GPa) = 35.96895 26.18468 17.88722
#
# Poissons Ratio (x) = 0.15992 0.40301
# Poissons Ratio (y) = 0.21968 0.42469
# Poissons Ratio (z) = 0.81040 0.62170
#
# Static dielectric constant tensor:
#      x y z
#    x 1.582160 0.000000 0.000000 
#    y 0.000000 1.586340 0.000000 
#    z 0.000000 0.000000 1.588770 
# 
# From -- ./inp_files/4303.got.cif
#   From: 2010.05.17/outbox.cif.g08.bks.cpg/sg55_3_cif.got.tgz:4303.got - 2010.06.03 13:27:54.
