data_PCOD9426215
_publ_section_title
;
Structure prediction by ZEFSAII (Michael W. Deem and Ramdas Pophale) SiO2 
 PCOD9426215
Probable space group: P B A M
;
_chemical_formula_sum "Si O2"
_cell_formula_units_Z 32
_cell_length_a 5.106950
_cell_length_b 10.911262
_cell_length_c 22.673328
_cell_angle_alpha 90.000000
_cell_angle_beta 90.000000
_cell_angle_gamma 90.000000
_cell_volume 1263.431966
_symmetry_space_group_name_H-M "P B A M"
_symmetry_group_IT_number 55
_symmetry_cell_setting 'orthorhombic'
loop_
_space_group_symop_operation_xyz
x,y,z
-x,-y,z
1/2+x,1/2-y,-z
1/2-x,1/2+y,-z
-x,-y,-z
x,y,-z
1/2-x,1/2+y,z
1/2+x,1/2-y,z
loop_
_atom_site_type_symbol
_atom_site_label
_atom_site_fract_x
_atom_site_fract_y
_atom_site_fract_z
Si Si1 0.000000 0.000000 0.849613
Si Si2 0.242099 0.074160 0.259264
Si Si3 0.612564 0.819451 0.382256
Si Si4 0.678710 0.167967 0.931649
Si Si5 0.230732 0.162816 0.500000
O O1 0.890919 0.895593 0.803701
O O2 0.221128 0.938961 0.889337
O O3 0.340970 0.152182 0.313744
O O4 0.500000 0.000000 0.241708
O O5 0.000000 0.000000 0.287491
O O6 0.806569 0.703445 0.389473
O O7 0.716968 0.901509 0.437005
O O8 0.889372 0.278266 0.923155
O O9 0.702608 0.128177 0.000000
O O10 0.952150 0.229446 0.500000
#
# Coordination Sequence:
#
# PCOD9426215 Si02
#       5
#     4   8   8   8   4
#     4  10  25  40  64  83 130 156 194 244 294 341
#     4  10  23  38  51  81 116 148 187 229 286 348
#     4  10  19  35  58  79 107 145 192 242 287 345
#     4  10  23  41  64  93 119 153 201 242 291 350
#     4   8  16  30  52  80 102 136 186 238 294 339
#
# _framework density 25.327839000000001
#
# number of rings (size 3 to 8) (size 9 to 14) (size 15 to 20)
#    0.750    1.500    0.000    1.875    3.500    2.000 
#    0.000    5.000    0.000    0.000    0.000    0.000 
#    0.000    0.000    0.000    0.000    0.000    0.000 
#
# Total GULP energy -178250.216008 kJ/mol
# GULP energy per Si atom -5570.319250 kJ/mol
# Density = 2.527019 g / cm^3
# Si number density = 25.327839 Si / 1000 Ang^3
#
#
#
# Elastic Constant Matrix: (Units=GPa)
#
#
# Indices 1 2 3 4 5 6 
#
# 1 123.9206 14.7252 6.0072 0.0000 0.0000 0.0000
# 2 14.7252 27.5004 31.2935 0.0000 0.0000 0.0000
# 3 6.0072 31.2935 189.6984 0.0000 0.0000 0.0000
# 4 0.0000 0.0000 0.0000 59.4208 0.0000 0.0000
# 5 0.0000 0.0000 0.0000 0.0000 32.9877 0.0000
# 6 0.0000 0.0000 0.0000 0.0000 0.0000 31.6289
#
#
#
# Elastic Compliance Matrix: (Units=1/GPa)
#
#
# Indices 1 2 3 4 5 6 
#
# 1 0.008674 -0.005333 0.000605 0.000000 0.000000 0.000000
# 2 -0.005333 0.048046 -0.007757 0.000000 0.000000 0.000000
# 3 0.000605 -0.007757 0.006532 0.000000 0.000000 0.000000
# 4 0.000000 0.000000 0.000000 0.016829 0.000000 0.000000
# 5 0.000000 0.000000 0.000000 0.000000 0.030314 0.000000
# 6 0.000000 0.000000 0.000000 0.000000 0.000000 0.031617
#
#
# Mechanical properties :
#
#
# Convention : Reuss Voigt Hill
#
# Bulk Modulus (GPa) = 26.12210 49.46348 37.79279
# Shear Modulus (GPa) = 27.81758 44.08037 35.94898
#
# Velocity S-wave (km/s) = 3.31766 4.17633 3.77151
# Velocity P-wave (km/s) = 5.00118 6.54426 5.82405
#
# Compressibility (1/GPa) = 0.03828176
#
# Stress axis : x y z
#
# Youngs Moduli (GPa) = 115.28606 20.81352 153.09280
#
# Poissons Ratio (x) = 0.11100 -0.09264
# Poissons Ratio (y) = 0.61484 1.18753
# Poissons Ratio (z) = -0.06976 0.16145
#
# Static dielectric constant tensor:
#      x y z
#    x 1.927280 0.000000 0.000000 
#    y 0.000000 2.161600 0.000000 
#    z 0.000000 0.000000 2.082840 
# 
# From -- ./inp_files/20298.got.cif
#   From: 2010.05.17/outbox.cif.g08.bks.cpg/sg55_11_cif.got.tgz:20298.got - 2010.06.03 13:27:54.
