data_PCOD9426992
_publ_section_title
;
Structure prediction by ZEFSAII (Michael W. Deem and Ramdas Pophale) SiO2 
 PCOD9426992
Probable space group: P B A M
;
_chemical_formula_sum "Si O2"
_cell_formula_units_Z 40
_cell_length_a 10.958575
_cell_length_b 20.408793
_cell_length_c 7.392539
_cell_angle_alpha 90.000000
_cell_angle_beta 90.000000
_cell_angle_gamma 90.000000
_cell_volume 1653.350874
_symmetry_space_group_name_H-M "P B A M"
_symmetry_group_IT_number 55
_symmetry_cell_setting 'orthorhombic'
loop_
_space_group_symop_operation_xyz
x,y,z
-x,-y,z
1/2+x,1/2-y,-z
1/2-x,1/2+y,-z
-x,-y,-z
x,y,-z
1/2-x,1/2+y,z
1/2+x,1/2-y,z
loop_
_atom_site_type_symbol
_atom_site_label
_atom_site_fract_x
_atom_site_fract_y
_atom_site_fract_z
Si Si1 0.443759 0.068802 0.718553
Si Si2 0.032152 0.292097 0.787742
Si Si3 0.208031 0.771099 0.791868
Si Si4 0.170045 0.054880 0.280285
Si Si5 0.093834 0.907875 0.281094
O O1 0.441903 0.067502 0.500000
O O2 0.525896 0.129767 0.774256
O O3 0.303435 0.077228 0.780977
O O4 0.500000 0.000000 0.779651
O O5 0.157938 0.264728 0.709276
O O6 0.906476 0.265702 0.706107
O O7 0.031504 0.274402 0.000000
O O8 0.170295 0.847287 0.789941
O O9 0.217103 0.748758 0.000000
O O10 0.170208 0.056841 0.500000
O O11 0.048549 0.093734 0.222956
O O12 0.147377 0.978817 0.229843
O O13 0.097025 0.904820 0.500000
#
# Coordination Sequence:
#
# PCOD9426992 Si02
#       5
#     8   8   8   8   8
#     4  10  20  35  57  84 113 142 180 228 275 322
#     4  10  23  40  57  79 110 148 184 224 274 325
#     4  10  22  39  56  77 109 144 182 226 271 318
#     4   8  16  31  53  83 114 141 173 220 273 321
#     4   9  17  33  57  81 109 144 179 218 269 323
#
# _framework density 24.193292
#
# number of rings (size 3 to 8) (size 9 to 14) (size 15 to 20)
#    0.000    2.600    0.000    2.400    2.800    3.600 
#    0.000    3.000    0.000    0.000    0.000    0.000 
#    0.000    0.000    0.000    0.000    0.000    0.000 
#
# Total GULP energy -223625.683983 kJ/mol
# GULP energy per Si atom -5590.642100 kJ/mol
# Density = 2.413823 g / cm^3
# Si number density = 24.193292 Si / 1000 Ang^3
#
#
#
# Elastic Constant Matrix: (Units=GPa)
#
#
# Indices 1 2 3 4 5 6 
#
# 1 201.1688 43.1356 12.7316 0.0000 0.0000 0.0000
# 2 43.1356 52.3131 -7.6642 0.0000 0.0000 0.0000
# 3 12.7316 -7.6642 89.5809 0.0000 0.0000 0.0000
# 4 0.0000 0.0000 0.0000 18.9059 0.0000 0.0000
# 5 0.0000 0.0000 0.0000 0.0000 53.2545 0.0000
# 6 0.0000 0.0000 0.0000 0.0000 0.0000 31.9877
#
#
#
# Elastic Compliance Matrix: (Units=1/GPa)
#
#
# Indices 1 2 3 4 5 6 
#
# 1 0.006192 -0.005301 -0.001334 0.000000 0.000000 0.000000
# 2 -0.005301 0.023897 0.002798 0.000000 0.000000 0.000000
# 3 -0.001334 0.002798 0.011592 0.000000 0.000000 0.000000
# 4 0.000000 0.000000 0.000000 0.052893 0.000000 0.000000
# 5 0.000000 0.000000 0.000000 0.000000 0.018778 0.000000
# 6 0.000000 0.000000 0.000000 0.000000 0.000000 0.031262
#
#
# Mechanical properties :
#
#
# Convention : Reuss Voigt Hill
#
# Bulk Modulus (GPa) = 29.40556 48.82987 39.11772
# Shear Modulus (GPa) = 30.55799 40.48694 35.52246
#
# Velocity S-wave (km/s) = 3.55784 4.09525 3.83597
# Velocity P-wave (km/s) = 5.39058 6.52599 5.98527
#
# Compressibility (1/GPa) = 0.03400717
#
# Stress axis : x y z
#
# Youngs Moduli (GPa) = 161.49759 41.84678 86.26639
#
# Poissons Ratio (x) = 0.22183 0.11504
# Poissons Ratio (y) = 0.85612 -0.24137
# Poissons Ratio (z) = 0.21537 -0.11708
#
# Static dielectric constant tensor:
#      x y z
#    x 1.959060 0.000000 0.000000 
#    y 0.000000 1.877460 0.000000 
#    z 0.000000 0.000000 1.926810 
# 
# From -- ./inp_files/3854.got.cif
#   From: 2010.05.17/outbox.cif.g08.bks.cpg/sg55_2_cif.got.tgz:3854.got - 2010.06.03 13:27:54.
