data_PCOD9426698
_publ_section_title
;
Structure prediction by ZEFSAII (Michael W. Deem and Ramdas Pophale) SiO2 
 PCOD9426698
Probable space group: P B A M
;
_chemical_formula_sum "Si O2"
_cell_formula_units_Z 56
_cell_length_a 13.273404
_cell_length_b 16.504293
_cell_length_c 14.703892
_cell_angle_alpha 90.000000
_cell_angle_beta 90.000000
_cell_angle_gamma 90.000000
_cell_volume 3221.154399
_symmetry_space_group_name_H-M "P B A M"
_symmetry_group_IT_number 55
_symmetry_cell_setting 'orthorhombic'
loop_
_space_group_symop_operation_xyz
x,y,z
-x,-y,z
1/2+x,1/2-y,-z
1/2-x,1/2+y,-z
-x,-y,-z
x,y,-z
1/2-x,1/2+y,z
1/2+x,1/2-y,z
loop_
_atom_site_type_symbol
_atom_site_label
_atom_site_fract_x
_atom_site_fract_y
_atom_site_fract_z
Si Si1 0.852314 0.844660 0.750000
Si Si2 0.226815 0.972395 0.750000
Si Si3 0.613851 0.982880 0.606030
Si Si4 0.088961 0.815578 0.250000
Si Si5 0.886150 0.482880 0.893969
Si Si6 0.809021 0.299139 0.893438
Si Si7 0.690979 0.799139 0.606562
O O1 0.795574 0.807807 0.838127
O O2 0.795574 0.807807 0.661873
O O3 0.969832 0.827712 0.750000
O O4 0.829122 0.940794 0.750000
O O5 0.148172 0.900190 0.750000
O O6 0.302138 0.971200 0.664083
O O7 0.302138 0.971199 0.835918
O O8 0.620830 0.005092 0.500000
O O9 0.638271 0.887375 0.614787
O O10 0.500000 0.000000 0.636931
O O11 0.124670 0.765119 0.161714
O O12 0.124670 0.765119 0.338286
O O13 0.861729 0.387376 0.885212
O O14 0.000000 0.500000 0.863068
O O15 0.879172 0.505092 0.000000
O O16 0.796484 0.280760 0.000000
O O17 0.703516 0.780759 0.500000
#
# Coordination Sequence:
#
# PCOD9426698 Si02
#       7
#     8   8   8   8   8   8   8
#     4   9  20  38  55  74 105 143 175 211 261 310
#     4  10  20  34  52  75 107 140 177 213 248 306
#     4   9  18  34  56  78 101 134 175 218 262 305
#     4  11  22  34  54  81 106 139 178 214 258 314
#     4   9  18  34  56  78 101 134 175 218 262 305
#     4   9  20  37  54  77 108 136 170 219 268 311
#     4   9  20  37  54  77 108 136 170 219 268 311
#
# _framework density 17.385071
#
# number of rings (size 3 to 8) (size 9 to 14) (size 15 to 20)
#    0.000    2.571    0.000    1.714    0.000    6.857 
#    0.000    2.857    0.000    8.571    0.000    0.000 
#    0.000    0.000    0.000    0.000    0.000    0.000 
#
# Total GULP energy -312432.261386 kJ/mol
# GULP energy per Si atom -5579.147525 kJ/mol
# Density = 1.734550 g / cm^3
# Si number density = 17.385071 Si / 1000 Ang^3
#
#
#
# Elastic Constant Matrix: (Units=GPa)
#
#
# Indices 1 2 3 4 5 6 
#
# 1 199.0407 66.8273 89.5519 0.0000 0.0000 0.0000
# 2 66.8273 36.1957 52.5483 0.0000 0.0000 0.0000
# 3 89.5519 52.5483 149.1459 0.0000 0.0000 0.0000
# 4 0.0000 0.0000 0.0000 -4.0977 0.0000 0.0000
# 5 0.0000 0.0000 0.0000 0.0000 10.8646 0.0000
# 6 0.0000 0.0000 0.0000 0.0000 0.0000 15.9344
#
#
#
# Elastic Compliance Matrix: (Units=1/GPa)
#
#
# Indices 1 2 3 4 5 6 
#
# 1 0.013352 -0.026639 0.001368 0.000000 0.000000 0.000000
# 2 -0.026639 0.109703 -0.022657 0.000000 0.000000 0.000000
# 3 0.001368 -0.022657 0.013866 0.000000 0.000000 0.000000
# 4 0.000000 0.000000 0.000000 -0.244039 0.000000 0.000000
# 5 0.000000 0.000000 0.000000 0.000000 0.092042 0.000000
# 6 0.000000 0.000000 0.000000 0.000000 0.000000 0.062757
#
#
# Mechanical properties :
#
#
# Convention : Reuss Voigt Hill
#
# Bulk Modulus (GPa) = 24.35052 89.13748 56.74400
# Shear Modulus (GPa) = 31.80175 16.23724 24.01950
#
# Velocity S-wave (km/s) = 4.28162 3.05942 3.72104
# Velocity P-wave (km/s) = 6.20323 7.99148 7.15345
#
# Compressibility (1/GPa) = 0.04106689
#
# Stress axis : x y z
#
# Youngs Moduli (GPa) = 74.89354 9.11556 72.12021
#
# Poissons Ratio (x) = 0.24283 -0.09869
# Poissons Ratio (y) = 1.99507 1.63400
# Poissons Ratio (z) = -0.10249 0.20653
#
# Static dielectric constant tensor:
#      x y z
#    x 1.552850 0.000000 0.000000 
#    y 0.000000 1.581230 0.000000 
#    z 0.000000 0.000000 1.596760 
# 
# From -- ./inp_files/18361.got.cif
#   From: 2010.05.17/outbox.cif.g08.bks.cpg/sg55_10_cif.got.tgz:18361.got - 2010.06.03 13:27:54.
