data_PCOD9426049
_publ_section_title
;
Structure prediction by ZEFSAII (Michael W. Deem and Ramdas Pophale) SiO2 
 PCOD9426049
Probable space group: P B A M
;
_chemical_formula_sum "Si O2"
_cell_formula_units_Z 64
_cell_length_a 19.152606
_cell_length_b 17.701016
_cell_length_c 7.576931
_cell_angle_alpha 90.000000
_cell_angle_beta 90.000000
_cell_angle_gamma 90.000000
_cell_volume 2568.735582
_symmetry_space_group_name_H-M "P B A M"
_symmetry_group_IT_number 55
_symmetry_cell_setting 'orthorhombic'
loop_
_space_group_symop_operation_xyz
x,y,z
-x,-y,z
1/2+x,1/2-y,-z
1/2-x,1/2+y,-z
-x,-y,-z
x,y,-z
1/2-x,1/2+y,z
1/2+x,1/2-y,z
loop_
_atom_site_type_symbol
_atom_site_label
_atom_site_fract_x
_atom_site_fract_y
_atom_site_fract_z
Si Si1 0.111176 0.015458 0.792678
Si Si2 0.768594 0.084084 0.800282
Si Si3 0.998871 0.122174 0.205820
Si Si4 0.126685 0.508809 0.199209
Si Si5 0.295219 0.151344 0.801711
Si Si6 0.942382 0.636239 0.786625
Si Si7 0.194192 0.271680 0.217306
Si Si8 0.577373 0.773078 0.303833
O O1 0.180131 0.977212 0.715296
O O2 0.055538 0.946960 0.786601
O O3 0.124456 0.033213 0.000000
O O4 0.071200 0.088616 0.719281
O O5 0.693793 0.045434 0.817336
O O6 0.749732 0.164677 0.719851
O O7 0.796449 0.098073 0.000000
O O8 0.962260 0.193995 0.287005
O O9 0.010841 0.141366 0.000000
O O10 0.161226 0.582810 0.284211
O O11 0.072519 0.448975 0.279166
O O12 0.101704 0.530250 0.000000
O O13 0.225753 0.190794 0.727711
O O14 0.354961 0.215289 0.814383
O O15 0.276935 0.123971 0.000000
O O16 0.882230 0.696921 0.730477
O O17 0.017913 0.665340 0.734491
O O18 0.938425 0.633208 0.000000
O O19 0.194887 0.271367 0.000000
O O20 0.604610 0.780541 0.500000
#
# Coordination Sequence:
#
# PCOD9426049 Si02
#       8
#     8   8   8   8   8   8   8   8
#     4   8  14  25  48  79 107 131 160 200 252 307
#     4   8  12  22  42  74 108 128 148 196 257 312
#     4   9  17  31  50  75 103 134 170 209 251 302
#     4   8  16  29  49  76 101 124 163 215 265 309
#     4  10  19  34  56  81 104 132 171 218 264 310
#     4   9  18  36  57  78 104 136 171 214 264 315
#     4   8  15  28  53  83 106 129 164 208 260 314
#     4  12  25  37  49  72 104 143 184 220 257 304
#
# _framework density 24.914981999999998
#
# number of rings (size 3 to 8) (size 9 to 14) (size 15 to 20)
#    0.000    3.000    0.000    4.125    0.000    3.500 
#    0.000    8.750    0.000    0.000    0.000    1.750 
#    0.000    0.000    0.000    0.000    0.000    0.000 
#
# Total GULP energy -356926.163577 kJ/mol
# GULP energy per Si atom -5576.971306 kJ/mol
# Density = 2.485827 g / cm^3
# Si number density = 24.914982 Si / 1000 Ang^3
#
#
#
# Elastic Constant Matrix: (Units=GPa)
#
#
# Indices 1 2 3 4 5 6 
#
# 1 86.5689 12.7572 -3.1732 0.0000 0.0000 0.0000
# 2 12.7572 82.9700 6.0731 0.0000 0.0000 0.0000
# 3 -3.1732 6.0731 66.2738 0.0000 0.0000 0.0000
# 4 0.0000 0.0000 0.0000********** 0.0000 0.0000
# 5 0.0000 0.0000 0.0000 0.0000-1169.4102 0.0000
# 6 0.0000 0.0000 0.0000 0.0000 0.0000 34.3808
#
#
#
# Elastic Compliance Matrix: (Units=1/GPa)
#
#
# Indices 1 2 3 4 5 6 
#
# 1 0.011855 -0.001877 0.000740 0.000000 0.000000 0.000000
# 2 -0.001877 0.012431 -0.001229 0.000000 0.000000 0.000000
# 3 0.000740 -0.001229 0.015237 0.000000 0.000000 0.000000
# 4 0.000000 0.000000 0.000000 -0.000048 0.000000 0.000000
# 5 0.000000 0.000000 0.000000 0.000000 -0.000855 0.000000
# 6 0.000000 0.000000 0.000000 0.000000 0.000000 0.029086
#
#
# Mechanical properties :
#
#
# Convention : Reuss Voigt Hill
#
# Bulk Modulus (GPa) = 28.74341 29.68076 29.21209
# Shear Modulus (GPa) = 59.49861 -4368.55845 -2154.52992
#
# Velocity S-wave (km/s) = 4.89209 -41.91888 -29.43858
# Velocity P-wave (km/s) = 6.59330 48.28027 33.81947
#
# Compressibility (1/GPa) = 0.03479058
#
# Stress axis : x y z
#
# Youngs Moduli (GPa) = 84.35118 80.44341 65.62989
#
# Poissons Ratio (x) = 0.15099 -0.04854
# Poissons Ratio (y) = 0.15832 0.08066
# Poissons Ratio (z) = -0.06239 0.09887
#
# Static dielectric constant tensor:
#      x y z
#    x 1.920970 0.000000 0.000000 
#    y 0.000000 2.029450 0.000000 
#    z 0.000000 0.000000 1.996350 
# 
# From -- ./inp_files/8974.got.cif
#   From: 2010.05.17/outbox.cif.g08.bks.cpg/sg55_5_cif.got.tgz:8974.got - 2010.06.03 13:27:54.
