data_PCOD9426178
_publ_section_title
;
Structure prediction by ZEFSAII (Michael W. Deem and Ramdas Pophale) SiO2 
 PCOD9426178
Probable space group: P B A M
;
_chemical_formula_sum "Si O2"
_cell_formula_units_Z 64
_cell_length_a 9.891575
_cell_length_b 30.561306
_cell_length_c 11.425645
_cell_angle_alpha 90.000000
_cell_angle_beta 90.000000
_cell_angle_gamma 90.000000
_cell_volume 3453.966204
_symmetry_space_group_name_H-M "P B A M"
_symmetry_group_IT_number 55
_symmetry_cell_setting 'orthorhombic'
loop_
_space_group_symop_operation_xyz
x,y,z
-x,-y,z
1/2+x,1/2-y,-z
1/2-x,1/2+y,-z
-x,-y,-z
x,y,-z
1/2-x,1/2+y,z
1/2+x,1/2-y,z
loop_
_atom_site_type_symbol
_atom_site_label
_atom_site_fract_x
_atom_site_fract_y
_atom_site_fract_z
Si Si1 0.220186 0.564949 0.630592
Si Si2 0.634193 0.305074 0.867191
Si Si3 0.972300 0.881460 0.293183
Si Si4 0.066180 0.404340 0.365361
Si Si5 0.725272 0.671939 0.365893
Si Si6 0.424811 0.457328 0.869582
Si Si7 0.340105 0.269982 0.136764
Si Si8 0.643577 0.014558 0.201768
O O1 0.206040 0.546209 0.500000
O O2 0.361566 0.589533 0.641480
O O3 0.198463 0.526505 0.723385
O O4 0.095568 0.598606 0.647681
O O5 0.607706 0.344367 0.778938
O O6 0.769432 0.277024 0.850190
O O7 0.502978 0.273079 0.857019
O O8 0.633887 0.322342 0.000000
O O9 0.088596 0.857195 0.365383
O O10 0.048259 0.914623 0.205856
O O11 0.094951 0.415963 0.500000
O O12 0.148675 0.360313 0.342795
O O13 0.111708 0.444744 0.286503
O O14 0.739510 0.690568 0.500000
O O15 0.710704 0.702438 0.250207
O O16 0.500000 0.500000 0.818640
O O17 0.267512 0.469215 0.874799
O O18 0.479925 0.450347 0.000000
O O19 0.306449 0.284505 0.000000
O O20 0.500000 0.000000 0.147665
#
# Coordination Sequence:
#
# PCOD9426178 Si02
#       8
#     8   8   8   8   8   8   8   8
#     4  10  20  33  51  76 108 145 187 229 275 328
#     4   9  19  36  59  81 105 140 181 227 274 333
#     4  11  20  35  55  82 112 145 184 231 281 334
#     4   9  18  33  52  76 108 143 181 229 276 323
#     4  10  20  35  56  83 114 143 181 229 284 339
#     4  11  22  36  53  77 111 150 192 237 286 332
#     4   9  19  37  59  82 108 140 181 224 275 338
#     4  10  19  35  54  75 105 147 191 229 271 326
#
# _framework density 18.529423000000001
#
# number of rings (size 3 to 8) (size 9 to 14) (size 15 to 20)
#    0.000    2.125    2.500    1.125    0.000    3.250 
#    0.000    3.750    0.000    0.750    0.000    0.000 
#    0.000    0.000    0.000    0.000    0.000    0.000 
#
# Total GULP energy -356374.729523 kJ/mol
# GULP energy per Si atom -5568.355149 kJ/mol
# Density = 1.848725 g / cm^3
# Si number density = 18.529423 Si / 1000 Ang^3
#
#
#
# Elastic Constant Matrix: (Units=GPa)
#
#
# Indices 1 2 3 4 5 6 
#
# 1 55.7826 6.3166 6.4295 0.0000 0.0000 0.0000
# 2 6.3166 37.8610 23.2525 0.0000 0.0000 0.0000
# 3 6.4295 23.2525 66.0666 0.0000 0.0000 0.0000
# 4 0.0000 0.0000 0.0000 23.4058 0.0000 0.0000
# 5 0.0000 0.0000 0.0000 0.0000 32.8866 0.0000
# 6 0.0000 0.0000 0.0000 0.0000 0.0000 31.0913
#
#
#
# Elastic Compliance Matrix: (Units=1/GPa)
#
#
# Indices 1 2 3 4 5 6 
#
# 1 0.018314 -0.002502 -0.000902 0.000000 0.000000 0.000000
# 2 -0.002502 0.034038 -0.011736 0.000000 0.000000 0.000000
# 3 -0.000902 -0.011736 0.019355 0.000000 0.000000 0.000000
# 4 0.000000 0.000000 0.000000 0.042725 0.000000 0.000000
# 5 0.000000 0.000000 0.000000 0.000000 0.030408 0.000000
# 6 0.000000 0.000000 0.000000 0.000000 0.000000 0.032163
#
#
# Mechanical properties :
#
#
# Convention : Reuss Voigt Hill
#
# Bulk Modulus (GPa) = 24.13895 25.74529 24.94212
# Shear Modulus (GPa) = 22.61521 25.72417 24.16969
#
# Velocity S-wave (km/s) = 3.49736 3.73002 3.61556
# Velocity P-wave (km/s) = 5.41889 5.69869 5.56055
#
# Compressibility (1/GPa) = 0.04142683
#
# Stress axis : x y z
#
# Youngs Moduli (GPa) = 54.60313 29.37921 51.66713
#
# Poissons Ratio (x) = 0.07349 0.04660
# Poissons Ratio (y) = 0.13659 0.60638
# Poissons Ratio (z) = 0.04924 0.34480
#
# Static dielectric constant tensor:
#      x y z
#    x 1.654440 0.000000 0.000000 
#    y 0.000000 1.612830 0.000000 
#    z 0.000000 0.000000 1.292520 
# 
# From -- ./inp_files/12594.got.cif
#   From: 2010.05.17/outbox.cif.g08.bks.cpg/sg55_7_cif.got.tgz:12594.got - 2010.06.03 13:27:54.
