data_PCOD9426567
_publ_section_title
;
Structure prediction by ZEFSAII (Michael W. Deem and Ramdas Pophale) SiO2 
 PCOD9426567
Probable space group: P B A M
;
_chemical_formula_sum "Si O2"
_cell_formula_units_Z 56
_cell_length_a 18.409658
_cell_length_b 19.418507
_cell_length_c 9.089563
_cell_angle_alpha 90.000000
_cell_angle_beta 90.000000
_cell_angle_gamma 90.000000
_cell_volume 3249.410359
_symmetry_space_group_name_H-M "P B A M"
_symmetry_group_IT_number 55
_symmetry_cell_setting 'orthorhombic'
loop_
_space_group_symop_operation_xyz
x,y,z
-x,-y,z
1/2+x,1/2-y,-z
1/2-x,1/2+y,-z
-x,-y,-z
x,y,-z
1/2-x,1/2+y,z
1/2+x,1/2-y,z
loop_
_atom_site_type_symbol
_atom_site_label
_atom_site_fract_x
_atom_site_fract_y
_atom_site_fract_z
Si Si1 0.512149 0.780167 0.169609
Si Si2 0.622086 0.396910 0.672937
Si Si3 0.658963 0.261652 0.830430
Si Si4 0.967856 0.572861 0.820327
Si Si5 0.952979 0.144037 0.673117
Si Si6 0.341276 0.459539 0.823361
Si Si7 0.193424 0.386486 0.179035
O O1 0.426087 0.761137 0.168431
O O2 0.513602 0.859197 0.222955
O O3 0.550227 0.721884 0.265800
O O4 0.537457 0.776364 0.000000
O O5 0.635036 0.405600 0.500000
O O6 0.663612 0.330067 0.734887
O O7 0.536047 0.381876 0.693548
O O8 0.643412 0.465354 0.758994
O O9 0.699950 0.193480 0.774689
O O10 0.679384 0.276011 0.000000
O O11 0.884383 0.583666 0.772591
O O12 0.000000 0.500000 0.772017
O O13 0.967905 0.573584 0.000000
O O14 0.936807 0.141792 0.500000
O O15 0.900137 0.093812 0.760939
O O16 0.261833 0.431980 0.778152
O O17 0.345113 0.461177 0.000000
O O18 0.191158 0.384334 0.000000
#
# Coordination Sequence:
#
# PCOD9426567 Si02
#       7
#     8   8   8   8   8   8   8
#     4   8  14  26  47  73  95 117 151 192 233 282
#     4  10  20  33  49  71  97 125 161 202 242 285
#     4   8  14  29  51  69  88 117 154 193 230 275
#     4   8  13  25  49  77 100 122 153 197 243 284
#     4  10  20  33  48  67  95 129 164 204 245 286
#     4  11  21  32  48  70  99 132 163 199 243 289
#     4   8  16  30  47  70  97 124 157 196 237 281
#
# _framework density 17.233896000000001
#
# number of rings (size 3 to 8) (size 9 to 14) (size 15 to 20)
#    0.000    3.000    0.000    3.429    0.000    3.429 
#    0.000    2.857    0.000    7.286    0.000    0.000 
#    0.000    0.000    0.000    0.000    0.000    0.000 
#
# Total GULP energy -311999.476389 kJ/mol
# GULP energy per Si atom -5571.419221 kJ/mol
# Density = 1.719467 g / cm^3
# Si number density = 17.233896 Si / 1000 Ang^3
#
#
#
# Elastic Constant Matrix: (Units=GPa)
#
#
# Indices 1 2 3 4 5 6 
#
# 1 43.0515 57.9284 37.6009 0.0000 0.0000 0.0000
# 2 57.9284 185.7477 63.2647 0.0000 0.0000 0.0000
# 3 37.6009 63.2647 52.9389 0.0000 0.0000 0.0000
# 4 0.0000 0.0000 0.0000 -7.1164 0.0000 0.0000
# 5 0.0000 0.0000 0.0000 0.0000 10.2566 0.0000
# 6 0.0000 0.0000 0.0000 0.0000 0.0000 12.4133
#
#
#
# Elastic Compliance Matrix: (Units=1/GPa)
#
#
# Indices 1 2 3 4 5 6 
#
# 1 0.067513 -0.007964 -0.038435 0.000000 0.000000 0.000000
# 2 -0.007964 0.010019 -0.006316 0.000000 0.000000 0.000000
# 3 -0.038435 -0.006316 0.053737 0.000000 0.000000 0.000000
# 4 0.000000 0.000000 0.000000 -0.140520 0.000000 0.000000
# 5 0.000000 0.000000 0.000000 0.000000 0.097498 0.000000
# 6 0.000000 0.000000 0.000000 0.000000 0.000000 0.080559
#
#
# Mechanical properties :
#
#
# Convention : Reuss Voigt Hill
#
# Bulk Modulus (GPa) = 38.70214 66.59180 52.64697
# Shear Modulus (GPa) = 17.67727 11.30695 14.49211
#
# Velocity S-wave (km/s) = 3.20617 2.56420 2.90299
# Velocity P-wave (km/s) = 6.01762 6.89135 6.46925
#
# Compressibility (1/GPa) = 0.02583837
#
# Stress axis : x y z
#
# Youngs Moduli (GPa) = 14.81186 99.81380 18.60931
#
# Poissons Ratio (x) = 0.79497 0.71525
# Poissons Ratio (y) = 0.11797 0.11753
# Poissons Ratio (z) = 0.56929 0.63041
#
# Static dielectric constant tensor:
#      x y z
#    x 1.577330 0.000000 0.000000 
#    y 0.000000 1.591180 0.000000 
#    z 0.000000 0.000000 1.568740 
# 
# From -- ./inp_files/8909.got.cif
#   From: 2010.05.17/outbox.cif.g08.bks.cpg/sg55_5_cif.got.tgz:8909.got - 2010.06.03 13:27:54.
