data_PCOD9426540
_publ_section_title
;
Structure prediction by ZEFSAII (Michael W. Deem and Ramdas Pophale) SiO2 
 PCOD9426540
Probable space group: P B A M
;
_chemical_formula_sum "Si O2"
_cell_formula_units_Z 64
_cell_length_a 23.717000
_cell_length_b 19.478963
_cell_length_c 8.900151
_cell_angle_alpha 90.000000
_cell_angle_beta 90.000000
_cell_angle_gamma 90.000000
_cell_volume 4111.714592
_symmetry_space_group_name_H-M "P B A M"
_symmetry_group_IT_number 55
_symmetry_cell_setting 'orthorhombic'
loop_
_space_group_symop_operation_xyz
x,y,z
-x,-y,z
1/2+x,1/2-y,-z
1/2-x,1/2+y,-z
-x,-y,-z
x,y,-z
1/2-x,1/2+y,z
1/2+x,1/2-y,z
loop_
_atom_site_type_symbol
_atom_site_label
_atom_site_fract_x
_atom_site_fract_y
_atom_site_fract_z
Si Si1 0.777458 0.649256 0.321254
Si Si2 0.881488 0.999048 0.820481
Si Si3 0.565922 0.362506 0.679028
Si Si4 0.434391 0.365178 0.680114
Si Si5 0.272918 0.141958 0.821318
Si Si6 0.743431 0.498489 0.680172
Si Si7 0.340527 0.728432 0.178639
Si Si8 0.835663 0.235383 0.321180
O O1 0.787735 0.655205 0.500000
O O2 0.774847 0.569401 0.280085
O O3 0.821508 0.696743 0.234345
O O4 0.715416 0.681682 0.292646
O O5 0.913457 0.066913 0.764269
O O6 0.818443 0.999714 0.753904
O O7 0.913089 0.932043 0.758080
O O8 0.879015 0.996472 0.000000
O O9 0.573197 0.369740 0.500000
O O10 0.499891 0.351638 0.710351
O O11 0.605064 0.301480 0.739285
O O12 0.427565 0.376616 0.500000
O O13 0.393548 0.302061 0.721023
O O14 0.212528 0.178087 0.785849
O O15 0.319801 0.195524 0.765447
O O16 0.274314 0.069362 0.738594
O O17 0.275773 0.132739 0.000000
O O18 0.737127 0.496576 0.500000
O O19 0.348492 0.727534 0.000000
O O20 0.836089 0.249225 0.500000
#
# Coordination Sequence:
#
# PCOD9426540 Si02
#       8
#     8   8   8   8   8   8   8   8
#     4   9  18  32  52  73  96 127 166 206 247 297
#     4  12  23  33  47  71 104 137 171 209 246 292
#     4  11  22  35  53  71  97 136 176 212 244 287
#     4  10  21  37  53  72  97 133 177 212 245 290
#     4  10  20  32  48  74 103 130 163 203 251 300
#     4  11  20  33  53  75 100 134 170 205 247 297
#     4  10  20  33  49  72 102 131 164 206 250 296
#     4   9  17  33  52  71  96 128 167 208 247 291
#
# _framework density 15.565283000000001
#
# number of rings (size 3 to 8) (size 9 to 14) (size 15 to 20)
#    0.000    1.750    2.500    3.000    0.000    5.000 
#    0.000    0.000    0.000    0.000    0.000    0.875 
#    0.000    7.000    0.000    0.000    0.000    0.000 
#
# Total GULP energy -357339.640642 kJ/mol
# GULP energy per Si atom -5583.431885 kJ/mol
# Density = 1.552986 g / cm^3
# Si number density = 15.565283 Si / 1000 Ang^3
#
#
#
# Elastic Constant Matrix: (Units=GPa)
#
#
# Indices 1 2 3 4 5 6 
#
# 1 89.9182 66.0817 49.0206 0.0000 0.0000 0.0000
# 2 66.0817 134.1738 62.6960 0.0000 0.0000 0.0000
# 3 49.0206 62.6960 60.8122 0.0000 0.0000 0.0000
# 4 0.0000 0.0000 0.0000 -14.4035 0.0000 0.0000
# 5 0.0000 0.0000 0.0000 0.0000 9.7505 0.0000
# 6 0.0000 0.0000 0.0000 0.0000 0.0000 14.4642
#
#
#
# Elastic Compliance Matrix: (Units=1/GPa)
#
#
# Indices 1 2 3 4 5 6 
#
# 1 0.021309 -0.004763 -0.012267 0.000000 0.000000 0.000000
# 2 -0.004763 0.015446 -0.012085 0.000000 0.000000 0.000000
# 3 -0.012267 -0.012085 0.038791 0.000000 0.000000 0.000000
# 4 0.000000 0.000000 0.000000 -0.069428 0.000000 0.000000
# 5 0.000000 0.000000 0.000000 0.000000 0.102559 0.000000
# 6 0.000000 0.000000 0.000000 0.000000 0.000000 0.069136
#
#
# Mechanical properties :
#
#
# Convention : Reuss Voigt Hill
#
# Bulk Modulus (GPa) = 57.74577 71.16676 64.45627
# Shear Modulus (GPa) = 20.67700 9.10263 14.88981
#
# Velocity S-wave (km/s) = 3.64868 2.42089 3.09626
# Velocity P-wave (km/s) = 7.41149 7.32359 7.36767
#
# Compressibility (1/GPa) = 0.01731728
#
# Stress axis : x y z
#
# Youngs Moduli (GPa) = 46.92867 64.74280 25.77897
#
# Poissons Ratio (x) = 0.30837 0.31622
# Poissons Ratio (y) = 0.22352 0.31153
# Poissons Ratio (z) = 0.57565 0.78240
#
# Static dielectric constant tensor:
#      x y z
#    x 1.498140 0.000000 0.000000 
#    y 0.000000 1.508860 0.000000 
#    z 0.000000 0.000000 1.517650 
# 
# From -- ./inp_files/7989.got.cif
#   From: 2010.05.17/outbox.cif.g08.bks.cpg/sg55_4_cif.got.tgz:7989.got - 2010.06.03 13:27:54.
