data_PCOD9426196
_publ_section_title
;
Structure prediction by ZEFSAII (Michael W. Deem and Ramdas Pophale) SiO2 
 PCOD9426196
Probable space group: P B A M
;
_chemical_formula_sum "Si O2"
_cell_formula_units_Z 64
_cell_length_a 25.447936
_cell_length_b 14.682261
_cell_length_c 9.070789
_cell_angle_alpha 90.000000
_cell_angle_beta 90.000000
_cell_angle_gamma 90.000000
_cell_volume 3389.148268
_symmetry_space_group_name_H-M "P B A M"
_symmetry_group_IT_number 55
_symmetry_cell_setting 'orthorhombic'
loop_
_space_group_symop_operation_xyz
x,y,z
-x,-y,z
1/2+x,1/2-y,-z
1/2-x,1/2+y,-z
-x,-y,-z
x,y,-z
1/2-x,1/2+y,z
1/2+x,1/2-y,z
loop_
_atom_site_type_symbol
_atom_site_label
_atom_site_fract_x
_atom_site_fract_y
_atom_site_fract_z
Si Si1 0.051852 0.702948 0.823478
Si Si2 0.672298 0.469913 0.324334
Si Si3 0.375088 0.367122 0.177157
Si Si4 0.718188 0.959906 0.826609
Si Si5 0.770502 0.241303 0.827300
Si Si6 0.557015 0.154046 0.323773
Si Si7 0.609729 0.965386 0.324704
Si Si8 0.336979 0.743819 0.675888
O O1 0.076179 0.801684 0.787342
O O2 0.088369 0.625446 0.751466
O O3 0.993786 0.688227 0.761510
O O4 0.053497 0.692569 0.000000
O O5 0.676834 0.479668 0.500000
O O6 0.628765 0.537150 0.258955
O O7 0.727942 0.492976 0.247269
O O8 0.660577 0.364079 0.290633
O O9 0.322323 0.311876 0.221699
O O10 0.373756 0.380075 0.000000
O O11 0.719318 0.849553 0.811125
O O12 0.665820 0.991754 0.744544
O O13 0.717074 0.982128 0.000000
O O14 0.716570 0.218682 0.745568
O O15 0.763184 0.222792 0.000000
O O16 0.549545 0.167460 0.500000
O O17 0.609799 0.206842 0.276700
O O18 0.568783 0.047368 0.299955
O O19 0.615459 0.952387 0.500000
O O20 0.333064 0.754340 0.500000
#
# Coordination Sequence:
#
# PCOD9426196 Si02
#       8
#     8   8   8   8   8   8   8   8
#     4  11  23  41  61  84 115 151 196 241 287 347
#     4  10  21  36  57  86 116 152 195 237 289 348
#     4  10  21  38  57  83 116 151 191 239 289 342
#     4  10  19  35  56  82 119 156 188 232 283 339
#     4   9  18  34  55  80 112 149 187 228 282 340
#     4  10  23  41  59  82 114 152 192 239 291 340
#     4  11  22  36  57  86 119 154 192 236 286 346
#     4   9  20  39  58  81 116 150 188 239 287 339
#
# _framework density 18.883800999999998
#
# number of rings (size 3 to 8) (size 9 to 14) (size 15 to 20)
#    0.000    2.000    1.250    1.875    1.750    5.500 
#    0.000    0.625    0.000    3.750    0.000    0.000 
#    0.000    0.000    0.000    0.000    0.000    0.000 
#
# Total GULP energy -357562.031773 kJ/mol
# GULP energy per Si atom -5586.906746 kJ/mol
# Density = 1.884082 g / cm^3
# Si number density = 18.883801 Si / 1000 Ang^3
#
#
#
# Elastic Constant Matrix: (Units=GPa)
#
#
# Indices 1 2 3 4 5 6 
#
# 1 69.1770 6.4126 19.6609 0.0000 0.0000 0.0000
# 2 6.4126 23.2229 14.2732 0.0000 0.0000 0.0000
# 3 19.6609 14.2732 34.1487 0.0000 0.0000 0.0000
# 4 0.0000 0.0000 0.0000 22.5491 0.0000 0.0000
# 5 0.0000 0.0000 0.0000 0.0000 34.6060 0.0000
# 6 0.0000 0.0000 0.0000 0.0000 0.0000 28.4503
#
#
#
# Elastic Compliance Matrix: (Units=1/GPa)
#
#
# Indices 1 2 3 4 5 6 
#
# 1 0.017340 0.001814 -0.010742 0.000000 0.000000 0.000000
# 2 0.001814 0.058137 -0.025344 0.000000 0.000000 0.000000
# 3 -0.010742 -0.025344 0.046061 0.000000 0.000000 0.000000
# 4 0.000000 0.000000 0.000000 0.044348 0.000000 0.000000
# 5 0.000000 0.000000 0.000000 0.000000 0.028897 0.000000
# 6 0.000000 0.000000 0.000000 0.000000 0.000000 0.035149
#
#
# Mechanical properties :
#
#
# Convention : Reuss Voigt Hill
#
# Bulk Modulus (GPa) = 18.86973 23.02687 20.94830
# Shear Modulus (GPa) = 15.81573 22.86787 19.34180
#
# Velocity S-wave (km/s) = 2.89715 3.48369 3.20387
# Velocity P-wave (km/s) = 4.60495 5.32934 4.98033
#
# Compressibility (1/GPa) = 0.05299492
#
# Stress axis : x y z
#
# Youngs Moduli (GPa) = 57.66856 17.20076 21.71019
#
# Poissons Ratio (x) = -0.03120 0.23321
# Poissons Ratio (y) = -0.10460 0.55022
# Poissons Ratio (z) = 0.61946 0.43594
#
# Static dielectric constant tensor:
#      x y z
#    x 1.635850 0.000000 0.000000 
#    y 0.000000 1.674040 0.000000 
#    z 0.000000 0.000000 1.627100 
# 
# From -- ./inp_files/9737.got.cif
#   From: 2010.05.17/outbox.cif.g08.bks.cpg/sg55_5_cif.got.tgz:9737.got - 2010.06.03 13:27:54.
