data_PCOD9426532
_publ_section_title
;
Structure prediction by ZEFSAII (Michael W. Deem and Ramdas Pophale) SiO2 
 PCOD9426532
Probable space group: P B A M
;
_chemical_formula_sum "Si O2"
_cell_formula_units_Z 44
_cell_length_a 5.160928
_cell_length_b 33.541325
_cell_length_c 16.558714
_cell_angle_alpha 90.000000
_cell_angle_beta 90.000000
_cell_angle_gamma 90.000000
_cell_volume 2866.385645
_symmetry_space_group_name_H-M "P B A M"
_symmetry_group_IT_number 55
_symmetry_cell_setting 'orthorhombic'
loop_
_space_group_symop_operation_xyz
x,y,z
-x,-y,z
1/2+x,1/2-y,-z
1/2-x,1/2+y,-z
-x,-y,-z
x,y,-z
1/2-x,1/2+y,z
1/2+x,1/2-y,z
loop_
_atom_site_type_symbol
_atom_site_label
_atom_site_fract_x
_atom_site_fract_y
_atom_site_fract_z
Si Si1 0.782813 0.226708 0.098170
Si Si2 0.250554 0.527837 0.000000
Si Si3 0.363983 0.589578 0.859663
Si Si4 0.622406 0.137803 0.904220
Si Si5 0.003660 0.548287 0.408673
Si Si6 0.496925 0.451812 0.691569
O O1 0.564014 0.258206 0.124158
O O2 0.702556 0.182239 0.122109
O O3 0.786871 0.226388 0.000000
O O4 0.500000 0.500000 0.000000
O O5 0.265656 0.555911 0.921793
O O6 0.000000 0.500000 0.000000
O O7 0.626144 0.609980 0.892657
O O8 0.433318 0.569653 0.774654
O O9 0.127881 0.621012 0.857990
O O10 0.555542 0.138776 0.000000
O O11 0.959889 0.562769 0.500000
O O12 0.779433 0.559792 0.345996
O O13 0.000000 0.500000 0.412063
O O14 0.283257 0.558753 0.373686
O O15 0.500000 0.500000 0.703647
#
# Coordination Sequence:
#
# PCOD9426532 Si02
#       6
#     8   4   8   8   8   8
#     4   9  17  29  47  69  87 109 146 194 236 279
#     4  12  24  36  48  60  82 124 174 214 238 258
#     4  12  22  35  47  66  91 126 165 203 243 270
#     4  11  20  34  49  65  91 123 160 198 239 279
#     4   9  17  31  50  69  87 110 144 191 246 296
#     4  10  20  32  47  67  91 118 156 202 236 277
#
# _framework density 15.350341999999999
#
# number of rings (size 3 to 8) (size 9 to 14) (size 15 to 20)
#    0.000    1.636    1.818    4.364    0.000    7.273 
#    0.000    0.000    0.000    0.000    0.000    0.000 
#    0.000    0.000    0.000    0.000    0.000  229.091 
#
# Total GULP energy -245543.718448 kJ/mol
# GULP energy per Si atom -5580.539056 kJ/mol
# Density = 1.531540 g / cm^3
# Si number density = 15.350342 Si / 1000 Ang^3
#
#
#
# Elastic Constant Matrix: (Units=GPa)
#
#
# Indices 1 2 3 4 5 6 
#
# 1 68.2782 -0.7913 4.5331 0.0000 0.0000 0.0000
# 2 -0.7913 35.5711 16.2184 0.0000 0.0000 0.0000
# 3 4.5331 16.2184 65.4104 0.0000 0.0000 0.0000
# 4 0.0000 0.0000 0.0000 6.2309 0.0000 0.0000
# 5 0.0000 0.0000 0.0000 0.0000 13.0279 0.0000
# 6 0.0000 0.0000 0.0000 0.0000 0.0000 24.7917
#
#
#
# Elastic Compliance Matrix: (Units=1/GPa)
#
#
# Indices 1 2 3 4 5 6 
#
# 1 0.014739 0.000895 -0.001243 0.000000 0.000000 0.000000
# 2 0.000895 0.031750 -0.007934 0.000000 0.000000 0.000000
# 3 -0.001243 -0.007934 0.017342 0.000000 0.000000 0.000000
# 4 0.000000 0.000000 0.000000 0.160490 0.000000 0.000000
# 5 0.000000 0.000000 0.000000 0.000000 0.076758 0.000000
# 6 0.000000 0.000000 0.000000 0.000000 0.000000 0.040336
#
#
# Mechanical properties :
#
#
# Convention : Reuss Voigt Hill
#
# Bulk Modulus (GPa) = 21.15740 23.24223 22.19982
# Shear Modulus (GPa) = 13.37845 18.76342 16.07093
#
# Velocity S-wave (km/s) = 2.95539 3.50000 3.23916
# Velocity P-wave (km/s) = 5.04566 5.61314 5.33695
#
# Compressibility (1/GPa) = 0.04726478
#
# Stress axis : x y z
#
# Youngs Moduli (GPa) = 67.84782 31.49577 57.66483
#
# Poissons Ratio (x) = -0.02818 0.07169
# Poissons Ratio (y) = -0.06071 0.45754
# Poissons Ratio (z) = 0.08435 0.24990
#
# Static dielectric constant tensor:
#      x y z
#    x 1.522840 0.000000 0.000000 
#    y 0.000000 1.511220 0.000000 
#    z 0.000000 0.000000 1.500610 
# 
# From -- ./inp_files/16711.got.cif
#   From: 2010.05.17/outbox.cif.g08.bks.cpg/sg55_9_cif.got.tgz:16711.got - 2010.06.03 13:27:54.
