data_PCOD9426845
_publ_section_title
;
Structure prediction by ZEFSAII (Michael W. Deem and Ramdas Pophale) SiO2 
 PCOD9426845
Probable space group: P B A M
;
_chemical_formula_sum "Si O2"
_cell_formula_units_Z 48
_cell_length_a 15.207041
_cell_length_b 20.144113
_cell_length_c 8.943339
_cell_angle_alpha 90.000000
_cell_angle_beta 90.000000
_cell_angle_gamma 90.000000
_cell_volume 2739.634073
_symmetry_space_group_name_H-M "P B A M"
_symmetry_group_IT_number 55
_symmetry_cell_setting 'orthorhombic'
loop_
_space_group_symop_operation_xyz
x,y,z
-x,-y,z
1/2+x,1/2-y,-z
1/2-x,1/2+y,-z
-x,-y,-z
x,y,-z
1/2-x,1/2+y,z
1/2+x,1/2-y,z
loop_
_atom_site_type_symbol
_atom_site_label
_atom_site_fract_x
_atom_site_fract_y
_atom_site_fract_z
Si Si1 0.391163 0.314049 0.179408
Si Si2 0.490182 0.799979 0.678691
Si Si3 0.691481 0.166842 0.178453
Si Si4 0.732010 0.013087 0.821752
Si Si5 0.071136 0.556426 0.320757
Si Si6 0.413133 0.457683 0.678476
O O1 0.452542 0.257336 0.245912
O O2 0.287605 0.304163 0.216888
O O3 0.417249 0.385439 0.246028
O O4 0.397747 0.316298 0.000000
O O5 0.491429 0.792495 0.500000
O O6 0.390189 0.801367 0.736739
O O7 0.532752 0.871534 0.716666
O O8 0.697459 0.087923 0.212918
O O9 0.678563 0.173451 0.000000
O O10 0.661304 0.961306 0.761096
O O11 0.826236 0.007316 0.743449
O O12 0.741813 0.008533 0.000000
O O13 0.084248 0.553044 0.500000
O O14 0.000000 0.500000 0.280067
O O15 0.500000 0.500000 0.710807
O O16 0.404640 0.450181 0.500000
#
# Coordination Sequence:
#
# PCOD9426845 Si02
#       6
#     8   8   8   8   8   8
#     4  10  22  40  60  84 115 150 190 235 285 342
#     4  11  22  36  58  85 114 152 192 236 287 338
#     4   9  19  36  57  80 108 147 188 228 281 339
#     4  10  20  34  57  86 114 149 188 232 283 336
#     4  10  20  35  55  84 118 151 188 232 284 337
#     4  10  21  39  63  87 113 148 190 236 284 338
#
# _framework density 17.520588
#
# number of rings (size 3 to 8) (size 9 to 14) (size 15 to 20)
#    0.000    2.000    1.667    3.000    0.000    6.333 
#    3.000    0.000    0.000    0.000    0.000    0.000 
#    0.000    0.000    0.000    0.000    0.000    0.000 
#
# Total GULP energy -268024.887467 kJ/mol
# GULP energy per Si atom -5583.851822 kJ/mol
# Density = 1.748071 g / cm^3
# Si number density = 17.520588 Si / 1000 Ang^3
#
#
#
# Elastic Constant Matrix: (Units=GPa)
#
#
# Indices 1 2 3 4 5 6 
#
# 1 180.9574 91.7021 86.0980 0.0000 0.0000 0.0000
# 2 91.7021 86.9153 56.7253 0.0000 0.0000 0.0000
# 3 86.0980 56.7253 64.3308 0.0000 0.0000 0.0000
# 4 0.0000 0.0000 0.0000 23.7666 0.0000 0.0000
# 5 0.0000 0.0000 0.0000 0.0000 33.5245 0.0000
# 6 0.0000 0.0000 0.0000 0.0000 0.0000 31.1904
#
#
#
# Elastic Compliance Matrix: (Units=1/GPa)
#
#
# Indices 1 2 3 4 5 6 
#
# 1 0.016956 -0.007253 -0.016298 0.000000 0.000000 0.000000
# 2 -0.007253 0.030206 -0.016927 0.000000 0.000000 0.000000
# 3 -0.016298 -0.016927 0.052283 0.000000 0.000000 0.000000
# 4 0.000000 0.000000 0.000000 0.042076 0.000000 0.000000
# 5 0.000000 0.000000 0.000000 0.000000 0.029829 0.000000
# 6 0.000000 0.000000 0.000000 0.000000 0.000000 0.032061
#
#
# Mechanical properties :
#
#
# Convention : Reuss Voigt Hill
#
# Bulk Modulus (GPa) = 54.08781 89.02825 71.55803
# Shear Modulus (GPa) = 17.20993 24.20818 20.70905
#
# Velocity S-wave (km/s) = 3.13752 3.72115 3.44173
# Velocity P-wave (km/s) = 6.63802 8.32985 7.53159
#
# Compressibility (1/GPa) = 0.01848845
#
# Stress axis : x y z
#
# Youngs Moduli (GPa) = 58.97554 33.10627 19.12672
#
# Poissons Ratio (x) = 0.24013 0.31172
# Poissons Ratio (y) = 0.42777 0.32376
# Poissons Ratio (z) = 0.96117 0.56039
#
# Static dielectric constant tensor:
#      x y z
#    x 1.581820 0.000000 0.000000 
#    y 0.000000 1.570170 0.000000 
#    z 0.000000 0.000000 1.578200 
# 
# From -- ./inp_files/5656.got.cif
#   From: 2010.05.17/outbox.cif.g08.bks.cpg/sg55_3_cif.got.tgz:5656.got - 2010.06.03 13:27:54.
