data_PCOD9426283
_publ_section_title
;
Structure prediction by ZEFSAII (Michael W. Deem and Ramdas Pophale) SiO2 
 PCOD9426283
Probable space group: P B A M
;
_chemical_formula_sum "Si O2"
_cell_formula_units_Z 40
_cell_length_a 9.183266
_cell_length_b 16.258646
_cell_length_c 12.845055
_cell_angle_alpha 90.000000
_cell_angle_beta 90.000000
_cell_angle_gamma 90.000000
_cell_volume 1917.862677
_symmetry_space_group_name_H-M "P B A M"
_symmetry_group_IT_number 55
_symmetry_cell_setting 'orthorhombic'
loop_
_space_group_symop_operation_xyz
x,y,z
-x,-y,z
1/2+x,1/2-y,-z
1/2-x,1/2+y,-z
-x,-y,-z
x,y,-z
1/2-x,1/2+y,z
1/2+x,1/2-y,z
loop_
_atom_site_type_symbol
_atom_site_label
_atom_site_fract_x
_atom_site_fract_y
_atom_site_fract_z
Si Si1 0.366769 0.062872 0.695857
Si Si2 0.563276 0.196504 0.389332
Si Si3 0.772239 0.320959 0.118723
Si Si4 0.528337 0.682982 0.210602
Si Si5 0.660769 0.575210 0.618626
O O1 0.429941 0.132860 0.620371
O O2 0.328341 0.108930 0.802513
O O3 0.500000 0.000000 0.713502
O O4 0.236480 0.011524 0.645028
O O5 0.557579 0.240305 0.500000
O O6 0.547359 0.258054 0.295629
O O7 0.709697 0.143312 0.383503
O O8 0.597686 0.327498 0.126226
O O9 0.837159 0.234006 0.161500
O O10 0.820746 0.331863 0.000000
O O11 0.569352 0.604156 0.280714
O O12 0.600257 0.574422 0.500000
#
# Coordination Sequence:
#
# PCOD9426283 Si02
#       5
#     8   8   8   8   8
#     4   9  20  38  60  88 123 157 196 239 288 362
#     4   9  17  33  58  87 121 159 192 231 293 358
#     4  11  24  42  63  84 115 159 205 252 295 336
#     4  11  21  39  59  91 120 150 201 250 294 351
#     4  10  19  35  60  90 122 155 190 236 297 359
#
# _framework density 20.856552000000001
#
# number of rings (size 3 to 8) (size 9 to 14) (size 15 to 20)
#    0.000    2.000    2.000    1.800    0.000    3.600 
#    0.000    7.000    0.000    0.000    0.000    0.000 
#    0.000    0.000    0.000    0.000    0.000    0.000 
#
# Total GULP energy -223249.623226 kJ/mol
# GULP energy per Si atom -5581.240581 kJ/mol
# Density = 2.080908 g / cm^3
# Si number density = 20.856552 Si / 1000 Ang^3
#
#
#
# Elastic Constant Matrix: (Units=GPa)
#
#
# Indices 1 2 3 4 5 6 
#
# 1 51.5726 -0.7825 16.4059 0.0000 0.0000 0.0000
# 2 -0.7825 31.3685 6.7327 0.0000 0.0000 0.0000
# 3 16.4059 6.7327 122.2446 0.0000 0.0000 0.0000
# 4 0.0000 0.0000 0.0000 10.0034 0.0000 0.0000
# 5 0.0000 0.0000 0.0000 0.0000 22.1494 0.0000
# 6 0.0000 0.0000 0.0000 0.0000 0.0000 22.2879
#
#
#
# Elastic Compliance Matrix: (Units=1/GPa)
#
#
# Indices 1 2 3 4 5 6 
#
# 1 0.020293 0.001104 -0.002784 0.000000 0.000000 0.000000
# 2 0.001104 0.032320 -0.001928 0.000000 0.000000 0.000000
# 3 -0.002784 -0.001928 0.008660 0.000000 0.000000 0.000000
# 4 0.000000 0.000000 0.000000 0.099966 0.000000 0.000000
# 5 0.000000 0.000000 0.000000 0.000000 0.045148 0.000000
# 6 0.000000 0.000000 0.000000 0.000000 0.000000 0.044867
#
#
# Mechanical properties :
#
#
# Convention : Reuss Voigt Hill
#
# Bulk Modulus (GPa) = 18.49931 27.76642 23.13287
# Shear Modulus (GPa) = 18.08378 23.07678 20.58028
#
# Velocity S-wave (km/s) = 2.94777 3.32995 3.14467
# Velocity P-wave (km/s) = 4.52492 5.30346 4.92958
#
# Compressibility (1/GPa) = 0.05405607
#
# Stress axis : x y z
#
# Youngs Moduli (GPa) = 49.27910 30.94012 115.47123
#
# Poissons Ratio (x) = -0.03415 0.32149
# Poissons Ratio (y) = -0.05439 0.22265
# Poissons Ratio (z) = 0.13720 0.05966
#
# Static dielectric constant tensor:
#      x y z
#    x 1.804090 0.000000 0.000000 
#    y 0.000000 1.736490 0.000000 
#    z 0.000000 0.000000 1.696670 
# 
# From -- ./inp_files/11854.got.cif
#   From: 2010.05.17/outbox.cif.g08.bks.cpg/sg55_6_cif.got.tgz:11854.got - 2010.06.03 13:27:54.
