data_PCOD9426247
_publ_section_title
;
Structure prediction by ZEFSAII (Michael W. Deem and Ramdas Pophale) SiO2 
 PCOD9426247
Probable space group: P B A M
;
_chemical_formula_sum "Si O2"
_cell_formula_units_Z 64
_cell_length_a 17.137424
_cell_length_b 20.682036
_cell_length_c 9.218231
_cell_angle_alpha 90.000000
_cell_angle_beta 90.000000
_cell_angle_gamma 90.000000
_cell_volume 3267.280483
_symmetry_space_group_name_H-M "P B A M"
_symmetry_group_IT_number 55
_symmetry_cell_setting 'orthorhombic'
loop_
_space_group_symop_operation_xyz
x,y,z
-x,-y,z
1/2+x,1/2-y,-z
1/2-x,1/2+y,-z
-x,-y,-z
x,y,-z
1/2-x,1/2+y,z
1/2+x,1/2-y,z
loop_
_atom_site_type_symbol
_atom_site_label
_atom_site_fract_x
_atom_site_fract_y
_atom_site_fract_z
Si Si1 0.880170 0.501299 0.666139
Si Si2 0.112742 0.626516 0.832003
Si Si3 0.682186 0.619520 0.168302
Si Si4 0.559114 0.729694 0.173180
Si Si5 0.369364 0.869127 0.169346
Si Si6 0.809610 0.991518 0.665755
Si Si7 0.699378 0.363058 0.831986
Si Si8 0.404466 0.737301 0.672606
O O1 0.904732 0.510662 0.500000
O O2 0.909719 0.434026 0.732768
O O3 0.898155 0.562997 0.765575
O O4 0.785245 0.496041 0.666612
O O5 0.078035 0.695802 0.790603
O O6 0.206675 0.634643 0.825693
O O7 0.092648 0.612650 0.000000
O O8 0.632582 0.683283 0.202063
O O9 0.774864 0.631600 0.180221
O O10 0.661327 0.558961 0.268804
O O11 0.667291 0.602166 0.000000
O O12 0.484574 0.708225 0.264335
O O13 0.543146 0.726878 0.000000
O O14 0.398978 0.809173 0.262199
O O15 0.390407 0.862390 0.000000
O O16 0.834444 0.981666 0.500000
O O17 0.830283 0.930558 0.765361
O O18 0.665740 0.304740 0.738130
O O19 0.676620 0.355393 0.000000
O O20 0.402812 0.737884 0.500000
#
# Coordination Sequence:
#
# PCOD9426247 Si02
#       8
#     8   8   8   8   8   8   8   8
#     4   9  17  30  51  82 115 141 169 213 267 317
#     4   9  18  34  58  84 107 137 179 222 263 313
#     4   9  18  34  58  84 107 137 179 222 263 313
#     4  10  21  38  56  76 106 142 181 222 264 314
#     4  10  19  35  59  83 107 139 179 220 263 314
#     4   9  17  30  51  82 115 141 169 213 267 317
#     4  10  19  35  59  83 107 139 179 220 263 314
#     4  12  25  38  52  76 110 144 179 220 268 318
#
# _framework density 19.588156000000001
#
# number of rings (size 3 to 8) (size 9 to 14) (size 15 to 20)
#    0.000    2.250    0.000    3.375    0.000    7.000 
#    0.000    2.500    0.000    7.500    0.000    0.000 
#    0.000    0.000    0.000    0.000    0.000    0.000 
#
# Total GULP energy -357511.472291 kJ/mol
# GULP energy per Si atom -5586.116755 kJ/mol
# Density = 1.954357 g / cm^3
# Si number density = 19.588156 Si / 1000 Ang^3
#
#
#
# Elastic Constant Matrix: (Units=GPa)
#
#
# Indices 1 2 3 4 5 6 
#
# 1 36.8167 18.7753 31.5163 0.0000 0.0000 0.0000
# 2 18.7753 95.2489 53.0942 0.0000 0.0000 0.0000
# 3 31.5163 53.0942 111.5640 0.0000 0.0000 0.0000
# 4 0.0000 0.0000 0.0000 12.6820 0.0000 0.0000
# 5 0.0000 0.0000 0.0000 0.0000 13.2895 0.0000
# 6 0.0000 0.0000 0.0000 0.0000 0.0000 -20.6534
#
#
#
# Elastic Compliance Matrix: (Units=1/GPa)
#
#
# Indices 1 2 3 4 5 6 
#
# 1 0.036088 -0.001947 -0.009268 0.000000 0.000000 0.000000
# 2 -0.001947 0.014395 -0.006300 0.000000 0.000000 0.000000
# 3 -0.009268 -0.006300 0.014580 0.000000 0.000000 0.000000
# 4 0.000000 0.000000 0.000000 0.078852 0.000000 0.000000
# 5 0.000000 0.000000 0.000000 0.000000 0.075248 0.000000
# 6 0.000000 0.000000 0.000000 0.000000 0.000000 -0.048418
#
#
# Mechanical properties :
#
#
# Convention : Reuss Voigt Hill
#
# Bulk Modulus (GPa) = 33.29841 50.04457 41.67149
# Shear Modulus (GPa) = 23.17098 10.41318 16.79208
#
# Velocity S-wave (km/s) = 3.44307 2.30816 2.93107
# Velocity P-wave (km/s) = 5.73084 5.71903 5.72494
#
# Compressibility (1/GPa) = 0.03003146
#
# Stress axis : x y z
#
# Youngs Moduli (GPa) = 27.70969 69.47003 68.58692
#
# Poissons Ratio (x) = 0.13529 0.63566
# Poissons Ratio (y) = 0.05396 0.43212
# Poissons Ratio (z) = 0.25681 0.43769
#
# Static dielectric constant tensor:
#      x y z
#    x 1.704450 0.000000 0.000000 
#    y 0.000000 1.662340 0.000000 
#    z 0.000000 0.000000 1.654640 
# 
# From -- ./inp_files/8004.got.cif
#   From: 2010.05.17/outbox.cif.g08.bks.cpg/sg55_5_cif.got.tgz:8004.got - 2010.06.03 13:27:54.
