data_PCOD9426110
_publ_section_title
;
Structure prediction by ZEFSAII (Michael W. Deem and Ramdas Pophale) SiO2 
 PCOD9426110
Probable space group: P B A M
;
_chemical_formula_sum "Si O2"
_cell_formula_units_Z 64
_cell_length_a 22.209832
_cell_length_b 8.993506
_cell_length_c 14.470813
_cell_angle_alpha 90.000000
_cell_angle_beta 90.000000
_cell_angle_gamma 90.000000
_cell_volume 2890.461796
_symmetry_space_group_name_H-M "P B A M"
_symmetry_group_IT_number 55
_symmetry_cell_setting 'orthorhombic'
loop_
_space_group_symop_operation_xyz
x,y,z
-x,-y,z
1/2+x,1/2-y,-z
1/2-x,1/2+y,-z
-x,-y,-z
x,y,-z
1/2-x,1/2+y,z
1/2+x,1/2-y,z
loop_
_atom_site_type_symbol
_atom_site_label
_atom_site_fract_x
_atom_site_fract_y
_atom_site_fract_z
Si Si1 0.950200 0.670932 0.602741
Si Si2 0.437612 0.327127 0.891745
Si Si3 0.772729 0.998544 0.773847
Si Si4 0.849473 0.921000 0.602762
Si Si5 0.088462 0.765212 0.396775
Si Si6 0.963557 0.637733 0.192982
Si Si7 0.336575 0.186421 0.220402
Si Si8 0.874857 0.857341 0.108382
O O1 0.945452 0.598382 0.500000
O O2 0.894445 0.782997 0.609697
O O3 0.949638 0.591671 0.701736
O O4 0.016518 0.745783 0.604333
O O5 0.489396 0.272755 0.822763
O O6 0.380844 0.223903 0.864320
O O7 0.417612 0.497229 0.875386
O O8 0.454851 0.311737 0.000000
O O9 0.797411 0.932374 0.677384
O O10 0.703461 0.959641 0.787113
O O11 0.812130 0.909999 0.849031
O O12 0.791477 0.171143 0.774928
O O13 0.823530 0.924740 0.500000
O O14 0.892811 0.063304 0.615047
O O15 0.109263 0.720352 0.500000
O O16 0.123699 0.686448 0.313732
O O17 0.903742 0.708845 0.150436
O O18 0.000000 0.500000 0.148432
O O19 0.869821 0.837588 0.000000
#
# Coordination Sequence:
#
# PCOD9426110 Si02
#       8
#     8   8   8   8   8   8   8   8
#     4  10  19  34  57  85 117 151 187 227 280 342
#     4  10  22  41  63  85 112 151 195 237 285 343
#     4  10  21  37  57  82 113 149 193 239 284 336
#     4   9  17  31  55  85 113 145 189 237 282 336
#     4   9  17  31  55  85 113 145 189 237 282 336
#     4  12  24  37  59  91 124 151 181 230 289 344
#     4  10  21  37  57  82 113 149 193 239 284 336
#     4  10  22  41  63  85 112 151 195 237 285 343
#
# _framework density 22.141791000000001
#
# number of rings (size 3 to 8) (size 9 to 14) (size 15 to 20)
#    0.000    2.000    2.500    1.125    0.000    6.750 
#    0.000    0.000    0.000    0.000    0.000    0.000 
#    0.000    0.000    0.000    0.000    0.000    0.000 
#
# Total GULP energy -357328.691138 kJ/mol
# GULP energy per Si atom -5583.260799 kJ/mol
# Density = 2.209140 g / cm^3
# Si number density = 22.141791 Si / 1000 Ang^3
#
#
#
# Elastic Constant Matrix: (Units=GPa)
#
#
# Indices 1 2 3 4 5 6 
#
# 1 36.2363 15.8350 8.1557 0.0000 0.0000 0.0000
# 2 15.8350 44.7533 27.3751 0.0000 0.0000 0.0000
# 3 8.1557 27.3751 85.0811 0.0000 0.0000 0.0000
# 4 0.0000 0.0000 0.0000 -15.0254 0.0000 0.0000
# 5 0.0000 0.0000 0.0000 0.0000 4.7873 0.0000
# 6 0.0000 0.0000 0.0000 0.0000 0.0000 48.3516
#
#
#
# Elastic Compliance Matrix: (Units=1/GPa)
#
#
# Indices 1 2 3 4 5 6 
#
# 1 0.032681 -0.012011 0.000732 0.000000 0.000000 0.000000
# 2 -0.012011 0.032234 -0.009220 0.000000 0.000000 0.000000
# 3 0.000732 -0.009220 0.014650 0.000000 0.000000 0.000000
# 4 0.000000 0.000000 0.000000 -0.066554 0.000000 0.000000
# 5 0.000000 0.000000 0.000000 0.000000 0.208885 0.000000
# 6 0.000000 0.000000 0.000000 0.000000 0.000000 0.020682
#
#
# Mechanical properties :
#
#
# Convention : Reuss Voigt Hill
#
# Bulk Modulus (GPa) = 25.92931 29.86693 27.89812
# Shear Modulus (GPa) = 16.86726 15.26970 16.06848
#
# Velocity S-wave (km/s) = 2.76304 2.62893 2.69682
# Velocity P-wave (km/s) = 4.68136 4.76794 4.72485
#
# Compressibility (1/GPa) = 0.03856639
#
# Stress axis : x y z
#
# Youngs Moduli (GPa) = 30.59920 31.02269 68.25954
#
# Poissons Ratio (x) = 0.37261 -0.04996
# Poissons Ratio (y) = 0.36753 0.62937
# Poissons Ratio (z) = -0.02240 0.28604
#
# Static dielectric constant tensor:
#      x y z
#    x 1.794580 0.000000 0.000000 
#    y 0.000000 1.834100 0.000000 
#    z 0.000000 0.000000 1.813620 
# 
# From -- ./inp_files/19952.got.cif
#   From: 2010.05.17/outbox.cif.g08.bks.cpg/sg55_10_cif.got.tgz:19952.got - 2010.06.03 13:27:54.
