data_PCOD9426503
_publ_section_title
;
Structure prediction by ZEFSAII (Michael W. Deem and Ramdas Pophale) SiO2 
 PCOD9426503
Probable space group: P B A M
;
_chemical_formula_sum "Si O2"
_cell_formula_units_Z 58
_cell_length_a 16.729014
_cell_length_b 9.617842
_cell_length_c 16.369232
_cell_angle_alpha 90.000000
_cell_angle_beta 90.000000
_cell_angle_gamma 90.000000
_cell_volume 2633.760542
_symmetry_space_group_name_H-M "P B A M"
_symmetry_group_IT_number 55
_symmetry_cell_setting 'orthorhombic'
loop_
_space_group_symop_operation_xyz
x,y,z
-x,-y,z
1/2+x,1/2-y,-z
1/2-x,1/2+y,-z
-x,-y,-z
x,y,-z
1/2-x,1/2+y,z
1/2+x,1/2-y,z
loop_
_atom_site_type_symbol
_atom_site_label
_atom_site_fract_x
_atom_site_fract_y
_atom_site_fract_z
Si Si1 0.494507 0.271566 0.114661
Si Si2 0.000000 0.500000 0.000000
Si Si3 0.201064 0.733572 0.683819
Si Si4 0.946006 0.630551 0.738866
Si Si5 0.589632 0.538720 0.673867
Si Si6 0.647200 0.278505 0.408445
Si Si7 0.873968 0.990728 0.864771
Si Si8 0.784433 0.536601 0.792722
O O1 0.500528 0.238106 0.210685
O O2 0.416947 0.369742 0.101817
O O3 0.574356 0.364254 0.097685
O O4 0.491090 0.125351 0.069261
O O5 0.116954 0.802987 0.663467
O O6 0.260030 0.751090 0.608113
O O7 0.204431 0.582842 0.724282
O O8 0.239164 0.832182 0.753839
O O9 0.903493 0.696919 0.660360
O O10 0.875298 0.586843 0.803423
O O11 0.000000 0.500000 0.717037
O O12 0.500000 0.500000 0.655218
O O13 0.639393 0.440668 0.613741
O O14 0.607494 0.490355 0.767123
O O15 0.622254 0.247056 0.500000
O O16 0.776784 0.987659 0.864468
#
# Coordination Sequence:
#
# PCOD9426503 Si02
#       8
#     8   2   8   8   8   8   8   8
#     4  11  22  42  69 101 139 180 219 281 328 429
#     4  12  28  42  68 120 146 174 222 268 370 404
#     4  10  20  38  56  88 127 177 225 289 340 403
#     4  11  23  40  67 100 135 181 234 285 353 404
#     4  11  20  36  66  93 128 170 242 281 341 405
#     4  11  23  41  59  89 137 182 235 291 344 411
#     4  10  19  39  70  96 134 185 225 272 330 405
#     4  10  21  35  66 102 129 173 241 281 325 412
#
# _framework density 22.021743000000001
#
# number of rings (size 3 to 8) (size 9 to 14) (size 15 to 20)
#    0.000    1.379    6.207    0.828    5.793    2.207 
#    0.000    0.000    0.000    3.310    0.000    0.000 
#    0.000    0.000    0.000    0.000    0.000    0.000 
#
# Total GULP energy -323075.542657 kJ/mol
# GULP energy per Si atom -5570.267977 kJ/mol
# Density = 2.197162 g / cm^3
# Si number density = 22.021743 Si / 1000 Ang^3
#
#
#
# Elastic Constant Matrix: (Units=GPa)
#
#
# Indices 1 2 3 4 5 6 
#
# 1 105.5268 30.0037 24.6825 0.0000 0.0000 0.0000
# 2 30.0037 115.8743 24.8004 0.0000 0.0000 0.0000
# 3 24.6825 24.8004 87.1918 0.0000 0.0000 0.0000
# 4 0.0000 0.0000 0.0000 14.5405 0.0000 0.0000
# 5 0.0000 0.0000 0.0000 0.0000 271.2786 0.0000
# 6 0.0000 0.0000 0.0000 0.0000 0.0000 34.1967
#
#
#
# Elastic Compliance Matrix: (Units=1/GPa)
#
#
# Indices 1 2 3 4 5 6 
#
# 1 0.010674 -0.002254 -0.002380 0.000000 0.000000 0.000000
# 2 -0.002254 0.009666 -0.002111 0.000000 0.000000 0.000000
# 3 -0.002380 -0.002111 0.012743 0.000000 0.000000 0.000000
# 4 0.000000 0.000000 0.000000 0.068774 0.000000 0.000000
# 5 0.000000 0.000000 0.000000 0.000000 0.003686 0.000000
# 6 0.000000 0.000000 0.000000 0.000000 0.000000 0.029243
#
#
# Mechanical properties :
#
#
# Convention : Reuss Voigt Hill
#
# Bulk Modulus (GPa) = 51.04329 51.95176 51.49753
# Shear Modulus (GPa) = 32.29822 79.27692 55.78757
#
# Velocity S-wave (km/s) = 3.83384 6.00646 5.03865
# Velocity P-wave (km/s) = 6.54421 8.47028 7.56877
#
# Compressibility (1/GPa) = 0.01959121
#
# Stress axis : x y z
#
# Youngs Moduli (GPa) = 93.68548 103.45963 78.47275
#
# Poissons Ratio (x) = 0.23324 0.18680
# Poissons Ratio (y) = 0.21120 0.16566
# Poissons Ratio (z) = 0.22301 0.21841
#
# Static dielectric constant tensor:
#      x y z
#    x 1.922660 0.000000 0.000000 
#    y 0.000000 1.838670 0.000000 
#    z 0.000000 0.000000 1.764490 
# 
# From -- ./inp_files/21813.got.cif
#   From: 2010.05.17/outbox.cif.g08.bks.cpg/sg55_11_cif.got.tgz:21813.got - 2010.06.03 13:27:54.
