data_PCOD9426323
_publ_section_title
;
Structure prediction by ZEFSAII (Michael W. Deem and Ramdas Pophale) SiO2 
 PCOD9426323
Probable space group: P B A M
;
_chemical_formula_sum "Si O2"
_cell_formula_units_Z 48
_cell_length_a 8.744543
_cell_length_b 15.282475
_cell_length_c 16.867088
_cell_angle_alpha 90.000000
_cell_angle_beta 90.000000
_cell_angle_gamma 90.000000
_cell_volume 2254.088288
_symmetry_space_group_name_H-M "P B A M"
_symmetry_group_IT_number 55
_symmetry_cell_setting 'orthorhombic'
loop_
_space_group_symop_operation_xyz
x,y,z
-x,-y,z
1/2+x,1/2-y,-z
1/2-x,1/2+y,-z
-x,-y,-z
x,y,-z
1/2-x,1/2+y,z
1/2+x,1/2-y,z
loop_
_atom_site_type_symbol
_atom_site_label
_atom_site_fract_x
_atom_site_fract_y
_atom_site_fract_z
Si Si1 0.668336 0.878126 0.584498
Si Si2 0.311257 0.908979 0.412680
Si Si3 0.312972 0.870654 0.913626
Si Si4 0.548919 0.739520 0.849161
Si Si5 0.827493 0.534067 0.748654
Si Si6 0.293783 0.653378 0.251229
O O1 0.724706 0.844650 0.500000
O O2 0.484478 0.872542 0.586783
O O3 0.749797 0.831222 0.657242
O O4 0.694215 0.983843 0.585686
O O5 0.243303 0.883076 0.500000
O O6 0.267410 0.898398 0.319235
O O7 0.435635 0.793026 0.905190
O O8 0.147435 0.828375 0.899357
O O9 0.341847 0.927317 0.835718
O O10 0.324637 0.913030 0.000000
O O11 0.663154 0.805330 0.804381
O O12 0.449673 0.692217 0.781402
O O13 0.716968 0.451188 0.754676
O O14 0.000000 0.500000 0.726588
#
# Coordination Sequence:
#
# PCOD9426323 Si02
#       6
#     8   8   8   8   8   8
#     4   8  12  22  45  76 106 139 179 225 266 314
#     4   8  12  22  47  81 112 140 181 224 264 316
#     4  11  23  40  60  84 109 141 183 228 277 336
#     4  10  22  39  58  77 109 150 180 219 280 342
#     4  11  18  33  57  88 113 140 188 234 271 313
#     4  10  19  36  56  80 110 147 186 227 273 328
#
# _framework density 21.294643000000001
#
# number of rings (size 3 to 8) (size 9 to 14) (size 15 to 20)
#    0.000    2.333    5.000    1.500    0.000    1.000 
#    0.000    3.333    0.000    5.000    0.000    4.667 
#    0.000    0.000    0.000    0.000    0.000    0.000 
#
# Total GULP energy -267396.159076 kJ/mol
# GULP energy per Si atom -5570.753314 kJ/mol
# Density = 2.124618 g / cm^3
# Si number density = 21.294643 Si / 1000 Ang^3
#
#
#
# Elastic Constant Matrix: (Units=GPa)
#
#
# Indices 1 2 3 4 5 6 
#
# 1 49.3744 7.2613 17.1498 0.0000 0.0000 0.0000
# 2 7.2613 18.8629 18.5271 0.0000 0.0000 0.0000
# 3 17.1498 18.5271 197.6712 0.0000 0.0000 0.0000
# 4 0.0000 0.0000 0.0000 48.3797 0.0000 0.0000
# 5 0.0000 0.0000 0.0000 0.0000 10.3895 0.0000
# 6 0.0000 0.0000 0.0000 0.0000 0.0000 10.8957
#
#
#
# Elastic Compliance Matrix: (Units=1/GPa)
#
#
# Indices 1 2 3 4 5 6 
#
# 1 0.021730 -0.007174 -0.001213 0.000000 0.000000 0.000000
# 2 -0.007174 0.060758 -0.005072 0.000000 0.000000 0.000000
# 3 -0.001213 -0.005072 0.005640 0.000000 0.000000 0.000000
# 4 0.000000 0.000000 0.000000 0.020670 0.000000 0.000000
# 5 0.000000 0.000000 0.000000 0.000000 0.096251 0.000000
# 6 0.000000 0.000000 0.000000 0.000000 0.000000 0.091779
#
#
# Mechanical properties :
#
#
# Convention : Reuss Voigt Hill
#
# Bulk Modulus (GPa) = 16.33737 39.08721 27.71229
# Shear Modulus (GPa) = 14.52866 28.79767 21.66316
#
# Velocity S-wave (km/s) = 2.61486 3.68141 3.19298
# Velocity P-wave (km/s) = 4.09944 6.03868 5.16096
#
# Compressibility (1/GPa) = 0.06120937
#
# Stress axis : x y z
#
# Youngs Moduli (GPa) = 46.01994 16.45886 177.31949
#
# Poissons Ratio (x) = 0.11807 0.21507
# Poissons Ratio (y) = 0.33013 0.89940
# Poissons Ratio (z) = 0.05582 0.08348
#
# Static dielectric constant tensor:
#      x y z
#    x 1.778660 0.000000 0.000000 
#    y 0.000000 1.814530 0.000000 
#    z 0.000000 0.000000 1.869080 
# 
# From -- ./inp_files/17357.got.cif
#   From: 2010.05.17/outbox.cif.g08.bks.cpg/sg55_9_cif.got.tgz:17357.got - 2010.06.03 13:27:54.
