data_PCOD9426640
_publ_section_title
;
Structure prediction by ZEFSAII (Michael W. Deem and Ramdas Pophale) SiO2 
 PCOD9426640
Probable space group: P B A M
;
_chemical_formula_sum "Si O2"
_cell_formula_units_Z 58
_cell_length_a 14.661324
_cell_length_b 26.088193
_cell_length_c 7.800126
_cell_angle_alpha 90.000000
_cell_angle_beta 90.000000
_cell_angle_gamma 90.000000
_cell_volume 2983.450305
_symmetry_space_group_name_H-M "P B A M"
_symmetry_group_IT_number 55
_symmetry_cell_setting 'orthorhombic'
loop_
_space_group_symop_operation_xyz
x,y,z
-x,-y,z
1/2+x,1/2-y,-z
1/2-x,1/2+y,-z
-x,-y,-z
x,y,-z
1/2-x,1/2+y,z
1/2+x,1/2-y,z
loop_
_atom_site_type_symbol
_atom_site_label
_atom_site_fract_x
_atom_site_fract_y
_atom_site_fract_z
Si Si1 0.733821 0.786998 0.700430
Si Si2 0.257900 0.405627 0.699248
Si Si3 0.000000 0.000000 0.500000
Si Si4 0.152195 0.310339 0.298023
Si Si5 0.356104 0.617973 0.203415
Si Si6 0.351291 0.502034 0.802928
Si Si7 0.036478 0.733367 0.198052
Si Si8 0.444842 0.350864 0.208666
O O1 0.716288 0.778370 0.500000
O O2 0.788860 0.737667 0.771845
O O3 0.796118 0.837041 0.718468
O O4 0.635371 0.791916 0.785723
O O5 0.237919 0.415782 0.500000
O O6 0.185099 0.364904 0.772615
O O7 0.272598 0.459629 0.790878
O O8 0.354903 0.376216 0.716192
O O9 0.923246 0.010142 0.346592
O O10 0.173392 0.312495 0.500000
O O11 0.046246 0.297193 0.280902
O O12 0.321396 0.560572 0.231719
O O13 0.461525 0.621279 0.262650
O O14 0.357553 0.627735 0.000000
O O15 0.387906 0.500631 0.000000
O O16 0.045993 0.791674 0.264109
O O17 0.010933 0.738305 0.000000
O O18 0.437251 0.353206 0.000000
#
# Coordination Sequence:
#
# PCOD9426640 Si02
#       8
#     8   8   2   8   8   8   8   8
#     4  11  22  37  59  85 117 155 196 246 302 359
#     4  11  22  38  59  84 119 162 204 249 298 361
#     4  12  22  40  64  90 124 166 206 252 300 372
#     4  10  22  38  57  85 118 155 199 247 300 357
#     4  10  22  39  58  84 119 158 201 245 295 354
#     4  11  24  40  59  88 125 164 206 254 302 359
#     4  11  22  36  57  85 118 155 198 246 301 362
#     4  10  20  33  53  82 119 158 195 242 296 356
#
# _framework density 19.440579
#
# number of rings (size 3 to 8) (size 9 to 14) (size 15 to 20)
#    0.000    1.379    3.448    2.276    0.966    3.862 
#    0.000    0.000    0.000    0.828    0.000    5.793 
#    0.000    0.000    0.000    0.000    0.000    0.000 
#
# Total GULP energy -323426.568211 kJ/mol
# GULP energy per Si atom -5576.320142 kJ/mol
# Density = 1.939633 g / cm^3
# Si number density = 19.440579 Si / 1000 Ang^3
#
#
#
# Elastic Constant Matrix: (Units=GPa)
#
#
# Indices 1 2 3 4 5 6 
#
# 1 56.3279 1.9153 -7.2164 0.0000 0.0000 0.0000
# 2 1.9153 50.7245 7.1089 0.0000 0.0000 0.0000
# 3 -7.2164 7.1089 62.0719 0.0000 0.0000 0.0000
# 4 0.0000 0.0000 0.0000 21.5056 0.0000 0.0000
# 5 0.0000 0.0000 0.0000 0.0000 118.3639 0.0000
# 6 0.0000 0.0000 0.0000 0.0000 0.0000 19.3343
#
#
#
# Elastic Compliance Matrix: (Units=1/GPa)
#
#
# Indices 1 2 3 4 5 6 
#
# 1 0.018071 -0.000993 0.002215 0.000000 0.000000 0.000000
# 2 -0.000993 0.020090 -0.002416 0.000000 0.000000 0.000000
# 3 0.002215 -0.002416 0.016645 0.000000 0.000000 0.000000
# 4 0.000000 0.000000 0.000000 0.046500 0.000000 0.000000
# 5 0.000000 0.000000 0.000000 0.000000 0.008449 0.000000
# 6 0.000000 0.000000 0.000000 0.000000 0.000000 0.051721
#
#
# Mechanical properties :
#
#
# Convention : Reuss Voigt Hill
#
# Bulk Modulus (GPa) = 19.07783 19.19330 19.13556
# Shear Modulus (GPa) = 27.57307 42.99520 35.28414
#
# Velocity S-wave (km/s) = 3.77015 4.70789 4.26487
# Velocity P-wave (km/s) = 5.36533 6.28065 5.84095
#
# Compressibility (1/GPa) = 0.05241686
#
# Stress axis : x y z
#
# Youngs Moduli (GPa) = 55.33826 49.77486 60.07972
#
# Poissons Ratio (x) = 0.04941 -0.13305
# Poissons Ratio (y) = 0.05493 0.14517
# Poissons Ratio (z) = -0.12255 0.12027
#
# Static dielectric constant tensor:
#      x y z
#    x 1.652280 0.000000 0.000000 
#    y 0.000000 1.721000 0.000000 
#    z 0.000000 0.000000 1.703740 
# 
# From -- ./inp_files/6481.got.cif
#   From: 2010.05.17/outbox.cif.g08.bks.cpg/sg55_4_cif.got.tgz:6481.got - 2010.06.03 13:27:54.
