data_PCOD9426790
_publ_section_title
;
Structure prediction by ZEFSAII (Michael W. Deem and Ramdas Pophale) SiO2 
 PCOD9426790
Probable space group: P B A M
;
_chemical_formula_sum "Si O2"
_cell_formula_units_Z 64
_cell_length_a 25.099444
_cell_length_b 14.884114
_cell_length_c 8.917695
_cell_angle_alpha 90.000000
_cell_angle_beta 90.000000
_cell_angle_gamma 90.000000
_cell_volume 3331.499125
_symmetry_space_group_name_H-M "P B A M"
_symmetry_group_IT_number 55
_symmetry_cell_setting 'orthorhombic'
loop_
_space_group_symop_operation_xyz
x,y,z
-x,-y,z
1/2+x,1/2-y,-z
1/2-x,1/2+y,-z
-x,-y,-z
x,y,-z
1/2-x,1/2+y,z
1/2+x,1/2-y,z
loop_
_atom_site_type_symbol
_atom_site_label
_atom_site_fract_x
_atom_site_fract_y
_atom_site_fract_z
Si Si1 0.604944 0.523598 0.322190
Si Si2 0.286207 0.447320 0.822897
Si Si3 0.775386 0.245333 0.677062
Si Si4 0.559328 0.353594 0.177937
Si Si5 0.846020 0.741506 0.322162
Si Si6 0.164681 0.453754 0.178721
Si Si7 0.375045 0.127278 0.321078
Si Si8 0.950839 0.211064 0.320114
O O1 0.602594 0.510547 0.500000
O O2 0.664969 0.508696 0.264827
O O3 0.565750 0.453519 0.243908
O O4 0.587219 0.625603 0.288060
O O5 0.285819 0.342446 0.776195
O O6 0.226400 0.479290 0.785795
O O7 0.294902 0.457600 0.000000
O O8 0.779793 0.219358 0.500000
O O9 0.714604 0.274905 0.703520
O O10 0.819705 0.319687 0.705861
O O11 0.610620 0.299320 0.235922
O O12 0.506469 0.306645 0.240480
O O13 0.558205 0.356686 0.000000
O O14 0.856450 0.744711 0.500000
O O15 0.847272 0.639006 0.263637
O O16 0.127464 0.534219 0.233582
O O17 0.161197 0.439834 0.000000
O O18 0.378885 0.110732 0.500000
O O19 0.421536 0.196707 0.277295
O O20 0.958683 0.212548 0.500000
#
# Coordination Sequence:
#
# PCOD9426790 Si02
#       8
#     8   8   8   8   8   8   8   8
#     4  11  22  39  62  87 119 161 204 248 293 353
#     4  10  20  34  54  86 125 160 193 237 297 357
#     4   9  18  35  58  86 116 154 199 242 292 351
#     4  12  26  41  60  88 122 157 199 251 305 362
#     4  10  21  40  64  88 117 159 206 250 296 353
#     4  10  22  38  57  88 127 163 196 245 306 359
#     4  10  20  37  61  90 119 155 203 250 294 354
#     4  10  22  42  64  87 118 156 203 251 296 351
#
# _framework density 19.210570000000001
#
# number of rings (size 3 to 8) (size 9 to 14) (size 15 to 20)
#    0.000    1.750    1.250    3.000    1.750    5.500 
#    0.000    0.625    0.000    3.750    0.000    0.000 
#    0.000    0.000    0.000    0.000    0.000    0.000 
#
# Total GULP energy -357672.504536 kJ/mol
# GULP energy per Si atom -5588.632883 kJ/mol
# Density = 1.916685 g / cm^3
# Si number density = 19.210570 Si / 1000 Ang^3
#
#
#
# Elastic Constant Matrix: (Units=GPa)
#
#
# Indices 1 2 3 4 5 6 
#
# 1 58.6938 3.0894 27.9300 0.0000 0.0000 0.0000
# 2 3.0894 16.7699 2.4060 0.0000 0.0000 0.0000
# 3 27.9300 2.4060 28.6885 0.0000 0.0000 0.0000
# 4 0.0000 0.0000 0.0000 19.1125 0.0000 0.0000
# 5 0.0000 0.0000 0.0000 0.0000 24.1517 0.0000
# 6 0.0000 0.0000 0.0000 0.0000 0.0000 26.3405
#
#
#
# Elastic Compliance Matrix: (Units=1/GPa)
#
#
# Indices 1 2 3 4 5 6 
#
# 1 0.031778 -0.001433 -0.030818 0.000000 0.000000 0.000000
# 2 -0.001433 0.060421 -0.003672 0.000000 0.000000 0.000000
# 3 -0.030818 -0.003672 0.065168 0.000000 0.000000 0.000000
# 4 0.000000 0.000000 0.000000 0.052322 0.000000 0.000000
# 5 0.000000 0.000000 0.000000 0.000000 0.041405 0.000000
# 6 0.000000 0.000000 0.000000 0.000000 0.000000 0.037964
#
#
# Mechanical properties :
#
#
# Convention : Reuss Voigt Hill
#
# Bulk Modulus (GPa) = 11.69293 19.00033 15.34663
# Shear Modulus (GPa) = 12.83990 18.63607 15.73799
#
# Velocity S-wave (km/s) = 2.58810 3.11801 2.86533
# Velocity P-wave (km/s) = 3.87698 4.78275 4.35349
#
# Compressibility (1/GPa) = 0.08552174
#
# Stress axis : x y z
#
# Youngs Moduli (GPa) = 31.46841 16.55046 15.34493
#
# Poissons Ratio (x) = 0.02371 0.47289
# Poissons Ratio (y) = 0.04509 0.05635
# Poissons Ratio (z) = 0.96978 0.06078
#
# Static dielectric constant tensor:
#      x y z
#    x 1.669640 0.000000 0.000000 
#    y 0.000000 1.661490 0.000000 
#    z 0.000000 0.000000 1.639560 
# 
# From -- ./inp_files/9665.got.cif
#   From: 2010.05.17/outbox.cif.g08.bks.cpg/sg55_5_cif.got.tgz:9665.got - 2010.06.03 13:27:54.
