data_PCOD9426812
_publ_section_title
;
Structure prediction by ZEFSAII (Michael W. Deem and Ramdas Pophale) SiO2 
 PCOD9426812
Probable space group: P B A M
;
_chemical_formula_sum "Si O2"
_cell_formula_units_Z 64
_cell_length_a 12.088140
_cell_length_b 17.011541
_cell_length_c 15.881776
_cell_angle_alpha 90.000000
_cell_angle_beta 90.000000
_cell_angle_gamma 90.000000
_cell_volume 3265.894894
_symmetry_space_group_name_H-M "P B A M"
_symmetry_group_IT_number 55
_symmetry_cell_setting 'orthorhombic'
loop_
_space_group_symop_operation_xyz
x,y,z
-x,-y,z
1/2+x,1/2-y,-z
1/2-x,1/2+y,-z
-x,-y,-z
x,y,-z
1/2-x,1/2+y,z
1/2+x,1/2-y,z
loop_
_atom_site_type_symbol
_atom_site_label
_atom_site_fract_x
_atom_site_fract_y
_atom_site_fract_z
Si Si1 0.407929 0.931295 0.900968
Si Si2 0.340187 0.226934 0.329646
Si Si3 0.600292 0.822231 0.904861
Si Si4 0.487423 0.089314 0.597423
Si Si5 0.240970 0.374792 0.406940
Si Si6 0.708354 0.541965 0.769356
Si Si7 0.805789 0.860898 0.790760
Si Si8 0.949713 0.175737 0.820569
O O1 0.479803 0.854041 0.878091
O O2 0.312244 0.944737 0.832643
O O3 0.500000 0.000000 0.895848
O O4 0.371115 0.927128 0.000000
O O5 0.402605 0.148303 0.358683
O O6 0.302345 0.291179 0.397413
O O7 0.229083 0.198027 0.283284
O O8 0.416897 0.272852 0.262159
O O9 0.700358 0.857010 0.851960
O O10 0.600644 0.728685 0.894481
O O11 0.614314 0.848071 0.000000
O O12 0.451825 0.079785 0.500000
O O13 0.607898 0.129418 0.598075
O O14 0.500000 0.000000 0.632920
O O15 0.266815 0.408508 0.500000
O O16 0.272375 0.424834 0.324600
O O17 0.682776 0.450392 0.762382
O O18 0.609317 0.592671 0.809108
O O19 0.920254 0.833978 0.830485
#
# Coordination Sequence:
#
# PCOD9426812 Si02
#       8
#     8   8   8   8   8   8   8   8
#     4  10  21  39  63  94 125 159 206 249 301 372
#     4  10  21  37  59  82 114 159 205 250 306 371
#     4  10  23  40  61  90 122 159 204 254 306 371
#     4  10  20  34  55  85 115 144 192 257 314 365
#     4  10  22  38  59  88 124 163 207 261 319 379
#     4  11  23  39  65  89 126 165 206 260 314 371
#     4  11  22  39  61  88 120 163 206 253 312 373
#     4  10  24  39  57  88 120 160 205 250 306 368
#
# _framework density 19.596467000000001
#
# number of rings (size 3 to 8) (size 9 to 14) (size 15 to 20)
#    0.000    1.750    1.250    2.250    8.750    1.500 
#    0.000    0.625    0.000    9.750    0.000    0.000 
#    0.000    0.000    0.000    0.000    0.000    0.000 
#
# Total GULP energy -357072.750737 kJ/mol
# GULP energy per Si atom -5579.261730 kJ/mol
# Density = 1.955186 g / cm^3
# Si number density = 19.596467 Si / 1000 Ang^3
#
#
#
# Elastic Constant Matrix: (Units=GPa)
#
#
# Indices 1 2 3 4 5 6 
#
# 1 49.0262 19.3912 11.9512 0.0000 0.0000 0.0000
# 2 19.3912 79.3501 23.6036 0.0000 0.0000 0.0000
# 3 11.9512 23.6036 60.3017 0.0000 0.0000 0.0000
# 4 0.0000 0.0000 0.0000 19.0930 0.0000 0.0000
# 5 0.0000 0.0000 0.0000 0.0000 19.4599 0.0000
# 6 0.0000 0.0000 0.0000 0.0000 0.0000 33.9355
#
#
#
# Elastic Compliance Matrix: (Units=1/GPa)
#
#
# Indices 1 2 3 4 5 6 
#
# 1 0.022952 -0.004817 -0.002663 0.000000 0.000000 0.000000
# 2 -0.004817 0.015274 -0.005024 0.000000 0.000000 0.000000
# 3 -0.002663 -0.005024 0.019078 0.000000 0.000000 0.000000
# 4 0.000000 0.000000 0.000000 0.052375 0.000000 0.000000
# 5 0.000000 0.000000 0.000000 0.000000 0.051388 0.000000
# 6 0.000000 0.000000 0.000000 0.000000 0.000000 0.029468
#
#
# Mechanical properties :
#
#
# Convention : Reuss Voigt Hill
#
# Bulk Modulus (GPa) = 30.96437 33.17444 32.06941
# Shear Modulus (GPa) = 22.09392 23.41316 22.75354
#
# Velocity S-wave (km/s) = 3.36139 3.46029 3.41119
# Velocity P-wave (km/s) = 5.55882 5.73849 5.64937
#
# Compressibility (1/GPa) = 0.03229518
#
# Stress axis : x y z
#
# Youngs Moduli (GPa) = 43.56991 65.47134 52.41723
#
# Poissons Ratio (x) = 0.31534 0.13961
# Poissons Ratio (y) = 0.20986 0.26334
# Poissons Ratio (z) = 0.11605 0.32893
#
# Static dielectric constant tensor:
#      x y z
#    x 1.661730 0.000000 0.000000 
#    y 0.000000 1.718210 0.000000 
#    z 0.000000 0.000000 1.714720 
# 
# From -- ./inp_files/21343.got.cif
#   From: 2010.05.17/outbox.cif.g08.bks.cpg/sg55_11_cif.got.tgz:21343.got - 2010.06.03 13:27:54.
