data_PCOD9426685
_publ_section_title
;
Structure prediction by ZEFSAII (Michael W. Deem and Ramdas Pophale) SiO2 
 PCOD9426685
Probable space group: P B A M
;
_chemical_formula_sum "Si O2"
_cell_formula_units_Z 64
_cell_length_a 9.459844
_cell_length_b 23.196099
_cell_length_c 14.855992
_cell_angle_alpha 90.000000
_cell_angle_beta 90.000000
_cell_angle_gamma 90.000000
_cell_volume 3259.872281
_symmetry_space_group_name_H-M "P B A M"
_symmetry_group_IT_number 55
_symmetry_cell_setting 'orthorhombic'
loop_
_space_group_symop_operation_xyz
x,y,z
-x,-y,z
1/2+x,1/2-y,-z
1/2-x,1/2+y,-z
-x,-y,-z
x,y,-z
1/2-x,1/2+y,z
1/2+x,1/2-y,z
loop_
_atom_site_type_symbol
_atom_site_label
_atom_site_fract_x
_atom_site_fract_y
_atom_site_fract_z
Si Si1 0.255522 0.207715 0.898441
Si Si2 0.335665 0.725542 0.596314
Si Si3 0.931189 0.183677 0.848485
Si Si4 0.159601 0.930651 0.600224
Si Si5 0.993406 0.569306 0.604151
Si Si6 0.886286 0.192345 0.637217
Si Si7 0.004820 0.938083 0.212222
Si Si8 0.778967 0.369719 0.266859
O O1 0.317055 0.272738 0.890840
O O2 0.323242 0.165065 0.823571
O O3 0.086863 0.204383 0.879154
O O4 0.281134 0.187332 0.000000
O O5 0.293205 0.702111 0.500000
O O6 0.265632 0.786259 0.612931
O O7 0.501261 0.736091 0.599051
O O8 0.288941 0.680293 0.671135
O O9 0.908612 0.192369 0.742567
O O10 0.929774 0.113456 0.849662
O O11 0.143992 0.959300 0.500000
O O12 0.325970 0.918698 0.613884
O O13 0.082876 0.869120 0.595821
O O14 0.095724 0.951406 0.695745
O O15 0.034412 0.582719 0.500000
O O16 0.096420 0.599815 0.676360
O O17 0.000000 0.500000 0.615021
O O18 0.849891 0.913314 0.241274
O O19 0.000000 0.000000 0.164963
#
# Coordination Sequence:
#
# PCOD9426685 Si02
#       8
#     8   8   8   8   8   8   8   8
#     4  11  22  39  64  90 116 149 190 241 306 366
#     4  12  22  34  53  81 120 158 193 232 287 354
#     4  10  20  40  60  87 121 149 192 248 294 362
#     4  10  20  34  51  78 114 154 203 247 281 336
#     4  10  22  38  56  83 119 163 209 245 288 345
#     4  11  21  36  51  79 117 154 191 236 294 353
#     4  10  21  37  59  84 114 160 203 240 298 351
#     4  11  22  38  59  85 120 152 196 250 297 351
#
# _framework density 19.632670000000001
#
# number of rings (size 3 to 8) (size 9 to 14) (size 15 to 20)
#    0.000    1.375    5.000    2.625    1.750    2.750 
#    0.000    0.000    0.000    9.750    0.000    0.000 
#    0.000    0.000    0.000    0.000    0.000    0.000 
#
# Total GULP energy -356404.256577 kJ/mol
# GULP energy per Si atom -5568.816509 kJ/mol
# Density = 1.958799 g / cm^3
# Si number density = 19.632670 Si / 1000 Ang^3
#
#
#
# Elastic Constant Matrix: (Units=GPa)
#
#
# Indices 1 2 3 4 5 6 
#
# 1 51.9346 25.8346 16.1704 0.0000 0.0000 0.0000
# 2 25.8346 94.4032 29.2786 0.0000 0.0000 0.0000
# 3 16.1704 29.2786 109.9842 0.0000 0.0000 0.0000
# 4 0.0000 0.0000 0.0000 11.2811 0.0000 0.0000
# 5 0.0000 0.0000 0.0000 0.0000 2.9425 0.0000
# 6 0.0000 0.0000 0.0000 0.0000 0.0000 29.9713
#
#
#
# Elastic Compliance Matrix: (Units=1/GPa)
#
#
# Indices 1 2 3 4 5 6 
#
# 1 0.022622 -0.005624 -0.001829 0.000000 0.000000 0.000000
# 2 -0.005624 0.012944 -0.002619 0.000000 0.000000 0.000000
# 3 -0.001829 -0.002619 0.010058 0.000000 0.000000 0.000000
# 4 0.000000 0.000000 0.000000 0.088644 0.000000 0.000000
# 5 0.000000 0.000000 0.000000 0.000000 0.339842 0.000000
# 6 0.000000 0.000000 0.000000 0.000000 0.000000 0.033365
#
#
# Mechanical properties :
#
#
# Convention : Reuss Voigt Hill
#
# Bulk Modulus (GPa) = 39.24448 44.32101 41.78275
# Shear Modulus (GPa) = 9.32641 21.17488 15.25064
#
# Velocity S-wave (km/s) = 2.18192 3.28770 2.79014
# Velocity P-wave (km/s) = 5.13619 6.08573 5.63101
#
# Compressibility (1/GPa) = 0.02548129
#
# Stress axis : x y z
#
# Youngs Moduli (GPa) = 44.20507 77.25543 99.42019
#
# Poissons Ratio (x) = 0.43445 0.18184
# Poissons Ratio (y) = 0.24859 0.26038
# Poissons Ratio (z) = 0.08085 0.20233
#
# Static dielectric constant tensor:
#      x y z
#    x 1.732460 0.000000 0.000000 
#    y 0.000000 1.730610 0.000000 
#    z 0.000000 0.000000 1.708460 
# 
# From -- ./inp_files/17859.got.cif
#   From: 2010.05.17/outbox.cif.g08.bks.cpg/sg55_9_cif.got.tgz:17859.got - 2010.06.03 13:27:54.
