data_PCOD9426607
_publ_section_title
;
Structure prediction by ZEFSAII (Michael W. Deem and Ramdas Pophale) SiO2 
 PCOD9426607
Probable space group: P B A M
;
_chemical_formula_sum "Si O2"
_cell_formula_units_Z 64
_cell_length_a 9.006565
_cell_length_b 18.587159
_cell_length_c 16.810231
_cell_angle_alpha 90.000000
_cell_angle_beta 90.000000
_cell_angle_gamma 90.000000
_cell_volume 2814.141191
_symmetry_space_group_name_H-M "P B A M"
_symmetry_group_IT_number 55
_symmetry_cell_setting 'orthorhombic'
loop_
_space_group_symop_operation_xyz
x,y,z
-x,-y,z
1/2+x,1/2-y,-z
1/2-x,1/2+y,-z
-x,-y,-z
x,y,-z
1/2-x,1/2+y,z
1/2+x,1/2-y,z
loop_
_atom_site_type_symbol
_atom_site_label
_atom_site_fract_x
_atom_site_fract_y
_atom_site_fract_z
Si Si1 0.340861 0.461344 0.262882
Si Si2 0.344731 0.280638 0.409797
Si Si3 0.447157 0.658574 0.294961
Si Si4 0.358720 0.919076 0.592124
Si Si5 0.633425 0.870728 0.677042
Si Si6 0.982346 0.704501 0.189457
Si Si7 0.200735 0.796385 0.089469
Si Si8 0.845528 0.042143 0.087238
O O1 0.500000 0.500000 0.276562
O O2 0.406388 0.379316 0.259360
O O3 0.230834 0.461122 0.338529
O O4 0.276979 0.476532 0.174360
O O5 0.354845 0.257120 0.500000
O O6 0.495121 0.321381 0.382910
O O7 0.210156 0.337606 0.402660
O O8 0.337280 0.209884 0.356535
O O9 0.300106 0.609683 0.297413
O O10 0.421309 0.730777 0.244979
O O11 0.336178 0.942111 0.500000
O O12 0.532513 0.913539 0.614621
O O13 0.531615 0.860269 0.754370
O O14 0.859309 0.685068 0.126128
O O15 0.120701 0.737953 0.143201
O O16 0.118143 0.872816 0.087059
O O17 0.215756 0.768848 0.000000
O O18 0.771562 0.027782 0.000000
O O19 0.000000 0.000000 0.087599
#
# Coordination Sequence:
#
# PCOD9426607 Si02
#       8
#     8   8   8   8   8   8   8   8
#     4  10  20  38  61  79 103 143 192 243 289 336
#     4   9  18  31  49  75 106 140 178 218 266 333
#     4  10  20  33  51  78 108 143 181 227 284 337
#     4  10  21  35  53  80 110 145 188 230 280 343
#     4  11  20  30  51  74 110 147 174 224 274 340
#     4  11  20  34  50  81 115 149 185 223 285 348
#     4  11  21  34  54  80 116 151 185 232 287 343
#     4   9  18  33  56  84 109 142 193 240 274 325
#
# _framework density 22.742286
#
# number of rings (size 3 to 8) (size 9 to 14) (size 15 to 20)
#    0.000    1.875    2.500    3.000    1.750    2.250 
#    0.000    0.625    0.000    0.750    0.000    0.875 
#    0.000   14.000    0.000    0.000    0.000    0.000 
#
# Total GULP energy -357150.762085 kJ/mol
# GULP energy per Si atom -5580.480658 kJ/mol
# Density = 2.269052 g / cm^3
# Si number density = 22.742286 Si / 1000 Ang^3
#
#
#
# Elastic Constant Matrix: (Units=GPa)
#
#
# Indices 1 2 3 4 5 6 
#
# 1 83.3174 2.2114 48.9109 0.0000 0.0000 0.0000
# 2 2.2114 24.6655 6.9247 0.0000 0.0000 0.0000
# 3 48.9109 6.9247 183.4401 0.0000 0.0000 0.0000
# 4 0.0000 0.0000 0.0000 20.6783 0.0000 0.0000
# 5 0.0000 0.0000 0.0000 0.0000 6.8901 0.0000
# 6 0.0000 0.0000 0.0000 0.0000 0.0000 26.5866
#
#
#
# Elastic Compliance Matrix: (Units=1/GPa)
#
#
# Indices 1 2 3 4 5 6 
#
# 1 0.014231 -0.000213 -0.003786 0.000000 0.000000 0.000000
# 2 -0.000213 0.040980 -0.001490 0.000000 0.000000 0.000000
# 3 -0.003786 -0.001490 0.006517 0.000000 0.000000 0.000000
# 4 0.000000 0.000000 0.000000 0.048360 0.000000 0.000000
# 5 0.000000 0.000000 0.000000 0.000000 0.145136 0.000000
# 6 0.000000 0.000000 0.000000 0.000000 0.000000 0.037613
#
#
# Mechanical properties :
#
#
# Convention : Reuss Voigt Hill
#
# Bulk Modulus (GPa) = 19.70479 45.27965 32.49222
# Shear Modulus (GPa) = 15.58934 26.38940 20.98937
#
# Velocity S-wave (km/s) = 2.62100 3.41011 3.04126
# Velocity P-wave (km/s) = 4.22407 5.95468 5.16241
#
# Compressibility (1/GPa) = 0.05074907
#
# Stress axis : x y z
#
# Youngs Moduli (GPa) = 70.27073 24.40217 153.44076
#
# Poissons Ratio (x) = 0.00519 0.58097
# Poissons Ratio (y) = 0.01496 0.22866
# Poissons Ratio (z) = 0.26607 0.03636
#
# Static dielectric constant tensor:
#      x y z
#    x 1.861250 0.000000 0.000000 
#    y 0.000000 1.929260 0.000000 
#    z 0.000000 0.000000 1.854140 
# 
# From -- ./inp_files/21080.got.cif
#   From: 2010.05.17/outbox.cif.g08.bks.cpg/sg55_11_cif.got.tgz:21080.got - 2010.06.03 13:27:54.
