data_PCOD9426914
_publ_section_title
;
Structure prediction by ZEFSAII (Michael W. Deem and Ramdas Pophale) SiO2 
 PCOD9426914
Probable space group: P B A M
;
_chemical_formula_sum "Si O2"
_cell_formula_units_Z 48
_cell_length_a 11.991005
_cell_length_b 19.929832
_cell_length_c 7.818263
_cell_angle_alpha 90.000000
_cell_angle_beta 90.000000
_cell_angle_gamma 90.000000
_cell_volume 1868.398447
_symmetry_space_group_name_H-M "P B A M"
_symmetry_group_IT_number 55
_symmetry_cell_setting 'orthorhombic'
loop_
_space_group_symop_operation_xyz
x,y,z
-x,-y,z
1/2+x,1/2-y,-z
1/2-x,1/2+y,-z
-x,-y,-z
x,y,-z
1/2-x,1/2+y,z
1/2+x,1/2-y,z
loop_
_atom_site_type_symbol
_atom_site_label
_atom_site_fract_x
_atom_site_fract_y
_atom_site_fract_z
Si Si1 0.980941 0.072972 0.310526
Si Si2 0.298017 0.100120 0.298325
Si Si3 0.722155 0.251417 0.700970
Si Si4 0.265115 0.454637 0.815542
Si Si5 0.034387 0.420863 0.695879
Si Si6 0.479067 0.279199 0.288349
O O1 0.034671 0.070260 0.500000
O O2 0.251166 0.034369 0.208297
O O3 0.005871 0.144352 0.232278
O O4 0.847697 0.072861 0.323890
O O5 0.308931 0.082524 0.500000
O O6 0.231186 0.167840 0.285702
O O7 0.423965 0.114380 0.236744
O O8 0.723128 0.232775 0.500000
O O9 0.592873 0.237439 0.761686
O O10 0.848213 0.231641 0.766545
O O11 0.500000 0.500000 0.772292
O O12 0.147060 0.418980 0.798754
O O13 0.313915 0.440177 0.000000
O O14 0.055266 0.400666 0.500000
O O15 0.000000 0.500000 0.694677
O O16 0.476895 0.276253 0.500000
#
# Coordination Sequence:
#
# PCOD9426914 Si02
#       6
#     8   8   8   8   8   8
#     4  10  20  35  55  77 105 143 183 225 277 337
#     4   9  17  31  52  76 106 144 183 223 271 329
#     4   9  17  31  52  80 110 139 177 228 281 330
#     4  11  21  31  48  76 109 142 179 227 277 328
#     4   8  15  28  46  70 101 140 183 224 270 327
#     4   9  18  31  51  80 111 143 182 229 280 332
#
# _framework density 25.690449999999998
#
# number of rings (size 3 to 8) (size 9 to 14) (size 15 to 20)
#    0.000    2.667    0.000    3.500    0.000    7.333 
#    0.000    5.000    0.000    1.000    0.000    0.000 
#    0.000    0.000    0.000    0.000    0.000    0.000 
#
# Total GULP energy -267543.397085 kJ/mol
# GULP energy per Si atom -5573.820773 kJ/mol
# Density = 2.563198 g / cm^3
# Si number density = 25.690450 Si / 1000 Ang^3
#
#
#
# Elastic Constant Matrix: (Units=GPa)
#
#
# Indices 1 2 3 4 5 6 
#
# 1 199.8548 41.6392 14.7468 0.0000 0.0000 0.0000
# 2 41.6392 86.2563 4.5915 0.0000 0.0000 0.0000
# 3 14.7468 4.5915 53.2532 0.0000 0.0000 0.0000
# 4 0.0000 0.0000 0.0000 -6.4770 0.0000 0.0000
# 5 0.0000 0.0000 0.0000 0.0000 2.8098 0.0000
# 6 0.0000 0.0000 0.0000 0.0000 0.0000 35.9173
#
#
#
# Elastic Compliance Matrix: (Units=1/GPa)
#
#
# Indices 1 2 3 4 5 6 
#
# 1 0.005656 -0.002659 -0.001337 0.000000 0.000000 0.000000
# 2 -0.002659 0.012897 -0.000376 0.000000 0.000000 0.000000
# 3 -0.001337 -0.000376 0.019181 0.000000 0.000000 0.000000
# 4 0.000000 0.000000 0.000000 -0.154392 0.000000 0.000000
# 5 0.000000 0.000000 0.000000 0.000000 0.355892 0.000000
# 6 0.000000 0.000000 0.000000 0.000000 0.000000 0.027842
#
#
# Mechanical properties :
#
#
# Convention : Reuss Voigt Hill
#
# Bulk Modulus (GPa) = 34.49422 51.25768 42.87595
# Shear Modulus (GPa) = 17.51420 25.00916 21.26168
#
# Velocity S-wave (km/s) = 2.61385 3.12345 2.87994
# Velocity P-wave (km/s) = 4.75033 5.74485 5.27109
#
# Compressibility (1/GPa) = 0.02899036
#
# Stress axis : x y z
#
# Youngs Moduli (GPa) = 176.79208 77.53670 52.13534
#
# Poissons Ratio (x) = 0.20620 0.06971
# Poissons Ratio (y) = 0.47015 0.01958
# Poissons Ratio (z) = 0.23638 0.02912
#
# Static dielectric constant tensor:
#      x y z
#    x 2.120100 0.000000 0.000000 
#    y 0.000000 2.071010 0.000000 
#    z 0.000000 0.000000 2.057790 
# 
# From -- ./inp_files/2844.got.cif
#   From: 2010.05.17/outbox.cif.g08.bks.cpg/sg55_2_cif.got.tgz:2844.got - 2010.06.03 13:27:54.
