data_PCOD9426108
_publ_section_title
;
Structure prediction by ZEFSAII (Michael W. Deem and Ramdas Pophale) SiO2 
 PCOD9426108
Probable space group: P B A M
;
_chemical_formula_sum "Si O2"
_cell_formula_units_Z 40
_cell_length_a 12.835632
_cell_length_b 16.069360
_cell_length_c 9.659229
_cell_angle_alpha 90.000000
_cell_angle_beta 90.000000
_cell_angle_gamma 90.000000
_cell_volume 1992.316355
_symmetry_space_group_name_H-M "P B A M"
_symmetry_group_IT_number 55
_symmetry_cell_setting 'orthorhombic'
loop_
_space_group_symop_operation_xyz
x,y,z
-x,-y,z
1/2+x,1/2-y,-z
1/2-x,1/2+y,-z
-x,-y,-z
x,y,-z
1/2-x,1/2+y,z
1/2+x,1/2-y,z
loop_
_atom_site_type_symbol
_atom_site_label
_atom_site_fract_x
_atom_site_fract_y
_atom_site_fract_z
Si Si1 0.607922 0.862932 0.000000
Si Si2 0.893217 0.750489 0.759709
Si Si3 0.139917 0.370667 0.000000
Si Si4 0.734452 0.409865 0.764081
Si Si5 0.530315 0.144967 0.500000
Si Si6 0.334936 0.022533 0.500000
Si Si7 0.664420 0.515969 0.000000
Si Si8 0.958254 0.185454 0.000000
O O1 0.485413 0.886649 0.000000
O O2 0.665700 0.893240 0.862238
O O3 0.620842 0.763032 0.000000
O O4 0.813206 0.822167 0.715420
O O5 0.948036 0.701902 0.634531
O O6 0.840481 0.682945 0.861687
O O7 0.974025 0.795845 0.863216
O O8 0.217477 0.447350 0.000000
O O9 0.766889 0.465926 0.636439
O O10 0.655553 0.458469 0.865349
O O11 0.418807 0.098676 0.500000
O O12 0.608815 0.066342 0.500000
O O13 0.590979 0.595347 0.000000
#
# Coordination Sequence:
#
# PCOD9426108 Si02
#       8
#     4   8   4   8   4   4   4   4
#     4   9  19  35  57  85 114 151 193 236 288 345
#     4  10  21  38  59  82 115 157 193 232 282 344
#     4  10  19  34  57  85 114 148 194 241 287 334
#     4  11  22  36  57  85 118 153 189 233 286 344
#     4  11  23  40  60  83 115 153 191 239 292 337
#     4  11  23  38  58  87 117 147 191 241 290 338
#     4  11  22  36  60  89 116 150 190 242 291 336
#     4  10  20  38  62  85 112 150 197 239 282 338
#
# _framework density 20.077131999999999
#
# number of rings (size 3 to 8) (size 9 to 14) (size 15 to 20)
#    0.000    1.800    0.000    7.800    0.000    4.800 
#    0.000    3.000    0.000    3.600    0.000    0.000 
#    0.000    0.000    0.000    0.000    0.000    0.000 
#
# Total GULP energy -223433.397990 kJ/mol
# GULP energy per Si atom -5585.834950 kJ/mol
# Density = 2.003144 g / cm^3
# Si number density = 20.077132 Si / 1000 Ang^3
#
#
#
# Elastic Constant Matrix: (Units=GPa)
#
#
# Indices 1 2 3 4 5 6 
#
# 1 46.6866 30.7854 22.5627 0.0000 0.0000 0.0000
# 2 30.7854 114.1485 40.6762 0.0000 0.0000 0.0000
# 3 22.5627 40.6762 124.0880 0.0000 0.0000 0.0000
# 4 0.0000 0.0000 0.0000 79.6343 0.0000 0.0000
# 5 0.0000 0.0000 0.0000 0.0000 34.6677 0.0000
# 6 0.0000 0.0000 0.0000 0.0000 0.0000-5893.6006
#
#
#
# Elastic Compliance Matrix: (Units=1/GPa)
#
#
# Indices 1 2 3 4 5 6 
#
# 1 0.026912 -0.006244 -0.002847 0.000000 0.000000 0.000000
# 2 -0.006244 0.011368 -0.002591 0.000000 0.000000 0.000000
# 3 -0.002847 -0.002591 0.009426 0.000000 0.000000 0.000000
# 4 0.000000 0.000000 0.000000 0.012557 0.000000 0.000000
# 5 0.000000 0.000000 0.000000 0.000000 0.028845 0.000000
# 6 0.000000 0.000000 0.000000 0.000000 0.000000 -0.000170
#
#
# Mechanical properties :
#
#
# Convention : Reuss Voigt Hill
#
# Bulk Modulus (GPa) = 41.07991 52.55240 46.81615
# Shear Modulus (GPa) = 41.52267 -1143.13312 -550.80523
#
# Velocity S-wave (km/s) = 4.55263 -23.88738 -16.58132
# Velocity P-wave (km/s) = 6.93835 27.10308 18.52615
#
# Compressibility (1/GPa) = 0.02434280
#
# Stress axis : x y z
#
# Youngs Moduli (GPa) = 37.15770 87.96825 106.09216
#
# Poissons Ratio (x) = 0.54925 0.30201
# Poissons Ratio (y) = 0.23200 0.27489
# Poissons Ratio (z) = 0.10578 0.22793
#
# Static dielectric constant tensor:
#      x y z
#    x 1.746090 0.000000 0.000000 
#    y 0.000000 1.703530 0.000000 
#    z 0.000000 0.000000 1.682600 
# 
# From -- ./inp_files/5261.got.cif
#   From: 2010.05.17/outbox.cif.g08.bks.cpg/sg55_3_cif.got.tgz:5261.got - 2010.06.03 13:27:54.
