data_PCOD9426730
_publ_section_title
;
Structure prediction by ZEFSAII (Michael W. Deem and Ramdas Pophale) SiO2 
 PCOD9426730
Probable space group: P B A M
;
_chemical_formula_sum "Si O2"
_cell_formula_units_Z 64
_cell_length_a 25.322665
_cell_length_b 15.052236
_cell_length_c 8.315823
_cell_angle_alpha 90.000000
_cell_angle_beta 90.000000
_cell_angle_gamma 90.000000
_cell_volume 3169.681795
_symmetry_space_group_name_H-M "P B A M"
_symmetry_group_IT_number 55
_symmetry_cell_setting 'orthorhombic'
loop_
_space_group_symop_operation_xyz
x,y,z
-x,-y,z
1/2+x,1/2-y,-z
1/2-x,1/2+y,-z
-x,-y,-z
x,y,-z
1/2-x,1/2+y,z
1/2+x,1/2-y,z
loop_
_atom_site_type_symbol
_atom_site_label
_atom_site_fract_x
_atom_site_fract_y
_atom_site_fract_z
Si Si1 0.671588 0.850605 0.183426
Si Si2 0.608911 0.678692 0.304684
Si Si3 0.414430 0.873214 0.191424
Si Si4 0.705633 0.146738 0.810240
Si Si5 0.576130 0.942314 0.310989
Si Si6 0.281464 0.656009 0.315002
Si Si7 0.494189 0.229664 0.692112
Si Si8 0.192662 0.964874 0.693705
O O1 0.642301 0.759395 0.229329
O O2 0.628534 0.926585 0.207306
O O3 0.719409 0.865474 0.303425
O O4 0.690457 0.848146 0.000000
O O5 0.611334 0.687279 0.500000
O O6 0.547432 0.693344 0.259012
O O7 0.640717 0.590556 0.257778
O O8 0.353848 0.871492 0.250521
O O9 0.448455 0.785503 0.232364
O O10 0.441379 0.958223 0.275308
O O11 0.415136 0.884845 0.000000
O O12 0.713288 0.251396 0.776882
O O13 0.754165 0.089254 0.740353
O O14 0.706134 0.130038 0.000000
O O15 0.587716 0.932531 0.500000
O O16 0.537835 0.861053 0.268430
O O17 0.297543 0.670225 0.500000
O O18 0.307946 0.566574 0.247105
O O19 0.500827 0.234811 0.500000
O O20 0.193041 0.969794 0.500000
#
# Coordination Sequence:
#
# PCOD9426730 Si02
#       8
#     8   8   8   8   8   8   8   8
#     4  11  20  31  50  78 110 145 180 220 271 327
#     4   9  18  35  56  79 107 138 178 227 272 322
#     4  11  23  36  51  76 111 146 186 232 280 337
#     4  11  24  39  55  81 116 152 187 230 280 334
#     4  10  20  34  53  78 109 146 187 229 275 331
#     4  11  22  36  56  82 111 148 190 230 279 337
#     4   9  19  34  54  78 106 143 184 228 277 333
#     4  10  21  37  60  85 110 143 184 231 281 335
#
# _framework density 20.191300999999999
#
# number of rings (size 3 to 8) (size 9 to 14) (size 15 to 20)
#    0.000    1.750    1.250    4.500    0.000    9.000 
#    0.000    0.000    0.000    0.750    0.000    5.250 
#    0.000    0.000    0.000    0.000    0.000    0.000 
#
# Total GULP energy -357053.267834 kJ/mol
# GULP energy per Si atom -5578.957310 kJ/mol
# Density = 2.014534 g / cm^3
# Si number density = 20.191301 Si / 1000 Ang^3
#
#
#
# Elastic Constant Matrix: (Units=GPa)
#
#
# Indices 1 2 3 4 5 6 
#
# 1 30.3159 -9.0181 4.0463 0.0000 0.0000 0.0000
# 2 -9.0181 50.5052 -4.9770 0.0000 0.0000 0.0000
# 3 4.0463 -4.9770 11.4192 0.0000 0.0000 0.0000
# 4 0.0000 0.0000 0.0000 10.2694 0.0000 0.0000
# 5 0.0000 0.0000 0.0000 0.0000 6.6867 0.0000
# 6 0.0000 0.0000 0.0000 0.0000 0.0000 23.0248
#
#
#
# Elastic Compliance Matrix: (Units=1/GPa)
#
#
# Indices 1 2 3 4 5 6 
#
# 1 0.035980 0.005400 -0.010396 0.000000 0.000000 0.000000
# 2 0.005400 0.021499 0.007457 0.000000 0.000000 0.000000
# 3 -0.010396 0.007457 0.094505 0.000000 0.000000 0.000000
# 4 0.000000 0.000000 0.000000 0.097377 0.000000 0.000000
# 5 0.000000 0.000000 0.000000 0.000000 0.149551 0.000000
# 6 0.000000 0.000000 0.000000 0.000000 0.000000 0.043431
#
#
# Mechanical properties :
#
#
# Convention : Reuss Voigt Hill
#
# Bulk Modulus (GPa) = 6.37323 8.03808 7.20566
# Shear Modulus (GPa) = 10.20985 14.80878 12.50932
#
# Velocity S-wave (km/s) = 2.25112 2.71112 2.49176
# Velocity P-wave (km/s) = 3.14960 3.71347 3.44310
#
# Compressibility (1/GPa) = 0.15690620
#
# Stress axis : x y z
#
# Youngs Moduli (GPa) = 27.79330 46.51380 10.58143
#
# Poissons Ratio (x) = -0.25118 0.11000
# Poissons Ratio (y) = -0.15009 -0.07890
# Poissons Ratio (z) = 0.28893 -0.34684
#
# Static dielectric constant tensor:
#      x y z
#    x 1.770920 0.000000 0.000000 
#    y 0.000000 1.748420 0.000000 
#    z 0.000000 0.000000 1.692320 
# 
# From -- ./inp_files/9726.got.cif
#   From: 2010.05.17/outbox.cif.g08.bks.cpg/sg55_5_cif.got.tgz:9726.got - 2010.06.03 13:27:54.
