data_PCOD9426357
_publ_section_title
;
Structure prediction by ZEFSAII (Michael W. Deem and Ramdas Pophale) SiO2 
 PCOD9426357
Probable space group: P B A M
;
_chemical_formula_sum "Si O2"
_cell_formula_units_Z 56
_cell_length_a 19.265819
_cell_length_b 16.944412
_cell_length_c 7.591731
_cell_angle_alpha 90.000000
_cell_angle_beta 90.000000
_cell_angle_gamma 90.000000
_cell_volume 2478.305209
_symmetry_space_group_name_H-M "P B A M"
_symmetry_group_IT_number 55
_symmetry_cell_setting 'orthorhombic'
loop_
_space_group_symop_operation_xyz
x,y,z
-x,-y,z
1/2+x,1/2-y,-z
1/2-x,1/2+y,-z
-x,-y,-z
x,y,-z
1/2-x,1/2+y,z
1/2+x,1/2-y,z
loop_
_atom_site_type_symbol
_atom_site_label
_atom_site_fract_x
_atom_site_fract_y
_atom_site_fract_z
Si Si1 0.848457 0.485038 0.702480
Si Si2 0.138412 0.838083 0.205373
Si Si3 0.577538 0.826284 0.203766
Si Si4 0.289181 0.589633 0.283001
Si Si5 0.217478 0.269559 0.712272
Si Si6 0.079098 0.358800 0.286434
Si Si7 0.423217 0.503175 0.297590
O O1 0.836113 0.509132 0.500000
O O2 0.888615 0.402183 0.705927
O O3 0.772538 0.467664 0.779232
O O4 0.896192 0.554522 0.776309
O O5 0.104033 0.757305 0.276184
O O6 0.220652 0.824819 0.222071
O O7 0.110306 0.916359 0.295698
O O8 0.119783 0.845578 0.000000
O O9 0.494968 0.833456 0.214899
O O10 0.599718 0.829855 0.000000
O O11 0.288816 0.587944 0.500000
O O12 0.273081 0.679201 0.229950
O O13 0.364333 0.560539 0.221262
O O14 0.220964 0.271023 0.500000
O O15 0.141894 0.300976 0.762497
O O16 0.071868 0.359169 0.500000
O O17 0.500000 0.500000 0.216540
O O18 0.432846 0.530061 0.500000
#
# Coordination Sequence:
#
# PCOD9426357 Si02
#       7
#     8   8   8   8   8   8   8
#     4  10  19  36  59  84 116 151 190 239 293 348
#     4  11  24  41  59  84 121 162 203 241 293 358
#     4  11  24  39  56  83 119 157 196 236 284 349
#     4   9  18  35  60  90 117 147 192 244 298 349
#     4  10  20  38  65  90 116 152 197 248 293 346
#     4  10  22  36  59  91 118 146 189 241 297 351
#     4  10  22  39  64  94 122 155 202 255 304 358
#
# _framework density 22.596087000000001
#
# number of rings (size 3 to 8) (size 9 to 14) (size 15 to 20)
#    0.000    1.857    1.429    2.143    2.000    7.143 
#    0.000    2.857    0.000    0.000    0.000    0.000 
#    0.000    0.000    0.000    0.000    0.000    0.000 
#
# Total GULP energy -313055.758053 kJ/mol
# GULP energy per Si atom -5590.281394 kJ/mol
# Density = 2.254466 g / cm^3
# Si number density = 22.596087 Si / 1000 Ang^3
#
#
#
# Elastic Constant Matrix: (Units=GPa)
#
#
# Indices 1 2 3 4 5 6 
#
# 1 139.5058 7.0960 -10.0583 0.0000 0.0000 0.0000
# 2 7.0960 54.3577 -7.3841 0.0000 0.0000 0.0000
# 3 -10.0583 -7.3841 51.3729 0.0000 0.0000 0.0000
# 4 0.0000 0.0000 0.0000 -12.7276 0.0000 0.0000
# 5 0.0000 0.0000 0.0000 0.0000 2.4059 0.0000
# 6 0.0000 0.0000 0.0000 0.0000 0.0000 26.9439
#
#
#
# Elastic Compliance Matrix: (Units=1/GPa)
#
#
# Indices 1 2 3 4 5 6 
#
# 1 0.007303 -0.000774 0.001318 0.000000 0.000000 0.000000
# 2 -0.000774 0.018845 0.002557 0.000000 0.000000 0.000000
# 3 0.001318 0.002557 0.020091 0.000000 0.000000 0.000000
# 4 0.000000 0.000000 0.000000 -0.078569 0.000000 0.000000
# 5 0.000000 0.000000 0.000000 0.000000 0.415651 0.000000
# 6 0.000000 0.000000 0.000000 0.000000 0.000000 0.037114
#
#
# Mechanical properties :
#
#
# Convention : Reuss Voigt Hill
#
# Bulk Modulus (GPa) = 19.06877 24.94930 22.00904
# Shear Modulus (GPa) = 11.58178 20.36329 15.97253
#
# Velocity S-wave (km/s) = 2.26643 3.00523 2.66159
# Velocity P-wave (km/s) = 3.91232 4.80701 4.38255
#
# Compressibility (1/GPa) = 0.05244177
#
# Stress axis : x y z
#
# Youngs Moduli (GPa) = 136.93750 53.06422 49.77301
#
# Poissons Ratio (x) = 0.04108 -0.06563
# Poissons Ratio (y) = 0.10602 -0.12728
# Poissons Ratio (z) = -0.18055 -0.13569
#
# Static dielectric constant tensor:
#      x y z
#    x 1.809660 0.000000 0.000000 
#    y 0.000000 1.809480 0.000000 
#    z 0.000000 0.000000 1.888770 
# 
# From -- ./inp_files/8740.got.cif
#   From: 2010.05.17/outbox.cif.g08.bks.cpg/sg55_5_cif.got.tgz:8740.got - 2010.06.03 13:27:54.
