data_PCOD9426920
_publ_section_title
;
Structure prediction by ZEFSAII (Michael W. Deem and Ramdas Pophale) SiO2 
 PCOD9426920
Probable space group: P B A M
;
_chemical_formula_sum "Si O2"
_cell_formula_units_Z 64
_cell_length_a 12.411014
_cell_length_b 29.292417
_cell_length_c 9.618598
_cell_angle_alpha 90.000000
_cell_angle_beta 90.000000
_cell_angle_gamma 90.000000
_cell_volume 3496.827813
_symmetry_space_group_name_H-M "P B A M"
_symmetry_group_IT_number 55
_symmetry_cell_setting 'orthorhombic'
loop_
_space_group_symop_operation_xyz
x,y,z
-x,-y,z
1/2+x,1/2-y,-z
1/2-x,1/2+y,-z
-x,-y,-z
x,y,-z
1/2-x,1/2+y,z
1/2+x,1/2-y,z
loop_
_atom_site_type_symbol
_atom_site_label
_atom_site_fract_x
_atom_site_fract_y
_atom_site_fract_z
Si Si1 0.993527 0.554850 0.164234
Si Si2 0.373207 0.504588 0.333926
Si Si3 0.590373 0.243451 0.657259
Si Si4 0.406404 0.243916 0.158071
Si Si5 0.237774 0.579353 0.833398
Si Si6 0.807303 0.817601 0.841523
Si Si7 0.718584 0.081784 0.665998
Si Si8 0.196800 0.818754 0.340957
O O1 0.111262 0.574201 0.205112
O O2 0.000000 0.500000 0.180834
O O3 0.892195 0.573049 0.251571
O O4 0.976905 0.564635 0.000000
O O5 0.500000 0.500000 0.297037
O O6 0.368254 0.513925 0.500000
O O7 0.311891 0.543851 0.249037
O O8 0.305063 0.458358 0.307928
O O9 0.553474 0.249827 0.500000
O O10 0.499570 0.221067 0.752056
O O11 0.620059 0.291134 0.730984
O O12 0.694354 0.211307 0.655870
O O13 0.302921 0.211477 0.158159
O O14 0.377705 0.291160 0.235102
O O15 0.439627 0.251208 0.000000
O O16 0.279945 0.630407 0.807151
O O17 0.243772 0.570620 0.000000
O O18 0.850390 0.815859 0.000000
O O19 0.695905 0.082624 0.500000
O O20 0.772062 0.130291 0.702529
O O21 0.154481 0.820060 0.500000
#
# Coordination Sequence:
#
# PCOD9426920 Si02
#       8
#     8   8   8   8   8   8   8   8
#     4  10  20  35  57  84 116 148 182 228 281 334
#     4  10  22  39  57  80 112 148 187 231 278 330
#     4  10  20  35  55  78 108 144 183 229 277 326
#     4  10  20  35  56  81 110 145 183 226 276 329
#     4  10  21  38  58  84 114 146 185 230 278 331
#     4   9  20  37  55  79 111 144 183 227 272 326
#     4  10  21  37  57  82 112 147 188 232 277 330
#     4   9  20  37  54  78 110 145 186 230 274 325
#
# _framework density 18.302303999999999
#
# number of rings (size 3 to 8) (size 9 to 14) (size 15 to 20)
#    0.000    2.250    1.250    0.750    1.750    4.000 
#    0.000    1.250    0.000    0.000    0.000    0.000 
#    0.000    0.000    0.000    0.000    0.000    0.000 
#
# Total GULP energy -357020.110461 kJ/mol
# GULP energy per Si atom -5578.439226 kJ/mol
# Density = 1.826065 g / cm^3
# Si number density = 18.302304 Si / 1000 Ang^3
#
#
#
# Elastic Constant Matrix: (Units=GPa)
#
#
# Indices 1 2 3 4 5 6 
#
# 1 90.6609 26.2118 33.5495 0.0000 0.0000 0.0000
# 2 26.2118 110.5189 31.3265 0.0000 0.0000 0.0000
# 3 33.5495 31.3265 75.8731 0.0000 0.0000 0.0000
# 4 0.0000 0.0000 0.0000 12.3165 0.0000 0.0000
# 5 0.0000 0.0000 0.0000 0.0000 30.5794 0.0000
# 6 0.0000 0.0000 0.0000 0.0000 0.0000 3.3121
#
#
#
# Elastic Compliance Matrix: (Units=1/GPa)
#
#
# Indices 1 2 3 4 5 6 
#
# 1 0.013466 -0.001706 -0.005250 0.000000 0.000000 0.000000
# 2 -0.001706 0.010464 -0.003566 0.000000 0.000000 0.000000
# 3 -0.005250 -0.003566 0.016974 0.000000 0.000000 0.000000
# 4 0.000000 0.000000 0.000000 0.081192 0.000000 0.000000
# 5 0.000000 0.000000 0.000000 0.000000 0.032702 0.000000
# 6 0.000000 0.000000 0.000000 0.000000 0.000000 0.301921
#
#
# Mechanical properties :
#
#
# Convention : Reuss Voigt Hill
#
# Bulk Modulus (GPa) = 50.35308 51.02540 50.68924
# Shear Modulus (GPa) = 10.32244 21.63930 15.98087
#
# Velocity S-wave (km/s) = 2.37744 3.44223 2.95814
# Velocity P-wave (km/s) = 5.92519 6.61350 6.27878
#
# Compressibility (1/GPa) = 0.01985976
#
# Stress axis : x y z
#
# Youngs Moduli (GPa) = 74.26056 95.57010 58.91440
#
# Poissons Ratio (x) = 0.16300 0.30931
# Poissons Ratio (y) = 0.12666 0.21009
# Poissons Ratio (z) = 0.38988 0.34080
#
# Static dielectric constant tensor:
#      x y z
#    x 1.644770 0.000000 0.000000 
#    y 0.000000 1.603770 0.000000 
#    z 0.000000 0.000000 1.628320 
# 
# From -- ./inp_files/4586.got.cif
#   From: 2010.05.17/outbox.cif.g08.bks.cpg/sg55_3_cif.got.tgz:4586.got - 2010.06.03 13:27:54.
