data_PCOD9426364
_publ_section_title
;
Structure prediction by ZEFSAII (Michael W. Deem and Ramdas Pophale) SiO2 
 PCOD9426364
Probable space group: P B A M
;
_chemical_formula_sum "Si O2"
_cell_formula_units_Z 64
_cell_length_a 25.424131
_cell_length_b 14.713594
_cell_length_c 8.694390
_cell_angle_alpha 90.000000
_cell_angle_beta 90.000000
_cell_angle_gamma 90.000000
_cell_volume 3252.400379
_symmetry_space_group_name_H-M "P B A M"
_symmetry_group_IT_number 55
_symmetry_cell_setting 'orthorhombic'
loop_
_space_group_symop_operation_xyz
x,y,z
-x,-y,z
1/2+x,1/2-y,-z
1/2-x,1/2+y,-z
-x,-y,-z
x,y,-z
1/2-x,1/2+y,z
1/2+x,1/2-y,z
loop_
_atom_site_type_symbol
_atom_site_label
_atom_site_fract_x
_atom_site_fract_y
_atom_site_fract_z
Si Si1 0.056987 0.641077 0.815712
Si Si2 0.667277 0.541604 0.317033
Si Si3 0.339981 0.256264 0.813712
Si Si4 0.720088 0.046496 0.818844
Si Si5 0.725483 0.264534 0.817304
Si Si6 0.550983 0.216185 0.315865
Si Si7 0.607948 0.030974 0.316188
Si Si8 0.378047 0.632208 0.815009
O O1 0.109383 0.697599 0.773593
O O2 0.066420 0.540696 0.749843
O O3 0.005965 0.688705 0.746376
O O4 0.052820 0.637340 0.000000
O O5 0.665538 0.541435 0.500000
O O6 0.656778 0.642485 0.253312
O O7 0.726133 0.515065 0.260258
O O8 0.626661 0.469405 0.247586
O O9 0.284208 0.213827 0.759614
O O10 0.337412 0.263364 0.000000
O O11 0.665531 0.010862 0.751547
O O12 0.718786 0.156151 0.798027
O O13 0.723106 0.026091 0.000000
O O14 0.675122 0.317077 0.755124
O O15 0.725706 0.282962 0.000000
O O16 0.549903 0.222552 0.500000
O O17 0.573581 0.308427 0.245022
O O18 0.589774 0.132615 0.272525
O O19 0.609307 0.025015 0.500000
O O20 0.378421 0.631867 0.000000
#
# Coordination Sequence:
#
# PCOD9426364 Si02
#       8
#     8   8   8   8   8   8   8   8
#     4  11  24  40  64  90 117 159 212 256 297 360
#     4  11  23  38  58  90 127 161 196 244 307 368
#     4   9  20  41  62  87 118 155 203 253 300 352
#     4  10  19  36  59  86 120 159 201 244 290 352
#     4   8  16  32  57  85 114 149 191 242 295 346
#     4  11  24  42  61  86 126 163 200 253 308 361
#     4  11  23  38  58  89 126 162 198 245 306 364
#     4  11  21  37  63  91 119 159 207 251 298 358
#
# _framework density 19.677773999999999
#
# number of rings (size 3 to 8) (size 9 to 14) (size 15 to 20)
#    0.000    1.750    1.250    4.125    1.750    4.000 
#    0.000    1.250    0.000    3.750    0.000    0.000 
#    0.000    0.000    0.000    0.000    0.000    0.000 
#
# Total GULP energy -357694.555513 kJ/mol
# GULP energy per Si atom -5588.977430 kJ/mol
# Density = 1.963299 g / cm^3
# Si number density = 19.677774 Si / 1000 Ang^3
#
#
#
# Elastic Constant Matrix: (Units=GPa)
#
#
# Indices 1 2 3 4 5 6 
#
# 1 63.4082 4.3621 18.6792 0.0000 0.0000 0.0000
# 2 4.3621 29.0067 11.1239 0.0000 0.0000 0.0000
# 3 18.6792 11.1239 36.7701 0.0000 0.0000 0.0000
# 4 0.0000 0.0000 0.0000 22.5507 0.0000 0.0000
# 5 0.0000 0.0000 0.0000 0.0000 27.0255 0.0000
# 6 0.0000 0.0000 0.0000 0.0000 0.0000 31.9358
#
#
#
# Elastic Compliance Matrix: (Units=1/GPa)
#
#
# Indices 1 2 3 4 5 6 
#
# 1 0.018569 0.000933 -0.009715 0.000000 0.000000 0.000000
# 2 0.000933 0.039046 -0.012287 0.000000 0.000000 0.000000
# 3 -0.009715 -0.012287 0.035848 0.000000 0.000000 0.000000
# 4 0.000000 0.000000 0.000000 0.044345 0.000000 0.000000
# 5 0.000000 0.000000 0.000000 0.000000 0.037002 0.000000
# 6 0.000000 0.000000 0.000000 0.000000 0.000000 0.031313
#
#
# Mechanical properties :
#
#
# Convention : Reuss Voigt Hill
#
# Bulk Modulus (GPa) = 19.48321 21.94615 20.71468
# Shear Modulus (GPa) = 18.84173 22.63704 20.73938
#
# Velocity S-wave (km/s) = 3.09773 3.39541 3.24998
# Velocity P-wave (km/s) = 4.76625 5.15255 4.96316
#
# Compressibility (1/GPa) = 0.05132625
#
# Stress axis : x y z
#
# Youngs Moduli (GPa) = 53.85445 25.61059 27.89533
#
# Poissons Ratio (x) = -0.02390 0.27101
# Poissons Ratio (y) = -0.05026 0.34274
# Poissons Ratio (z) = 0.52320 0.31467
#
# Static dielectric constant tensor:
#      x y z
#    x 1.691260 0.000000 0.000000 
#    y 0.000000 1.698980 0.000000 
#    z 0.000000 0.000000 1.657090 
# 
# From -- ./inp_files/9739.got.cif
#   From: 2010.05.17/outbox.cif.g08.bks.cpg/sg55_5_cif.got.tgz:9739.got - 2010.06.03 13:27:54.
