data_PCOD9426770
_publ_section_title
;
Structure prediction by ZEFSAII (Michael W. Deem and Ramdas Pophale) SiO2 
 PCOD9426770
Probable space group: P B A M
;
_chemical_formula_sum "Si O2"
_cell_formula_units_Z 64
_cell_length_a 14.991187
_cell_length_b 25.263076
_cell_length_c 9.387734
_cell_angle_alpha 90.000000
_cell_angle_beta 90.000000
_cell_angle_gamma 90.000000
_cell_volume 3555.355445
_symmetry_space_group_name_H-M "P B A M"
_symmetry_group_IT_number 55
_symmetry_cell_setting 'orthorhombic'
loop_
_space_group_symop_operation_xyz
x,y,z
-x,-y,z
1/2+x,1/2-y,-z
1/2-x,1/2+y,-z
-x,-y,-z
x,y,-z
1/2-x,1/2+y,z
1/2+x,1/2-y,z
loop_
_atom_site_type_symbol
_atom_site_label
_atom_site_fract_x
_atom_site_fract_y
_atom_site_fract_z
Si Si1 0.242623 0.063170 0.330473
Si Si2 0.373848 0.265916 0.669839
Si Si3 0.000844 0.331061 0.327625
Si Si4 0.161970 0.257616 0.669023
Si Si5 0.860068 0.849318 0.834655
Si Si6 0.448284 0.052100 0.673187
Si Si7 0.435831 0.369917 0.834143
Si Si8 0.403867 0.473769 0.330870
O O1 0.238462 0.074489 0.500000
O O2 0.210718 0.114488 0.246083
O O3 0.343589 0.048558 0.293950
O O4 0.174046 0.015679 0.300964
O O5 0.390042 0.272641 0.500000
O O6 0.424705 0.211780 0.714174
O O7 0.267418 0.264641 0.691765
O O8 0.411352 0.315815 0.754752
O O9 0.996491 0.333659 0.500000
O O10 0.097368 0.306369 0.291174
O O11 0.984184 0.390739 0.275506
O O12 0.148470 0.247781 0.500000
O O13 0.132969 0.206843 0.757866
O O14 0.957152 0.876181 0.824869
O O15 0.837199 0.842815 0.000000
O O16 0.456086 0.052418 0.500000
O O17 0.500000 0.000000 0.724778
O O18 0.393121 0.420194 0.756974
O O19 0.411242 0.367018 0.000000
O O20 0.500000 0.500000 0.298863
O O21 0.402781 0.461791 0.500000
#
# Coordination Sequence:
#
# PCOD9426770 Si02
#       8
#     8   8   8   8   8   8   8   8
#     4  10  20  35  58  83 109 147 192 234 278 331
#     4  10  20  35  56  82 111 145 186 230 275 329
#     4   9  17  31  52  80 111 142 177 222 273 322
#     4  10  20  34  57  83 109 146 188 229 275 330
#     4  11  22  35  54  81 113 149 187 228 280 337
#     4   9  18  33  55  84 114 141 177 229 279 324
#     4  11  23  36  53  79 113 151 183 224 282 341
#     4  10  20  34  54  81 110 143 183 231 280 328
#
# _framework density 18.001011999999999
#
# number of rings (size 3 to 8) (size 9 to 14) (size 15 to 20)
#    0.000    2.000    2.500    1.500    0.000    5.250 
#    0.000    3.750    0.000    0.375    0.000    0.000 
#    0.000    0.000    0.000    0.000    0.000    0.000 
#
# Total GULP energy -357111.178456 kJ/mol
# GULP energy per Si atom -5579.862163 kJ/mol
# Density = 1.796004 g / cm^3
# Si number density = 18.001012 Si / 1000 Ang^3
#
#
#
# Elastic Constant Matrix: (Units=GPa)
#
#
# Indices 1 2 3 4 5 6 
#
# 1 106.8505 70.4188 33.5534 0.0000 0.0000 0.0000
# 2 70.4188 153.3720 47.2406 0.0000 0.0000 0.0000
# 3 33.5534 47.2406 27.0762 0.0000 0.0000 0.0000
# 4 0.0000 0.0000 0.0000 -3.7302 0.0000 0.0000
# 5 0.0000 0.0000 0.0000 0.0000 6.6560 0.0000
# 6 0.0000 0.0000 0.0000 0.0000 0.0000 28.2719
#
#
#
# Elastic Compliance Matrix: (Units=1/GPa)
#
#
# Indices 1 2 3 4 5 6 
#
# 1 0.015802 -0.002645 -0.014967 0.000000 0.000000 0.000000
# 2 -0.002645 0.014537 -0.022085 0.000000 0.000000 0.000000
# 3 -0.014967 -0.022085 0.094013 0.000000 0.000000 0.000000
# 4 0.000000 0.000000 0.000000 -0.268085 0.000000 0.000000
# 5 0.000000 0.000000 0.000000 0.000000 0.150242 0.000000
# 6 0.000000 0.000000 0.000000 0.000000 0.000000 0.035371
#
#
# Mechanical properties :
#
#
# Convention : Reuss Voigt Hill
#
# Bulk Modulus (GPa) = 22.24337 65.52493 43.88415
# Shear Modulus (GPa) = 36.69404 15.31195 26.00300
#
# Velocity S-wave (km/s) = 4.51981 2.91970 3.80482
# Velocity P-wave (km/s) = 6.29459 6.91707 6.61316
#
# Compressibility (1/GPa) = 0.04495721
#
# Stress axis : x y z
#
# Youngs Moduli (GPa) = 63.28217 68.78876 10.63678
#
# Poissons Ratio (x) = 0.18197 0.15920
# Poissons Ratio (y) = 0.16740 0.23492
# Poissons Ratio (z) = 0.94715 1.51923
#
# Static dielectric constant tensor:
#      x y z
#    x 1.634640 0.000000 0.000000 
#    y 0.000000 1.601390 0.000000 
#    z 0.000000 0.000000 1.587350 
# 
# From -- ./inp_files/6583.got.cif
#   From: 2010.05.17/outbox.cif.g08.bks.cpg/sg55_4_cif.got.tgz:6583.got - 2010.06.03 13:27:54.
