data_PCOD9426192
_publ_section_title
;
Structure prediction by ZEFSAII (Michael W. Deem and Ramdas Pophale) SiO2 
 PCOD9426192
Probable space group: P B A M
;
_chemical_formula_sum "Si O2"
_cell_formula_units_Z 64
_cell_length_a 23.543973
_cell_length_b 5.554597
_cell_length_c 21.879208
_cell_angle_alpha 90.000000
_cell_angle_beta 90.000000
_cell_angle_gamma 90.000000
_cell_volume 2861.303350
_symmetry_space_group_name_H-M "P B A M"
_symmetry_group_IT_number 55
_symmetry_cell_setting 'orthorhombic'
loop_
_space_group_symop_operation_xyz
x,y,z
-x,-y,z
1/2+x,1/2-y,-z
1/2-x,1/2+y,-z
-x,-y,-z
x,y,-z
1/2-x,1/2+y,z
1/2+x,1/2-y,z
loop_
_atom_site_type_symbol
_atom_site_label
_atom_site_fract_x
_atom_site_fract_y
_atom_site_fract_z
Si Si1 0.719456 0.356484 0.572979
Si Si2 0.067190 0.209810 0.303643
Si Si3 0.628096 0.660249 0.633551
Si Si4 0.479296 0.245508 0.195115
Si Si5 0.933324 0.543593 0.434609
Si Si6 0.858032 0.421344 0.246669
Si Si7 0.182686 0.094029 0.927131
Si Si8 0.687694 0.906795 0.878565
O O1 0.711917 0.365487 0.500000
O O2 0.739222 0.085193 0.587654
O O3 0.663644 0.435993 0.608751
O O4 0.066546 0.355845 0.366128
O O5 0.120763 0.310887 0.264804
O O6 0.016267 0.251041 0.257756
O O7 0.073861 0.945090 0.331040
O O8 0.658547 0.799213 0.689042
O O9 0.607864 0.815482 0.576049
O O10 0.500000 0.500000 0.166236
O O11 0.413382 0.208280 0.214456
O O12 0.500000 0.000000 0.162360
O O13 0.915994 0.661901 0.500000
O O14 0.000000 0.500000 0.441862
O O15 0.810946 0.413435 0.194692
O O16 0.249147 0.093590 0.906935
O O17 0.158815 0.344407 0.900460
O O18 0.159426 0.841619 0.901294
O O19 0.179485 0.096168 0.000000
#
# Coordination Sequence:
#
# PCOD9426192 Si02
#       8
#     8   8   8   8   8   8   8   8
#     4  10  24  45  64  83 107 148 210 264 308 368
#     4  10  21  36  58  77 116 158 195 246 312 376
#     4  11  22  39  61  82 113 161 201 252 320 381
#     4  10  19  35  56  78 111 159 191 232 289 361
#     4  10  22  36  54  87 118 147 199 259 321 387
#     4  10  22  35  54  87 122 152 197 244 295 363
#     4  10  20  39  62  88 126 166 200 241 299 352
#     4  10  20  34  58  88 124 161 199 242 283 348
#
# _framework density 22.367426999999999
#
# number of rings (size 3 to 8) (size 9 to 14) (size 15 to 20)
#    0.000    1.875    1.250    4.125    5.250    1.000 
#    4.500    1.250    0.000    0.000    0.000    0.000 
#    0.000   73.000    0.000    0.000    0.000    0.000 
#
# Total GULP energy -356505.788620 kJ/mol
# GULP energy per Si atom -5570.402947 kJ/mol
# Density = 2.231652 g / cm^3
# Si number density = 22.367427 Si / 1000 Ang^3
#
#
#
# Elastic Constant Matrix: (Units=GPa)
#
#
# Indices 1 2 3 4 5 6 
#
# 1 29.5735 2.9039 2.7195 0.0000 0.0000 0.0000
# 2 2.9039 123.7552 22.5785 0.0000 0.0000 0.0000
# 3 2.7195 22.5785 93.8066 0.0000 0.0000 0.0000
# 4 0.0000 0.0000 0.0000 17.2871 0.0000 0.0000
# 5 0.0000 0.0000 0.0000 0.0000 19.0516 0.0000
# 6 0.0000 0.0000 0.0000 0.0000 0.0000 29.0264
#
#
#
# Elastic Compliance Matrix: (Units=1/GPa)
#
#
# Indices 1 2 3 4 5 6 
#
# 1 0.033954 -0.000645 -0.000829 0.000000 0.000000 0.000000
# 2 -0.000645 0.008464 -0.002018 0.000000 0.000000 0.000000
# 3 -0.000829 -0.002018 0.011170 0.000000 0.000000 0.000000
# 4 0.000000 0.000000 0.000000 0.057847 0.000000 0.000000
# 5 0.000000 0.000000 0.000000 0.000000 0.052489 0.000000
# 6 0.000000 0.000000 0.000000 0.000000 0.000000 0.034451
#
#
# Mechanical properties :
#
#
# Convention : Reuss Voigt Hill
#
# Bulk Modulus (GPa) = 21.45838 33.72655 27.59247
# Shear Modulus (GPa) = 22.63523 27.66858 25.15190
#
# Velocity S-wave (km/s) = 3.18460 3.52092 3.35698
# Velocity P-wave (km/s) = 4.81006 5.62497 5.23340
#
# Compressibility (1/GPa) = 0.04660184
#
# Stress axis : x y z
#
# Youngs Moduli (GPa) = 29.45186 118.14922 89.52479
#
# Poissons Ratio (x) = 0.07626 0.07421
# Poissons Ratio (y) = 0.01901 0.18070
# Poissons Ratio (z) = 0.02442 0.23848
#
# Static dielectric constant tensor:
#      x y z
#    x 1.887430 0.000000 0.000000 
#    y 0.000000 1.773690 0.000000 
#    z 0.000000 0.000000 1.769450 
# 
# From -- ./inp_files/23189.got.cif
#   From: 2010.05.17/outbox.cif.g08.bks.cpg/sg55_12_cif.got.tgz:23189.got - 2010.06.03 13:27:54.
