data_PCOD9426972
_publ_section_title
;
Structure prediction by ZEFSAII (Michael W. Deem and Ramdas Pophale) SiO2 
 PCOD9426972
Probable space group: P B A M
;
_chemical_formula_sum "Si O2"
_cell_formula_units_Z 64
_cell_length_a 31.272445
_cell_length_b 9.462669
_cell_length_c 11.292113
_cell_angle_alpha 90.000000
_cell_angle_beta 90.000000
_cell_angle_gamma 90.000000
_cell_volume 3341.571066
_symmetry_space_group_name_H-M "P B A M"
_symmetry_group_IT_number 55
_symmetry_cell_setting 'orthorhombic'
loop_
_space_group_symop_operation_xyz
x,y,z
-x,-y,z
1/2+x,1/2-y,-z
1/2-x,1/2+y,-z
-x,-y,-z
x,y,-z
1/2-x,1/2+y,z
1/2+x,1/2-y,z
loop_
_atom_site_type_symbol
_atom_site_label
_atom_site_fract_x
_atom_site_fract_y
_atom_site_fract_z
Si Si1 0.797218 0.675437 0.632518
Si Si2 0.599288 0.993464 0.137423
Si Si3 0.484226 0.163358 0.136401
Si Si4 0.108120 0.240070 0.289037
Si Si5 0.745941 0.423677 0.754980
Si Si6 0.672338 0.797171 0.141634
Si Si7 0.655930 0.492889 0.861284
Si Si8 0.483552 0.661622 0.366309
O O1 0.790835 0.624555 0.500000
O O2 0.848120 0.700759 0.651970
O O3 0.772290 0.561495 0.713835
O O4 0.775115 0.828208 0.652333
O O5 0.566539 0.863367 0.144581
O O6 0.644473 0.931519 0.176743
O O7 0.589018 0.128761 0.214945
O O8 0.600948 0.037313 0.000000
O O9 0.499228 0.254232 0.249546
O O10 0.500000 0.000000 0.143353
O O11 0.494646 0.213162 0.000000
O O12 0.125898 0.117368 0.204230
O O13 0.068144 0.178123 0.361293
O O14 0.779825 0.322770 0.818688
O O15 0.705857 0.457336 0.839248
O O16 0.652362 0.651879 0.187617
O O17 0.670739 0.789008 0.000000
O O18 0.646483 0.488813 0.000000
O O19 0.500000 0.500000 0.355963
O O20 0.496906 0.711835 0.500000
#
# Coordination Sequence:
#
# PCOD9426972 Si02
#       8
#     8   8   8   8   8   8   8   8
#     4  11  23  38  58  80 110 153 202 251 297 353
#     4  10  20  36  60  92 125 154 191 252 315 371
#     4  10  21  40  67  97 127 159 203 261 320 382
#     4  11  22  40  63  86 119 157 207 253 305 372
#     4  11  20  38  57  81 117 153 198 245 301 354
#     4  10  20  35  56  85 120 153 191 240 296 360
#     4  10  22  36  57  89 124 160 200 246 303 370
#     4  11  26  46  66  92 130 171 215 264 320 386
#
# _framework density 19.152667999999998
#
# number of rings (size 3 to 8) (size 9 to 14) (size 15 to 20)
#    0.000    1.500    3.750    1.500    1.750    1.000 
#    0.000    0.000    0.000    0.000    0.000    0.000 
#    0.000    0.000    0.000    0.000    0.000    0.000 
#
# Total GULP energy -356466.983828 kJ/mol
# GULP energy per Si atom -5569.796622 kJ/mol
# Density = 1.910908 g / cm^3
# Si number density = 19.152668 Si / 1000 Ang^3
#
#
#
# Elastic Constant Matrix: (Units=GPa)
#
#
# Indices 1 2 3 4 5 6 
#
# 1 79.8883 24.0874 22.1912 0.0000 0.0000 0.0000
# 2 24.0874 76.5072 45.9696 0.0000 0.0000 0.0000
# 3 22.1912 45.9696 83.0495 0.0000 0.0000 0.0000
# 4 0.0000 0.0000 0.0000 16.1547 0.0000 0.0000
# 5 0.0000 0.0000 0.0000 0.0000 9.2868 0.0000
# 6 0.0000 0.0000 0.0000 0.0000 0.0000 32.9879
#
#
#
# Elastic Compliance Matrix: (Units=1/GPa)
#
#
# Indices 1 2 3 4 5 6 
#
# 1 0.014039 -0.003245 -0.001955 0.000000 0.000000 0.000000
# 2 -0.003245 0.020334 -0.010388 0.000000 0.000000 0.000000
# 3 -0.001955 -0.010388 0.018313 0.000000 0.000000 0.000000
# 4 0.000000 0.000000 0.000000 0.061902 0.000000 0.000000
# 5 0.000000 0.000000 0.000000 0.000000 0.107680 0.000000
# 6 0.000000 0.000000 0.000000 0.000000 0.000000 0.030314
#
#
# Mechanical properties :
#
#
# Convention : Reuss Voigt Hill
#
# Bulk Modulus (GPa) = 46.49072 47.10460 46.79766
# Shear Modulus (GPa) = 17.18631 21.49900 19.34265
#
# Velocity S-wave (km/s) = 2.99880 3.35402 3.18137
# Velocity P-wave (km/s) = 6.02635 6.29658 6.16294
#
# Compressibility (1/GPa) = 0.02150967
#
# Stress axis : x y z
#
# Youngs Moduli (GPa) = 71.22996 49.17808 54.60464
#
# Poissons Ratio (x) = 0.15960 0.10675
# Poissons Ratio (y) = 0.23117 0.56725
# Poissons Ratio (z) = 0.13925 0.51087
#
# Static dielectric constant tensor:
#      x y z
#    x 1.726930 0.000000 0.000000 
#    y 0.000000 1.687880 0.000000 
#    z 0.000000 0.000000 1.687130 
# 
# From -- ./inp_files/16225.got.cif
#   From: 2010.05.17/outbox.cif.g08.bks.cpg/sg55_9_cif.got.tgz:16225.got - 2010.06.03 13:27:54.
