data_PCOD9426591
_publ_section_title
;
Structure prediction by ZEFSAII (Michael W. Deem and Ramdas Pophale) SiO2 
 PCOD9426591
Probable space group: P B A M
;
_chemical_formula_sum "Si O2"
_cell_formula_units_Z 64
_cell_length_a 23.666292
_cell_length_b 19.471369
_cell_length_c 8.848141
_cell_angle_alpha 90.000000
_cell_angle_beta 90.000000
_cell_angle_gamma 90.000000
_cell_volume 4077.357019
_symmetry_space_group_name_H-M "P B A M"
_symmetry_group_IT_number 55
_symmetry_cell_setting 'orthorhombic'
loop_
_space_group_symop_operation_xyz
x,y,z
-x,-y,z
1/2+x,1/2-y,-z
1/2-x,1/2+y,-z
-x,-y,-z
x,y,-z
1/2-x,1/2+y,z
1/2+x,1/2-y,z
loop_
_atom_site_type_symbol
_atom_site_label
_atom_site_fract_x
_atom_site_fract_y
_atom_site_fract_z
Si Si1 0.163801 0.277144 0.319594
Si Si2 0.382568 0.005489 0.680631
Si Si3 0.257860 0.003855 0.820778
Si Si4 0.267715 0.657803 0.819506
Si Si5 0.432649 0.867158 0.819729
Si Si6 0.776122 0.132930 0.679754
Si Si7 0.935105 0.356305 0.819617
Si Si8 0.841032 0.267622 0.318605
O O1 0.157505 0.272956 0.500000
O O2 0.183603 0.204447 0.252919
O O3 0.108489 0.308609 0.244040
O O4 0.216159 0.329309 0.288728
O O5 0.384653 0.007036 0.500000
O O6 0.317790 0.001897 0.735252
O O7 0.410756 0.073701 0.748463
O O8 0.414550 0.938480 0.742355
O O9 0.228638 0.076826 0.788060
O O10 0.222622 0.937980 0.768429
O O11 0.268853 0.000613 0.000000
O O12 0.208790 0.685185 0.750105
O O13 0.266627 0.667987 0.000000
O O14 0.498252 0.851985 0.789164
O O15 0.425041 0.873674 0.000000
O O16 0.778224 0.119851 0.500000
O O17 0.823618 0.189358 0.717914
O O18 0.899393 0.294216 0.748969
O O19 0.926359 0.358304 0.000000
O O20 0.840278 0.274926 0.500000
#
# Coordination Sequence:
#
# PCOD9426591 Si02
#       8
#     8   8   8   8   8   8   8   8
#     4  10  20  34  52  75 101 132 172 213 255 303
#     4  12  23  34  50  72 103 139 176 215 250 296
#     4  11  21  32  51  77 104 136 171 206 252 307
#     4  10  20  33  51  74 103 135 169 209 255 306
#     4  11  23  37  53  72 101 138 176 216 255 302
#     4   9  19  33  50  74 102 131 167 208 254 304
#     4  11  23  37  52  73 101 137 178 215 255 304
#     4  10  20  34  52  74 100 133 172 214 256 302
#
# _framework density 15.696441999999999
#
# number of rings (size 3 to 8) (size 9 to 14) (size 15 to 20)
#    0.000    1.500    2.500    4.500    0.000    7.500 
#    0.000    0.000    0.000    0.000    0.000    0.875 
#    0.000    7.000    0.000    0.000    0.000    0.000 
#
# Total GULP energy -357473.892584 kJ/mol
# GULP energy per Si atom -5585.529572 kJ/mol
# Density = 1.566072 g / cm^3
# Si number density = 15.696442 Si / 1000 Ang^3
#
#
#
# Elastic Constant Matrix: (Units=GPa)
#
#
# Indices 1 2 3 4 5 6 
#
# 1 72.5000 46.6512 41.1222 0.0000 0.0000 0.0000
# 2 46.6512 106.0058 56.7136 0.0000 0.0000 0.0000
# 3 41.1222 56.7136 71.7027 0.0000 0.0000 0.0000
# 4 0.0000 0.0000 0.0000 39.9517 0.0000 0.0000
# 5 0.0000 0.0000 0.0000 0.0000 10.7116 0.0000
# 6 0.0000 0.0000 0.0000 0.0000 0.0000 17.2603
#
#
#
# Elastic Compliance Matrix: (Units=1/GPa)
#
#
# Indices 1 2 3 4 5 6 
#
# 1 0.021904 -0.005060 -0.008560 0.000000 0.000000 0.000000
# 2 -0.005060 0.017523 -0.010958 0.000000 0.000000 0.000000
# 3 -0.008560 -0.010958 0.027523 0.000000 0.000000 0.000000
# 4 0.000000 0.000000 0.000000 0.025030 0.000000 0.000000
# 5 0.000000 0.000000 0.000000 0.000000 0.093356 0.000000
# 6 0.000000 0.000000 0.000000 0.000000 0.000000 0.057936
#
#
# Mechanical properties :
#
#
# Convention : Reuss Voigt Hill
#
# Bulk Modulus (GPa) = 56.19796 59.90915 58.05356
# Shear Modulus (GPa) = 16.75828 20.63283 18.69556
#
# Velocity S-wave (km/s) = 3.27103 3.62952 3.45493
# Velocity P-wave (km/s) = 7.08145 7.47093 7.27880
#
# Compressibility (1/GPa) = 0.01779424
#
# Stress axis : x y z
#
# Youngs Moduli (GPa) = 45.65300 57.06888 36.33344
#
# Poissons Ratio (x) = 0.28877 0.31102
# Poissons Ratio (y) = 0.23100 0.39813
# Poissons Ratio (z) = 0.39080 0.62534
#
# Static dielectric constant tensor:
#      x y z
#    x 1.500640 0.000000 0.000000 
#    y 0.000000 1.522310 0.000000 
#    z 0.000000 0.000000 1.523510 
# 
# From -- ./inp_files/8190.got.cif
#   From: 2010.05.17/outbox.cif.g08.bks.cpg/sg55_5_cif.got.tgz:8190.got - 2010.06.03 13:27:54.
