data_PCOD9426019
_publ_section_title
;
Structure prediction by ZEFSAII (Michael W. Deem and Ramdas Pophale) SiO2 
 PCOD9426019
Probable space group: P B A M
;
_chemical_formula_sum "Si O2"
_cell_formula_units_Z 64
_cell_length_a 20.360350
_cell_length_b 19.903319
_cell_length_c 7.512353
_cell_angle_alpha 90.000000
_cell_angle_beta 90.000000
_cell_angle_gamma 90.000000
_cell_volume 3044.294969
_symmetry_space_group_name_H-M "P B A M"
_symmetry_group_IT_number 55
_symmetry_cell_setting 'orthorhombic'
loop_
_space_group_symop_operation_xyz
x,y,z
-x,-y,z
1/2+x,1/2-y,-z
1/2-x,1/2+y,-z
-x,-y,-z
x,y,-z
1/2-x,1/2+y,z
1/2+x,1/2-y,z
loop_
_atom_site_type_symbol
_atom_site_label
_atom_site_fract_x
_atom_site_fract_y
_atom_site_fract_z
Si Si1 0.268706 0.250691 0.708095
Si Si2 0.441837 0.456621 0.703943
Si Si3 0.332884 0.558980 0.209096
Si Si4 0.810821 0.399407 0.216278
Si Si5 0.000890 0.292994 0.715207
Si Si6 0.894717 0.184788 0.281089
Si Si7 0.545710 0.940672 0.791160
Si Si8 0.128243 0.210111 0.284075
O O1 0.260031 0.266154 0.500000
O O2 0.302674 0.177588 0.723222
O O3 0.320537 0.303545 0.781850
O O4 0.196024 0.242947 0.783796
O O5 0.500000 0.500000 0.788667
O O6 0.462944 0.442667 0.500000
O O7 0.376868 0.501957 0.703441
O O8 0.426087 0.384335 0.782729
O O9 0.257451 0.565358 0.273507
O O10 0.367599 0.631700 0.233316
O O11 0.330804 0.544259 0.000000
O O12 0.879839 0.430413 0.280015
O O13 0.811070 0.398692 0.000000
O O14 0.001949 0.294404 0.500000
O O15 0.065896 0.253183 0.774969
O O16 0.939377 0.247561 0.771696
O O17 0.990922 0.369159 0.775642
O O18 0.893447 0.183682 0.500000
O O19 0.500000 0.000000 0.715121
O O20 0.554752 0.956111 0.000000
O O21 0.128105 0.210478 0.500000
#
# Coordination Sequence:
#
# PCOD9426019 Si02
#       8
#     8   8   8   8   8   8   8   8
#     4   9  16  30  52  75  99 128 168 213 255 306
#     4  10  20  35  53  74 106 145 179 212 261 320
#     4  10  20  34  53  78 108 140 178 220 258 303
#     4   9  18  34  54  74 101 136 174 213 255 305
#     4  10  19  34  55  80 105 130 167 215 261 306
#     4   9  17  30  51  74  99 132 170 212 255 303
#     4  10  21  37  55  75 103 140 177 213 260 317
#     4   9  18  32  53  78 105 136 168 209 265 317
#
# _framework density 21.022929000000001
#
# number of rings (size 3 to 8) (size 9 to 14) (size 15 to 20)
#    0.000    2.500    1.250    1.125    0.000    3.500 
#    2.250    1.250    0.000    0.000    0.000    0.000 
#    0.000    0.000    0.000    0.000    0.000    0.000 
#
# Total GULP energy -357149.249010 kJ/mol
# GULP energy per Si atom -5580.457016 kJ/mol
# Density = 2.097508 g / cm^3
# Si number density = 21.022929 Si / 1000 Ang^3
#
#
#
# Elastic Constant Matrix: (Units=GPa)
#
#
# Indices 1 2 3 4 5 6 
#
# 1 88.1634 20.6373 -11.5549 0.0000 0.0000 0.0000
# 2 20.6373 79.0094 -15.7371 0.0000 0.0000 0.0000
# 3 -11.5549 -15.7371 56.1764 0.0000 0.0000 0.0000
# 4 0.0000 0.0000 0.0000 21.4782 0.0000 0.0000
# 5 0.0000 0.0000 0.0000 0.0000 21.4123 0.0000
# 6 0.0000 0.0000 0.0000 0.0000 0.0000 22.2431
#
#
#
# Elastic Compliance Matrix: (Units=1/GPa)
#
#
# Indices 1 2 3 4 5 6 
#
# 1 0.012236 -0.002854 0.001717 0.000000 0.000000 0.000000
# 2 -0.002854 0.014070 0.003355 0.000000 0.000000 0.000000
# 3 0.001717 0.003355 0.019094 0.000000 0.000000 0.000000
# 4 0.000000 0.000000 0.000000 0.046559 0.000000 0.000000
# 5 0.000000 0.000000 0.000000 0.000000 0.046702 0.000000
# 6 0.000000 0.000000 0.000000 0.000000 0.000000 0.044958
#
#
# Mechanical properties :
#
#
# Convention : Reuss Voigt Hill
#
# Bulk Modulus (GPa) = 20.06581 23.33774 21.70178
# Shear Modulus (GPa) = 25.53692 28.36030 26.94861
#
# Velocity S-wave (km/s) = 3.48906 3.67688 3.58420
# Velocity P-wave (km/s) = 5.07906 5.39918 5.24156
#
# Compressibility (1/GPa) = 0.04983600
#
# Stress axis : x y z
#
# Youngs Moduli (GPa) = 81.72813 71.07150 52.37231
#
# Poissons Ratio (x) = 0.20283 -0.08994
# Poissons Ratio (y) = 0.23325 -0.17569
# Poissons Ratio (z) = -0.14035 -0.23842
#
# Static dielectric constant tensor:
#      x y z
#    x 1.835290 0.000000 0.000000 
#    y 0.000000 1.711670 0.000000 
#    z 0.000000 0.000000 1.801630 
# 
# From -- ./inp_files/9186.got.cif
#   From: 2010.05.17/outbox.cif.g08.bks.cpg/sg55_5_cif.got.tgz:9186.got - 2010.06.03 13:27:54.
