data_PCOD9426623
_publ_section_title
;
Structure prediction by ZEFSAII (Michael W. Deem and Ramdas Pophale) SiO2 
 PCOD9426623
Probable space group: P B A M
;
_chemical_formula_sum "Si O2"
_cell_formula_units_Z 48
_cell_length_a 12.425291
_cell_length_b 24.368338
_cell_length_c 7.715012
_cell_angle_alpha 90.000000
_cell_angle_beta 90.000000
_cell_angle_gamma 90.000000
_cell_volume 2335.979808
_symmetry_space_group_name_H-M "P B A M"
_symmetry_group_IT_number 55
_symmetry_cell_setting 'orthorhombic'
loop_
_space_group_symop_operation_xyz
x,y,z
-x,-y,z
1/2+x,1/2-y,-z
1/2-x,1/2+y,-z
-x,-y,-z
x,y,-z
1/2-x,1/2+y,z
1/2+x,1/2-y,z
loop_
_atom_site_type_symbol
_atom_site_label
_atom_site_fract_x
_atom_site_fract_y
_atom_site_fract_z
Si Si1 0.659403 0.292141 0.711297
Si Si2 0.897018 0.669178 0.286700
Si Si3 0.286345 0.412375 0.299489
Si Si4 0.135872 0.641571 0.292459
Si Si5 0.234726 0.033438 0.799045
Si Si6 0.027116 0.101751 0.710297
O O1 0.661211 0.291573 0.500000
O O2 0.630432 0.231154 0.767230
O O3 0.775317 0.314670 0.771585
O O4 0.572782 0.338537 0.761192
O O5 0.898396 0.668084 0.500000
O O6 0.804892 0.627337 0.225717
O O7 0.015819 0.651600 0.227177
O O8 0.298145 0.395379 0.500000
O O9 0.251751 0.475631 0.294173
O O10 0.406553 0.407711 0.223937
O O11 0.132348 0.647774 0.500000
O O12 0.184064 0.581517 0.256364
O O13 0.114804 0.057308 0.769353
O O14 0.250290 0.022648 0.000000
O O15 0.027886 0.098719 0.500000
#
# Coordination Sequence:
#
# PCOD9426623 Si02
#       6
#     8   8   8   8   8   8
#     4   8  15  28  50  80 108 133 167 210 256 305
#     4   9  18  30  51  83 111 138 170 211 259 312
#     4  10  20  33  52  80 111 139 173 214 261 311
#     4   9  18  34  55  78 107 139 172 212 261 313
#     4  11  22  36  54  74 102 140 183 224 263 308
#     4   9  18  33  55  82 109 137 170 216 266 312
#
# _framework density 20.548124000000001
#
# number of rings (size 3 to 8) (size 9 to 14) (size 15 to 20)
#    0.000    2.667    0.000    3.000    2.333    3.333 
#    0.000    4.167    0.000    8.000    0.000    0.000 
#    0.000    0.000    0.000    0.000    0.000    0.000 
#
# Total GULP energy -267908.703082 kJ/mol
# GULP energy per Si atom -5581.431314 kJ/mol
# Density = 2.050136 g / cm^3
# Si number density = 20.548124 Si / 1000 Ang^3
#
#
#
# Elastic Constant Matrix: (Units=GPa)
#
#
# Indices 1 2 3 4 5 6 
#
# 1 54.9698 41.8124 2.7403 0.0000 0.0000 0.0000
# 2 41.8124 105.2679 -8.0347 0.0000 0.0000 0.0000
# 3 2.7403 -8.0347 28.0681 0.0000 0.0000 0.0000
# 4 0.0000 0.0000 0.0000 -34.3217 0.0000 0.0000
# 5 0.0000 0.0000 0.0000 0.0000 -7.9099 0.0000
# 6 0.0000 0.0000 0.0000 0.0000 0.0000 10.6784
#
#
#
# Elastic Compliance Matrix: (Units=1/GPa)
#
#
# Indices 1 2 3 4 5 6 
#
# 1 0.026968 -0.011157 -0.005827 0.000000 0.000000 0.000000
# 2 -0.011157 0.014327 0.005190 0.000000 0.000000 0.000000
# 3 -0.005827 0.005190 0.037682 0.000000 0.000000 0.000000
# 4 0.000000 0.000000 0.000000 -0.029136 0.000000 0.000000
# 5 0.000000 0.000000 0.000000 0.000000 -0.126424 0.000000
# 6 0.000000 0.000000 0.000000 0.000000 0.000000 0.093647
#
#
# Mechanical properties :
#
#
# Convention : Reuss Voigt Hill
#
# Bulk Modulus (GPa) = 18.05299 29.03798 23.54549
# Shear Modulus (GPa) = 84.58172 3.80854 44.19513
#
# Velocity S-wave (km/s) = 6.42278 1.36290 4.64272
# Velocity P-wave (km/s) = 7.98797 4.07910 6.34219
#
# Compressibility (1/GPa) = 0.05539248
#
# Stress axis : x y z
#
# Youngs Moduli (GPa) = 37.08040 69.79765 26.53763
#
# Poissons Ratio (x) = 0.77870 0.15462
# Poissons Ratio (y) = 0.41369 -0.13774
# Poissons Ratio (z) = 0.21605 -0.36228
#
# Static dielectric constant tensor:
#      x y z
#    x 1.731250 0.000000 0.000000 
#    y 0.000000 1.705850 0.000000 
#    z 0.000000 0.000000 1.762140 
# 
# From -- ./inp_files/4062.got.cif
#   From: 2010.05.17/outbox.cif.g08.bks.cpg/sg55_3_cif.got.tgz:4062.got - 2010.06.03 13:27:54.
