data_PCOD9426244
_publ_section_title
;
Structure prediction by ZEFSAII (Michael W. Deem and Ramdas Pophale) SiO2 
 PCOD9426244
Probable space group: P B A M
;
_chemical_formula_sum "Si O2"
_cell_formula_units_Z 48
_cell_length_a 13.607422
_cell_length_b 7.923063
_cell_length_c 19.343803
_cell_angle_alpha 90.000000
_cell_angle_beta 90.000000
_cell_angle_gamma 90.000000
_cell_volume 2085.503021
_symmetry_space_group_name_H-M "P B A M"
_symmetry_group_IT_number 55
_symmetry_cell_setting 'orthorhombic'
loop_
_space_group_symop_operation_xyz
x,y,z
-x,-y,z
1/2+x,1/2-y,-z
1/2-x,1/2+y,-z
-x,-y,-z
x,y,-z
1/2-x,1/2+y,z
1/2+x,1/2-y,z
loop_
_atom_site_type_symbol
_atom_site_label
_atom_site_fract_x
_atom_site_fract_y
_atom_site_fract_z
Si Si1 0.113318 0.803899 0.766525
Si Si2 0.241728 0.483444 0.000000
Si Si3 0.771468 0.489875 0.159022
Si Si4 0.412480 0.672486 0.000000
Si Si5 0.788807 0.038129 0.500000
Si Si6 0.953356 0.687635 0.140657
Si Si7 0.563511 0.671750 0.392562
Si Si8 0.585880 0.189308 0.500000
O O1 0.170583 0.955531 0.804876
O O2 0.172679 0.640733 0.792837
O O3 0.098599 0.795668 0.684957
O O4 0.006503 0.783495 0.798806
O O5 0.224002 0.560670 0.077249
O O6 0.360225 0.490879 0.000000
O O7 0.176051 0.315138 0.000000
O O8 0.839789 0.657898 0.157135
O O9 0.467806 0.713281 0.069792
O O10 0.837434 0.135553 0.564586
O O11 0.670168 0.044998 0.500000
O O12 0.842733 0.855527 0.500000
O O13 0.000000 0.500000 0.131861
O O14 0.500000 0.500000 0.391655
O O15 0.488808 0.796612 0.434260
#
# Coordination Sequence:
#
# PCOD9426244 Si02
#       8
#     8   4   8   4   4   8   8   4
#     4  11  23  39  60  88 121 157 198 250 305 361
#     4  10  20  37  57  81 113 150 200 256 294 352
#     4  10  22  39  59  85 118 159 204 250 307 360
#     4  10  19  35  59  81 108 150 198 248 304 360
#     4   9  19  39  66  90 118 163 199 231 292 353
#     4   9  20  37  56  81 114 153 196 245 303 363
#     4   9  21  39  60  89 126 158 193 243 294 357
#     4   9  19  41  66  92 120 155 201 241 287 353
#
# _framework density 23.016030000000001
#
# number of rings (size 3 to 8) (size 9 to 14) (size 15 to 20)
#    0.000    2.333    0.000    3.250    0.000    9.333 
#    0.000    5.833    0.000    0.000    0.000    0.000 
#    0.000    0.000    0.000    0.000    0.000    0.000 
#
# Total GULP energy -267777.878409 kJ/mol
# GULP energy per Si atom -5578.705800 kJ/mol
# Density = 2.296364 g / cm^3
# Si number density = 23.016030 Si / 1000 Ang^3
#
#
#
# Elastic Constant Matrix: (Units=GPa)
#
#
# Indices 1 2 3 4 5 6 
#
# 1 96.0930 18.5877 58.8811 0.0000 0.0000 0.0000
# 2 18.5877 47.1539 30.7145 0.0000 0.0000 0.0000
# 3 58.8811 30.7145 221.8593 0.0000 0.0000 0.0000
# 4 0.0000 0.0000 0.0000 -28.8795 0.0000 0.0000
# 5 0.0000 0.0000 0.0000 0.0000 36.5573 0.0000
# 6 0.0000 0.0000 0.0000 0.0000 0.0000 43.9489
#
#
#
# Elastic Compliance Matrix: (Units=1/GPa)
#
#
# Indices 1 2 3 4 5 6 
#
# 1 0.012832 -0.003122 -0.002974 0.000000 0.000000 0.000000
# 2 -0.003122 0.024068 -0.002504 0.000000 0.000000 0.000000
# 3 -0.002974 -0.002504 0.005643 0.000000 0.000000 0.000000
# 4 0.000000 0.000000 0.000000 -0.034627 0.000000 0.000000
# 5 0.000000 0.000000 0.000000 0.000000 0.027354 0.000000
# 6 0.000000 0.000000 0.000000 0.000000 0.000000 0.022754
#
#
# Mechanical properties :
#
#
# Convention : Reuss Voigt Hill
#
# Bulk Modulus (GPa) = 39.45313 64.60810 52.03062
# Shear Modulus (GPa) = 59.75738 27.45354 43.60546
#
# Velocity S-wave (km/s) = 5.10095 3.45744 4.35739
# Velocity P-wave (km/s) = 7.20221 6.63855 6.92612
#
# Compressibility (1/GPa) = 0.02534653
#
# Stress axis : x y z
#
# Youngs Moduli (GPa) = 77.92737 41.54823 177.20629
#
# Poissons Ratio (x) = 0.12970 0.52693
# Poissons Ratio (y) = 0.24326 0.44365
# Poissons Ratio (z) = 0.23172 0.10402
#
# Static dielectric constant tensor:
#      x y z
#    x 1.908440 0.000000 0.000000 
#    y 0.000000 1.991230 0.000000 
#    z 0.000000 0.000000 1.822600 
# 
# From -- ./inp_files/21567.got.cif
#   From: 2010.05.17/outbox.cif.g08.bks.cpg/sg55_11_cif.got.tgz:21567.got - 2010.06.03 13:27:54.
