data_PCOD9426514
_publ_section_title
;
Structure prediction by ZEFSAII (Michael W. Deem and Ramdas Pophale) SiO2 
 PCOD9426514
Probable space group: P B A M
;
_chemical_formula_sum "Si O2"
_cell_formula_units_Z 56
_cell_length_a 29.194418
_cell_length_b 8.338124
_cell_length_c 13.225273
_cell_angle_alpha 90.000000
_cell_angle_beta 90.000000
_cell_angle_gamma 90.000000
_cell_volume 3219.384264
_symmetry_space_group_name_H-M "P B A M"
_symmetry_group_IT_number 55
_symmetry_cell_setting 'orthorhombic'
loop_
_space_group_symop_operation_xyz
x,y,z
-x,-y,z
1/2+x,1/2-y,-z
1/2-x,1/2+y,-z
-x,-y,-z
x,y,-z
1/2-x,1/2+y,z
1/2+x,1/2-y,z
loop_
_atom_site_type_symbol
_atom_site_label
_atom_site_fract_x
_atom_site_fract_y
_atom_site_fract_z
Si Si1 0.091396 0.393556 0.618459
Si Si2 0.026495 0.257665 0.221130
Si Si3 0.815550 0.769670 0.623403
Si Si4 0.072078 0.909711 0.000000
Si Si5 0.274786 0.393098 0.378733
Si Si6 0.928979 0.098942 0.779131
Si Si7 0.470957 0.751986 0.000000
Si Si8 0.633191 0.751711 0.383352
O O1 0.080677 0.362393 0.500000
O O2 0.048547 0.361614 0.690483
O O3 0.133527 0.280035 0.652939
O O4 0.111567 0.572611 0.625525
O O5 0.973110 0.214920 0.234192
O O6 0.051348 0.082341 0.222474
O O7 0.034120 0.333113 0.109221
O O8 0.816163 0.766985 0.500000
O O9 0.775644 0.648883 0.658838
O O10 0.798253 0.943629 0.657067
O O11 0.092236 0.869107 0.890587
O O12 0.021718 0.826992 0.000000
O O13 0.063146 0.100325 0.000000
O O14 0.269864 0.409813 0.500000
O O15 0.312473 0.254377 0.361787
O O16 0.893666 0.135080 0.691089
O O17 0.627869 0.697975 0.500000
#
# Coordination Sequence:
#
# PCOD9426514 Si02
#       8
#     8   8   8   4   8   8   4   8
#     4  10  20  31  42  61  92 125 153 181 216 260
#     4   9  17  30  48  67  87 114 149 187 225 265
#     4   9  16  27  44  64  86 113 146 183 221 260
#     4   7  12  26  47  67  84 105 140 187 231 265
#     4   9  16  27  44  64  86 113 146 183 221 260
#     4   9  17  30  48  67  87 114 149 187 225 265
#     4   7  12  26  47  67  84 105 140 187 231 265
#     4  10  20  31  42  61  92 125 153 181 216 260
#
# _framework density 17.394631
#
# number of rings (size 3 to 8) (size 9 to 14) (size 15 to 20)
#    0.000    3.000    0.000    3.429    0.000    6.286 
#    0.000    3.571    0.000    2.571    0.000    1.000 
#    0.000    0.000    0.000    0.000    0.000    0.000 
#
# Total GULP energy -311871.541533 kJ/mol
# GULP energy per Si atom -5569.134670 kJ/mol
# Density = 1.735504 g / cm^3
# Si number density = 17.394631 Si / 1000 Ang^3
#
#
#
# Elastic Constant Matrix: (Units=GPa)
#
#
# Indices 1 2 3 4 5 6 
#
# 1 39.3160 4.2578 25.1338 0.0000 0.0000 0.0000
# 2 4.2578 33.9743 14.4706 0.0000 0.0000 0.0000
# 3 25.1338 14.4706 67.3738 0.0000 0.0000 0.0000
# 4 0.0000 0.0000 0.0000 1.1793 0.0000 0.0000
# 5 0.0000 0.0000 0.0000 0.0000 2.1165 0.0000
# 6 0.0000 0.0000 0.0000 0.0000 0.0000 26.4453
#
#
#
# Elastic Compliance Matrix: (Units=1/GPa)
#
#
# Indices 1 2 3 4 5 6 
#
# 1 0.033447 0.001236 -0.012743 0.000000 0.000000 0.000000
# 2 0.001236 0.032443 -0.007429 0.000000 0.000000 0.000000
# 3 -0.012743 -0.007429 0.021192 0.000000 0.000000 0.000000
# 4 0.000000 0.000000 0.000000 0.847980 0.000000 0.000000
# 5 0.000000 0.000000 0.000000 0.000000 0.472484 0.000000
# 6 0.000000 0.000000 0.000000 0.000000 0.000000 0.037814
#
#
# Mechanical properties :
#
#
# Convention : Reuss Voigt Hill
#
# Bulk Modulus (GPa) = 20.32105 25.37649 22.84877
# Shear Modulus (GPa) = 3.33414 12.40167 7.86790
#
# Velocity S-wave (km/s) = 1.38597 2.67303 2.12908
# Velocity P-wave (km/s) = 3.77743 4.91397 4.38270
#
# Compressibility (1/GPa) = 0.04921006
#
# Stress axis : x y z
#
# Youngs Moduli (GPa) = 29.89767 30.82285 47.18755
#
# Poissons Ratio (x) = -0.03809 0.60131
# Poissons Ratio (y) = -0.03695 0.35057
# Poissons Ratio (z) = 0.38099 0.22899
#
# Static dielectric constant tensor:
#      x y z
#    x 1.577260 0.000000 0.000000 
#    y 0.000000 1.649810 0.000000 
#    z 0.000000 0.000000 1.594260 
# 
# From -- ./inp_files/20181.got.cif
#   From: 2010.05.17/outbox.cif.g08.bks.cpg/sg55_11_cif.got.tgz:20181.got - 2010.06.03 13:27:54.
