data_PCOD9426950
_publ_section_title
;
Structure prediction by ZEFSAII (Michael W. Deem and Ramdas Pophale) SiO2 
 PCOD9426950
Probable space group: P B A M
;
_chemical_formula_sum "Si O2"
_cell_formula_units_Z 40
_cell_length_a 8.342375
_cell_length_b 13.442072
_cell_length_c 14.188613
_cell_angle_alpha 90.000000
_cell_angle_beta 90.000000
_cell_angle_gamma 90.000000
_cell_volume 1591.094112
_symmetry_space_group_name_H-M "P B A M"
_symmetry_group_IT_number 55
_symmetry_cell_setting 'orthorhombic'
loop_
_space_group_symop_operation_xyz
x,y,z
-x,-y,z
1/2+x,1/2-y,-z
1/2-x,1/2+y,-z
-x,-y,-z
x,y,-z
1/2-x,1/2+y,z
1/2+x,1/2-y,z
loop_
_atom_site_type_symbol
_atom_site_label
_atom_site_fract_x
_atom_site_fract_y
_atom_site_fract_z
Si Si1 0.501667 0.758291 0.608745
Si Si2 0.702234 0.269481 0.891214
Si Si3 0.678586 0.046498 0.396721
Si Si4 0.781849 0.875350 0.290688
Si Si5 0.602267 0.595544 0.108517
O O1 0.514878 0.726601 0.500000
O O2 0.355939 0.838113 0.614666
O O3 0.452528 0.670359 0.678880
O O4 0.654957 0.821003 0.640434
O O5 0.772696 0.344010 0.813056
O O6 0.737394 0.155393 0.859516
O O7 0.520391 0.310544 0.891001
O O8 0.754446 0.280982 0.000000
O O9 0.751597 0.026650 0.500000
O O10 0.500000 0.000000 0.398415
O O11 0.771428 0.990602 0.315202
O O12 0.500000 0.500000 0.146734
O O13 0.637769 0.565113 0.000000
#
# Coordination Sequence:
#
# PCOD9426950 Si02
#       5
#     8   8   8   8   8
#     4  10  20  35  56  81 108 140 181 230 285 346
#     4  10  21  37  57  84 117 154 202 250 293 357
#     4   8  16  32  52  73 102 139 174 213 271 343
#     4  11  20  34  56  80 107 144 186 227 280 339
#     4   9  19  38  60  80 112 156 195 244 306 352
#
# _framework density 25.139934
#
# number of rings (size 3 to 8) (size 9 to 14) (size 15 to 20)
#    0.000    2.400    0.000    4.200    0.000    1.600 
#    0.000    4.000    0.000   17.400    0.000    0.000 
#    0.000    0.000    0.000    0.000    0.000    0.000 
#
# Total GULP energy -223071.556423 kJ/mol
# GULP energy per Si atom -5576.788911 kJ/mol
# Density = 2.508271 g / cm^3
# Si number density = 25.139934 Si / 1000 Ang^3
#
#
#
# Elastic Constant Matrix: (Units=GPa)
#
#
# Indices 1 2 3 4 5 6 
#
# 1 42.9303 33.3784 1.2976 0.0000 0.0000 0.0000
# 2 33.3784 97.4197 30.4419 0.0000 0.0000 0.0000
# 3 1.2976 30.4419 131.0333 0.0000 0.0000 0.0000
# 4 0.0000 0.0000 0.0000 27.6352 0.0000 0.0000
# 5 0.0000 0.0000 0.0000 0.0000 31.2514 0.0000
# 6 0.0000 0.0000 0.0000 0.0000 0.0000 49.7847
#
#
#
# Elastic Compliance Matrix: (Units=1/GPa)
#
#
# Indices 1 2 3 4 5 6 
#
# 1 0.032459 -0.011884 0.002439 0.000000 0.000000 0.000000
# 2 -0.011884 0.015419 -0.003465 0.000000 0.000000 0.000000
# 3 0.002439 -0.003465 0.008412 0.000000 0.000000 0.000000
# 4 0.000000 0.000000 0.000000 0.036186 0.000000 0.000000
# 5 0.000000 0.000000 0.000000 0.000000 0.031999 0.000000
# 6 0.000000 0.000000 0.000000 0.000000 0.000000 0.020086
#
#
# Mechanical properties :
#
#
# Convention : Reuss Voigt Hill
#
# Bulk Modulus (GPa) = 32.81561 44.62435 38.71998
# Shear Modulus (GPa) = 27.69513 35.48528 31.59021
#
# Velocity S-wave (km/s) = 3.32270 3.76108 3.54867
# Velocity P-wave (km/s) = 5.27275 6.05392 5.67679
#
# Compressibility (1/GPa) = 0.03047330
#
# Stress axis : x y z
#
# Youngs Moduli (GPa) = 30.80769 64.85455 118.87253
#
# Poissons Ratio (x) = 0.77071 -0.28998
# Poissons Ratio (y) = 0.36611 0.41184
# Poissons Ratio (z) = -0.07515 0.22469
#
# Static dielectric constant tensor:
#      x y z
#    x 2.089280 0.000000 0.000000 
#    y 0.000000 2.043930 0.000000 
#    z 0.000000 0.000000 1.993960 
# 
# From -- ./inp_files/17073.got.cif
#   From: 2010.05.17/outbox.cif.g08.bks.cpg/sg55_9_cif.got.tgz:17073.got - 2010.06.03 13:27:54.
