data_PCOD9426608
_publ_section_title
;
Structure prediction by ZEFSAII (Michael W. Deem and Ramdas Pophale) SiO2 
 PCOD9426608
Probable space group: P B A M
;
_chemical_formula_sum "Si O2"
_cell_formula_units_Z 64
_cell_length_a 12.320392
_cell_length_b 30.635302
_cell_length_c 7.553766
_cell_angle_alpha 90.000000
_cell_angle_beta 90.000000
_cell_angle_gamma 90.000000
_cell_volume 2851.085354
_symmetry_space_group_name_H-M "P B A M"
_symmetry_group_IT_number 55
_symmetry_cell_setting 'orthorhombic'
loop_
_space_group_symop_operation_xyz
x,y,z
-x,-y,z
1/2+x,1/2-y,-z
1/2-x,1/2+y,-z
-x,-y,-z
x,y,-z
1/2-x,1/2+y,z
1/2+x,1/2-y,z
loop_
_atom_site_type_symbol
_atom_site_label
_atom_site_fract_x
_atom_site_fract_y
_atom_site_fract_z
Si Si1 0.769679 0.840243 0.282196
Si Si2 0.800684 0.939795 0.716593
Si Si3 0.871133 0.152820 0.212647
Si Si4 0.727206 0.029420 0.713885
Si Si5 0.538603 0.277831 0.292139
Si Si6 0.463510 0.187687 0.294072
Si Si7 0.459497 0.437793 0.705510
Si Si8 0.637148 0.119558 0.792638
O O1 0.771461 0.841343 0.500000
O O2 0.776183 0.890771 0.225444
O O3 0.869071 0.810098 0.219161
O O4 0.655716 0.820427 0.220290
O O5 0.803022 0.939326 0.500000
O O6 0.923642 0.951140 0.776906
O O7 0.719973 0.978908 0.768962
O O8 0.750140 0.140746 0.276995
O O9 0.922728 0.198221 0.270963
O O10 0.949533 0.114510 0.282709
O O11 0.871279 0.150799 0.000000
O O12 0.727627 0.030475 0.500000
O O13 0.645020 0.067447 0.768049
O O14 0.846114 0.045161 0.781399
O O15 0.564768 0.274284 0.500000
O O16 0.527833 0.229149 0.216774
O O17 0.446083 0.198590 0.500000
O O18 0.534872 0.144109 0.286501
O O19 0.458547 0.450890 0.500000
O O20 0.633715 0.128523 0.000000
#
# Coordination Sequence:
#
# PCOD9426608 Si02
#       8
#     8   8   8   8   8   8   8   8
#     4   9  18  34  54  83 115 138 173 226 279 325
#     4   9  15  27  51  80 111 142 175 226 283 325
#     4  10  20  33  51  78 110 144 180 216 264 325
#     4   9  17  29  52  82 106 139 188 229 270 329
#     4  10  20  35  58  84 110 140 176 224 278 325
#     4  10  22  37  59  83 105 139 185 230 270 324
#     4   9  15  27  48  76 110 142 177 223 273 321
#     4  10  22  39  55  75 111 151 184 226 274 319
#
# _framework density 22.447590999999999
#
# number of rings (size 3 to 8) (size 9 to 14) (size 15 to 20)
#    0.000    2.500    1.250    1.125    1.750    3.500 
#    0.000    1.875    0.000    6.750    0.000    0.000 
#    0.000    0.000    0.000    0.000    0.000    0.000 
#
# Total GULP energy -357155.198950 kJ/mol
# GULP energy per Si atom -5580.549984 kJ/mol
# Density = 2.239650 g / cm^3
# Si number density = 22.447591 Si / 1000 Ang^3
#
#
#
# Elastic Constant Matrix: (Units=GPa)
#
#
# Indices 1 2 3 4 5 6 
#
# 1 63.1562 33.1881 0.7656 0.0000 0.0000 0.0000
# 2 33.1881 131.4270 6.4401 0.0000 0.0000 0.0000
# 3 0.7656 6.4401 48.9862 0.0000 0.0000 0.0000
# 4 0.0000 0.0000 0.0000 1205.8341 0.0000 0.0000
# 5 0.0000 0.0000 0.0000 0.0000 52.5214 0.0000
# 6 0.0000 0.0000 0.0000 0.0000 0.0000 14.1581
#
#
#
# Elastic Compliance Matrix: (Units=1/GPa)
#
#
# Indices 1 2 3 4 5 6 
#
# 1 0.018261 -0.004627 0.000323 0.000000 0.000000 0.000000
# 2 -0.004627 0.008831 -0.001089 0.000000 0.000000 0.000000
# 3 0.000323 -0.001089 0.020552 0.000000 0.000000 0.000000
# 4 0.000000 0.000000 0.000000 0.000829 0.000000 0.000000
# 5 0.000000 0.000000 0.000000 0.000000 0.019040 0.000000
# 6 0.000000 0.000000 0.000000 0.000000 0.000000 0.070631
#
#
# Mechanical properties :
#
#
# Convention : Reuss Voigt Hill
#
# Bulk Modulus (GPa) = 27.13103 36.03965 31.58534
# Shear Modulus (GPa) = 31.01429 268.04776 149.53103
#
# Velocity S-wave (km/s) = 3.72106 10.93937 8.17056
# Velocity P-wave (km/s) = 5.52941 13.25328 10.15440
#
# Compressibility (1/GPa) = 0.03685817
#
# Stress axis : x y z
#
# Youngs Moduli (GPa) = 54.76029 113.24262 48.65714
#
# Poissons Ratio (x) = 0.52400 -0.01571
# Poissons Ratio (y) = 0.25339 0.05297
# Poissons Ratio (z) = -0.01768 0.12328
#
# Static dielectric constant tensor:
#      x y z
#    x 1.810740 0.000000 0.000000 
#    y 0.000000 1.857790 0.000000 
#    z 0.000000 0.000000 1.839330 
# 
# From -- ./inp_files/4576.got.cif
#   From: 2010.05.17/outbox.cif.g08.bks.cpg/sg55_3_cif.got.tgz:4576.got - 2010.06.03 13:27:54.
