data_PCOD9426048
_publ_section_title
;
Structure prediction by ZEFSAII (Michael W. Deem and Ramdas Pophale) SiO2 
 PCOD9426048
Probable space group: P B A M
;
_chemical_formula_sum "Si O2"
_cell_formula_units_Z 64
_cell_length_a 20.016210
_cell_length_b 20.991588
_cell_length_c 8.770548
_cell_angle_alpha 90.000000
_cell_angle_beta 90.000000
_cell_angle_gamma 90.000000
_cell_volume 3685.138989
_symmetry_space_group_name_H-M "P B A M"
_symmetry_group_IT_number 55
_symmetry_cell_setting 'orthorhombic'
loop_
_space_group_symop_operation_xyz
x,y,z
-x,-y,z
1/2+x,1/2-y,-z
1/2-x,1/2+y,-z
-x,-y,-z
x,y,-z
1/2-x,1/2+y,z
1/2+x,1/2-y,z
loop_
_atom_site_type_symbol
_atom_site_label
_atom_site_fract_x
_atom_site_fract_y
_atom_site_fract_z
Si Si1 0.202665 0.566810 0.816859
Si Si2 0.214440 0.432920 0.318722
Si Si3 0.704882 0.684052 0.817465
Si Si4 0.430249 0.731765 0.180843
Si Si5 0.713390 0.309872 0.814571
Si Si6 0.934052 0.386167 0.317861
Si Si7 0.922933 0.615457 0.820041
Si Si8 0.571690 0.734954 0.319472
O O1 0.231110 0.501030 0.753793
O O2 0.247327 0.627130 0.766303
O O3 0.127974 0.576735 0.753409
O O4 0.200503 0.565783 0.000000
O O5 0.216825 0.436102 0.500000
O O6 0.263068 0.377906 0.257703
O O7 0.139577 0.415348 0.264277
O O8 0.746978 0.746426 0.767226
O O9 0.629156 0.697416 0.768422
O O10 0.710275 0.678802 0.000000
O O11 0.363536 0.695914 0.233917
O O12 0.418095 0.807752 0.198944
O O13 0.497611 0.715001 0.268812
O O14 0.440011 0.720671 0.000000
O O15 0.712948 0.309468 0.000000
O O16 0.935734 0.394050 0.500000
O O17 0.923175 0.310731 0.283581
O O18 0.005472 0.404491 0.247136
O O19 0.919459 0.601401 0.000000
O O20 0.580422 0.727400 0.500000
#
# Coordination Sequence:
#
# PCOD9426048 Si02
#       8
#     8   8   8   8   8   8   8   8
#     4  11  22  38  58  81 110 150 193 233 277 334
#     4  12  25  39  54  80 116 151 185 232 287 337
#     4  11  20  37  61  85 109 146 192 234 275 327
#     4   9  17  33  56  83 111 142 181 229 275 325
#     4   9  18  34  59  86 109 138 186 236 276 321
#     4  10  20  34  52  80 117 151 185 228 278 332
#     4  10  19  34  56  80 109 149 193 230 269 330
#     4  10  20  33  52  85 119 147 179 224 280 334
#
# _framework density 17.367052000000001
#
# number of rings (size 3 to 8) (size 9 to 14) (size 15 to 20)
#    0.000    1.750    2.500    3.000    0.000    2.000 
#    0.000    3.750    0.000    0.750    0.000    5.250 
#    0.000    0.000    0.000    0.000    0.000    0.000 
#
# Total GULP energy -357520.621176 kJ/mol
# GULP energy per Si atom -5586.259706 kJ/mol
# Density = 1.732752 g / cm^3
# Si number density = 17.367052 Si / 1000 Ang^3
#
#
#
# Elastic Constant Matrix: (Units=GPa)
#
#
# Indices 1 2 3 4 5 6 
#
# 1 76.6011 17.6879 12.1899 0.0000 0.0000 0.0000
# 2 17.6879 48.2710 15.8632 0.0000 0.0000 0.0000
# 3 12.1899 15.8632 48.8929 0.0000 0.0000 0.0000
# 4 0.0000 0.0000 0.0000 21.8724 0.0000 0.0000
# 5 0.0000 0.0000 0.0000 0.0000 15.9426 0.0000
# 6 0.0000 0.0000 0.0000 0.0000 0.0000 17.0475
#
#
#
# Elastic Compliance Matrix: (Units=1/GPa)
#
#
# Indices 1 2 3 4 5 6 
#
# 1 0.014453 -0.004603 -0.002110 0.000000 0.000000 0.000000
# 2 -0.004603 0.024655 -0.006852 0.000000 0.000000 0.000000
# 3 -0.002110 -0.006852 0.023202 0.000000 0.000000 0.000000
# 4 0.000000 0.000000 0.000000 0.045720 0.000000 0.000000
# 5 0.000000 0.000000 0.000000 0.000000 0.062725 0.000000
# 6 0.000000 0.000000 0.000000 0.000000 0.000000 0.058660
#
#
# Mechanical properties :
#
#
# Convention : Reuss Voigt Hill
#
# Bulk Modulus (GPa) = 28.42445 29.47189 28.94817
# Shear Modulus (GPa) = 18.63796 19.50745 19.07270
#
# Velocity S-wave (km/s) = 3.27950 3.35512 3.31752
# Velocity P-wave (km/s) = 5.54460 5.65826 5.60172
#
# Compressibility (1/GPa) = 0.03518098
#
# Stress axis : x y z
#
# Youngs Moduli (GPa) = 69.18868 40.56048 43.09985
#
# Poissons Ratio (x) = 0.18669 0.09095
# Poissons Ratio (y) = 0.31845 0.29530
# Poissons Ratio (z) = 0.14600 0.27790
#
# Static dielectric constant tensor:
#      x y z
#    x 1.575300 0.000000 0.000000 
#    y 0.000000 1.587400 0.000000 
#    z 0.000000 0.000000 1.576280 
# 
# From -- ./inp_files/7978.got.cif
#   From: 2010.05.17/outbox.cif.g08.bks.cpg/sg55_4_cif.got.tgz:7978.got - 2010.06.03 13:27:54.
