data_PCOD9426943
_publ_section_title
;
Structure prediction by ZEFSAII (Michael W. Deem and Ramdas Pophale) SiO2 
 PCOD9426943
Probable space group: P B A M
;
_chemical_formula_sum "Si O2"
_cell_formula_units_Z 64
_cell_length_a 25.861491
_cell_length_b 14.527499
_cell_length_c 7.481312
_cell_angle_alpha 90.000000
_cell_angle_beta 90.000000
_cell_angle_gamma 90.000000
_cell_volume 2810.749751
_symmetry_space_group_name_H-M "P B A M"
_symmetry_group_IT_number 55
_symmetry_cell_setting 'orthorhombic'
loop_
_space_group_symop_operation_xyz
x,y,z
-x,-y,z
1/2+x,1/2-y,-z
1/2-x,1/2+y,-z
-x,-y,-z
x,y,-z
1/2-x,1/2+y,z
1/2+x,1/2-y,z
loop_
_atom_site_type_symbol
_atom_site_label
_atom_site_fract_x
_atom_site_fract_y
_atom_site_fract_z
Si Si1 0.250000 0.133088 0.217949
Si Si2 0.361858 0.830956 0.282731
Si Si3 0.362072 0.614261 0.790236
Si Si4 0.945589 0.529088 0.296459
Si Si5 0.638142 0.669044 0.282731
Si Si6 0.250000 0.349080 0.704636
Si Si7 0.637928 0.885739 0.209764
Si Si8 0.554411 0.529088 0.703541
O O1 0.195873 0.088991 0.273898
O O2 0.250000 0.237048 0.291313
O O3 0.304127 0.088991 0.273898
O O4 0.250000 0.139256 0.000000
O O5 0.360026 0.836844 0.500000
O O6 0.366851 0.723975 0.234463
O O7 0.306395 0.869888 0.215150
O O8 0.410417 0.889850 0.216980
O O9 0.407406 0.558007 0.699715
O O10 0.365226 0.593706 0.000000
O O11 0.957686 0.558930 0.500000
O O12 0.907406 0.441993 0.300285
O O13 0.000000 0.500000 0.212242
O O14 0.639974 0.663156 0.500000
O O15 0.693605 0.630112 0.215150
O O16 0.633149 0.776025 0.234463
O O17 0.589583 0.610149 0.216980
O O18 0.250000 0.381462 0.500000
O O19 0.634774 0.906293 0.000000
O O20 0.500000 0.500000 0.787758
O O21 0.542314 0.558930 0.500000
#
# Coordination Sequence:
#
# PCOD9426943 Si02
#       8
#     8   8   8   8   8   8   8   8
#     4   8  16  31  50  76 107 135 163 201 259 323
#     4   9  18  34  55  77 103 135 171 213 261 312
#     4  10  20  35  56  80 107 137 170 213 264 316
#     4  10  22  38  54  75 105 142 183 222 260 307
#     4   9  18  34  55  77 103 135 171 213 261 312
#     4   8  14  27  50  78 101 125 165 213 257 305
#     4  10  20  35  56  80 107 137 170 213 264 316
#     4  10  22  38  54  75 105 142 183 222 260 307
#
# _framework density 22.769725999999999
#
# number of rings (size 3 to 8) (size 9 to 14) (size 15 to 20)
#    0.000    2.750    0.000    0.750    0.000    4.500 
#    0.000    6.250    0.000    4.500    0.000    0.000 
#    0.000    0.000    0.000    0.000    0.000    0.000 
#
# Total GULP energy -357182.711108 kJ/mol
# GULP energy per Si atom -5580.979861 kJ/mol
# Density = 2.271790 g / cm^3
# Si number density = 22.769726 Si / 1000 Ang^3
#
#
#
# Elastic Constant Matrix: (Units=GPa)
#
#
# Indices 1 2 3 4 5 6 
#
# 1 172.2332 38.5340 3.9790 0.0000 0.0000 0.0000
# 2 38.5340 87.2767 -13.9082 0.0000 0.0000 0.0000
# 3 3.9790 -13.9082 79.6390 0.0000 0.0000 0.0000
# 4 0.0000 0.0000 0.0000 48.8036 0.0000 0.0000
# 5 0.0000 0.0000 0.0000 0.0000 14.6870 0.0000
# 6 0.0000 0.0000 0.0000 0.0000 0.0000 36.6360
#
#
#
# Elastic Compliance Matrix: (Units=1/GPa)
#
#
# Indices 1 2 3 4 5 6 
#
# 1 0.006498 -0.003004 -0.000849 0.000000 0.000000 0.000000
# 2 -0.003004 0.013175 0.002451 0.000000 0.000000 0.000000
# 3 -0.000849 0.002451 0.013027 0.000000 0.000000 0.000000
# 4 0.000000 0.000000 0.000000 0.020490 0.000000 0.000000
# 5 0.000000 0.000000 0.000000 0.000000 0.068088 0.000000
# 6 0.000000 0.000000 0.000000 0.000000 0.000000 0.027296
#
#
# Mechanical properties :
#
#
# Convention : Reuss Voigt Hill
#
# Bulk Modulus (GPa) = 33.45084 44.03981 38.74533
# Shear Modulus (GPa) = 30.98983 40.72825 35.85904
#
# Velocity S-wave (km/s) = 3.69319 4.23389 3.97275
# Velocity P-wave (km/s) = 5.73664 6.57910 6.17226
#
# Compressibility (1/GPa) = 0.02989461
#
# Stress axis : x y z
#
# Youngs Moduli (GPa) = 153.89710 75.90239 76.76283
#
# Poissons Ratio (x) = 0.22803 0.06520
# Poissons Ratio (y) = 0.46234 -0.18814
# Poissons Ratio (z) = 0.13071 -0.18603
#
# Static dielectric constant tensor:
#      x y z
#    x 1.879380 0.000000 0.000000 
#    y 0.000000 1.825130 0.000000 
#    z 0.000000 0.000000 1.961540 
# 
# From -- ./inp_files/9711.got.cif
#   From: 2010.05.17/outbox.cif.g08.bks.cpg/sg55_5_cif.got.tgz:9711.got - 2010.06.03 13:27:54.
