data_PCOD9426243
_publ_section_title
;
Structure prediction by ZEFSAII (Michael W. Deem and Ramdas Pophale) SiO2 
 PCOD9426243
Probable space group: P B A M
;
_chemical_formula_sum "Si O2"
_cell_formula_units_Z 64
_cell_length_a 20.117022
_cell_length_b 20.400991
_cell_length_c 7.908573
_cell_angle_alpha 90.000000
_cell_angle_beta 90.000000
_cell_angle_gamma 90.000000
_cell_volume 3245.735180
_symmetry_space_group_name_H-M "P B A M"
_symmetry_group_IT_number 55
_symmetry_cell_setting 'orthorhombic'
loop_
_space_group_symop_operation_xyz
x,y,z
-x,-y,z
1/2+x,1/2-y,-z
1/2-x,1/2+y,-z
-x,-y,-z
x,y,-z
1/2-x,1/2+y,z
1/2+x,1/2-y,z
loop_
_atom_site_type_symbol
_atom_site_label
_atom_site_fract_x
_atom_site_fract_y
_atom_site_fract_z
Si Si1 0.682257 0.596883 0.704646
Si Si2 0.964099 0.065338 0.703390
Si Si3 0.212694 0.136195 0.200513
Si Si4 0.903206 0.680286 0.299757
Si Si5 0.434035 0.964637 0.798633
Si Si6 0.743838 0.221829 0.704570
Si Si7 0.709236 0.989954 0.202883
Si Si8 0.066823 0.176434 0.202400
O O1 0.681407 0.595878 0.500000
O O2 0.610929 0.572919 0.767889
O O3 0.699902 0.670799 0.757227
O O4 0.741392 0.549817 0.761421
O O5 0.960240 0.059643 0.500000
O O6 0.008130 0.128608 0.743822
O O7 0.000000 0.000000 0.769464
O O8 0.249707 0.204862 0.228802
O O9 0.254369 0.075303 0.270860
O O10 0.137672 0.147485 0.268775
O O11 0.205377 0.125025 0.000000
O O12 0.899775 0.671090 0.500000
O O13 0.933152 0.613706 0.226956
O O14 0.827612 0.693021 0.237156
O O15 0.940115 0.748658 0.262626
O O16 0.500000 0.000000 0.729569
O O17 0.364371 0.993764 0.729848
O O18 0.433313 0.976241 0.000000
O O19 0.742105 0.224958 0.500000
O O20 0.703276 0.982786 0.000000
O O21 0.070364 0.178022 0.000000
#
# Coordination Sequence:
#
# PCOD9426243 Si02
#       8
#     8   8   8   8   8   8   8   8
#     4  10  20  35  55  79 110 141 180 227 268 321
#     4  10  21  36  54  79 113 150 184 223 275 329
#     4   9  19  34  53  79 108 139 177 224 268 317
#     4  10  19  35  59  81 106 141 185 228 271 328
#     4  10  21  37  56  79 111 145 179 226 280 333
#     4   9  18  33  53  77 103 135 175 221 266 315
#     4  10  20  35  56  81 108 140 180 224 273 326
#     4  10  20  35  56  81 111 146 186 229 274 326
#
# _framework density 19.718181999999999
#
# number of rings (size 3 to 8) (size 9 to 14) (size 15 to 20)
#    0.000    2.250    1.250    1.500    0.000    3.000 
#    2.250    0.000    0.000    0.000    0.000    0.000 
#    0.000    0.000    0.000    0.000    0.000    0.000 
#
# Total GULP energy -357189.956825 kJ/mol
# GULP energy per Si atom -5581.093075 kJ/mol
# Density = 1.967330 g / cm^3
# Si number density = 19.718182 Si / 1000 Ang^3
#
#
#
# Elastic Constant Matrix: (Units=GPa)
#
#
# Indices 1 2 3 4 5 6 
#
# 1 122.7374 58.9128 0.9339 0.0000 0.0000 0.0000
# 2 58.9128 100.5446 -15.2136 0.0000 0.0000 0.0000
# 3 0.9339 -15.2136 11.8111 0.0000 0.0000 0.0000
# 4 0.0000 0.0000 0.0000 23.4774 0.0000 0.0000
# 5 0.0000 0.0000 0.0000 0.0000 12.5418 0.0000
# 6 0.0000 0.0000 0.0000 0.0000 0.0000 28.0225
#
#
#
# Elastic Compliance Matrix: (Units=1/GPa)
#
#
# Indices 1 2 3 4 5 6 
#
# 1 0.012817 -0.009519 -0.013274 0.000000 0.000000 0.000000
# 2 -0.009519 0.019423 0.025770 0.000000 0.000000 0.000000
# 3 -0.013274 0.025770 0.118910 0.000000 0.000000 0.000000
# 4 0.000000 0.000000 0.000000 0.042594 0.000000 0.000000
# 5 0.000000 0.000000 0.000000 0.000000 0.079733 0.000000
# 6 0.000000 0.000000 0.000000 0.000000 0.000000 0.035686
#
#
# Mechanical properties :
#
#
# Convention : Reuss Voigt Hill
#
# Bulk Modulus (GPa) = 6.36516 36.03993 21.20254
# Shear Modulus (GPa) = 14.06165 25.50569 19.78367
#
# Velocity S-wave (km/s) = 2.67335 3.60044 3.17096
# Velocity P-wave (km/s) = 3.57269 5.96669 4.91760
#
# Compressibility (1/GPa) = 0.15710513
#
# Stress axis : x y z
#
# Youngs Moduli (GPa) = 78.01902 51.48639 8.40970
#
# Poissons Ratio (x) = 0.49009 0.11163
# Poissons Ratio (y) = 0.74264 -0.21672
# Poissons Ratio (z) = 1.03565 -1.32683
#
# Static dielectric constant tensor:
#      x y z
#    x 1.698650 0.000000 0.000000 
#    y 0.000000 1.672850 0.000000 
#    z 0.000000 0.000000 1.711660 
# 
# From -- ./inp_files/9036.got.cif
#   From: 2010.05.17/outbox.cif.g08.bks.cpg/sg55_5_cif.got.tgz:9036.got - 2010.06.03 13:27:54.
