data_PCOD9426628
_publ_section_title
;
Structure prediction by ZEFSAII (Michael W. Deem and Ramdas Pophale) SiO2 
 PCOD9426628
Probable space group: P B A M
;
_chemical_formula_sum "Si O2"
_cell_formula_units_Z 58
_cell_length_a 15.792941
_cell_length_b 24.031218
_cell_length_c 7.541440
_cell_angle_alpha 90.000000
_cell_angle_beta 90.000000
_cell_angle_gamma 90.000000
_cell_volume 2862.154519
_symmetry_space_group_name_H-M "P B A M"
_symmetry_group_IT_number 55
_symmetry_cell_setting 'orthorhombic'
loop_
_space_group_symop_operation_xyz
x,y,z
-x,-y,z
1/2+x,1/2-y,-z
1/2-x,1/2+y,-z
-x,-y,-z
x,y,-z
1/2-x,1/2+y,z
1/2+x,1/2-y,z
loop_
_atom_site_type_symbol
_atom_site_label
_atom_site_fract_x
_atom_site_fract_y
_atom_site_fract_z
Si Si1 0.103662 0.662332 0.704513
Si Si2 0.110840 0.790362 0.789939
Si Si3 0.919023 0.673850 0.711438
Si Si4 0.255545 0.380874 0.212123
Si Si5 0.081829 0.200344 0.286482
Si Si6 0.000000 0.000000 0.500000
Si Si7 0.722158 0.388241 0.716866
Si Si8 0.649835 0.507680 0.793207
O O1 0.099778 0.643977 0.500000
O O2 0.117452 0.729015 0.708436
O O3 0.186080 0.632544 0.780362
O O4 0.009983 0.654032 0.783886
O O5 0.180554 0.833137 0.719359
O O6 0.015596 0.812728 0.759659
O O7 0.122517 0.783347 0.000000
O O8 0.930372 0.679777 0.500000
O O9 0.840145 0.634089 0.740654
O O10 0.900695 0.736661 0.778340
O O11 0.289576 0.441233 0.262636
O O12 0.260728 0.378413 0.000000
O O13 0.087149 0.200552 0.500000
O O14 0.149760 0.155453 0.224024
O O15 0.073018 0.994970 0.343709
O O16 0.721196 0.388212 0.500000
O O17 0.698775 0.449328 0.780529
O O18 0.623906 0.516646 0.000000
#
# Coordination Sequence:
#
# PCOD9426628 Si02
#       8
#     8   8   8   8   8   2   8   8
#     4   9  19  37  58  85 117 151 195 248 298 355
#     4  10  20  33  52  81 115 153 194 236 299 365
#     4   9  18  34  58  86 113 153 199 246 300 358
#     4  10  23  39  55  81 119 156 195 250 301 351
#     4   9  19  33  54  85 117 151 196 242 297 365
#     4  12  26  48  68  90 118 172 202 248 304 352
#     4  10  20  38  61  85 118 159 201 248 305 359
#     4  11  26  44  64  93 125 157 206 252 294 359
#
# _framework density 20.264454000000001
#
# number of rings (size 3 to 8) (size 9 to 14) (size 15 to 20)
#    0.000    2.207    0.690    2.276    2.897    5.517 
#    0.000    0.690    0.000    4.138    0.000    0.000 
#    0.000    0.000    0.000    0.000    0.000    0.000 
#
# Total GULP energy -323272.636215 kJ/mol
# GULP energy per Si atom -5573.666142 kJ/mol
# Density = 2.021833 g / cm^3
# Si number density = 20.264454 Si / 1000 Ang^3
#
#
#
# Elastic Constant Matrix: (Units=GPa)
#
#
# Indices 1 2 3 4 5 6 
#
# 1 233.1430 142.1210 21.8781 0.0000 0.0000 0.0000
# 2 142.1210 119.6044 12.5116 0.0000 0.0000 0.0000
# 3 21.8781 12.5116 72.9551 0.0000 0.0000 0.0000
# 4 0.0000 0.0000 0.0000 19.4355 0.0000 0.0000
# 5 0.0000 0.0000 0.0000 0.0000 25.1603 0.0000
# 6 0.0000 0.0000 0.0000 0.0000 0.0000 -23.3297
#
#
#
# Elastic Compliance Matrix: (Units=1/GPa)
#
#
# Indices 1 2 3 4 5 6 
#
# 1 0.015728 -0.018528 -0.001539 0.000000 0.000000 0.000000
# 2 -0.018528 0.030340 0.000353 0.000000 0.000000 0.000000
# 3 -0.001539 0.000353 0.014108 0.000000 0.000000 0.000000
# 4 0.000000 0.000000 0.000000 0.051452 0.000000 0.000000
# 5 0.000000 0.000000 0.000000 0.000000 0.039745 0.000000
# 6 0.000000 0.000000 0.000000 0.000000 0.000000 -0.042864
#
#
# Mechanical properties :
#
#
# Convention : Reuss Voigt Hill
#
# Bulk Modulus (GPa) = 48.19741 86.52488 67.36114
# Shear Modulus (GPa) = 32.28846 20.86601 26.57724
#
# Velocity S-wave (km/s) = 3.99601 3.21235 3.62542
# Velocity P-wave (km/s) = 6.71764 7.51994 7.13008
#
# Compressibility (1/GPa) = 0.02074800
#
# Stress axis : x y z
#
# Youngs Moduli (GPa) = 63.58045 32.95969 70.88145
#
# Poissons Ratio (x) = 0.61068 0.10909
# Poissons Ratio (y) = 1.17802 -0.02502
# Poissons Ratio (z) = 0.09786 -0.01164
#
# Static dielectric constant tensor:
#      x y z
#    x 1.715100 0.000000 0.000000 
#    y 0.000000 1.691230 0.000000 
#    z 0.000000 0.000000 1.778630 
# 
# From -- ./inp_files/6394.got.cif
#   From: 2010.05.17/outbox.cif.g08.bks.cpg/sg55_4_cif.got.tgz:6394.got - 2010.06.03 13:27:54.
