data_PCOD9426684
_publ_section_title
;
Structure prediction by ZEFSAII (Michael W. Deem and Ramdas Pophale) SiO2 
 PCOD9426684
Probable space group: P B A M
;
_chemical_formula_sum "Si O2"
_cell_formula_units_Z 58
_cell_length_a 30.363206
_cell_length_b 12.393145
_cell_length_c 7.184345
_cell_angle_alpha 90.000000
_cell_angle_beta 90.000000
_cell_angle_gamma 90.000000
_cell_volume 2703.437517
_symmetry_space_group_name_H-M "P B A M"
_symmetry_group_IT_number 55
_symmetry_cell_setting 'orthorhombic'
loop_
_space_group_symop_operation_xyz
x,y,z
-x,-y,z
1/2+x,1/2-y,-z
1/2-x,1/2+y,-z
-x,-y,-z
x,y,-z
1/2-x,1/2+y,z
1/2+x,1/2-y,z
loop_
_atom_site_type_symbol
_atom_site_label
_atom_site_fract_x
_atom_site_fract_y
_atom_site_fract_z
Si Si1 0.160652 0.868265 0.773728
Si Si2 0.214425 0.661379 0.225759
Si Si3 0.686935 0.392747 0.772728
Si Si4 0.576917 0.765098 0.775414
Si Si5 0.019282 0.306317 0.776168
Si Si6 0.370495 0.026807 0.774005
Si Si7 0.500000 0.000000 0.500000
Si Si8 0.884496 0.718777 0.224943
O O1 0.196813 0.779122 0.718114
O O2 0.113322 0.821038 0.714290
O O3 0.171993 0.988264 0.713733
O O4 0.160373 0.869179 0.000000
O O5 0.263381 0.633547 0.286739
O O6 0.176880 0.575573 0.280282
O O7 0.214769 0.660745 0.000000
O O8 0.652437 0.301915 0.711696
O O9 0.687112 0.392590 0.000000
O O10 0.526341 0.746892 0.725598
O O11 0.593199 0.884554 0.713292
O O12 0.578995 0.766188 0.000000
O O13 0.065352 0.248907 0.731401
O O14 0.017499 0.416305 0.662459
O O15 0.018851 0.326224 0.000000
O O16 0.377196 0.904613 0.712224
O O17 0.372124 0.025981 0.000000
O O18 0.881209 0.716394 0.000000
#
# Coordination Sequence:
#
# PCOD9426684 Si02
#       8
#     8   8   8   8   8   8   2   8
#     4   8  14  24  37  58  88 129 181 221 258 316
#     4   8  14  21  32  52  84 128 168 215 270 310
#     4   9  16  23  35  57  90 131 177 220 262 316
#     4   8  14  27  45  62  89 134 173 207 258 311
#     4  10  20  34  51  76 112 145 174 216 268 316
#     4   8  13  21  34  54  81 120 166 202 255 319
#     4  12  22  32  56  86 106 140 186 216 260 320
#     4   9  17  27  40  62  96 137 173 211 266 320
#
# _framework density 21.454167999999999
#
# number of rings (size 3 to 8) (size 9 to 14) (size 15 to 20)
#    0.000    3.310    0.000    2.690    1.931    2.207 
#    0.000    0.690    0.000    4.138    0.000    1.931 
#    0.000    9.931    0.000    1.241    3.310    0.552 
#
# Total GULP energy -323255.946502 kJ/mol
# GULP energy per Si atom -5573.378388 kJ/mol
# Density = 2.140534 g / cm^3
# Si number density = 21.454168 Si / 1000 Ang^3
#
#
#
# Elastic Constant Matrix: (Units=GPa)
#
#
# Indices 1 2 3 4 5 6 
#
# 1 212.9272 91.9069 3.1263 0.0000 0.0000 0.0000
# 2 91.9069 104.5907 -3.5499 0.0000 0.0000 0.0000
# 3 3.1263 -3.5499 114.3479 0.0000 0.0000 0.0000
# 4 0.0000 0.0000 0.0000 -87.0079 0.0000 0.0000
# 5 0.0000 0.0000 0.0000 0.0000 -29.3358 0.0000
# 6 0.0000 0.0000 0.0000 0.0000 0.0000 17.9112
#
#
#
# Elastic Compliance Matrix: (Units=1/GPa)
#
#
# Indices 1 2 3 4 5 6 
#
# 1 0.007586 -0.006680 -0.000415 0.000000 0.000000 0.000000
# 2 -0.006680 0.015453 0.000662 0.000000 0.000000 0.000000
# 3 -0.000415 0.000662 0.008777 0.000000 0.000000 0.000000
# 4 0.000000 0.000000 0.000000 -0.011493 0.000000 0.000000
# 5 0.000000 0.000000 0.000000 0.000000 -0.034088 0.000000
# 6 0.000000 0.000000 0.000000 0.000000 0.000000 0.055831
#
#
# Mechanical properties :
#
#
# Convention : Reuss Voigt Hill
#
# Bulk Modulus (GPa) = 52.76574 68.31472 60.54023
# Shear Modulus (GPa) = 81.63496 3.00565 42.32030
#
# Velocity S-wave (km/s) = 6.17523 1.18491 4.44620
# Velocity P-wave (km/s) = 8.68865 5.81234 7.39175
#
# Compressibility (1/GPa) = 0.01895169
#
# Stress axis : x y z
#
# Youngs Moduli (GPa) = 131.82438 64.71039 113.93229
#
# Poissons Ratio (x) = 0.43226 0.04726
# Poissons Ratio (y) = 0.88059 -0.07547
# Poissons Ratio (z) = 0.05468 -0.04286
#
# Static dielectric constant tensor:
#      x y z
#    x 1.779180 0.000000 0.000000 
#    y 0.000000 1.713150 0.000000 
#    z 0.000000 0.000000 1.806250 
# 
# From -- ./inp_files/10700.got.cif
#   From: 2010.05.17/outbox.cif.g08.bks.cpg/sg55_6_cif.got.tgz:10700.got - 2010.06.03 13:27:54.
