data_PCOD9426484
_publ_section_title
;
Structure prediction by ZEFSAII (Michael W. Deem and Ramdas Pophale) SiO2 
 PCOD9426484
Probable space group: P B A M
;
_chemical_formula_sum "Si O2"
_cell_formula_units_Z 64
_cell_length_a 30.768611
_cell_length_b 11.858420
_cell_length_c 9.221671
_cell_angle_alpha 90.000000
_cell_angle_beta 90.000000
_cell_angle_gamma 90.000000
_cell_volume 3364.684466
_symmetry_space_group_name_H-M "P B A M"
_symmetry_group_IT_number 55
_symmetry_cell_setting 'orthorhombic'
loop_
_space_group_symop_operation_xyz
x,y,z
-x,-y,z
1/2+x,1/2-y,-z
1/2-x,1/2+y,-z
-x,-y,-z
x,y,-z
1/2-x,1/2+y,z
1/2+x,1/2-y,z
loop_
_atom_site_type_symbol
_atom_site_label
_atom_site_fract_x
_atom_site_fract_y
_atom_site_fract_z
Si Si1 0.169862 0.500774 0.334475
Si Si2 0.952306 0.722588 0.672584
Si Si3 0.066465 0.535451 0.331731
Si Si4 0.115206 0.889478 0.672832
Si Si5 0.038321 0.760023 0.172582
Si Si6 0.291982 0.791321 0.171755
Si Si7 0.136893 0.150402 0.327797
Si Si8 0.702527 0.747328 0.329689
O O1 0.177732 0.460224 0.500000
O O2 0.118503 0.523106 0.322149
O O3 0.185963 0.407284 0.224271
O O4 0.193717 0.619585 0.314794
O O5 0.958843 0.739104 0.500000
O O6 0.952516 0.588122 0.700256
O O7 0.904961 0.772581 0.708076
O O8 0.990627 0.780785 0.761302
O O9 0.055738 0.564299 0.500000
O O10 0.051215 0.634936 0.228436
O O11 0.107264 0.873544 0.500000
O O12 0.074134 0.843295 0.760001
O O13 0.158333 0.818079 0.710077
O O14 0.124795 0.020692 0.699268
O O15 0.038057 0.765747 0.000000
O O16 0.321479 0.692722 0.240704
O O17 0.243688 0.787170 0.236200
O O18 0.291405 0.782580 0.000000
O O19 0.145455 0.163187 0.500000
O O20 0.710976 0.723330 0.500000
#
# Coordination Sequence:
#
# PCOD9426484 Si02
#       8
#     8   8   8   8   8   8   8   8
#     4  10  20  40  68  92 118 157 209 256 296 349
#     4  10  21  39  64  90 119 157 205 258 302 351
#     4  10  19  38  65  91 120 156 206 259 300 347
#     4  10  22  43  68  90 115 155 211 261 300 348
#     4  12  25  38  58  90 129 163 196 244 309 380
#     4  12  26  40  60  93 134 165 193 244 310 376
#     4  10  22  43  68  91 116 157 214 261 296 350
#     4  10  22  41  66  92 119 159 210 257 296 350
#
# _framework density 19.021100000000001
#
# number of rings (size 3 to 8) (size 9 to 14) (size 15 to 20)
#    0.000    1.500    2.500    2.625    1.750    5.000 
#    0.000    2.500    0.000    0.000    0.000    0.000 
#    0.000    0.000    0.000    0.000    0.000    0.000 
#
# Total GULP energy -357851.186778 kJ/mol
# GULP energy per Si atom -5591.424793 kJ/mol
# Density = 1.897781 g / cm^3
# Si number density = 19.021100 Si / 1000 Ang^3
#
#
#
# Elastic Constant Matrix: (Units=GPa)
#
#
# Indices 1 2 3 4 5 6 
#
# 1 39.4528 -14.2498 14.2365 0.0000 0.0000 0.0000
# 2 -14.2498 39.3083 9.7882 0.0000 0.0000 0.0000
# 3 14.2365 9.7882 45.5491 0.0000 0.0000 0.0000
# 4 0.0000 0.0000 0.0000 8.3947 0.0000 0.0000
# 5 0.0000 0.0000 0.0000 0.0000 -17.3348 0.0000
# 6 0.0000 0.0000 0.0000 0.0000 0.0000 13.1931
#
#
#
# Elastic Compliance Matrix: (Units=1/GPa)
#
#
# Indices 1 2 3 4 5 6 
#
# 1 0.037105 0.017263 -0.015307 0.000000 0.000000 0.000000
# 2 0.017263 0.034909 -0.012897 0.000000 0.000000 0.000000
# 3 -0.015307 -0.012897 0.029510 0.000000 0.000000 0.000000
# 4 0.000000 0.000000 0.000000 0.119122 0.000000 0.000000
# 5 0.000000 0.000000 0.000000 0.000000 -0.057688 0.000000
# 6 0.000000 0.000000 0.000000 0.000000 0.000000 0.075797
#
#
# Mechanical properties :
#
#
# Convention : Reuss Voigt Hill
#
# Bulk Modulus (GPa) = 12.55622 15.98444 14.27033
# Shear Modulus (GPa) = 17.41022 8.48629 12.94825
#
# Velocity S-wave (km/s) = 3.02869 2.11452 2.61191
# Velocity P-wave (km/s) = 4.34122 3.79254 4.07612
#
# Compressibility (1/GPa) = 0.07964181
#
# Stress axis : x y z
#
# Youngs Moduli (GPa) = 26.95027 28.64553 33.88663
#
# Poissons Ratio (x) = -0.49450 0.51870
# Poissons Ratio (y) = -0.46524 0.43705
# Poissons Ratio (z) = 0.41253 0.36945
#
# Static dielectric constant tensor:
#      x y z
#    x 1.652110 0.000000 0.000000 
#    y 0.000000 1.653400 0.000000 
#    z 0.000000 0.000000 1.628330 
# 
# From -- ./inp_files/4508.got.cif
#   From: 2010.05.17/outbox.cif.g08.bks.cpg/sg55_3_cif.got.tgz:4508.got - 2010.06.03 13:27:54.
