data_PCOD9426379
_publ_section_title
;
Structure prediction by ZEFSAII (Michael W. Deem and Ramdas Pophale) SiO2 
 PCOD9426379
Probable space group: P B A M
;
_chemical_formula_sum "Si O2"
_cell_formula_units_Z 58
_cell_length_a 17.392201
_cell_length_b 18.246215
_cell_length_c 7.894788
_cell_angle_alpha 90.000000
_cell_angle_beta 90.000000
_cell_angle_gamma 90.000000
_cell_volume 2505.346541
_symmetry_space_group_name_H-M "P B A M"
_symmetry_group_IT_number 55
_symmetry_cell_setting 'orthorhombic'
loop_
_space_group_symop_operation_xyz
x,y,z
-x,-y,z
1/2+x,1/2-y,-z
1/2-x,1/2+y,-z
-x,-y,-z
x,y,-z
1/2-x,1/2+y,z
1/2+x,1/2-y,z
loop_
_atom_site_type_symbol
_atom_site_label
_atom_site_fract_x
_atom_site_fract_y
_atom_site_fract_z
Si Si1 0.312247 0.284027 0.188762
Si Si2 0.058341 0.881394 0.307411
Si Si3 0.698417 0.083132 0.193558
Si Si4 0.790075 0.836824 0.692931
Si Si5 0.663991 0.490436 0.304505
Si Si6 0.500000 0.000000 0.500000
Si Si7 0.938466 0.769932 0.807327
Si Si8 0.519000 0.107921 0.203379
O O1 0.374275 0.320342 0.309668
O O2 0.238564 0.337580 0.197972
O O3 0.281341 0.203465 0.222420
O O4 0.345372 0.289186 0.000000
O O5 0.032952 0.895805 0.500000
O O6 0.099479 0.954055 0.233454
O O7 0.990330 0.842099 0.209609
O O8 0.754341 0.032045 0.300544
O O9 0.609423 0.088874 0.237591
O O10 0.703489 0.056549 0.000000
O O11 0.767853 0.852386 0.500000
O O12 0.863600 0.783393 0.695807
O O13 0.820239 0.911804 0.775637
O O14 0.640958 0.478963 0.500000
O O15 0.477363 0.060013 0.346154
O O16 0.985122 0.695679 0.767049
O O17 0.911102 0.760159 0.000000
O O18 0.502909 0.094279 0.000000
#
# Coordination Sequence:
#
# PCOD9426379 Si02
#       8
#     8   8   8   8   8   2   8   8
#     4  10  19  36  60  88 117 154 202 253 314 373
#     4  10  21  39  61  87 122 164 208 258 315 377
#     4   9  18  36  62  84 113 155 199 254 312 371
#     4  11  22  37  60  91 123 159 208 259 309 376
#     4   9  21  38  57  88 125 157 200 260 316 371
#     4  12  26  40  68  90 120 170 206 254 324 376
#     4  11  23  41  64  89 124 165 210 260 311 375
#     4  10  23  43  63  93 128 164 214 265 313 377
#
# _framework density 23.150490000000001
#
# number of rings (size 3 to 8) (size 9 to 14) (size 15 to 20)
#    0.000    1.931    1.379    1.862    2.897    2.759 
#    2.483    2.759    0.000    0.000    0.000    0.000 
#    0.000    0.000    0.000    0.000    0.000    0.000 
#
# Total GULP energy -323189.712678 kJ/mol
# GULP energy per Si atom -5572.236425 kJ/mol
# Density = 2.309780 g / cm^3
# Si number density = 23.150490 Si / 1000 Ang^3
#
#
#
# Elastic Constant Matrix: (Units=GPa)
#
#
# Indices 1 2 3 4 5 6 
#
# 1 27.8642 -14.2768 1.4783 0.0000 0.0000 0.0000
# 2 -14.2768 98.3098 19.6587 0.0000 0.0000 0.0000
# 3 1.4783 19.6587 64.2901 0.0000 0.0000 0.0000
# 4 0.0000 0.0000 0.0000 25.7446 0.0000 0.0000
# 5 0.0000 0.0000 0.0000 0.0000 14.7424 0.0000
# 6 0.0000 0.0000 0.0000 0.0000 0.0000 19.5903
#
#
#
# Elastic Compliance Matrix: (Units=1/GPa)
#
#
# Indices 1 2 3 4 5 6 
#
# 1 0.039247 0.006263 -0.002818 0.000000 0.000000 0.000000
# 2 0.006263 0.011834 -0.003763 0.000000 0.000000 0.000000
# 3 -0.002818 -0.003763 0.016770 0.000000 0.000000 0.000000
# 4 0.000000 0.000000 0.000000 0.038843 0.000000 0.000000
# 5 0.000000 0.000000 0.000000 0.000000 0.067832 0.000000
# 6 0.000000 0.000000 0.000000 0.000000 0.000000 0.051046
#
#
# Mechanical properties :
#
#
# Convention : Reuss Voigt Hill
#
# Bulk Modulus (GPa) = 14.87740 22.68717 18.78229
# Shear Modulus (GPa) = 20.11177 24.25572 22.18375
#
# Velocity S-wave (km/s) = 2.95064 3.24039 3.09890
# Velocity P-wave (km/s) = 4.24838 4.88071 4.57548
#
# Compressibility (1/GPa) = 0.06721604
#
# Stress axis : x y z
#
# Youngs Moduli (GPa) = 25.47980 84.50346 59.63098
#
# Poissons Ratio (x) = -0.52924 0.16801
# Poissons Ratio (y) = -0.15958 0.22437
# Poissons Ratio (z) = 0.07179 0.31795
#
# Static dielectric constant tensor:
#      x y z
#    x 1.870150 0.000000 0.000000 
#    y 0.000000 1.926390 0.000000 
#    z 0.000000 0.000000 1.734760 
# 
# From -- ./inp_files/7698.got.cif
#   From: 2010.05.17/outbox.cif.g08.bks.cpg/sg55_4_cif.got.tgz:7698.got - 2010.06.03 13:27:54.
