data_PCOD9426832
_publ_section_title
;
Structure prediction by ZEFSAII (Michael W. Deem and Ramdas Pophale) SiO2 
 PCOD9426832
Probable space group: P B A M
;
_chemical_formula_sum "Si O2"
_cell_formula_units_Z 56
_cell_length_a 15.564616
_cell_length_b 12.740137
_cell_length_c 14.285087
_cell_angle_alpha 90.000000
_cell_angle_beta 90.000000
_cell_angle_gamma 90.000000
_cell_volume 2832.666186
_symmetry_space_group_name_H-M "P B A M"
_symmetry_group_IT_number 55
_symmetry_cell_setting 'orthorhombic'
loop_
_space_group_symop_operation_xyz
x,y,z
-x,-y,z
1/2+x,1/2-y,-z
1/2-x,1/2+y,-z
-x,-y,-z
x,y,-z
1/2-x,1/2+y,z
1/2+x,1/2-y,z
loop_
_atom_site_type_symbol
_atom_site_label
_atom_site_fract_x
_atom_site_fract_y
_atom_site_fract_z
Si Si1 0.903113 0.526339 0.887558
Si Si2 0.045701 0.887592 0.103067
Si Si3 0.966707 0.880807 0.392898
Si Si4 0.792548 0.988902 0.391920
Si Si5 0.630537 0.264361 0.110568
Si Si6 0.879596 0.175716 0.288416
Si Si7 0.280689 0.121396 0.222810
O O1 0.871024 0.642616 0.858971
O O2 0.839627 0.436243 0.852901
O O3 0.000000 0.500000 0.854596
O O4 0.905249 0.528032 0.000000
O O5 0.111395 0.881022 0.188019
O O6 0.967664 0.805706 0.114997
O O7 0.085234 0.872169 0.000000
O O8 0.000000 0.000000 0.105272
O O9 0.985860 0.853164 0.500000
O O10 0.022604 0.809699 0.325031
O O11 0.865443 0.897166 0.383584
O O12 0.000000 0.000000 0.375961
O O13 0.763580 0.990502 0.500000
O O14 0.834466 0.100406 0.364055
O O15 0.730569 0.960200 0.307788
O O16 0.694066 0.335532 0.172870
O O17 0.655486 0.271551 0.000000
O O18 0.828812 0.280221 0.268537
#
# Coordination Sequence:
#
# PCOD9426832 Si02
#       7
#     8   8   8   8   8   8   8
#     4  10  22  41  61  83 119 164 202 234 281 355
#     4  10  20  34  56  86 117 146 182 236 293 345
#     4   8  15  31  55  77  98 131 176 228 287 346
#     4  10  22  39  57  81 113 145 182 237 301 353
#     4  10  21  37  57  84 119 156 194 237 290 348
#     4  11  20  33  56  80 109 144 187 234 284 344
#     4  12  23  35  57  86 115 151 195 245 287 338
#
# _framework density 19.769361
#
# number of rings (size 3 to 8) (size 9 to 14) (size 15 to 20)
#    0.000    1.857    0.000    6.429    0.000    3.429 
#    0.000    3.571    0.000    0.429    0.000    0.000 
#    0.000    0.000    0.000    0.000    0.000    0.000 
#
# Total GULP energy -312441.093276 kJ/mol
# GULP energy per Si atom -5579.305237 kJ/mol
# Density = 1.972437 g / cm^3
# Si number density = 19.769361 Si / 1000 Ang^3
#
#
#
# Elastic Constant Matrix: (Units=GPa)
#
#
# Indices 1 2 3 4 5 6 
#
# 1 -5.9623 3.0981 50.1450 0.0000 0.0000 0.0000
# 2 3.0981 58.5033 5.5280 0.0000 0.0000 0.0000
# 3 50.1450 5.5280 -39.7679 0.0000 0.0000 0.0000
# 4 0.0000 0.0000 0.0000 27.6998 0.0000 0.0000
# 5 0.0000 0.0000 0.0000 0.0000 14.5960 0.0000
# 6 0.0000 0.0000 0.0000 0.0000 0.0000 25.6836
#
#
#
# Elastic Compliance Matrix: (Units=1/GPa)
#
#
# Indices 1 2 3 4 5 6 
#
# 1 0.017999 -0.003058 0.022271 0.000000 0.000000 0.000000
# 2 -0.003058 0.017391 -0.001438 0.000000 0.000000 0.000000
# 3 0.022271 -0.001438 0.002737 0.000000 0.000000 0.000000
# 4 0.000000 0.000000 0.000000 0.036101 0.000000 0.000000
# 5 0.000000 0.000000 0.000000 0.000000 0.068512 0.000000
# 6 0.000000 0.000000 0.000000 0.000000 0.000000 0.038935
#
#
# Mechanical properties :
#
#
# Convention : Reuss Voigt Hill
#
# Bulk Modulus (GPa) = 13.57250 14.47950 14.02600
# Shear Modulus (GPa) = 29.29389 10.52936 19.91163
#
# Velocity S-wave (km/s) = 3.85357 2.31034 3.17708
# Velocity P-wave (km/s) = 5.16530 3.80224 4.53527
#
# Compressibility (1/GPa) = 0.07367842
#
# Stress axis : x y z
#
# Youngs Moduli (GPa) = 55.55722 57.50145 365.37350
#
# Poissons Ratio (x) = 0.17582 -8.13732
# Poissons Ratio (y) = 0.16987 0.52542
# Poissons Ratio (z) = -1.23733 0.08269
#
# Static dielectric constant tensor:
#      x y z
#    x 1.729500 0.000000 0.000000 
#    y 0.000000 1.713730 0.000000 
#    z 0.000000 0.000000 1.704130 
# 
# From -- ./inp_files/18940.got.cif
#   From: 2010.05.17/outbox.cif.g08.bks.cpg/sg55_10_cif.got.tgz:18940.got - 2010.06.03 13:27:54.
