data_PCOD9426643
_publ_section_title
;
Structure prediction by ZEFSAII (Michael W. Deem and Ramdas Pophale) SiO2 
 PCOD9426643
Probable space group: P B A M
;
_chemical_formula_sum "Si O2"
_cell_formula_units_Z 56
_cell_length_a 21.827029
_cell_length_b 14.862832
_cell_length_c 8.958875
_cell_angle_alpha 90.000000
_cell_angle_beta 90.000000
_cell_angle_gamma 90.000000
_cell_volume 2906.361764
_symmetry_space_group_name_H-M "P B A M"
_symmetry_group_IT_number 55
_symmetry_cell_setting 'orthorhombic'
loop_
_space_group_symop_operation_xyz
x,y,z
-x,-y,z
1/2+x,1/2-y,-z
1/2-x,1/2+y,-z
-x,-y,-z
x,y,-z
1/2-x,1/2+y,z
1/2+x,1/2-y,z
loop_
_atom_site_type_symbol
_atom_site_label
_atom_site_fract_x
_atom_site_fract_y
_atom_site_fract_z
Si Si1 0.716766 0.100935 0.676292
Si Si2 0.283858 0.086842 0.822331
Si Si3 0.001856 0.394589 0.321143
Si Si4 0.136980 0.902380 0.323584
Si Si5 0.607619 0.781712 0.178220
Si Si6 0.860478 0.910212 0.178063
Si Si7 0.613627 0.211912 0.821217
O O1 0.705386 0.110250 0.500000
O O2 0.789603 0.106382 0.703270
O O3 0.678980 0.174675 0.766624
O O4 0.696738 0.002111 0.732761
O O5 0.327227 0.170719 0.786445
O O6 0.212227 0.102983 0.790571
O O7 0.289567 0.068700 0.000000
O O8 0.000911 0.386765 0.500000
O O9 0.062470 0.348481 0.256130
O O10 0.000000 0.500000 0.281893
O O11 0.944391 0.342954 0.251092
O O12 0.126433 0.897779 0.500000
O O13 0.106039 0.818700 0.241942
O O14 0.118567 0.999896 0.260906
O O15 0.600390 0.780101 0.000000
O O16 0.892818 0.817004 0.219822
O O17 0.866566 0.923423 0.000000
O O18 0.609738 0.204829 0.000000
#
# Coordination Sequence:
#
# PCOD9426643 Si02
#       7
#     8   8   8   8   8   8   8
#     4  10  20  33  53  84 119 152 185 226 278 333
#     4   9  18  33  55  83 114 148 184 225 276 332
#     4  11  25  43  61  83 113 147 184 229 279 332
#     4  10  21  36  56  84 117 151 186 227 277 332
#     4  11  22  37  59  84 112 149 191 234 279 329
#     4   9  19  36  57  83 114 146 183 228 277 330
#     4  11  22  37  59  84 111 147 190 234 280 331
#
# _framework density 19.268076000000001
#
# number of rings (size 3 to 8) (size 9 to 14) (size 15 to 20)
#    0.000    1.857    0.000    3.857    0.000    8.571 
#    0.000    3.571    0.000    4.286    0.000    0.000 
#    0.000    0.000    0.000    0.000    0.000    0.000 
#
# Total GULP energy -312946.854452 kJ/mol
# GULP energy per Si atom -5588.336687 kJ/mol
# Density = 1.922422 g / cm^3
# Si number density = 19.268076 Si / 1000 Ang^3
#
#
#
# Elastic Constant Matrix: (Units=GPa)
#
#
# Indices 1 2 3 4 5 6 
#
# 1 31.6224 44.8736 34.6032 0.0000 0.0000 0.0000
# 2 44.8736 185.4590 78.1902 0.0000 0.0000 0.0000
# 3 34.6032 78.1902 57.1672 0.0000 0.0000 0.0000
# 4 0.0000 0.0000 0.0000 3.3457 0.0000 0.0000
# 5 0.0000 0.0000 0.0000 0.0000 26.3628 0.0000
# 6 0.0000 0.0000 0.0000 0.0000 0.0000 30.0335
#
#
#
# Elastic Compliance Matrix: (Units=1/GPa)
#
#
# Indices 1 2 3 4 5 6 
#
# 1 0.094336 0.002949 -0.061136 0.000000 0.000000 0.000000
# 2 0.002949 0.012829 -0.019332 0.000000 0.000000 0.000000
# 3 -0.061136 -0.019332 0.080939 0.000000 0.000000 0.000000
# 4 0.000000 0.000000 0.000000 0.298895 0.000000 0.000000
# 5 0.000000 0.000000 0.000000 0.000000 0.037932 0.000000
# 6 0.000000 0.000000 0.000000 0.000000 0.000000 0.033296
#
#
# Mechanical properties :
#
#
# Convention : Reuss Voigt Hill
#
# Bulk Modulus (GPa) = 30.24084 65.50917 47.87501
# Shear Modulus (GPa) = 6.90336 19.72050 13.31193
#
# Velocity S-wave (km/s) = 1.89488 3.20266 2.63131
# Velocity P-wave (km/s) = 4.52949 6.91004 5.84230
#
# Compressibility (1/GPa) = 0.03306786
#
# Stress axis : x y z
#
# Youngs Moduli (GPa) = 10.60039 77.95013 12.35501
#
# Poissons Ratio (x) = -0.22991 0.75533
# Poissons Ratio (y) = -0.03127 0.23884
# Poissons Ratio (z) = 0.64806 1.50691
#
# Static dielectric constant tensor:
#      x y z
#    x 1.679300 0.000000 0.000000 
#    y 0.000000 1.656390 0.000000 
#    z 0.000000 0.000000 1.636190 
# 
# From -- ./inp_files/8776.got.cif
#   From: 2010.05.17/outbox.cif.g08.bks.cpg/sg55_5_cif.got.tgz:8776.got - 2010.06.03 13:27:54.
