data_PCOD9426691
_publ_section_title
;
Structure prediction by ZEFSAII (Michael W. Deem and Ramdas Pophale) SiO2 
 PCOD9426691
Probable space group: P B A M
;
_chemical_formula_sum "Si O2"
_cell_formula_units_Z 56
_cell_length_a 18.357642
_cell_length_b 19.526687
_cell_length_c 9.035135
_cell_angle_alpha 90.000000
_cell_angle_beta 90.000000
_cell_angle_gamma 90.000000
_cell_volume 3238.769995
_symmetry_space_group_name_H-M "P B A M"
_symmetry_group_IT_number 55
_symmetry_cell_setting 'orthorhombic'
loop_
_space_group_symop_operation_xyz
x,y,z
-x,-y,z
1/2+x,1/2-y,-z
1/2-x,1/2+y,-z
-x,-y,-z
x,y,-z
1/2-x,1/2+y,z
1/2+x,1/2-y,z
loop_
_atom_site_type_symbol
_atom_site_label
_atom_site_fract_x
_atom_site_fract_y
_atom_site_fract_z
Si Si1 0.496954 0.781746 0.323944
Si Si2 0.622440 0.394590 0.675352
Si Si3 0.654153 0.258510 0.824372
Si Si4 0.963243 0.569960 0.677055
Si Si5 0.951318 0.139225 0.674358
Si Si6 0.338670 0.461976 0.823115
Si Si7 0.189486 0.389235 0.821966
O O1 0.477609 0.774672 0.500000
O O2 0.426944 0.764288 0.225030
O O3 0.512163 0.861706 0.297216
O O4 0.553835 0.720882 0.294917
O O5 0.632993 0.397969 0.500000
O O6 0.665971 0.329840 0.741393
O O7 0.535895 0.381268 0.701203
O O8 0.644983 0.465108 0.750458
O O9 0.700718 0.191250 0.783421
O O10 0.657897 0.269246 0.000000
O O11 0.953391 0.564390 0.500000
O O12 0.884648 0.583916 0.748511
O O13 0.000000 0.500000 0.730886
O O14 0.936762 0.127709 0.500000
O O15 0.898393 0.092637 0.769124
O O16 0.259269 0.433568 0.779625
O O17 0.341289 0.467993 0.000000
O O18 0.180786 0.391798 0.000000
#
# Coordination Sequence:
#
# PCOD9426691 Si02
#       7
#     8   8   8   8   8   8   8
#     4   8  15  29  48  71  99 126 155 197 246 293
#     4  10  20  34  52  75 101 129 165 207 250 296
#     4   9  16  30  52  72  92 122 161 201 240 288
#     4   9  17  31  54  80 102 128 167 213 254 295
#     4   9  18  32  49  70  99 133 167 206 252 299
#     4  11  22  34  49  72 103 135 168 206 247 295
#     4   9  20  36  51  71 101 135 168 204 250 300
#
# _framework density 17.290514000000002
#
# number of rings (size 3 to 8) (size 9 to 14) (size 15 to 20)
#    0.000    2.714    0.000    2.571    0.000    6.571 
#    0.000    1.429    0.000    3.429    0.000    0.000 
#    0.000    0.000    0.000    0.000    0.000    0.000 
#
# Total GULP energy -311935.362129 kJ/mol
# GULP energy per Si atom -5570.274324 kJ/mol
# Density = 1.725116 g / cm^3
# Si number density = 17.290514 Si / 1000 Ang^3
#
#
#
# Elastic Constant Matrix: (Units=GPa)
#
#
# Indices 1 2 3 4 5 6 
#
# 1 49.4766 65.6033 32.5302 0.0000 0.0000 0.0000
# 2 65.6033 189.6534 60.7229 0.0000 0.0000 0.0000
# 3 32.5302 60.7229 39.3891 0.0000 0.0000 0.0000
# 4 0.0000 0.0000 0.0000 28.4047 0.0000 0.0000
# 5 0.0000 0.0000 0.0000 0.0000 -180.0716 0.0000
# 6 0.0000 0.0000 0.0000 0.0000 0.0000 12.1572
#
#
#
# Elastic Compliance Matrix: (Units=1/GPa)
#
#
# Indices 1 2 3 4 5 6 
#
# 1 0.049692 -0.007996 -0.028712 0.000000 0.000000 0.000000
# 2 -0.007996 0.011699 -0.011431 0.000000 0.000000 0.000000
# 3 -0.028712 -0.011431 0.066723 0.000000 0.000000 0.000000
# 4 0.000000 0.000000 0.000000 0.035205 0.000000 0.000000
# 5 0.000000 0.000000 0.000000 0.000000 -0.005553 0.000000
# 6 0.000000 0.000000 0.000000 0.000000 0.000000 0.082256
#
#
# Mechanical properties :
#
#
# Convention : Reuss Voigt Hill
#
# Bulk Modulus (GPa) = 31.41244 66.24799 48.83022
# Shear Modulus (GPa) = 14.41287 -19.92445 -2.75579
#
# Velocity S-wave (km/s) = 2.89030 -3.39829 -1.26383
# Velocity P-wave (km/s) = 5.41713 4.79583 5.11592
#
# Compressibility (1/GPa) = 0.03183452
#
# Stress axis : x y z
#
# Youngs Moduli (GPa) = 20.12412 85.47926 14.98731
#
# Poissons Ratio (x) = 0.68348 0.43032
# Poissons Ratio (y) = 0.16091 0.17133
# Poissons Ratio (z) = 0.57781 0.97715
#
# Static dielectric constant tensor:
#      x y z
#    x 1.557380 0.000000 0.000000 
#    y 0.000000 1.627920 0.000000 
#    z 0.000000 0.000000 1.574980 
# 
# From -- ./inp_files/7806.got.cif
#   From: 2010.05.17/outbox.cif.g08.bks.cpg/sg55_4_cif.got.tgz:7806.got - 2010.06.03 13:27:54.
