data_PCOD9426166
_publ_section_title
;
Structure prediction by ZEFSAII (Michael W. Deem and Ramdas Pophale) SiO2 
 PCOD9426166
Probable space group: P B A M
;
_chemical_formula_sum "Si O2"
_cell_formula_units_Z 64
_cell_length_a 12.966842
_cell_length_b 28.836903
_cell_length_c 7.998651
_cell_angle_alpha 90.000000
_cell_angle_beta 90.000000
_cell_angle_gamma 90.000000
_cell_volume 2990.884097
_symmetry_space_group_name_H-M "P B A M"
_symmetry_group_IT_number 55
_symmetry_cell_setting 'orthorhombic'
loop_
_space_group_symop_operation_xyz
x,y,z
-x,-y,z
1/2+x,1/2-y,-z
1/2-x,1/2+y,-z
-x,-y,-z
x,y,-z
1/2-x,1/2+y,z
1/2+x,1/2-y,z
loop_
_atom_site_type_symbol
_atom_site_label
_atom_site_fract_x
_atom_site_fract_y
_atom_site_fract_z
Si Si1 0.882887 0.862615 0.795375
Si Si2 0.608139 0.978872 0.697547
Si Si3 0.746575 0.064110 0.201979
Si Si4 0.151928 0.625265 0.197420
Si Si5 0.004978 0.704162 0.309715
Si Si6 0.430691 0.300020 0.193832
Si Si7 0.208685 0.333590 0.202878
Si Si8 0.981091 0.051948 0.203546
O O1 0.765104 0.859547 0.738666
O O2 0.965761 0.824338 0.737595
O O3 0.932388 0.911732 0.744163
O O4 0.878286 0.861392 0.000000
O O5 0.597092 0.970792 0.500000
O O6 0.636406 0.929591 0.776731
O O7 0.500000 0.000000 0.762324
O O8 0.693306 0.018329 0.728339
O O9 0.694183 0.112526 0.251887
O O10 0.866413 0.067276 0.251460
O O11 0.742739 0.060929 0.000000
O O12 0.063987 0.655967 0.281437
O O13 0.146205 0.634719 0.000000
O O14 0.015890 0.718924 0.500000
O O15 0.055555 0.745137 0.203397
O O16 0.885694 0.696709 0.266326
O O17 0.320714 0.316347 0.264046
O O18 0.427027 0.315135 0.000000
O O19 0.207221 0.331534 0.000000
O O20 0.983571 0.051372 0.000000
O O21 0.000000 0.000000 0.263102
#
# Coordination Sequence:
#
# PCOD9426166 Si02
#       8
#     8   8   8   8   8   8   8   8
#     4   9  18  35  61  93 123 152 195 256 315 363
#     4  11  24  40  58  84 124 171 210 253 311 370
#     4  10  19  34  60  92 119 152 200 255 304 362
#     4  11  23  41  66  95 123 162 213 262 312 366
#     4  12  27  43  61  89 128 167 206 253 317 386
#     4  10  21  41  67  94 121 156 206 263 318 368
#     4  10  21  40  67  95 123 156 208 265 309 364
#     4   9  15  27  52  88 122 149 185 240 305 360
#
# _framework density 21.398356
#
# number of rings (size 3 to 8) (size 9 to 14) (size 15 to 20)
#    0.000    1.750    1.250    3.375    1.750    6.000 
#    0.000    0.625    0.000    4.125    0.000    0.000 
#    0.000    0.000    0.000    0.000    0.000    0.000 
#
# Total GULP energy -357636.967093 kJ/mol
# GULP energy per Si atom -5588.077611 kJ/mol
# Density = 2.134965 g / cm^3
# Si number density = 21.398356 Si / 1000 Ang^3
#
#
#
# Elastic Constant Matrix: (Units=GPa)
#
#
# Indices 1 2 3 4 5 6 
#
# 1 124.4289 26.9587 7.8142 0.0000 0.0000 0.0000
# 2 26.9587 82.5471 -10.1985 0.0000 0.0000 0.0000
# 3 7.8142 -10.1985 21.7037 0.0000 0.0000 0.0000
# 4 0.0000 0.0000 0.0000 -5.7468 0.0000 0.0000
# 5 0.0000 0.0000 0.0000 0.0000 201.7998 0.0000
# 6 0.0000 0.0000 0.0000 0.0000 0.0000 36.0631
#
#
#
# Elastic Compliance Matrix: (Units=1/GPa)
#
#
# Indices 1 2 3 4 5 6 
#
# 1 0.009128 -0.003596 -0.004976 0.000000 0.000000 0.000000
# 2 -0.003596 0.014278 0.008004 0.000000 0.000000 0.000000
# 3 -0.004976 0.008004 0.051627 0.000000 0.000000 0.000000
# 4 0.000000 0.000000 0.000000 -0.174009 0.000000 0.000000
# 5 0.000000 0.000000 0.000000 0.000000 0.004955 0.000000
# 6 0.000000 0.000000 0.000000 0.000000 0.000000 0.027729
#
#
# Mechanical properties :
#
#
# Convention : Reuss Voigt Hill
#
# Bulk Modulus (GPa) = 13.53252 30.86983 22.20118
# Shear Modulus (GPa) = -123.39085 60.03024 -31.68030
#
# Velocity S-wave (km/s) = -7.60190 5.30232 -3.85190
# Velocity P-wave (km/s) = 8.40916 7.20720 3.06352
#
# Compressibility (1/GPa) = 0.07389606
#
# Stress axis : x y z
#
# Youngs Moduli (GPa) = 109.54894 70.04012 19.36952
#
# Poissons Ratio (x) = 0.25186 0.09639
# Poissons Ratio (y) = 0.39394 -0.15503
# Poissons Ratio (z) = 0.54515 -0.56057
#
# Static dielectric constant tensor:
#      x y z
#    x 1.768710 0.000000 0.000000 
#    y 0.000000 1.739220 0.000000 
#    z 0.000000 0.000000 1.775510 
# 
# From -- ./inp_files/4675.got.cif
#   From: 2010.05.17/outbox.cif.g08.bks.cpg/sg55_3_cif.got.tgz:4675.got - 2010.06.03 13:27:54.
