data_PCOD9426097
_publ_section_title
;
Structure prediction by ZEFSAII (Michael W. Deem and Ramdas Pophale) SiO2 
 PCOD9426097
Probable space group: P B A M
;
_chemical_formula_sum "Si O2"
_cell_formula_units_Z 64
_cell_length_a 13.117841
_cell_length_b 29.183616
_cell_length_c 7.636041
_cell_angle_alpha 90.000000
_cell_angle_beta 90.000000
_cell_angle_gamma 90.000000
_cell_volume 2923.275295
_symmetry_space_group_name_H-M "P B A M"
_symmetry_group_IT_number 55
_symmetry_cell_setting 'orthorhombic'
loop_
_space_group_symop_operation_xyz
x,y,z
-x,-y,z
1/2+x,1/2-y,-z
1/2-x,1/2+y,-z
-x,-y,-z
x,y,-z
1/2-x,1/2+y,z
1/2+x,1/2-y,z
loop_
_atom_site_type_symbol
_atom_site_label
_atom_site_fract_x
_atom_site_fract_y
_atom_site_fract_z
Si Si1 0.423596 0.038495 0.214709
Si Si2 0.701588 0.838476 0.293151
Si Si3 0.507875 0.135074 0.789316
Si Si4 0.505071 0.551533 0.693947
Si Si5 0.796672 0.684330 0.785413
Si Si6 0.783742 0.936644 0.201344
Si Si7 0.428365 0.345821 0.209920
Si Si8 0.110418 0.221199 0.798213
O O1 0.468500 0.086493 0.278128
O O2 0.306671 0.030990 0.267487
O O3 0.500000 0.000000 0.271645
O O4 0.421423 0.039625 0.000000
O O5 0.720247 0.840334 0.500000
O O6 0.581879 0.829627 0.262438
O O7 0.731204 0.887066 0.208937
O O8 0.781240 0.804323 0.208553
O O9 0.622581 0.145274 0.735604
O O10 0.507773 0.134075 0.000000
O O11 0.500000 0.500000 0.779406
O O12 0.547969 0.543895 0.500000
O O13 0.386159 0.564251 0.692367
O O14 0.556356 0.599307 0.758141
O O15 0.681396 0.673460 0.726807
O O16 0.856381 0.729817 0.720802
O O17 0.791681 0.687274 0.000000
O O18 0.810128 0.947155 0.000000
O O19 0.522719 0.313308 0.274489
O O20 0.429579 0.341834 0.000000
O O21 0.080256 0.230034 0.000000
#
# Coordination Sequence:
#
# PCOD9426097 Si02
#       8
#     8   8   8   8   8   8   8   8
#     4   8  15  28  50  81 112 141 178 229 285 334
#     4  11  21  34  55  81 111 147 189 237 288 346
#     4   9  18  34  56  81 113 149 187 231 285 341
#     4  11  24  40  58  83 119 162 202 246 306 365
#     4   9  20  36  59  90 119 154 196 246 301 353
#     4  10  19  34  57  84 110 144 192 244 294 344
#     4  10  21  38  61  91 122 156 205 253 298 357
#     4  10  20  35  59  86 114 148 193 245 298 352
#
# _framework density 21.893250999999999
#
# number of rings (size 3 to 8) (size 9 to 14) (size 15 to 20)
#    0.000    2.250    1.250    2.625    1.750    2.000 
#    0.000    4.375    0.000   10.875    0.000    0.000 
#    0.000    0.000    0.000    0.000    0.000    0.000 
#
# Total GULP energy -356408.130550 kJ/mol
# GULP energy per Si atom -5568.877040 kJ/mol
# Density = 2.184342 g / cm^3
# Si number density = 21.893251 Si / 1000 Ang^3
#
#
#
# Elastic Constant Matrix: (Units=GPa)
#
#
# Indices 1 2 3 4 5 6 
#
# 1 132.0864 53.8595 5.2226 0.0000 0.0000 0.0000
# 2 53.8595 94.8929 2.5297 0.0000 0.0000 0.0000
# 3 5.2226 2.5297 54.7763 0.0000 0.0000 0.0000
# 4 0.0000 0.0000 0.0000 0.5666 0.0000 0.0000
# 5 0.0000 0.0000 0.0000 0.0000 -71.8045 0.0000
# 6 0.0000 0.0000 0.0000 0.0000 0.0000 29.8941
#
#
#
# Elastic Compliance Matrix: (Units=1/GPa)
#
#
# Indices 1 2 3 4 5 6 
#
# 1 0.009876 -0.005587 -0.000684 0.000000 0.000000 0.000000
# 2 -0.005587 0.013712 -0.000101 0.000000 0.000000 0.000000
# 3 -0.000684 -0.000101 0.018326 0.000000 0.000000 0.000000
# 4 0.000000 0.000000 0.000000 1.764888 0.000000 0.000000
# 5 0.000000 0.000000 0.000000 0.000000 -0.013927 0.000000
# 6 0.000000 0.000000 0.000000 0.000000 0.000000 0.033451
#
#
# Mechanical properties :
#
#
# Convention : Reuss Voigt Hill
#
# Bulk Modulus (GPa) = 34.28028 44.99768 39.63898
# Shear Modulus (GPa) = 2.70447 6.40750 4.55598
#
# Velocity S-wave (km/s) = 1.11264 1.71262 1.44413
# Velocity P-wave (km/s) = 4.16444 4.95061 4.57445
#
# Compressibility (1/GPa) = 0.02917129
#
# Stress axis : x y z
#
# Youngs Moduli (GPa) = 101.25460 72.92823 54.56759
#
# Poissons Ratio (x) = 0.40747 0.03730
# Poissons Ratio (y) = 0.56574 0.00549
# Poissons Ratio (z) = 0.06922 0.00733
#
# Static dielectric constant tensor:
#      x y z
#    x 1.826340 0.000000 0.000000 
#    y 0.000000 1.875490 0.000000 
#    z 0.000000 0.000000 1.833810 
# 
# From -- ./inp_files/4599.got.cif
#   From: 2010.05.17/outbox.cif.g08.bks.cpg/sg55_3_cif.got.tgz:4599.got - 2010.06.03 13:27:54.
