data_PCOD9426697
_publ_section_title
;
Structure prediction by ZEFSAII (Michael W. Deem and Ramdas Pophale) SiO2 
 PCOD9426697
Probable space group: P B A M
;
_chemical_formula_sum "Si O2"
_cell_formula_units_Z 56
_cell_length_a 22.578933
_cell_length_b 15.141752
_cell_length_c 7.700003
_cell_angle_alpha 90.000000
_cell_angle_beta 90.000000
_cell_angle_gamma 90.000000
_cell_volume 2632.512476
_symmetry_space_group_name_H-M "P B A M"
_symmetry_group_IT_number 55
_symmetry_cell_setting 'orthorhombic'
loop_
_space_group_symop_operation_xyz
x,y,z
-x,-y,z
1/2+x,1/2-y,-z
1/2-x,1/2+y,-z
-x,-y,-z
x,y,-z
1/2-x,1/2+y,z
1/2+x,1/2-y,z
loop_
_atom_site_type_symbol
_atom_site_label
_atom_site_fract_x
_atom_site_fract_y
_atom_site_fract_z
Si Si1 0.068430 0.513355 0.787741
Si Si2 0.365377 0.472007 0.700594
Si Si3 0.647687 0.152054 0.786671
Si Si4 0.393139 0.658664 0.802661
Si Si5 0.111954 0.706980 0.211675
Si Si6 0.024842 0.864692 0.297352
Si Si7 0.719814 0.677287 0.199503
O O1 0.110074 0.432627 0.729526
O O2 0.095733 0.607796 0.734864
O O3 0.000000 0.500000 0.732887
O O4 0.067829 0.513309 0.000000
O O5 0.362198 0.444405 0.500000
O O6 0.361218 0.576541 0.713155
O O7 0.429909 0.440145 0.765362
O O8 0.316531 0.414187 0.795794
O O9 0.617997 0.243963 0.731377
O O10 0.715572 0.158697 0.725116
O O11 0.647143 0.147698 0.000000
O O12 0.463014 0.641684 0.797352
O O13 0.371553 0.658134 0.000000
O O14 0.061564 0.774339 0.275530
O O15 0.174909 0.748263 0.272231
O O16 0.111709 0.710489 0.000000
O O17 0.011197 0.880979 0.500000
O O18 0.730087 0.703781 0.000000
#
# Coordination Sequence:
#
# PCOD9426697 Si02
#       7
#     8   8   8   8   8   8   8
#     4   9  16  28  49  76 103 132 169 215 264 311
#     4  10  21  36  53  75 105 140 175 211 256 310
#     4   9  19  33  51  78 107 133 169 219 266 309
#     4  11  21  33  53  80 107 136 172 214 260 309
#     4   9  17  30  52  77  99 130 171 212 255 307
#     4  10  20  34  52  75 106 139 169 208 258 310
#     4   9  18  34  54  77 103 131 169 214 259 309
#
# _framework density 21.272454
#
# number of rings (size 3 to 8) (size 9 to 14) (size 15 to 20)
#    0.000    2.429    0.000    2.571    0.000    6.857 
#    0.000    5.714    0.000    9.000    0.000    0.000 
#    0.000    0.000    0.000    0.000    0.000    0.000 
#
# Total GULP energy -312573.124400 kJ/mol
# GULP energy per Si atom -5581.662936 kJ/mol
# Density = 2.122404 g / cm^3
# Si number density = 21.272454 Si / 1000 Ang^3
#
#
#
# Elastic Constant Matrix: (Units=GPa)
#
#
# Indices 1 2 3 4 5 6 
#
# 1 130.8674 71.3423 3.3205 0.0000 0.0000 0.0000
# 2 71.3423 184.6956 0.7713 0.0000 0.0000 0.0000
# 3 3.3205 0.7713 35.2611 0.0000 0.0000 0.0000
# 4 0.0000 0.0000 0.0000 249.5558 0.0000 0.0000
# 5 0.0000 0.0000 0.0000 0.0000 10.3139 0.0000
# 6 0.0000 0.0000 0.0000 0.0000 0.0000 14.5638
#
#
#
# Elastic Compliance Matrix: (Units=1/GPa)
#
#
# Indices 1 2 3 4 5 6 
#
# 1 0.009704 -0.003745 -0.000832 0.000000 0.000000 0.000000
# 2 -0.003745 0.006860 0.000203 0.000000 0.000000 0.000000
# 3 -0.000832 0.000203 0.028434 0.000000 0.000000 0.000000
# 4 0.000000 0.000000 0.000000 0.004007 0.000000 0.000000
# 5 0.000000 0.000000 0.000000 0.000000 0.096956 0.000000
# 6 0.000000 0.000000 0.000000 0.000000 0.000000 0.068664
#
#
# Mechanical properties :
#
#
# Convention : Reuss Voigt Hill
#
# Bulk Modulus (GPa) = 27.58668 55.74358 41.66513
# Shear Modulus (GPa) = 21.23539 73.24602 47.24070
#
# Velocity S-wave (km/s) = 3.16295 5.87427 4.71759
# Velocity P-wave (km/s) = 5.13180 8.50123 7.02162
#
# Compressibility (1/GPa) = 0.03624938
#
# Stress axis : x y z
#
# Youngs Moduli (GPa) = 103.05085 145.77263 35.16946
#
# Poissons Ratio (x) = 0.54590 0.02926
# Poissons Ratio (y) = 0.38591 -0.00713
# Poissons Ratio (z) = 0.08573 -0.02953
#
# Static dielectric constant tensor:
#      x y z
#    x 1.748200 0.000000 0.000000 
#    y 0.000000 1.749260 0.000000 
#    z 0.000000 0.000000 1.783010 
# 
# From -- ./inp_files/6016.got.cif
#   From: 2010.05.17/outbox.cif.g08.bks.cpg/sg55_4_cif.got.tgz:6016.got - 2010.06.03 13:27:54.
