data_PCOD9426716
_publ_section_title
;
Structure prediction by ZEFSAII (Michael W. Deem and Ramdas Pophale) SiO2 
 PCOD9426716
Probable space group: P B A M
;
_chemical_formula_sum "Si O2"
_cell_formula_units_Z 56
_cell_length_a 13.346015
_cell_length_b 20.167754
_cell_length_c 9.378904
_cell_angle_alpha 90.000000
_cell_angle_beta 90.000000
_cell_angle_gamma 90.000000
_cell_volume 2524.417804
_symmetry_space_group_name_H-M "P B A M"
_symmetry_group_IT_number 55
_symmetry_cell_setting 'orthorhombic'
loop_
_space_group_symop_operation_xyz
x,y,z
-x,-y,z
1/2+x,1/2-y,-z
1/2-x,1/2+y,-z
-x,-y,-z
x,y,-z
1/2-x,1/2+y,z
1/2+x,1/2-y,z
loop_
_atom_site_type_symbol
_atom_site_label
_atom_site_fract_x
_atom_site_fract_y
_atom_site_fract_z
Si Si1 0.584234 0.442792 0.656179
Si Si2 0.683238 0.985381 0.663685
Si Si3 0.235766 0.395925 0.840521
Si Si4 0.451839 0.360654 0.837780
Si Si5 0.207842 0.237934 0.163262
Si Si6 0.984929 0.743329 0.667100
Si Si7 0.603355 0.861100 0.831855
O O1 0.500000 0.500000 0.651095
O O2 0.574571 0.407682 0.500000
O O3 0.698296 0.466139 0.666552
O O4 0.550548 0.399879 0.791196
O O5 0.649684 0.982971 0.500000
O O6 0.626987 0.931024 0.758734
O O7 0.678363 0.059207 0.727988
O O8 0.355425 0.407791 0.827369
O O9 0.231467 0.316474 0.830287
O O10 0.203398 0.415029 0.000000
O O11 0.442744 0.300950 0.726366
O O12 0.454714 0.335423 0.000000
O O13 0.123310 0.231419 0.282305
O O14 0.299767 0.187708 0.185479
O O15 0.171404 0.226219 0.000000
O O16 0.993163 0.733513 0.500000
O O17 0.013730 0.677245 0.753163
O O18 0.583796 0.867557 0.000000
#
# Coordination Sequence:
#
# PCOD9426716 Si02
#       7
#     8   8   8   8   8   8   8
#     4  10  20  34  52  83 123 161 197 241 305 370
#     4  11  23  38  58  88 128 167 205 254 312 373
#     4  10  21  39  62  89 120 159 207 253 303 364
#     4  11  21  36  59  87 119 159 206 252 303 364
#     4  10  22  43  68  93 123 162 212 262 310 369
#     4  12  25  40  63  94 126 160 204 258 318 375
#     4  11  23  43  67  92 125 166 211 261 311 368
#
# _framework density 22.183332
#
# number of rings (size 3 to 8) (size 9 to 14) (size 15 to 20)
#    0.000    1.286    2.857    3.429    0.000    6.000 
#    0.000    0.714    0.000    4.286    0.000    0.000 
#    0.000    0.000    0.000    0.000    0.000    0.000 
#
# Total GULP energy -312885.391463 kJ/mol
# GULP energy per Si atom -5587.239133 kJ/mol
# Density = 2.213284 g / cm^3
# Si number density = 22.183332 Si / 1000 Ang^3
#
#
#
# Elastic Constant Matrix: (Units=GPa)
#
#
# Indices 1 2 3 4 5 6 
#
# 1 18.1706 -12.6967 13.7884 0.0000 0.0000 0.0000
# 2 -12.6967 61.6199 36.6263 0.0000 0.0000 0.0000
# 3 13.7884 36.6263 153.2569 0.0000 0.0000 0.0000
# 4 0.0000 0.0000 0.0000 31.6629 0.0000 0.0000
# 5 0.0000 0.0000 0.0000 0.0000 22.9862 0.0000
# 6 0.0000 0.0000 0.0000 0.0000 0.0000 27.5888
#
#
#
# Elastic Compliance Matrix: (Units=1/GPa)
#
#
# Indices 1 2 3 4 5 6 
#
# 1 0.082695 0.025015 -0.013418 0.000000 0.000000 0.000000
# 2 0.025015 0.026482 -0.008580 0.000000 0.000000 0.000000
# 3 -0.013418 -0.008580 0.009783 0.000000 0.000000 0.000000
# 4 0.000000 0.000000 0.000000 0.031583 0.000000 0.000000
# 5 0.000000 0.000000 0.000000 0.000000 0.043504 0.000000
# 6 0.000000 0.000000 0.000000 0.000000 0.000000 0.036247
#
#
# Mechanical properties :
#
#
# Convention : Reuss Voigt Hill
#
# Bulk Modulus (GPa) = 8.00033 34.27594 21.13813
# Shear Modulus (GPa) = 18.80232 29.46953 24.13593
#
# Velocity S-wave (km/s) = 2.91449 3.64875 3.30209
# Velocity P-wave (km/s) = 3.86523 5.76506 4.90795
#
# Compressibility (1/GPa) = 0.12499487
#
# Stress axis : x y z
#
# Youngs Moduli (GPa) = 12.09258 37.76086 102.22218
#
# Poissons Ratio (x) = -0.94459 1.37165
# Poissons Ratio (y) = -0.30250 0.87702
# Poissons Ratio (z) = 0.16226 0.32397
#
# Static dielectric constant tensor:
#      x y z
#    x 1.869200 0.000000 0.000000 
#    y 0.000000 1.859570 0.000000 
#    z 0.000000 0.000000 1.771450 
# 
# From -- ./inp_files/6203.got.cif
#   From: 2010.05.17/outbox.cif.g08.bks.cpg/sg55_4_cif.got.tgz:6203.got - 2010.06.03 13:27:54.
