data_PCOD9426729
_publ_section_title
;
Structure prediction by ZEFSAII (Michael W. Deem and Ramdas Pophale) SiO2 
 PCOD9426729
Probable space group: P B A M
;
_chemical_formula_sum "Si O2"
_cell_formula_units_Z 56
_cell_length_a 14.078729
_cell_length_b 24.324344
_cell_length_c 7.718451
_cell_angle_alpha 90.000000
_cell_angle_beta 90.000000
_cell_angle_gamma 90.000000
_cell_volume 2643.228677
_symmetry_space_group_name_H-M "P B A M"
_symmetry_group_IT_number 55
_symmetry_cell_setting 'orthorhombic'
loop_
_space_group_symop_operation_xyz
x,y,z
-x,-y,z
1/2+x,1/2-y,-z
1/2-x,1/2+y,-z
-x,-y,-z
x,y,-z
1/2-x,1/2+y,z
1/2+x,1/2-y,z
loop_
_atom_site_type_symbol
_atom_site_label
_atom_site_fract_x
_atom_site_fract_y
_atom_site_fract_z
Si Si1 0.096429 0.559586 0.302203
Si Si2 0.598870 0.474800 0.291109
Si Si3 0.715351 0.377279 0.793730
Si Si4 0.513544 0.829068 0.710437
Si Si5 0.203456 0.733938 0.202246
Si Si6 0.307849 0.837625 0.703704
Si Si7 0.211202 0.461290 0.286758
O O1 0.935633 0.448072 0.500000
O O2 0.199930 0.589353 0.298883
O O3 0.031721 0.608014 0.226656
O O4 0.122469 0.499672 0.228655
O O5 0.500000 0.500000 0.227826
O O6 0.597651 0.476730 0.500000
O O7 0.620669 0.411909 0.239330
O O8 0.689715 0.510567 0.232055
O O9 0.725867 0.314519 0.732608
O O10 0.735132 0.378225 0.000000
O O11 0.520426 0.829507 0.500000
O O12 0.598115 0.789915 0.771053
O O13 0.408099 0.813257 0.767992
O O14 0.225478 0.793230 0.278045
O O15 0.220815 0.740005 0.000000
O O16 0.321931 0.846489 0.500000
O O17 0.291508 0.898674 0.774500
O O18 0.209223 0.463008 0.500000
#
# Coordination Sequence:
#
# PCOD9426729 Si02
#       7
#     8   8   8   8   8   8   8
#     4   8  14  28  51  75 101 128 160 200 251 312
#     4   9  17  31  51  75 103 135 170 209 259 316
#     4   9  17  30  49  71  95 128 170 212 254 297
#     4   9  18  33  55  80 101 132 175 218 263 313
#     4  10  21  37  54  72 102 142 179 220 262 311
#     4  10  20  34  53  78 109 138 174 222 267 312
#     4   8  15  29  49  75 106 134 162 207 260 308
#
# _framework density 21.186209999999999
#
# number of rings (size 3 to 8) (size 9 to 14) (size 15 to 20)
#    0.000    3.000    0.000    1.714    0.000    3.143 
#    2.571    5.714    0.000    0.000    0.000   14.000 
#    0.000    0.000    0.000    0.000    0.000    0.000 
#
# Total GULP energy -312081.117365 kJ/mol
# GULP energy per Si atom -5572.877096 kJ/mol
# Density = 2.113799 g / cm^3
# Si number density = 21.186210 Si / 1000 Ang^3
#
#
#
# Elastic Constant Matrix: (Units=GPa)
#
#
# Indices 1 2 3 4 5 6 
#
# 1 58.5073 21.5651 -2.6331 0.0000 0.0000 0.0000
# 2 21.5651 115.8271 -4.3543 0.0000 0.0000 0.0000
# 3 -2.6331 -4.3543 32.2573 0.0000 0.0000 0.0000
# 4 0.0000 0.0000 0.0000 -27.6426 0.0000 0.0000
# 5 0.0000 0.0000 0.0000 0.0000 -1.2315 0.0000
# 6 0.0000 0.0000 0.0000 0.0000 0.0000 27.7058
#
#
#
# Elastic Compliance Matrix: (Units=1/GPa)
#
#
# Indices 1 2 3 4 5 6 
#
# 1 0.018386 -0.003384 0.001044 0.000000 0.000000 0.000000
# 2 -0.003384 0.009300 0.000979 0.000000 0.000000 0.000000
# 3 0.001044 0.000979 0.031218 0.000000 0.000000 0.000000
# 4 0.000000 0.000000 0.000000 -0.036176 0.000000 0.000000
# 5 0.000000 0.000000 0.000000 0.000000 -0.811996 0.000000
# 6 0.000000 0.000000 0.000000 0.000000 0.000000 0.036093
#
#
# Mechanical properties :
#
#
# Convention : Reuss Voigt Hill
#
# Bulk Modulus (GPa) = 17.79891 26.19413 21.99652
# Shear Modulus (GPa) = -6.83317 12.56727 2.86705
#
# Velocity S-wave (km/s) = -1.79786 2.43817 1.16456
# Velocity P-wave (km/s) = 2.02724 4.50742 3.49475
#
# Compressibility (1/GPa) = 0.05618322
#
# Stress axis : x y z
#
# Youngs Moduli (GPa) = 54.38879 107.52224 32.03271
#
# Poissons Ratio (x) = 0.36385 -0.03344
# Poissons Ratio (y) = 0.18405 -0.03137
# Poissons Ratio (z) = -0.05678 -0.10528
#
# Static dielectric constant tensor:
#      x y z
#    x 1.765710 0.000000 0.000000 
#    y 0.000000 1.802500 0.000000 
#    z 0.000000 0.000000 1.795660 
# 
# From -- ./inp_files/5987.got.cif
#   From: 2010.05.17/outbox.cif.g08.bks.cpg/sg55_3_cif.got.tgz:5987.got - 2010.06.03 13:27:54.
