data_PCOD9426227
_publ_section_title
;
Structure prediction by ZEFSAII (Michael W. Deem and Ramdas Pophale) SiO2 
 PCOD9426227
Probable space group: P B A M
;
_chemical_formula_sum "Si O2"
_cell_formula_units_Z 64
_cell_length_a 22.000873
_cell_length_b 17.304917
_cell_length_c 7.625207
_cell_angle_alpha 90.000000
_cell_angle_beta 90.000000
_cell_angle_gamma 90.000000
_cell_volume 2903.093829
_symmetry_space_group_name_H-M "P B A M"
_symmetry_group_IT_number 55
_symmetry_cell_setting 'orthorhombic'
loop_
_space_group_symop_operation_xyz
x,y,z
-x,-y,z
1/2+x,1/2-y,-z
1/2-x,1/2+y,-z
-x,-y,-z
x,y,-z
1/2-x,1/2+y,z
1/2+x,1/2-y,z
loop_
_atom_site_type_symbol
_atom_site_label
_atom_site_fract_x
_atom_site_fract_y
_atom_site_fract_z
Si Si1 0.608648 0.692203 0.796502
Si Si2 0.326727 0.883609 0.297604
Si Si3 0.571199 0.000585 0.284455
Si Si4 0.702244 0.567020 0.206335
Si Si5 0.138379 0.092022 0.288835
Si Si6 0.858400 0.348556 0.299973
Si Si7 0.504637 0.410428 0.711637
Si Si8 0.732136 0.276310 0.285812
O O1 0.664875 0.641166 0.722557
O O2 0.598566 0.773481 0.703105
O O3 0.549919 0.638947 0.784494
O O4 0.620610 0.707683 0.000000
O O5 0.341145 0.866043 0.500000
O O6 0.386673 0.926650 0.226526
O O7 0.268681 0.941196 0.289715
O O8 0.296879 0.804805 0.221986
O O9 0.570936 0.000714 0.500000
O O10 0.500000 0.000000 0.231024
O O11 0.607283 0.923052 0.225445
O O12 0.661063 0.491785 0.230609
O O13 0.711198 0.578227 0.000000
O O14 0.136559 0.088534 0.500000
O O15 0.071270 0.114079 0.228830
O O16 0.185249 0.157146 0.237613
O O17 0.842936 0.370143 0.500000
O O18 0.796923 0.310251 0.222875
O O19 0.500000 0.500000 0.760010
O O20 0.500571 0.405592 0.500000
O O21 0.736679 0.269690 0.500000
#
# Coordination Sequence:
#
# PCOD9426227 Si02
#       8
#     8   8   8   8   8   8   8   8
#     4  11  23  36  54  79 111 151 193 233 280 334
#     4  10  19  35  60  83 110 144 185 235 288 344
#     4   9  19  35  59  90 117 147 190 243 297 348
#     4  11  22  35  53  80 111 147 189 230 279 334
#     4  10  20  35  56  82 115 147 184 227 275 337
#     4  10  19  35  58  84 112 143 188 238 287 340
#     4  10  20  34  54  82 112 147 186 224 272 332
#     4   9  18  32  55  87 112 139 181 232 285 335
#
# _framework density 22.045446999999999
#
# number of rings (size 3 to 8) (size 9 to 14) (size 15 to 20)
#    0.000    2.000    2.500    1.500    0.000    4.750 
#    0.000    6.875    0.000    3.000    0.000    0.000 
#    0.000    0.000    0.000    0.000    0.000    0.000 
#
# Total GULP energy -357173.280728 kJ/mol
# GULP energy per Si atom -5580.832511 kJ/mol
# Density = 2.199527 g / cm^3
# Si number density = 22.045447 Si / 1000 Ang^3
#
#
#
# Elastic Constant Matrix: (Units=GPa)
#
#
# Indices 1 2 3 4 5 6 
#
# 1 146.7330 72.5842 12.4873 0.0000 0.0000 0.0000
# 2 72.5842 122.4865 11.2463 0.0000 0.0000 0.0000
# 3 12.4873 11.2463 43.3235 0.0000 0.0000 0.0000
# 4 0.0000 0.0000 0.0000 -15.6776 0.0000 0.0000
# 5 0.0000 0.0000 0.0000 0.0000 -17.8542 0.0000
# 6 0.0000 0.0000 0.0000 0.0000 0.0000 38.1080
#
#
#
# Elastic Compliance Matrix: (Units=1/GPa)
#
#
# Indices 1 2 3 4 5 6 
#
# 1 0.009716 -0.005635 -0.001338 0.000000 0.000000 0.000000
# 2 -0.005635 0.011632 -0.001395 0.000000 0.000000 0.000000
# 3 -0.001338 -0.001395 0.023830 0.000000 0.000000 0.000000
# 4 0.000000 0.000000 0.000000 -0.063785 0.000000 0.000000
# 5 0.000000 0.000000 0.000000 0.000000 -0.056009 0.000000
# 6 0.000000 0.000000 0.000000 0.000000 0.000000 0.026241
#
#
# Mechanical properties :
#
#
# Convention : Reuss Voigt Hill
#
# Bulk Modulus (GPa) = 35.15953 56.13098 45.64526
# Shear Modulus (GPa) = -225.64526 15.33025 -105.15751
#
# Velocity S-wave (km/s) = -10.12802 2.63989 -6.91404
# Velocity P-wave (km/s) = 10.99026 5.89990 6.55656
#
# Compressibility (1/GPa) = 0.02844179
#
# Stress axis : x y z
#
# Youngs Moduli (GPa) = 102.91855 85.97328 41.96401
#
# Poissons Ratio (x) = 0.48446 0.05614
# Poissons Ratio (y) = 0.57995 0.05855
# Poissons Ratio (z) = 0.13769 0.11995
#
# Static dielectric constant tensor:
#      x y z
#    x 1.838340 0.000000 0.000000 
#    y 0.000000 1.811980 0.000000 
#    z 0.000000 0.000000 1.829890 
# 
# From -- ./inp_files/7987.got.cif
#   From: 2010.05.17/outbox.cif.g08.bks.cpg/sg55_4_cif.got.tgz:7987.got - 2010.06.03 13:27:54.
