data_PCOD9426359
_publ_section_title
;
Structure prediction by ZEFSAII (Michael W. Deem and Ramdas Pophale) SiO2 
 PCOD9426359
Probable space group: P B A M
;
_chemical_formula_sum "Si O2"
_cell_formula_units_Z 64
_cell_length_a 24.109344
_cell_length_b 15.257478
_cell_length_c 7.494558
_cell_angle_alpha 90.000000
_cell_angle_beta 90.000000
_cell_angle_gamma 90.000000
_cell_volume 2756.856565
_symmetry_space_group_name_H-M "P B A M"
_symmetry_group_IT_number 55
_symmetry_cell_setting 'orthorhombic'
loop_
_space_group_symop_operation_xyz
x,y,z
-x,-y,z
1/2+x,1/2-y,-z
1/2-x,1/2+y,-z
-x,-y,-z
x,y,-z
1/2-x,1/2+y,z
1/2+x,1/2-y,z
loop_
_atom_site_type_symbol
_atom_site_label
_atom_site_fract_x
_atom_site_fract_y
_atom_site_fract_z
Si Si1 0.911345 0.257167 0.789849
Si Si2 0.399177 0.648935 0.284458
Si Si3 0.706895 0.821516 0.204695
Si Si4 0.481165 0.405324 0.204871
Si Si5 0.699894 0.463508 0.709816
Si Si6 0.125619 0.342736 0.284841
Si Si7 0.755825 0.634110 0.717685
Si Si8 0.505924 0.100762 0.283534
O O1 0.853950 0.298099 0.715133
O O2 0.935768 0.163614 0.718253
O O3 0.958772 0.331204 0.773973
O O4 0.901392 0.241155 0.000000
O O5 0.405144 0.643546 0.500000
O O6 0.460524 0.646145 0.207900
O O7 0.357229 0.575255 0.216737
O O8 0.369685 0.740308 0.245025
O O9 0.748273 0.896021 0.278114
O O10 0.738577 0.729162 0.217167
O O11 0.697670 0.847200 0.000000
O O12 0.500000 0.500000 0.285745
O O13 0.464624 0.423718 0.000000
O O14 0.689553 0.474921 0.500000
O O15 0.715996 0.557718 0.782884
O O16 0.123571 0.352343 0.500000
O O17 0.181569 0.388661 0.225195
O O18 0.066471 0.372040 0.217019
O O19 0.754850 0.637062 0.500000
O O20 0.505219 0.104101 0.500000
O O21 0.500000 0.000000 0.229933
#
# Coordination Sequence:
#
# PCOD9426359 Si02
#       8
#     8   8   8   8   8   8   8   8
#     4  10  23  41  56  79 118 156 191 235 285 339
#     4  10  19  36  59  85 114 142 185 243 289 331
#     4  11  24  40  58  83 120 157 192 240 290 345
#     4  10  22  39  59  82 111 154 196 231 282 342
#     4  10  22  39  62  88 116 153 194 239 291 348
#     4   9  17  34  57  82 113 141 178 239 289 327
#     4  10  21  39  62  86 115 152 192 238 290 342
#     4  10  21  36  59  88 112 145 192 236 283 341
#
# _framework density 23.214845
#
# number of rings (size 3 to 8) (size 9 to 14) (size 15 to 20)
#    0.000    2.000    2.500    0.375    3.500    2.500 
#    0.000    0.625    0.000    0.000    0.000    0.000 
#    0.000    0.000    0.000    0.000    0.000    0.000 
#
# Total GULP energy -357278.301926 kJ/mol
# GULP energy per Si atom -5582.473468 kJ/mol
# Density = 2.316201 g / cm^3
# Si number density = 23.214845 Si / 1000 Ang^3
#
#
#
# Elastic Constant Matrix: (Units=GPa)
#
#
# Indices 1 2 3 4 5 6 
#
# 1 72.4798 -26.5315 -12.7628 0.0000 0.0000 0.0000
# 2 -26.5315 44.5540 -7.9296 0.0000 0.0000 0.0000
# 3 -12.7628 -7.9296 59.9507 0.0000 0.0000 0.0000
# 4 0.0000 0.0000 0.0000 19.6106 0.0000 0.0000
# 5 0.0000 0.0000 0.0000 0.0000 2.3553 0.0000
# 6 0.0000 0.0000 0.0000 0.0000 0.0000 36.0775
#
#
#
# Elastic Compliance Matrix: (Units=1/GPa)
#
#
# Indices 1 2 3 4 5 6 
#
# 1 0.019433 0.012605 0.005804 0.000000 0.000000 0.000000
# 2 0.012605 0.031162 0.006805 0.000000 0.000000 0.000000
# 3 0.005804 0.006805 0.018816 0.000000 0.000000 0.000000
# 4 0.000000 0.000000 0.000000 0.050993 0.000000 0.000000
# 5 0.000000 0.000000 0.000000 0.000000 0.424575 0.000000
# 6 0.000000 0.000000 0.000000 0.000000 0.000000 0.027718
#
#
# Mechanical properties :
#
#
# Convention : Reuss Voigt Hill
#
# Bulk Modulus (GPa) = 8.34431 9.17074 8.75753
# Shear Modulus (GPa) = 8.89340 26.55591 17.72466
#
# Velocity S-wave (km/s) = 1.95940 3.38586 2.76616
# Velocity P-wave (km/s) = 2.95316 4.38683 3.73935
#
# Compressibility (1/GPa) = 0.11984211
#
# Stress axis : x y z
#
# Youngs Moduli (GPa) = 51.45813 32.09007 53.14566
#
# Poissons Ratio (x) = -0.40451 -0.30848
# Poissons Ratio (y) = -0.64865 -0.36167
# Poissons Ratio (z) = -0.29868 -0.21838
#
# Static dielectric constant tensor:
#      x y z
#    x 1.765530 0.000000 0.000000 
#    y 0.000000 1.869600 0.000000 
#    z 0.000000 0.000000 1.894240 
# 
# From -- ./inp_files/9691.got.cif
#   From: 2010.05.17/outbox.cif.g08.bks.cpg/sg55_5_cif.got.tgz:9691.got - 2010.06.03 13:27:54.
