data_PCOD9426089
_publ_section_title
;
Structure prediction by ZEFSAII (Michael W. Deem and Ramdas Pophale) SiO2 
 PCOD9426089
Probable space group: P B A M
;
_chemical_formula_sum "Si O2"
_cell_formula_units_Z 56
_cell_length_a 16.525217
_cell_length_b 20.176119
_cell_length_c 8.341187
_cell_angle_alpha 90.000000
_cell_angle_beta 90.000000
_cell_angle_gamma 90.000000
_cell_volume 2781.074734
_symmetry_space_group_name_H-M "P B A M"
_symmetry_group_IT_number 55
_symmetry_cell_setting 'orthorhombic'
loop_
_space_group_symop_operation_xyz
x,y,z
-x,-y,z
1/2+x,1/2-y,-z
1/2-x,1/2+y,-z
-x,-y,-z
x,y,-z
1/2-x,1/2+y,z
1/2+x,1/2-y,z
loop_
_atom_site_type_symbol
_atom_site_label
_atom_site_fract_x
_atom_site_fract_y
_atom_site_fract_z
Si Si1 0.820565 0.271978 0.304393
Si Si2 0.405315 0.507494 0.305557
Si Si3 0.516668 0.844914 0.686396
Si Si4 0.880666 0.475686 0.682921
Si Si5 0.227533 0.104042 0.809689
Si Si6 0.689880 0.622573 0.685816
Si Si7 0.140414 0.390285 0.822670
O O1 0.815232 0.274189 0.500000
O O2 0.907737 0.301629 0.256895
O O3 0.750109 0.320467 0.239387
O O4 0.820623 0.196384 0.246647
O O5 0.500000 0.500000 0.263579
O O6 0.399702 0.510941 0.500000
O O7 0.358534 0.572036 0.238402
O O8 0.357604 0.441196 0.247767
O O9 0.501116 0.829350 0.500000
O O10 0.551841 0.919345 0.694767
O O11 0.433185 0.842233 0.780287
O O12 0.882320 0.500935 0.500000
O O13 0.795215 0.439895 0.718000
O O14 0.891152 0.534838 0.805822
O O15 0.238673 0.097261 0.000000
O O16 0.665077 0.626399 0.500000
O O17 0.785342 0.611384 0.701290
O O18 0.171699 0.377581 0.000000
#
# Coordination Sequence:
#
# PCOD9426089 Si02
#       7
#     8   8   8   8   8   8   8
#     4   9  20  40  63  85 112 155 206 250 297 355
#     4  10  21  39  64  92 120 155 205 256 299 354
#     4   9  19  35  55  80 112 149 192 240 286 341
#     4  10  19  34  57  82 112 149 191 236 279 334
#     4  11  21  35  59  89 121 155 190 239 305 364
#     4  10  21  40  64  85 114 157 202 251 300 349
#     4  12  23  33  52  85 121 153 187 231 292 356
#
# _framework density 20.136099999999999
#
# number of rings (size 3 to 8) (size 9 to 14) (size 15 to 20)
#    0.000    1.857    1.429    4.286    0.000    5.429 
#    2.571    0.000    0.000    0.000    0.000    0.000 
#    0.000    0.000    0.000    0.000    0.000    0.000 
#
# Total GULP energy -312414.139531 kJ/mol
# GULP energy per Si atom -5578.823920 kJ/mol
# Density = 2.009027 g / cm^3
# Si number density = 20.136100 Si / 1000 Ang^3
#
#
#
# Elastic Constant Matrix: (Units=GPa)
#
#
# Indices 1 2 3 4 5 6 
#
# 1 93.3953 30.6314 5.7189 0.0000 0.0000 0.0000
# 2 30.6314 96.9356 12.9473 0.0000 0.0000 0.0000
# 3 5.7189 12.9473 23.6535 0.0000 0.0000 0.0000
# 4 0.0000 0.0000 0.0000 5.4936 0.0000 0.0000
# 5 0.0000 0.0000 0.0000 0.0000 -0.0840 0.0000
# 6 0.0000 0.0000 0.0000 0.0000 0.0000 -0.6156
#
#
#
# Elastic Compliance Matrix: (Units=1/GPa)
#
#
# Indices 1 2 3 4 5 6 
#
# 1 0.011962 -0.003661 -0.000888 0.000000 0.000000 0.000000
# 2 -0.003661 0.012251 -0.005820 0.000000 0.000000 0.000000
# 3 -0.000888 -0.005820 0.045678 0.000000 0.000000 0.000000
# 4 0.000000 0.000000 0.000000 0.182029 0.000000 0.000000
# 5 0.000000 0.000000 0.000000 0.000000-11.901313 0.000000
# 6 0.000000 0.000000 0.000000 0.000000 0.000000 -1.624543
#
#
# Mechanical properties :
#
#
# Convention : Reuss Voigt Hill
#
# Bulk Modulus (GPa) = 20.34550 34.73105 27.53828
# Shear Modulus (GPa) = -0.37773 11.93793 5.78010
#
# Velocity S-wave (km/s) = -0.43359 2.43752 1.69610
# Velocity P-wave (km/s) = 3.14249 5.02072 4.18825
#
# Compressibility (1/GPa) = 0.04915091
#
# Stress axis : x y z
#
# Youngs Moduli (GPa) = 83.59505 81.62896 21.89250
#
# Poissons Ratio (x) = 0.29888 0.01944
# Poissons Ratio (y) = 0.30608 0.12742
# Poissons Ratio (z) = 0.07424 0.47511
#
# Static dielectric constant tensor:
#      x y z
#    x 1.720160 0.000000 0.000000 
#    y 0.000000 1.750490 0.000000 
#    z 0.000000 0.000000 1.694410 
# 
# From -- ./inp_files/6122.got.cif
#   From: 2010.05.17/outbox.cif.g08.bks.cpg/sg55_4_cif.got.tgz:6122.got - 2010.06.03 13:27:54.
