data_PCOD9426433
_publ_section_title
;
Structure prediction by ZEFSAII (Michael W. Deem and Ramdas Pophale) SiO2 
 PCOD9426433
Probable space group: P B A M
;
_chemical_formula_sum "Si O2"
_cell_formula_units_Z 58
_cell_length_a 18.003506
_cell_length_b 16.680698
_cell_length_c 9.860142
_cell_angle_alpha 90.000000
_cell_angle_beta 90.000000
_cell_angle_gamma 90.000000
_cell_volume 2961.109563
_symmetry_space_group_name_H-M "P B A M"
_symmetry_group_IT_number 55
_symmetry_cell_setting 'orthorhombic'
loop_
_space_group_symop_operation_xyz
x,y,z
-x,-y,z
1/2+x,1/2-y,-z
1/2-x,1/2+y,-z
-x,-y,-z
x,y,-z
1/2-x,1/2+y,z
1/2+x,1/2-y,z
loop_
_atom_site_type_symbol
_atom_site_label
_atom_site_fract_x
_atom_site_fract_y
_atom_site_fract_z
Si Si1 0.353056 0.197649 0.660730
Si Si2 0.059382 0.066509 0.336679
Si Si3 0.500000 0.000000 0.500000
Si Si4 0.703358 0.534833 0.656615
Si Si5 0.629810 0.980649 0.279759
Si Si6 0.098364 0.361802 0.853735
Si Si7 0.517554 0.256547 0.341809
Si Si8 0.729645 0.683179 0.842892
O O1 0.335658 0.183445 0.500000
O O2 0.368360 0.114305 0.736676
O O3 0.428669 0.249285 0.664019
O O4 0.291336 0.243785 0.745302
O O5 0.049116 0.071267 0.500000
O O6 0.044296 0.156972 0.287813
O O7 0.142144 0.033159 0.313609
O O8 0.000000 0.000000 0.287147
O O9 0.565073 0.996155 0.385627
O O10 0.690536 0.562502 0.500000
O O11 0.787748 0.503953 0.668155
O O12 0.696315 0.605611 0.765900
O O13 0.609667 0.043033 0.162210
O O14 0.051780 0.318196 0.738003
O O15 0.181742 0.327337 0.845228
O O16 0.065241 0.342819 0.000000
O O17 0.539260 0.248413 0.500000
O O18 0.704647 0.690747 0.000000
#
# Coordination Sequence:
#
# PCOD9426433 Si02
#       8
#     8   8   2   8   8   8   8   8
#     4  11  22  38  60  95 123 154 206 255 315 372
#     4   9  18  34  59  90 125 153 194 253 311 365
#     4  12  20  40  58  92 126 148 196 264 318 350
#     4  10  19  37  61  91 116 158 210 254 313 368
#     4  11  23  36  64  88 125 161 206 263 308 373
#     4  10  24  43  60  86 124 168 211 250 311 377
#     4  10  22  37  62  93 121 162 201 259 317 371
#     4  10  23  40  59  85 124 165 203 253 306 369
#
# _framework density 19.587250999999998
#
# number of rings (size 3 to 8) (size 9 to 14) (size 15 to 20)
#    0.000    1.793    1.379    2.069    4.828    4.414 
#    0.000    3.103    0.000    1.655    0.000    0.000 
#    0.000    0.000    0.000    0.000    0.000    0.000 
#
# Total GULP energy -322988.682591 kJ/mol
# GULP energy per Si atom -5568.770389 kJ/mol
# Density = 1.954267 g / cm^3
# Si number density = 19.587251 Si / 1000 Ang^3
#
#
#
# Elastic Constant Matrix: (Units=GPa)
#
#
# Indices 1 2 3 4 5 6 
#
# 1 60.4293 24.4525 17.2818 0.0000 0.0000 0.0000
# 2 24.4525 75.9383 14.6339 0.0000 0.0000 0.0000
# 3 17.2818 14.6339 50.3452 0.0000 0.0000 0.0000
# 4 0.0000 0.0000 0.0000 4.1140 0.0000 0.0000
# 5 0.0000 0.0000 0.0000 0.0000 11.3787 0.0000
# 6 0.0000 0.0000 0.0000 0.0000 0.0000 21.1792
#
#
#
# Elastic Compliance Matrix: (Units=1/GPa)
#
#
# Indices 1 2 3 4 5 6 
#
# 1 0.020312 -0.005505 -0.005372 0.000000 0.000000 0.000000
# 2 -0.005505 0.015442 -0.002599 0.000000 0.000000 0.000000
# 3 -0.005372 -0.002599 0.022462 0.000000 0.000000 0.000000
# 4 0.000000 0.000000 0.000000 0.243072 0.000000 0.000000
# 5 0.000000 0.000000 0.000000 0.000000 0.087884 0.000000
# 6 0.000000 0.000000 0.000000 0.000000 0.000000 0.047216
#
#
# Mechanical properties :
#
#
# Convention : Reuss Voigt Hill
#
# Bulk Modulus (GPa) = 31.98570 33.27214 32.62892
# Shear Modulus (GPa) = 10.55381 16.02403 13.28892
#
# Velocity S-wave (km/s) = 2.32375 2.86332 2.60753
# Velocity P-wave (km/s) = 4.85438 5.28725 5.07543
#
# Compressibility (1/GPa) = 0.03126398
#
# Stress axis : x y z
#
# Youngs Moduli (GPa) = 49.23106 64.75783 44.51890
#
# Poissons Ratio (x) = 0.35652 0.23917
# Poissons Ratio (y) = 0.27104 0.11569
# Poissons Ratio (z) = 0.26448 0.16829
#
# Static dielectric constant tensor:
#      x y z
#    x 1.675290 0.000000 0.000000 
#    y 0.000000 1.767270 0.000000 
#    z 0.000000 0.000000 1.668000 
# 
# From -- ./inp_files/7734.got.cif
#   From: 2010.05.17/outbox.cif.g08.bks.cpg/sg55_4_cif.got.tgz:7734.got - 2010.06.03 13:27:54.
