data_PCOD9426050
_publ_section_title
;
Structure prediction by ZEFSAII (Michael W. Deem and Ramdas Pophale) SiO2 
 PCOD9426050
Probable space group: P B A M
;
_chemical_formula_sum "Si O2"
_cell_formula_units_Z 48
_cell_length_a 19.269991
_cell_length_b 11.475209
_cell_length_c 10.023127
_cell_angle_alpha 90.000000
_cell_angle_beta 90.000000
_cell_angle_gamma 90.000000
_cell_volume 2216.385750
_symmetry_space_group_name_H-M "P B A M"
_symmetry_group_IT_number 55
_symmetry_cell_setting 'orthorhombic'
loop_
_space_group_symop_operation_xyz
x,y,z
-x,-y,z
1/2+x,1/2-y,-z
1/2-x,1/2+y,-z
-x,-y,-z
x,y,-z
1/2-x,1/2+y,z
1/2+x,1/2-y,z
loop_
_atom_site_type_symbol
_atom_site_label
_atom_site_fract_x
_atom_site_fract_y
_atom_site_fract_z
Si Si1 0.872019 0.046383 0.345427
Si Si2 0.542550 0.767721 0.658505
Si Si3 0.278196 0.843896 0.356541
Si Si4 0.550823 0.111027 0.857725
Si Si5 0.809572 0.855536 0.155859
Si Si6 0.839375 0.445335 0.762212
O O1 0.876651 0.004039 0.500000
O O2 0.935923 0.133498 0.319154
O O3 0.803281 0.128833 0.339218
O O4 0.857611 0.946697 0.237001
O O5 0.535708 0.786919 0.500000
O O6 0.473749 0.807318 0.737324
O O7 0.605804 0.848752 0.713978
O O8 0.288453 0.785379 0.500000
O O9 0.307470 0.762751 0.240834
O O10 0.312719 0.971319 0.355882
O O11 0.622088 0.041159 0.851127
O O12 0.500000 0.000000 0.852018
O O13 0.541887 0.171876 0.000000
O O14 0.729298 0.897361 0.168199
O O15 0.827462 0.844264 0.000000
#
# Coordination Sequence:
#
# PCOD9426050 Si02
#       6
#     8   8   8   8   8   8
#     4   9  19  35  53  74 104 140 175 217 263 313
#     4  10  19  34  56  81 107 137 177 219 261 311
#     4  10  20  34  54  77 105 141 177 219 266 312
#     4   9  19  33  50  75 109 144 173 211 263 312
#     4  11  22  34  52  78 108 142 179 217 260 318
#     4  10  20  35  53  80 109 141 177 217 260 317
#
# _framework density 21.656877999999999
#
# number of rings (size 3 to 8) (size 9 to 14) (size 15 to 20)
#    0.000    2.167    1.667    1.500    0.000    9.667 
#    0.000    0.000    0.000    1.000    0.000    5.833 
#    0.000    0.000    0.000    0.000    0.000    0.000 
#
# Total GULP energy -267679.228079 kJ/mol
# GULP energy per Si atom -5576.650585 kJ/mol
# Density = 2.160759 g / cm^3
# Si number density = 21.656878 Si / 1000 Ang^3
#
#
#
# Elastic Constant Matrix: (Units=GPa)
#
#
# Indices 1 2 3 4 5 6 
#
# 1 34.0575 12.1970 -8.1439 0.0000 0.0000 0.0000
# 2 12.1970 62.8077 36.1449 0.0000 0.0000 0.0000
# 3 -8.1439 36.1449 137.2724 0.0000 0.0000 0.0000
# 4 0.0000 0.0000 0.0000 -76.0402 0.0000 0.0000
# 5 0.0000 0.0000 0.0000 0.0000 -7.2351 0.0000
# 6 0.0000 0.0000 0.0000 0.0000 0.0000 23.9105
#
#
#
# Elastic Compliance Matrix: (Units=1/GPa)
#
#
# Indices 1 2 3 4 5 6 
#
# 1 0.033653 -0.009057 0.004381 0.000000 0.000000 0.000000
# 2 -0.009057 0.021202 -0.006120 0.000000 0.000000 0.000000
# 3 0.004381 -0.006120 0.009156 0.000000 0.000000 0.000000
# 4 0.000000 0.000000 0.000000 -0.013151 0.000000 0.000000
# 5 0.000000 0.000000 0.000000 0.000000 -0.138215 0.000000
# 6 0.000000 0.000000 0.000000 0.000000 0.000000 0.041823
#
#
# Mechanical properties :
#
#
# Convention : Reuss Voigt Hill
#
# Bulk Modulus (GPa) = 23.57334 34.94816 29.26075
# Shear Modulus (GPa) = -510.16714 1.05637 -254.55538
#
# Velocity S-wave (km/s) = -15.36488 0.69917 -10.85336
# Velocity P-wave (km/s) = 17.43170 4.10171 11.97999
#
# Compressibility (1/GPa) = 0.04242080
#
# Stress axis : x y z
#
# Youngs Moduli (GPa) = 29.71489 47.16462 109.21615
#
# Poissons Ratio (x) = 0.42715 -0.47850
# Poissons Ratio (y) = 0.26912 0.66841
# Poissons Ratio (z) = -0.13019 0.28865
#
# Static dielectric constant tensor:
#      x y z
#    x 1.851230 0.000000 0.000000 
#    y 0.000000 1.781870 0.000000 
#    z 0.000000 0.000000 1.778070 
# 
# From -- ./inp_files/4037.got.cif
#   From: 2010.05.17/outbox.cif.g08.bks.cpg/sg55_3_cif.got.tgz:4037.got - 2010.06.03 13:27:54.
