data_PCOD9426788
_publ_section_title
;
Structure prediction by ZEFSAII (Michael W. Deem and Ramdas Pophale) SiO2 
 PCOD9426788
Probable space group: P B A M
;
_chemical_formula_sum "Si O2"
_cell_formula_units_Z 64
_cell_length_a 25.096610
_cell_length_b 14.471344
_cell_length_c 9.059332
_cell_angle_alpha 90.000000
_cell_angle_beta 90.000000
_cell_angle_gamma 90.000000
_cell_volume 3290.183384
_symmetry_space_group_name_H-M "P B A M"
_symmetry_group_IT_number 55
_symmetry_cell_setting 'orthorhombic'
loop_
_space_group_symop_operation_xyz
x,y,z
-x,-y,z
1/2+x,1/2-y,-z
1/2-x,1/2+y,-z
-x,-y,-z
x,y,-z
1/2-x,1/2+y,z
1/2+x,1/2-y,z
loop_
_atom_site_type_symbol
_atom_site_label
_atom_site_fract_x
_atom_site_fract_y
_atom_site_fract_z
Si Si1 0.897655 0.533967 0.673611
Si Si2 0.461377 0.778228 0.325278
Si Si3 0.165906 0.735586 0.675847
Si Si4 0.564411 0.858974 0.175570
Si Si5 0.677524 0.547556 0.674382
Si Si6 0.622626 0.367203 0.676532
Si Si7 0.213400 0.447839 0.830237
Si Si8 0.776047 0.775185 0.170626
O O1 0.898714 0.512775 0.500000
O O2 0.919191 0.637936 0.693676
O O3 0.935041 0.462533 0.759510
O O4 0.838008 0.524631 0.736092
O O5 0.474860 0.774081 0.500000
O O6 0.513391 0.803721 0.234184
O O7 0.431643 0.684060 0.280001
O O8 0.163236 0.720331 0.500000
O O9 0.117383 0.687267 0.757723
O O10 0.222460 0.702386 0.739816
O O11 0.163529 0.846125 0.704499
O O12 0.566010 0.860686 0.000000
O O13 0.690375 0.541346 0.500000
O O14 0.630072 0.475910 0.705495
O O15 0.730373 0.519852 0.763996
O O16 0.627820 0.352481 0.500000
O O17 0.672220 0.318950 0.755805
O O18 0.216892 0.335996 0.825506
O O19 0.206809 0.476880 0.000000
O O20 0.770734 0.803080 0.000000
#
# Coordination Sequence:
#
# PCOD9426788 Si02
#       8
#     8   8   8   8   8   8   8   8
#     4  11  22  38  61  87 117 157 198 240 289 352
#     4  10  22  41  63  87 117 154 199 244 292 353
#     4  10  21  40  62  84 115 156 201 248 294 346
#     4  12  26  41  60  85 116 155 198 249 304 356
#     4   9  20  37  60  87 118 155 198 245 293 345
#     4  10  20  37  61  89 118 153 197 244 292 349
#     4  10  20  34  54  84 123 159 192 235 288 347
#     4  10  20  34  55  85 121 157 192 237 293 348
#
# _framework density 19.451803999999999
#
# number of rings (size 3 to 8) (size 9 to 14) (size 15 to 20)
#    0.000    1.750    1.250    3.000    1.750    5.000 
#    0.000    0.625    0.000    3.750    0.000    0.000 
#    0.000    0.000    0.000    0.000    0.000    0.000 
#
# Total GULP energy -357749.328099 kJ/mol
# GULP energy per Si atom -5589.833252 kJ/mol
# Density = 1.940753 g / cm^3
# Si number density = 19.451804 Si / 1000 Ang^3
#
#
#
# Elastic Constant Matrix: (Units=GPa)
#
#
# Indices 1 2 3 4 5 6 
#
# 1 61.3769 1.6104 34.8190 0.0000 0.0000 0.0000
# 2 1.6104 31.0171 17.0175 0.0000 0.0000 0.0000
# 3 34.8190 17.0175 78.2292 0.0000 0.0000 0.0000
# 4 0.0000 0.0000 0.0000 19.8009 0.0000 0.0000
# 5 0.0000 0.0000 0.0000 0.0000 -112.7744 0.0000
# 6 0.0000 0.0000 0.0000 0.0000 0.0000 28.1945
#
#
#
# Elastic Compliance Matrix: (Units=1/GPa)
#
#
# Indices 1 2 3 4 5 6 
#
# 1 0.022433 0.004898 -0.011050 0.000000 0.000000 0.000000
# 2 0.004898 0.037679 -0.010377 0.000000 0.000000 0.000000
# 3 -0.011050 -0.010377 0.019959 0.000000 0.000000 0.000000
# 4 0.000000 0.000000 0.000000 0.050503 0.000000 0.000000
# 5 0.000000 0.000000 0.000000 0.000000 -0.008867 0.000000
# 6 0.000000 0.000000 0.000000 0.000000 0.000000 0.035468
#
#
# Mechanical properties :
#
#
# Convention : Reuss Voigt Hill
#
# Bulk Modulus (GPa) = 21.27063 30.83520 26.05292
# Shear Modulus (GPa) = 24.28333 -5.14404 9.56964
#
# Velocity S-wave (km/s) = 3.53708 -1.62796 2.22044
# Velocity P-wave (km/s) = 5.25738 3.51466 4.47174
#
# Compressibility (1/GPa) = 0.04701317
#
# Stress axis : x y z
#
# Youngs Moduli (GPa) = 44.57716 26.53991 50.10393
#
# Poissons Ratio (x) = -0.12999 0.55366
# Poissons Ratio (y) = -0.21834 0.51990
# Poissons Ratio (z) = 0.49259 0.27539
#
# Static dielectric constant tensor:
#      x y z
#    x 1.641790 0.000000 0.000000 
#    y 0.000000 1.727750 0.000000 
#    z 0.000000 0.000000 1.647040 
# 
# From -- ./inp_files/6609.got.cif
#   From: 2010.05.17/outbox.cif.g08.bks.cpg/sg55_4_cif.got.tgz:6609.got - 2010.06.03 13:27:54.
