data_PCOD9426605
_publ_section_title
;
Structure prediction by ZEFSAII (Michael W. Deem and Ramdas Pophale) SiO2 
 PCOD9426605
Probable space group: P B A M
;
_chemical_formula_sum "Si O2"
_cell_formula_units_Z 40
_cell_length_a 9.629697
_cell_length_b 11.685576
_cell_length_c 16.551449
_cell_angle_alpha 90.000000
_cell_angle_beta 90.000000
_cell_angle_gamma 90.000000
_cell_volume 1862.510658
_symmetry_space_group_name_H-M "P B A M"
_symmetry_group_IT_number 55
_symmetry_cell_setting 'orthorhombic'
loop_
_space_group_symop_operation_xyz
x,y,z
-x,-y,z
1/2+x,1/2-y,-z
1/2-x,1/2+y,-z
-x,-y,-z
x,y,-z
1/2-x,1/2+y,z
1/2+x,1/2-y,z
loop_
_atom_site_type_symbol
_atom_site_label
_atom_site_fract_x
_atom_site_fract_y
_atom_site_fract_z
Si Si1 0.700706 0.620422 0.666206
Si Si2 0.525950 0.366417 0.904762
Si Si3 0.549805 0.264253 0.591680
Si Si4 0.621933 0.916519 0.673099
Si Si5 0.784204 0.250621 0.183137
O O1 0.540793 0.646508 0.644818
O O2 0.750333 0.493794 0.644250
O O3 0.735185 0.638514 0.760671
O O4 0.803942 0.713685 0.623426
O O5 0.500000 0.500000 0.882821
O O6 0.391715 0.289665 0.884408
O O7 0.649760 0.309200 0.854096
O O8 0.557352 0.363284 0.000000
O O9 0.561337 0.302865 0.500000
O O10 0.448555 0.154365 0.601155
O O11 0.655355 0.837050 0.749428
O O12 0.500000 0.000000 0.700905
#
# Coordination Sequence:
#
# PCOD9426605 Si02
#       5
#     8   8   8   8   8
#     4  10  20  35  55  79 106 144 191 235 284 339
#     4  11  24  40  61  90 121 154 191 239 301 358
#     4  10  20  33  51  77 109 144 183 231 285 339
#     4   9  19  34  56  82 106 146 199 239 284 340
#     4  11  21  39  62  83 116 152 194 243 289 355
#
# _framework density 21.476388
#
# number of rings (size 3 to 8) (size 9 to 14) (size 15 to 20)
#    0.000    1.800    0.000    6.000    0.000    4.400 
#    0.000    3.000    0.000   12.000    0.000    0.000 
#    0.000    0.000    0.000    0.000    0.000    0.000 
#
# Total GULP energy -223207.766776 kJ/mol
# GULP energy per Si atom -5580.194169 kJ/mol
# Density = 2.142751 g / cm^3
# Si number density = 21.476388 Si / 1000 Ang^3
#
#
#
# Elastic Constant Matrix: (Units=GPa)
#
#
# Indices 1 2 3 4 5 6 
#
# 1 97.2006 15.4812 16.7754 0.0000 0.0000 0.0000
# 2 15.4812 38.7693 -7.7059 0.0000 0.0000 0.0000
# 3 16.7754 -7.7059 78.6293 0.0000 0.0000 0.0000
# 4 0.0000 0.0000 0.0000 8.3324 0.0000 0.0000
# 5 0.0000 0.0000 0.0000 0.0000 27.7007 0.0000
# 6 0.0000 0.0000 0.0000 0.0000 0.0000 35.0431
#
#
#
# Elastic Compliance Matrix: (Units=1/GPa)
#
#
# Indices 1 2 3 4 5 6 
#
# 1 0.011641 -0.005244 -0.002997 0.000000 0.000000 0.000000
# 2 -0.005244 0.028668 0.003928 0.000000 0.000000 0.000000
# 3 -0.002997 0.003928 0.013742 0.000000 0.000000 0.000000
# 4 0.000000 0.000000 0.000000 0.120013 0.000000 0.000000
# 5 0.000000 0.000000 0.000000 0.000000 0.036100 0.000000
# 6 0.000000 0.000000 0.000000 0.000000 0.000000 0.028536
#
#
# Mechanical properties :
#
#
# Convention : Reuss Voigt Hill
#
# Bulk Modulus (GPa) = 22.01418 29.30007 25.65712
# Shear Modulus (GPa) = 19.04987 26.88515 22.96751
#
# Velocity S-wave (km/s) = 2.98151 3.54198 3.27376
# Velocity P-wave (km/s) = 4.70374 5.51363 5.12471
#
# Compressibility (1/GPa) = 0.04542527
#
# Stress axis : x y z
#
# Youngs Moduli (GPa) = 85.90671 34.88158 72.76754
#
# Poissons Ratio (x) = 0.18292 0.21811
# Poissons Ratio (y) = 0.45050 -0.28586
# Poissons Ratio (z) = 0.25750 -0.13703
#
# Static dielectric constant tensor:
#      x y z
#    x 1.806600 0.000000 0.000000 
#    y 0.000000 1.872110 0.000000 
#    z 0.000000 0.000000 1.753520 
# 
# From -- ./inp_files/18153.got.cif
#   From: 2010.05.17/outbox.cif.g08.bks.cpg/sg55_10_cif.got.tgz:18153.got - 2010.06.03 13:27:54.
