data_PCOD9426710
_publ_section_title
;
Structure prediction by ZEFSAII (Michael W. Deem and Ramdas Pophale) SiO2 
 PCOD9426710
Probable space group: P B A M
;
_chemical_formula_sum "Si O2"
_cell_formula_units_Z 64
_cell_length_a 18.114231
_cell_length_b 19.882411
_cell_length_c 7.869170
_cell_angle_alpha 90.000000
_cell_angle_beta 90.000000
_cell_angle_gamma 90.000000
_cell_volume 2834.117661
_symmetry_space_group_name_H-M "P B A M"
_symmetry_group_IT_number 55
_symmetry_cell_setting 'orthorhombic'
loop_
_space_group_symop_operation_xyz
x,y,z
-x,-y,z
1/2+x,1/2-y,-z
1/2-x,1/2+y,-z
-x,-y,-z
x,y,-z
1/2-x,1/2+y,z
1/2+x,1/2-y,z
loop_
_atom_site_type_symbol
_atom_site_label
_atom_site_fract_x
_atom_site_fract_y
_atom_site_fract_z
Si Si1 0.773349 0.550600 0.203929
Si Si2 0.998798 0.901218 0.200430
Si Si3 0.724847 0.796094 0.704227
Si Si4 0.878280 0.990953 0.792367
Si Si5 0.589369 0.720887 0.689284
Si Si6 0.002165 0.655909 0.200715
Si Si7 0.165533 0.310992 0.795625
Si Si8 0.632216 0.927287 0.296399
O O1 0.700731 0.513209 0.273444
O O2 0.785314 0.626156 0.269398
O O3 0.840158 0.500112 0.239463
O O4 0.765849 0.556565 0.000000
O O5 0.031464 0.828566 0.227359
O O6 0.918007 0.922151 0.266234
O O7 0.062290 0.952494 0.259362
O O8 0.994446 0.912326 0.000000
O O9 0.717978 0.797591 0.500000
O O10 0.667249 0.739371 0.773584
O O11 0.803964 0.762464 0.742848
O O12 0.692334 0.868865 0.762840
O O13 0.871963 0.989955 0.000000
O O14 0.602845 0.695032 0.500000
O O15 0.549371 0.792100 0.689653
O O16 0.050190 0.588855 0.228166
O O17 0.917594 0.666901 0.252138
O O18 0.007026 0.672618 0.000000
O O19 0.167387 0.310666 0.000000
O O20 0.630966 0.925346 0.500000
#
# Coordination Sequence:
#
# PCOD9426710 Si02
#       8
#     8   8   8   8   8   8   8   8
#     4  10  20  36  56  80 110 145 182 227 277 325
#     4   9  16  30  52  77 105 141 180 220 264 317
#     4   9  20  37  56  78 109 144 179 219 268 322
#     4   8  16  30  50  76 106 139 180 222 264 318
#     4  10  20  34  52  78 108 139 175 217 264 322
#     4  10  21  38  57  79 105 137 177 224 273 323
#     4  10  22  37  58  87 112 136 180 231 273 321
#     4  10  22  40  58  81 111 146 186 226 269 325
#
# _framework density 22.581983000000001
#
# number of rings (size 3 to 8) (size 9 to 14) (size 15 to 20)
#    0.000    2.500    0.000    3.375    0.000    7.000 
#    0.000    8.750    0.000    0.000    0.000    0.000 
#    0.000    0.000    0.000    0.000    0.000    0.000 
#
# Total GULP energy -356581.766373 kJ/mol
# GULP energy per Si atom -5571.590100 kJ/mol
# Density = 2.253059 g / cm^3
# Si number density = 22.581983 Si / 1000 Ang^3
#
#
#
# Elastic Constant Matrix: (Units=GPa)
#
#
# Indices 1 2 3 4 5 6 
#
# 1 52.8720 -12.6825 1.9242 0.0000 0.0000 0.0000
# 2 -12.6825 40.1235 -6.4110 0.0000 0.0000 0.0000
# 3 1.9242 -6.4110 20.9762 0.0000 0.0000 0.0000
# 4 0.0000 0.0000 0.0000 29.9591 0.0000 0.0000
# 5 0.0000 0.0000 0.0000 0.0000 30.5373 0.0000
# 6 0.0000 0.0000 0.0000 0.0000 0.0000 18.2887
#
#
#
# Elastic Compliance Matrix: (Units=1/GPa)
#
#
# Indices 1 2 3 4 5 6 
#
# 1 0.020465 0.006486 0.000105 0.000000 0.000000 0.000000
# 2 0.006486 0.028258 0.008042 0.000000 0.000000 0.000000
# 3 0.000105 0.008042 0.050121 0.000000 0.000000 0.000000
# 4 0.000000 0.000000 0.000000 0.033379 0.000000 0.000000
# 5 0.000000 0.000000 0.000000 0.000000 0.032747 0.000000
# 6 0.000000 0.000000 0.000000 0.000000 0.000000 0.054678
#
#
# Mechanical properties :
#
#
# Convention : Reuss Voigt Hill
#
# Bulk Modulus (GPa) = 7.80587 8.84814 8.32700
# Shear Modulus (GPa) = 21.45118 24.49977 22.97547
#
# Velocity S-wave (km/s) = 3.08543 3.29739 3.19317
# Velocity P-wave (km/s) = 4.01962 4.29230 4.15819
#
# Compressibility (1/GPa) = 0.12810874
#
# Stress axis : x y z
#
# Youngs Moduli (GPa) = 48.86277 35.38830 19.95165
#
# Poissons Ratio (x) = -0.22951 -0.00209
# Poissons Ratio (y) = -0.31690 -0.16044
# Poissons Ratio (z) = -0.00512 -0.28458
#
# Static dielectric constant tensor:
#      x y z
#    x 1.917030 0.000000 0.000000 
#    y 0.000000 1.956800 0.000000 
#    z 0.000000 0.000000 1.829770 
# 
# From -- ./inp_files/7953.got.cif
#   From: 2010.05.17/outbox.cif.g08.bks.cpg/sg55_4_cif.got.tgz:7953.got - 2010.06.03 13:27:54.
