data_PCOD9426989
_publ_section_title
;
Structure prediction by ZEFSAII (Michael W. Deem and Ramdas Pophale) SiO2 
 PCOD9426989
Probable space group: P B A M
;
_chemical_formula_sum "Si O2"
_cell_formula_units_Z 64
_cell_length_a 15.614460
_cell_length_b 24.649682
_cell_length_c 8.699519
_cell_angle_alpha 90.000000
_cell_angle_beta 90.000000
_cell_angle_gamma 90.000000
_cell_volume 3348.370688
_symmetry_space_group_name_H-M "P B A M"
_symmetry_group_IT_number 55
_symmetry_cell_setting 'orthorhombic'
loop_
_space_group_symop_operation_xyz
x,y,z
-x,-y,z
1/2+x,1/2-y,-z
1/2-x,1/2+y,-z
-x,-y,-z
x,y,-z
1/2-x,1/2+y,z
1/2+x,1/2-y,z
loop_
_atom_site_type_symbol
_atom_site_label
_atom_site_fract_x
_atom_site_fract_y
_atom_site_fract_z
Si Si1 0.348968 0.071392 0.819651
Si Si2 0.803208 0.311910 0.683934
Si Si3 0.695122 0.043272 0.318566
Si Si4 0.375076 0.459104 0.814176
Si Si5 0.039354 0.389833 0.179857
Si Si6 0.875090 0.805786 0.816252
Si Si7 0.010725 0.724083 0.682240
Si Si8 0.061416 0.077575 0.813635
O O1 0.312941 0.128373 0.758383
O O2 0.451904 0.075629 0.803645
O O3 0.315423 0.019563 0.729499
O O4 0.327272 0.065628 0.000000
O O5 0.803081 0.317161 0.500000
O O6 0.714228 0.287380 0.741833
O O7 0.888910 0.278739 0.727762
O O8 0.686381 0.049369 0.500000
O O9 0.788694 0.061323 0.262139
O O10 0.620638 0.076561 0.234667
O O11 0.391994 0.521929 0.767723
O O12 0.461555 0.427357 0.770034
O O13 0.367041 0.457534 0.000000
O O14 0.026279 0.335213 0.276548
O O15 0.047007 0.375529 0.000000
O O16 0.953981 0.768125 0.768777
O O17 0.895351 0.867108 0.761041
O O18 0.865872 0.806196 0.000000
O O19 0.005429 0.733325 0.500000
O O20 0.063027 0.077807 0.000000
#
# Coordination Sequence:
#
# PCOD9426989 Si02
#       8
#     8   8   8   8   8   8   8   8
#     4  10  20  35  57  83 111 145 191 240 282 337
#     4  10  21  38  60  86 116 151 190 238 296 348
#     4  12  23  33  50  82 118 153 188 225 279 347
#     4   9  17  35  58  79 111 149 187 232 281 331
#     4  10  21  38  58  79 107 146 190 237 287 337
#     4  11  21  36  61  90 116 149 197 242 285 343
#     4  10  22  41  60  82 115 152 190 240 295 344
#     4   8  17  34  58  84 108 142 187 238 282 324
#
# _framework density 19.113772999999998
#
# number of rings (size 3 to 8) (size 9 to 14) (size 15 to 20)
#    0.000    2.000    0.000    4.875    0.000    5.500 
#    2.250    3.125    0.000    0.000    0.000    0.000 
#    0.000    0.000    0.000    0.000    0.000    0.000 
#
# Total GULP energy -357521.010369 kJ/mol
# GULP energy per Si atom -5586.265787 kJ/mol
# Density = 1.907027 g / cm^3
# Si number density = 19.113773 Si / 1000 Ang^3
#
#
#
# Elastic Constant Matrix: (Units=GPa)
#
#
# Indices 1 2 3 4 5 6 
#
# 1 120.6894 31.5255 22.4733 0.0000 0.0000 0.0000
# 2 31.5255 20.2837 -2.2366 0.0000 0.0000 0.0000
# 3 22.4733 -2.2366 31.5778 0.0000 0.0000 0.0000
# 4 0.0000 0.0000 0.0000 24.9899 0.0000 0.0000
# 5 0.0000 0.0000 0.0000 0.0000 25.0640 0.0000
# 6 0.0000 0.0000 0.0000 0.0000 0.0000 14.0780
#
#
#
# Elastic Compliance Matrix: (Units=1/GPa)
#
#
# Indices 1 2 3 4 5 6 
#
# 1 0.019921 -0.032780 -0.016499 0.000000 0.000000 0.000000
# 2 -0.032780 0.103631 0.030669 0.000000 0.000000 0.000000
# 3 -0.016499 0.030669 0.045582 0.000000 0.000000 0.000000
# 4 0.000000 0.000000 0.000000 0.040016 0.000000 0.000000
# 5 0.000000 0.000000 0.000000 0.000000 0.039898 0.000000
# 6 0.000000 0.000000 0.000000 0.000000 0.000000 0.071033
#
#
# Mechanical properties :
#
#
# Convention : Reuss Voigt Hill
#
# Bulk Modulus (GPa) = 7.58077 30.67504 19.12790
# Shear Modulus (GPa) = 12.46041 20.87897 16.66969
#
# Velocity S-wave (km/s) = 2.55602 3.30866 2.95639
# Velocity P-wave (km/s) = 3.56170 5.53894 4.65647
#
# Compressibility (1/GPa) = 0.13191276
#
# Stress axis : x y z
#
# Youngs Moduli (GPa) = 50.19942 9.64966 21.93855
#
# Poissons Ratio (x) = 0.31632 0.36196
# Poissons Ratio (y) = 1.64555 -0.67283
# Poissons Ratio (z) = 0.82823 -0.29595
#
# Static dielectric constant tensor:
#      x y z
#    x 1.672840 0.000000 0.000000 
#    y 0.000000 1.644560 0.000000 
#    z 0.000000 0.000000 1.638390 
# 
# From -- ./inp_files/6642.got.cif
#   From: 2010.05.17/outbox.cif.g08.bks.cpg/sg55_4_cif.got.tgz:6642.got - 2010.06.03 13:27:54.
