data_PCOD9426855
_publ_section_title
;
Structure prediction by ZEFSAII (Michael W. Deem and Ramdas Pophale) SiO2 
 PCOD9426855
Probable space group: P B A M
;
_chemical_formula_sum "Si O2"
_cell_formula_units_Z 64
_cell_length_a 33.258976
_cell_length_b 11.087607
_cell_length_c 7.872003
_cell_angle_alpha 90.000000
_cell_angle_beta 90.000000
_cell_angle_gamma 90.000000
_cell_volume 2902.899153
_symmetry_space_group_name_H-M "P B A M"
_symmetry_group_IT_number 55
_symmetry_cell_setting 'orthorhombic'
loop_
_space_group_symop_operation_xyz
x,y,z
-x,-y,z
1/2+x,1/2-y,-z
1/2-x,1/2+y,-z
-x,-y,-z
x,y,-z
1/2-x,1/2+y,z
1/2+x,1/2-y,z
loop_
_atom_site_type_symbol
_atom_site_label
_atom_site_fract_x
_atom_site_fract_y
_atom_site_fract_z
Si Si1 0.882817 0.982140 0.199770
Si Si2 0.872099 0.252678 0.701758
Si Si3 0.303375 0.639458 0.802624
Si Si4 0.090540 0.503573 0.690827
Si Si5 0.831701 0.589029 0.811372
Si Si6 0.214554 0.643365 0.198666
Si Si7 0.017923 0.375894 0.193409
Si Si8 0.530077 0.391639 0.208464
O O1 0.883933 0.126098 0.217567
O O2 0.839729 0.939300 0.273764
O O3 0.924214 0.922332 0.265623
O O4 0.881376 0.949522 0.000000
O O5 0.877433 0.243886 0.500000
O O6 0.901007 0.362310 0.761206
O O7 0.825280 0.288873 0.733529
O O8 0.320242 0.773845 0.805851
O O9 0.258982 0.653545 0.724325
O O10 0.297130 0.597105 0.000000
O O11 0.073998 0.511935 0.500000
O O12 0.134415 0.446339 0.681775
O O13 0.064475 0.412956 0.801318
O O14 0.794945 0.498638 0.788914
O O15 0.847987 0.560409 0.000000
O O16 0.216774 0.680050 0.000000
O O17 0.015140 0.241100 0.267043
O O18 0.000000 0.500000 0.270628
O O19 0.002348 0.369281 0.000000
O O20 0.500000 0.500000 0.257062
O O21 0.530679 0.387599 0.000000
#
# Coordination Sequence:
#
# PCOD9426855 Si02
#       8
#     8   8   8   8   8   8   8   8
#     4  10  20  34  58  84 112 152 192 233 288 345
#     4  10  22  38  54  78 114 151 191 236 282 337
#     4   9  18  31  53  84 111 138 182 236 285 336
#     4  10  21  37  56  77 109 148 187 232 281 335
#     4   9  17  32  54  78 105 138 178 228 279 331
#     4   9  18  32  54  81 108 142 184 231 282 340
#     4  10  21  36  61  93 118 143 187 237 283 343
#     4   9  19  36  58  89 126 154 184 236 296 345
#
# _framework density 22.046924000000001
#
# number of rings (size 3 to 8) (size 9 to 14) (size 15 to 20)
#    0.000    2.500    0.000    1.500    3.500    3.750 
#    0.000    3.750    0.000    0.750    0.000    0.000 
#    0.000    0.000    0.000    0.000    0.000    0.000 
#
# Total GULP energy -356594.627763 kJ/mol
# GULP energy per Si atom -5571.791059 kJ/mol
# Density = 2.199674 g / cm^3
# Si number density = 22.046924 Si / 1000 Ang^3
#
#
#
# Elastic Constant Matrix: (Units=GPa)
#
#
# Indices 1 2 3 4 5 6 
#
# 1 52.3000 36.4943 10.3998 0.0000 0.0000 0.0000
# 2 36.4943 132.5789 4.5989 0.0000 0.0000 0.0000
# 3 10.3998 4.5989 30.3168 0.0000 0.0000 0.0000
# 4 0.0000 0.0000 0.0000 -43.3073 0.0000 0.0000
# 5 0.0000 0.0000 0.0000 0.0000 307.0424 0.0000
# 6 0.0000 0.0000 0.0000 0.0000 0.0000 -2.7291
#
#
#
# Elastic Compliance Matrix: (Units=1/GPa)
#
#
# Indices 1 2 3 4 5 6 
#
# 1 0.025324 -0.006705 -0.007670 0.000000 0.000000 0.000000
# 2 -0.006705 0.009358 0.000880 0.000000 0.000000 0.000000
# 3 -0.007670 0.000880 0.035483 0.000000 0.000000 0.000000
# 4 0.000000 0.000000 0.000000 -0.023091 0.000000 0.000000
# 5 0.000000 0.000000 0.000000 0.000000 0.003257 0.000000
# 6 0.000000 0.000000 0.000000 0.000000 0.000000 -0.366417
#
#
# Mechanical properties :
#
#
# Convention : Reuss Voigt Hill
#
# Bulk Modulus (GPa) = 23.16115 35.35351 29.25733
# Shear Modulus (GPa) = -18.20128 63.11470 22.45671
#
# Velocity S-wave (km/s) = -2.87639 5.35627 3.19499
# Velocity P-wave (km/s) = 0.70944 7.37043 5.18748
#
# Compressibility (1/GPa) = 0.04317575
#
# Stress axis : x y z
#
# Youngs Moduli (GPa) = 39.48791 106.86344 28.18280
#
# Poissons Ratio (x) = 0.71650 0.21616
# Poissons Ratio (y) = 0.26476 -0.02481
# Poissons Ratio (z) = 0.30288 -0.09409
#
# Static dielectric constant tensor:
#      x y z
#    x 1.933050 0.000000 0.000000 
#    y 0.000000 1.794880 0.000000 
#    z 0.000000 0.000000 1.851160 
# 
# From -- ./inp_files/10806.got.cif
#   From: 2010.05.17/outbox.cif.g08.bks.cpg/sg55_6_cif.got.tgz:10806.got - 2010.06.03 13:27:54.
