data_PCOD9426663
_publ_section_title
;
Structure prediction by ZEFSAII (Michael W. Deem and Ramdas Pophale) SiO2 
 PCOD9426663
Probable space group: P B A M
;
_chemical_formula_sum "Si O2"
_cell_formula_units_Z 64
_cell_length_a 13.355338
_cell_length_b 17.327582
_cell_length_c 13.673781
_cell_angle_alpha 90.000000
_cell_angle_beta 90.000000
_cell_angle_gamma 90.000000
_cell_volume 3164.327798
_symmetry_space_group_name_H-M "P B A M"
_symmetry_group_IT_number 55
_symmetry_cell_setting 'orthorhombic'
loop_
_space_group_symop_operation_xyz
x,y,z
-x,-y,z
1/2+x,1/2-y,-z
1/2-x,1/2+y,-z
-x,-y,-z
x,y,-z
1/2-x,1/2+y,z
1/2+x,1/2-y,z
loop_
_atom_site_type_symbol
_atom_site_label
_atom_site_fract_x
_atom_site_fract_y
_atom_site_fract_z
Si Si1 0.014963 0.283871 0.889681
Si Si2 0.328671 0.713709 0.260283
Si Si3 0.824417 0.647006 0.387158
Si Si4 0.850095 0.389544 0.805425
Si Si5 0.749770 0.037638 0.784054
Si Si6 0.458094 0.087152 0.392164
Si Si7 0.417407 0.380614 0.110521
Si Si8 0.564241 0.435755 0.717615
O O1 0.945555 0.355360 0.860664
O O2 0.940835 0.209898 0.887085
O O3 0.102101 0.263963 0.812979
O O4 0.054259 0.291071 0.000000
O O5 0.287369 0.772677 0.340965
O O6 0.244970 0.668541 0.196379
O O7 0.397843 0.648687 0.313571
O O8 0.792791 0.634764 0.500000
O O9 0.791740 0.581428 0.310484
O O10 0.945495 0.642756 0.386806
O O11 0.824896 0.477456 0.835370
O O12 0.881270 0.394893 0.692038
O O13 0.806500 0.097377 0.854262
O O14 0.836079 0.980353 0.746664
O O15 0.412851 0.092222 0.500000
O O16 0.500000 0.000000 0.380624
O O17 0.495914 0.416845 0.187224
O O18 0.434205 0.408513 0.000000
O O19 0.500000 0.500000 0.658421
#
# Coordination Sequence:
#
# PCOD9426663 Si02
#       8
#     8   8   8   8   8   8   8   8
#     4  10  21  38  58  82 117 157 196 242 296 351
#     4  10  21  37  60  87 117 154 198 244 288 352
#     4  11  22  38  59  82 112 152 194 239 291 351
#     4  11  21  36  60  87 117 154 195 241 294 345
#     4  10  20  33  56  87 117 150 197 246 286 347
#     4  10  20  37  62  85 110 149 194 236 289 354
#     4   9  18  35  59  85 117 157 199 244 294 350
#     4   8  17  34  57  84 117 154 192 242 296 338
#
# _framework density 20.225463000000001
#
# number of rings (size 3 to 8) (size 9 to 14) (size 15 to 20)
#    0.000    2.125    2.500    0.750    0.000    3.750 
#    0.000    6.250    0.000    4.875    0.000    0.000 
#    0.000    0.000    0.000    0.000    0.000    0.000 
#
# Total GULP energy -356651.089957 kJ/mol
# GULP energy per Si atom -5572.673281 kJ/mol
# Density = 2.017943 g / cm^3
# Si number density = 20.225463 Si / 1000 Ang^3
#
#
#
# Elastic Constant Matrix: (Units=GPa)
#
#
# Indices 1 2 3 4 5 6 
#
# 1 40.7824 1.7501 21.8579 0.0000 0.0000 0.0000
# 2 1.7501 56.7072 30.3060 0.0000 0.0000 0.0000
# 3 21.8579 30.3060 52.7897 0.0000 0.0000 0.0000
# 4 0.0000 0.0000 0.0000 12.7601 0.0000 0.0000
# 5 0.0000 0.0000 0.0000 0.0000 16.6023 0.0000
# 6 0.0000 0.0000 0.0000 0.0000 0.0000 29.0189
#
#
#
# Elastic Compliance Matrix: (Units=1/GPa)
#
#
# Indices 1 2 3 4 5 6 
#
# 1 0.034764 0.009550 -0.019877 0.000000 0.000000 0.000000
# 2 0.009550 0.028063 -0.020065 0.000000 0.000000 0.000000
# 3 -0.019877 -0.020065 0.038692 0.000000 0.000000 0.000000
# 4 0.000000 0.000000 0.000000 0.078369 0.000000 0.000000
# 5 0.000000 0.000000 0.000000 0.000000 0.060233 0.000000
# 6 0.000000 0.000000 0.000000 0.000000 0.000000 0.034460
#
#
# Mechanical properties :
#
#
# Convention : Reuss Voigt Hill
#
# Bulk Modulus (GPa) = 24.54856 28.67860 26.61358
# Shear Modulus (GPa) = 14.32901 18.10062 16.21481
#
# Velocity S-wave (km/s) = 2.66459 2.99480 2.83451
# Velocity P-wave (km/s) = 4.65086 5.11553 4.88872
#
# Compressibility (1/GPa) = 0.04073558
#
# Stress axis : x y z
#
# Youngs Moduli (GPa) = 28.76563 35.63423 25.84512
#
# Poissons Ratio (x) = -0.34030 0.51371
# Poissons Ratio (y) = -0.27470 0.51858
# Poissons Ratio (z) = 0.57176 0.71499
#
# Static dielectric constant tensor:
#      x y z
#    x 1.749600 0.000000 0.000000 
#    y 0.000000 1.801710 0.000000 
#    z 0.000000 0.000000 1.698970 
# 
# From -- ./inp_files/14425.got.cif
#   From: 2010.05.17/outbox.cif.g08.bks.cpg/sg55_8_cif.got.tgz:14425.got - 2010.06.03 13:27:54.
