data_PCOD9426955
_publ_section_title
;
Structure prediction by ZEFSAII (Michael W. Deem and Ramdas Pophale) SiO2 
 PCOD9426955
Probable space group: P B A M
;
_chemical_formula_sum "Si O2"
_cell_formula_units_Z 56
_cell_length_a 22.094551
_cell_length_b 14.882700
_cell_length_c 9.074782
_cell_angle_alpha 90.000000
_cell_angle_beta 90.000000
_cell_angle_gamma 90.000000
_cell_volume 2984.029476
_symmetry_space_group_name_H-M "P B A M"
_symmetry_group_IT_number 55
_symmetry_cell_setting 'orthorhombic'
loop_
_space_group_symop_operation_xyz
x,y,z
-x,-y,z
1/2+x,1/2-y,-z
1/2-x,1/2+y,-z
-x,-y,-z
x,y,-z
1/2-x,1/2+y,z
1/2+x,1/2-y,z
loop_
_atom_site_type_symbol
_atom_site_label
_atom_site_fract_x
_atom_site_fract_y
_atom_site_fract_z
Si Si1 0.376056 0.297900 0.825986
Si Si2 0.042133 0.624448 0.169382
Si Si3 0.638663 0.341725 0.676766
Si Si4 0.720825 0.824130 0.676752
Si Si5 0.071138 0.990999 0.821718
Si Si6 0.862552 0.491163 0.674418
Si Si7 0.598829 0.162593 0.171961
O O1 0.428375 0.222638 0.807809
O O2 0.317272 0.257353 0.746289
O O3 0.401065 0.394457 0.776877
O O4 0.363078 0.303929 0.000000
O O5 0.074887 0.557490 0.280384
O O6 0.970605 0.630453 0.184096
O O7 0.056397 0.596349 0.000000
O O8 0.634708 0.346919 0.500000
O O9 0.709217 0.329879 0.718556
O O10 0.608990 0.429335 0.748496
O O11 0.605698 0.253768 0.738024
O O12 0.716825 0.816019 0.500000
O O13 0.687858 0.917738 0.717914
O O14 0.074869 0.997578 0.000000
O O15 0.000000 0.000000 0.782784
O O16 0.859522 0.506800 0.500000
O O17 0.859674 0.584452 0.760453
O O18 0.612088 0.177652 0.000000
#
# Coordination Sequence:
#
# PCOD9426955 Si02
#       7
#     8   8   8   8   8   8   8
#     4   9  18  34  59  85 108 142 186 226 268 329
#     4   9  18  34  55  81 113 145 177 216 266 324
#     4  11  24  40  57  79 109 146 189 234 278 329
#     4   9  21  40  57  77 110 148 183 227 282 330
#     4  10  21  39  61  86 117 150 185 231 288 341
#     4  10  20  35  56  82 112 145 181 221 267 323
#     4  11  22  36  55  80 111 145 179 221 275 326
#
# _framework density 18.766570999999999
#
# number of rings (size 3 to 8) (size 9 to 14) (size 15 to 20)
#    0.000    2.143    0.000    2.571    0.000    8.857 
#    0.000    7.143    0.000    0.000    0.000    0.000 
#    0.000    0.000    0.000    0.000    0.000    0.000 
#
# Total GULP energy -312704.047967 kJ/mol
# GULP energy per Si atom -5584.000857 kJ/mol
# Density = 1.872386 g / cm^3
# Si number density = 18.766571 Si / 1000 Ang^3
#
#
#
# Elastic Constant Matrix: (Units=GPa)
#
#
# Indices 1 2 3 4 5 6 
#
# 1 65.5950 15.5384 24.6636 0.0000 0.0000 0.0000
# 2 15.5384 100.5236 24.0482 0.0000 0.0000 0.0000
# 3 24.6636 24.0482 30.2583 0.0000 0.0000 0.0000
# 4 0.0000 0.0000 0.0000 26.4407 0.0000 0.0000
# 5 0.0000 0.0000 0.0000 0.0000 27.9606 0.0000
# 6 0.0000 0.0000 0.0000 0.0000 0.0000 13.1908
#
#
#
# Elastic Compliance Matrix: (Units=1/GPa)
#
#
# Indices 1 2 3 4 5 6 
#
# 1 0.022080 0.001102 -0.018874 0.000000 0.000000 0.000000
# 2 0.001102 0.012338 -0.010704 0.000000 0.000000 0.000000
# 3 -0.018874 -0.010704 0.056940 0.000000 0.000000 0.000000
# 4 0.000000 0.000000 0.000000 0.037821 0.000000 0.000000
# 5 0.000000 0.000000 0.000000 0.000000 0.035765 0.000000
# 6 0.000000 0.000000 0.000000 0.000000 0.000000 0.075810
#
#
# Mechanical properties :
#
#
# Convention : Reuss Voigt Hill
#
# Bulk Modulus (GPa) = 29.06384 36.09747 32.58065
# Shear Modulus (GPa) = 16.17205 22.32686 19.24946
#
# Velocity S-wave (km/s) = 2.93874 3.45297 3.20618
# Velocity P-wave (km/s) = 5.19957 5.93077 5.57717
#
# Compressibility (1/GPa) = 0.03440701
#
# Stress axis : x y z
#
# Youngs Moduli (GPa) = 45.28884 81.04804 17.56230
#
# Poissons Ratio (x) = -0.08932 0.33147
# Poissons Ratio (y) = -0.04991 0.18799
# Poissons Ratio (z) = 0.85477 0.86757
#
# Static dielectric constant tensor:
#      x y z
#    x 1.650310 0.000000 0.000000 
#    y 0.000000 1.646680 0.000000 
#    z 0.000000 0.000000 1.629160 
# 
# From -- ./inp_files/6127.got.cif
#   From: 2010.05.17/outbox.cif.g08.bks.cpg/sg55_4_cif.got.tgz:6127.got - 2010.06.03 13:27:54.
