data_PCOD9426572
_publ_section_title
;
Structure prediction by ZEFSAII (Michael W. Deem and Ramdas Pophale) SiO2 
 PCOD9426572
Probable space group: P B A M
;
_chemical_formula_sum "Si O2"
_cell_formula_units_Z 48
_cell_length_a 24.277313
_cell_length_b 13.865099
_cell_length_c 9.000619
_cell_angle_alpha 90.000000
_cell_angle_beta 90.000000
_cell_angle_gamma 90.000000
_cell_volume 3029.674494
_symmetry_space_group_name_H-M "P B A M"
_symmetry_group_IT_number 55
_symmetry_cell_setting 'orthorhombic'
loop_
_space_group_symop_operation_xyz
x,y,z
-x,-y,z
1/2+x,1/2-y,-z
1/2-x,1/2+y,-z
-x,-y,-z
x,y,-z
1/2-x,1/2+y,z
1/2+x,1/2-y,z
loop_
_atom_site_type_symbol
_atom_site_label
_atom_site_fract_x
_atom_site_fract_y
_atom_site_fract_z
Si Si1 0.227748 0.107813 0.676919
Si Si2 0.832757 0.293883 0.176931
Si Si3 0.436168 0.886731 0.322111
Si Si4 0.936559 0.386371 0.677844
Si Si5 0.835094 0.718741 0.823037
Si Si6 0.773715 0.095811 0.824061
O O1 0.228837 0.114089 0.500000
O O2 0.286713 0.140826 0.743078
O O3 0.183891 0.183276 0.743544
O O4 0.216321 0.999718 0.730894
O O5 0.892258 0.323078 0.236459
O O6 0.816034 0.182986 0.206754
O O7 0.828516 0.308944 0.000000
O O8 0.429429 0.875365 0.500000
O O9 0.499810 0.863966 0.285642
O O10 0.392187 0.822406 0.237147
O O11 0.427303 0.000194 0.288347
O O12 0.929859 0.374857 0.500000
O O13 0.786637 0.640751 0.792325
O O14 0.836370 0.733621 0.000000
O O15 0.776034 0.073247 0.000000
#
# Coordination Sequence:
#
# PCOD9426572 Si02
#       6
#     8   8   8   8   8   8
#     4  11  21  32  50  73  97 127 161 198 240 286
#     4  10  20  33  50  72  99 129 160 197 240 286
#     4   9  18  32  49  72 101 131 162 196 237 283
#     4   9  18  32  50  72 100 131 161 197 238 282
#     4  10  20  33  50  72  99 130 161 197 240 285
#     4   9  19  34  49  69  98 128 158 195 239 286
#
# _framework density 15.843285
#
# number of rings (size 3 to 8) (size 9 to 14) (size 15 to 20)
#    0.000    2.333    0.000    5.500    0.000    8.000 
#    0.000    1.667    0.000    1.000    0.000    7.000 
#    0.000    0.000    0.000    0.000    0.000    0.000 
#
# Total GULP energy -267864.557332 kJ/mol
# GULP energy per Si atom -5580.511611 kJ/mol
# Density = 1.580723 g / cm^3
# Si number density = 15.843285 Si / 1000 Ang^3
#
#
#
# Elastic Constant Matrix: (Units=GPa)
#
#
# Indices 1 2 3 4 5 6 
#
# 1 119.7145 77.8013 70.4174 0.0000 0.0000 0.0000
# 2 77.8013 105.5128 76.9481 0.0000 0.0000 0.0000
# 3 70.4174 76.9481 87.4154 0.0000 0.0000 0.0000
# 4 0.0000 0.0000 0.0000 26.7762 0.0000 0.0000
# 5 0.0000 0.0000 0.0000 0.0000 28.2585 0.0000
# 6 0.0000 0.0000 0.0000 0.0000 0.0000 18.4449
#
#
#
# Elastic Compliance Matrix: (Units=1/GPa)
#
#
# Indices 1 2 3 4 5 6 
#
# 1 0.017740 -0.007427 -0.007753 0.000000 0.000000 0.000000
# 2 -0.007427 0.029579 -0.020055 0.000000 0.000000 0.000000
# 3 -0.007753 -0.020055 0.035338 0.000000 0.000000 0.000000
# 4 0.000000 0.000000 0.000000 0.037347 0.000000 0.000000
# 5 0.000000 0.000000 0.000000 0.000000 0.035388 0.000000
# 6 0.000000 0.000000 0.000000 0.000000 0.000000 0.054216
#
#
# Mechanical properties :
#
#
# Convention : Reuss Voigt Hill
#
# Bulk Modulus (GPa) = 82.04339 84.77516 83.40928
# Shear Modulus (GPa) = 17.59695 20.52764 19.06230
#
# Velocity S-wave (km/s) = 3.33631 3.60344 3.47245
# Velocity P-wave (km/s) = 8.16934 8.42246 8.29686
#
# Compressibility (1/GPa) = 0.01218867
#
# Stress axis : x y z
#
# Youngs Moduli (GPa) = 56.36855 33.80749 28.29779
#
# Poissons Ratio (x) = 0.25109 0.21940
# Poissons Ratio (y) = 0.41864 0.56750
# Poissons Ratio (z) = 0.43703 0.67800
#
# Static dielectric constant tensor:
#      x y z
#    x 1.513730 0.000000 0.000000 
#    y 0.000000 1.511100 0.000000 
#    z 0.000000 0.000000 1.524860 
# 
# From -- ./inp_files/4059.got.cif
#   From: 2010.05.17/outbox.cif.g08.bks.cpg/sg55_3_cif.got.tgz:4059.got - 2010.06.03 13:27:54.
