data_PCOD9426060
_publ_section_title
;
Structure prediction by ZEFSAII (Michael W. Deem and Ramdas Pophale) SiO2 
 PCOD9426060
Probable space group: P B A M
;
_chemical_formula_sum "Si O2"
_cell_formula_units_Z 64
_cell_length_a 12.177084
_cell_length_b 30.202399
_cell_length_c 8.300469
_cell_angle_alpha 90.000000
_cell_angle_beta 90.000000
_cell_angle_gamma 90.000000
_cell_volume 3052.722829
_symmetry_space_group_name_H-M "P B A M"
_symmetry_group_IT_number 55
_symmetry_cell_setting 'orthorhombic'
loop_
_space_group_symop_operation_xyz
x,y,z
-x,-y,z
1/2+x,1/2-y,-z
1/2-x,1/2+y,-z
-x,-y,-z
x,y,-z
1/2-x,1/2+y,z
1/2+x,1/2-y,z
loop_
_atom_site_type_symbol
_atom_site_label
_atom_site_fract_x
_atom_site_fract_y
_atom_site_fract_z
Si Si1 0.558643 0.937645 0.811155
Si Si2 0.280770 0.521398 0.688130
Si Si3 0.117910 0.109783 0.692161
Si Si4 0.687723 0.064716 0.806877
Si Si5 0.284252 0.835393 0.193952
Si Si6 0.164764 0.656090 0.188268
Si Si7 0.988452 0.723749 0.804645
Si Si8 0.045771 0.817793 0.692700
O O1 0.658204 0.959046 0.714621
O O2 0.436211 0.948078 0.753763
O O3 0.578150 0.884719 0.805374
O O4 0.570559 0.950976 0.000000
O O5 0.303959 0.516748 0.500000
O O6 0.358645 0.560321 0.757861
O O7 0.275100 0.472643 0.761532
O O8 0.105551 0.105076 0.500000
O O9 0.226749 0.139225 0.723484
O O10 0.015724 0.138059 0.755021
O O11 0.711720 0.113971 0.745232
O O12 0.681620 0.066738 0.000000
O O13 0.385671 0.805666 0.251150
O O14 0.168164 0.815224 0.240892
O O15 0.292217 0.836960 0.000000
O O16 0.100944 0.699264 0.248479
O O17 0.193687 0.662334 0.000000
O O18 0.982632 0.773676 0.745180
O O19 0.989629 0.723509 0.000000
O O20 0.048516 0.819817 0.500000
#
# Coordination Sequence:
#
# PCOD9426060 Si02
#       8
#     8   8   8   8   8   8   8   8
#     4   9  16  30  51  78 113 149 183 225 281 339
#     4  10  20  33  52  80 114 153 194 236 285 342
#     4   9  21  40  56  77 116 157 193 236 284 337
#     4  10  19  34  56  82 114 151 189 237 291 343
#     4  10  22  42  64  87 118 152 193 243 294 347
#     4   9  17  32  57  85 110 143 185 228 278 338
#     4  10  21  39  62  88 115 146 187 236 291 349
#     4  11  25  42  60  83 115 154 196 240 289 345
#
# _framework density 20.964888999999999
#
# number of rings (size 3 to 8) (size 9 to 14) (size 15 to 20)
#    0.000    2.250    1.250    1.125    1.750    5.000 
#    0.000    0.625    0.000    3.750    0.000    0.000 
#    0.000    0.000    0.000    0.000    0.000    0.000 
#
# Total GULP energy -357246.448846 kJ/mol
# GULP energy per Si atom -5581.975763 kJ/mol
# Density = 2.091717 g / cm^3
# Si number density = 20.964889 Si / 1000 Ang^3
#
#
#
# Elastic Constant Matrix: (Units=GPa)
#
#
# Indices 1 2 3 4 5 6 
#
# 1 33.0147 8.5864 -4.6913 0.0000 0.0000 0.0000
# 2 8.5864 92.1705 2.8490 0.0000 0.0000 0.0000
# 3 -4.6913 2.8490 4.6450 0.0000 0.0000 0.0000
# 4 0.0000 0.0000 0.0000 28.1918 0.0000 0.0000
# 5 0.0000 0.0000 0.0000 0.0000 19.7464 0.0000
# 6 0.0000 0.0000 0.0000 0.0000 0.0000 17.1993
#
#
#
# Elastic Compliance Matrix: (Units=1/GPa)
#
#
# Indices 1 2 3 4 5 6 
#
# 1 0.037281 -0.004727 0.040552 0.000000 0.000000 0.000000
# 2 -0.004727 0.011658 -0.011924 0.000000 0.000000 0.000000
# 3 0.040552 -0.011924 0.263555 0.000000 0.000000 0.000000
# 4 0.000000 0.000000 0.000000 0.035471 0.000000 0.000000
# 5 0.000000 0.000000 0.000000 0.000000 0.050642 0.000000
# 6 0.000000 0.000000 0.000000 0.000000 0.000000 0.058142
#
#
# Mechanical properties :
#
#
# Convention : Reuss Voigt Hill
#
# Bulk Modulus (GPa) = 2.77548 15.92427 9.34988
# Shear Modulus (GPa) = 9.45096 21.23325 15.34210
#
# Velocity S-wave (km/s) = 2.12551 3.18590 2.70811
# Velocity P-wave (km/s) = 2.71117 4.59842 3.77465
#
# Compressibility (1/GPa) = 0.36029747
#
# Stress axis : x y z
#
# Youngs Moduli (GPa) = 26.82319 85.77549 3.79427
#
# Poissons Ratio (x) = 0.40542 -0.15387
# Poissons Ratio (y) = 0.12678 0.04524
# Poissons Ratio (z) = -1.08773 1.02281
#
# Static dielectric constant tensor:
#      x y z
#    x 1.735740 0.000000 0.000000 
#    y 0.000000 1.799320 0.000000 
#    z 0.000000 0.000000 1.732190 
# 
# From -- ./inp_files/4680.got.cif
#   From: 2010.05.17/outbox.cif.g08.bks.cpg/sg55_3_cif.got.tgz:4680.got - 2010.06.03 13:27:54.
