data_PCOD9426888
_publ_section_title
;
Structure prediction by ZEFSAII (Michael W. Deem and Ramdas Pophale) SiO2 
 PCOD9426888
Probable space group: P B A M
;
_chemical_formula_sum "Si O2"
_cell_formula_units_Z 64
_cell_length_a 19.533576
_cell_length_b 23.666611
_cell_length_c 8.903271
_cell_angle_alpha 90.000000
_cell_angle_beta 90.000000
_cell_angle_gamma 90.000000
_cell_volume 4115.924709
_symmetry_space_group_name_H-M "P B A M"
_symmetry_group_IT_number 55
_symmetry_cell_setting 'orthorhombic'
loop_
_space_group_symop_operation_xyz
x,y,z
-x,-y,z
1/2+x,1/2-y,-z
1/2-x,1/2+y,-z
-x,-y,-z
x,y,-z
1/2-x,1/2+y,z
1/2+x,1/2-y,z
loop_
_atom_site_type_symbol
_atom_site_label
_atom_site_fract_x
_atom_site_fract_y
_atom_site_fract_z
Si Si1 0.266898 0.160609 0.682552
Si Si2 0.993192 0.252241 0.821438
Si Si3 0.144099 0.556774 0.320330
Si Si4 0.631178 0.065281 0.178175
Si Si5 0.001747 0.622967 0.678718
Si Si6 0.147533 0.771340 0.680717
Si Si7 0.281333 0.839654 0.678364
Si Si8 0.866233 0.775664 0.320396
O O1 0.266968 0.161141 0.500000
O O2 0.297114 0.100675 0.729729
O O3 0.318357 0.211290 0.726333
O O4 0.190656 0.178598 0.728725
O O5 0.062113 0.222561 0.763292
O O6 0.993831 0.315605 0.753420
O O7 0.924768 0.222628 0.760317
O O8 0.992668 0.255198 0.000000
O O9 0.150655 0.547196 0.500000
O O10 0.145056 0.497643 0.236265
O O11 0.071652 0.588389 0.296601
O O12 0.562109 0.088835 0.255104
O O13 0.691083 0.107727 0.229459
O O14 0.623102 0.066258 0.000000
O O15 0.992542 0.630455 0.500000
O O16 0.138105 0.769714 0.500000
O O17 0.204804 0.818455 0.714008
O O18 0.284725 0.851958 0.500000
O O19 0.330844 0.785614 0.704924
O O20 0.876750 0.780795 0.500000
#
# Coordination Sequence:
#
# PCOD9426888 Si02
#       8
#     8   8   8   8   8   8   8   8
#     4   8  15  31  53  75  92 120 168 213 244 281
#     4  12  22  30  46  76 108 136 161 197 252 306
#     4  10  20  35  54  71  93 130 175 210 242 288
#     4  12  24  34  47  71 105 135 166 206 249 295
#     4  11  21  35  52  68  94 136 180 213 238 280
#     4   9  17  33  54  74  95 126 168 208 246 291
#     4   9  18  33  54  73  93 128 172 209 242 287
#     4   9  17  31  53  73  95 127 164 206 247 291
#
# _framework density 15.549360999999999
#
# number of rings (size 3 to 8) (size 9 to 14) (size 15 to 20)
#    0.000    2.000    2.500    4.500    0.000    3.000 
#    0.000    2.500    0.000    0.000    0.000    0.875 
#    0.000    7.000    0.000    0.000    0.000    0.000 
#
# Total GULP energy -357175.052582 kJ/mol
# GULP energy per Si atom -5580.860197 kJ/mol
# Density = 1.551397 g / cm^3
# Si number density = 15.549361 Si / 1000 Ang^3
#
#
#
# Elastic Constant Matrix: (Units=GPa)
#
#
# Indices 1 2 3 4 5 6 
#
# 1 133.5014 51.0797 66.2172 0.0000 0.0000 0.0000
# 2 51.0797 64.8300 45.0831 0.0000 0.0000 0.0000
# 3 66.2172 45.0831 67.6488 0.0000 0.0000 0.0000
# 4 0.0000 0.0000 0.0000 2.0848 0.0000 0.0000
# 5 0.0000 0.0000 0.0000 0.0000 -2.8377 0.0000
# 6 0.0000 0.0000 0.0000 0.0000 0.0000 15.3732
#
#
#
# Elastic Compliance Matrix: (Units=1/GPa)
#
#
# Indices 1 2 3 4 5 6 
#
# 1 0.014860 -0.002969 -0.012566 0.000000 0.000000 0.000000
# 2 -0.002969 0.029341 -0.016647 0.000000 0.000000 0.000000
# 3 -0.012566 -0.016647 0.038177 0.000000 0.000000 0.000000
# 4 0.000000 0.000000 0.000000 0.479670 0.000000 0.000000
# 5 0.000000 0.000000 0.000000 0.000000 -0.352401 0.000000
# 6 0.000000 0.000000 0.000000 0.000000 0.000000 0.065048
#
#
# Mechanical properties :
#
#
# Convention : Reuss Voigt Hill
#
# Bulk Modulus (GPa) = 55.51936 65.63780 60.57858
# Shear Modulus (GPa) = 14.49006 9.83075 12.16040
#
# Velocity S-wave (km/s) = 3.05597 2.51714 2.79955
# Velocity P-wave (km/s) = 6.94512 7.12406 7.03516
#
# Compressibility (1/GPa) = 0.01801174
#
# Stress axis : x y z
#
# Youngs Moduli (GPa) = 67.29660 34.08201 26.19385
#
# Poissons Ratio (x) = 0.10120 0.32916
# Poissons Ratio (y) = 0.19982 0.43606
# Poissons Ratio (z) = 0.84567 0.56737
#
# Static dielectric constant tensor:
#      x y z
#    x 1.523170 0.000000 0.000000 
#    y 0.000000 1.498580 0.000000 
#    z 0.000000 0.000000 1.511380 
# 
# From -- ./inp_files/8207.got.cif
#   From: 2010.05.17/outbox.cif.g08.bks.cpg/sg55_5_cif.got.tgz:8207.got - 2010.06.03 13:27:54.
