data_PCOD9426305
_publ_section_title
;
Structure prediction by ZEFSAII (Michael W. Deem and Ramdas Pophale) SiO2 
 PCOD9426305
Probable space group: P B A M
;
_chemical_formula_sum "Si O2"
_cell_formula_units_Z 36
_cell_length_a 13.113830
_cell_length_b 5.348027
_cell_length_c 21.828707
_cell_angle_alpha 90.000000
_cell_angle_beta 90.000000
_cell_angle_gamma 90.000000
_cell_volume 1530.915260
_symmetry_space_group_name_H-M "P B A M"
_symmetry_group_IT_number 55
_symmetry_cell_setting 'orthorhombic'
loop_
_space_group_symop_operation_xyz
x,y,z
-x,-y,z
1/2+x,1/2-y,-z
1/2-x,1/2+y,-z
-x,-y,-z
x,y,-z
1/2-x,1/2+y,z
1/2+x,1/2-y,z
loop_
_atom_site_type_symbol
_atom_site_label
_atom_site_fract_x
_atom_site_fract_y
_atom_site_fract_z
Si Si1 0.934703 0.254263 0.744280
Si Si2 0.183411 0.655712 0.130842
Si Si3 0.856074 0.136147 0.380790
Si Si4 0.683150 0.749574 0.000000
Si Si5 0.874413 0.636344 0.570584
O O1 0.884986 0.303048 0.809995
O O2 0.852987 0.217793 0.689762
O O3 0.000000 0.500000 0.728578
O O4 0.000000 0.000000 0.747015
O O5 0.231251 0.377170 0.132608
O O6 0.129452 0.700544 0.064954
O O7 0.745707 0.102988 0.411646
O O8 0.912304 0.355994 0.417753
O O9 0.905385 0.864278 0.386295
O O10 0.728255 0.466919 0.000000
O O11 0.884429 0.707876 0.500000
#
# Coordination Sequence:
#
# PCOD9426305 Si02
#       5
#     8   8   8   4   8
#     4  12  26  41  56  86 132 165 194 242 303 357
#     4  10  21  38  67  90 120 156 211 249 291 349
#     4  10  20  33  57  80 115 146 189 233 304 338
#     4   8  16  34  58  94 118 148 192 264 302 324
#     4  10  19  35  62  90 107 135 200 259 289 342
#
# _framework density 23.515346999999998
#
# number of rings (size 3 to 8) (size 9 to 14) (size 15 to 20)
#    0.000    1.778    0.000    6.000    6.222    0.000 
#    0.000    1.111    0.000   22.667    0.000    0.000 
#    0.000    0.000    0.000    0.000    0.000    0.000 
#
# Total GULP energy -201192.142974 kJ/mol
# GULP energy per Si atom -5588.670638 kJ/mol
# Density = 2.346182 g / cm^3
# Si number density = 23.515347 Si / 1000 Ang^3
#
#
#
# Elastic Constant Matrix: (Units=GPa)
#
#
# Indices 1 2 3 4 5 6 
#
# 1 22.9105 12.9193 1.1851 0.0000 0.0000 0.0000
# 2 12.9193 167.1752 0.2609 0.0000 0.0000 0.0000
# 3 1.1851 0.2609 173.5836 0.0000 0.0000 0.0000
# 4 0.0000 0.0000 0.0000 38.6109 0.0000 0.0000
# 5 0.0000 0.0000 0.0000 0.0000 16.5589 0.0000
# 6 0.0000 0.0000 0.0000 0.0000 0.0000 29.6177
#
#
#
# Elastic Compliance Matrix: (Units=1/GPa)
#
#
# Indices 1 2 3 4 5 6 
#
# 1 0.045653 -0.003528 -0.000306 0.000000 0.000000 0.000000
# 2 -0.003528 0.006254 0.000015 0.000000 0.000000 0.000000
# 3 -0.000306 0.000015 0.005763 0.000000 0.000000 0.000000
# 4 0.000000 0.000000 0.000000 0.025899 0.000000 0.000000
# 5 0.000000 0.000000 0.000000 0.000000 0.060391 0.000000
# 6 0.000000 0.000000 0.000000 0.000000 0.000000 0.033764
#
#
# Mechanical properties :
#
#
# Convention : Reuss Voigt Hill
#
# Bulk Modulus (GPa) = 19.98726 43.59998 31.79362
# Shear Modulus (GPa) = 24.74758 40.24442 32.49600
#
# Velocity S-wave (km/s) = 3.24759 4.14141 3.72143
# Velocity P-wave (km/s) = 4.75190 6.43814 5.65819
#
# Compressibility (1/GPa) = 0.05003188
#
# Stress axis : x y z
#
# Youngs Moduli (GPa) = 21.90430 159.88901 173.52128
#
# Poissons Ratio (x) = 0.56402 0.05316
# Poissons Ratio (y) = 0.07727 -0.00255
# Poissons Ratio (z) = 0.00671 -0.00235
#
# Static dielectric constant tensor:
#      x y z
#    x 1.617250 0.000000 0.000000 
#    y 0.000000 1.927080 0.000000 
#    z 0.000000 0.000000 1.843930 
# 
# From -- ./inp_files/22904.got.cif
#   From: 2010.05.17/outbox.cif.g08.bks.cpg/sg55_12_cif.got.tgz:22904.got - 2010.06.03 13:27:54.
