data_PCOD9426665
_publ_section_title
;
Structure prediction by ZEFSAII (Michael W. Deem and Ramdas Pophale) SiO2 
 PCOD9426665
Probable space group: P B A M
;
_chemical_formula_sum "Si O2"
_cell_formula_units_Z 56
_cell_length_a 14.279061
_cell_length_b 13.749687
_cell_length_c 14.758217
_cell_angle_alpha 90.000000
_cell_angle_beta 90.000000
_cell_angle_gamma 90.000000
_cell_volume 2897.519401
_symmetry_space_group_name_H-M "P B A M"
_symmetry_group_IT_number 55
_symmetry_cell_setting 'orthorhombic'
loop_
_space_group_symop_operation_xyz
x,y,z
-x,-y,z
1/2+x,1/2-y,-z
1/2-x,1/2+y,-z
-x,-y,-z
x,y,-z
1/2-x,1/2+y,z
1/2+x,1/2-y,z
loop_
_atom_site_type_symbol
_atom_site_label
_atom_site_fract_x
_atom_site_fract_y
_atom_site_fract_z
Si Si1 0.521761 0.886614 0.607746
Si Si2 0.179537 0.293064 0.394206
Si Si3 0.786972 0.353519 0.293335
Si Si4 0.102959 0.467991 0.897993
Si Si5 0.109348 0.990173 0.102896
Si Si6 0.753383 0.577433 0.240308
Si Si7 0.741469 0.846352 0.902029
O O1 0.544037 0.883541 0.500000
O O2 0.427420 0.824936 0.622792
O O3 0.609806 0.848000 0.664185
O O4 0.500000 0.000000 0.630081
O O5 0.198008 0.307527 0.500000
O O6 0.209035 0.186540 0.361702
O O7 0.244118 0.358719 0.329522
O O8 0.768481 0.466631 0.273911
O O9 0.777072 0.299487 0.195583
O O10 0.158031 0.402289 0.826396
O O11 0.164989 0.566072 0.905392
O O12 0.000000 0.500000 0.867828
O O13 0.096377 0.426208 0.000000
O O14 0.160133 0.095724 0.104278
O O15 0.162493 0.925625 0.176721
O O16 0.123864 0.952744 0.000000
O O17 0.000000 0.000000 0.119989
O O18 0.736852 0.794562 0.000000
#
# Coordination Sequence:
#
# PCOD9426665 Si02
#       7
#     8   8   8   8   8   8   8
#     4  10  20  37  63  87 111 150 199 240 286 347
#     4  11  24  38  56  87 115 146 196 247 290 338
#     4  10  20  37  60  81 114 154 183 239 293 342
#     4   8  14  25  48  82 116 143 174 224 284 340
#     4   8  14  29  53  78 107 145 188 225 270 341
#     4  10  20  33  57  84 110 150 187 239 286 345
#     4   8  16  29  49  78 108 146 185 228 280 336
#
# _framework density 19.326875999999999
#
# number of rings (size 3 to 8) (size 9 to 14) (size 15 to 20)
#    0.000    3.000    1.429    1.714    4.000    0.571 
#    5.143    1.429    0.000    1.286    0.000    0.000 
#    0.000    0.000    0.000    0.000    0.000    0.000 
#
# Total GULP energy -312030.113881 kJ/mol
# GULP energy per Si atom -5571.966319 kJ/mol
# Density = 1.928289 g / cm^3
# Si number density = 19.326876 Si / 1000 Ang^3
#
#
#
# Elastic Constant Matrix: (Units=GPa)
#
#
# Indices 1 2 3 4 5 6 
#
# 1 134.3204 19.3915 73.9218 0.0000 0.0000 0.0000
# 2 19.3915 25.3457 20.4817 0.0000 0.0000 0.0000
# 3 73.9218 20.4817 132.8535 0.0000 0.0000 0.0000
# 4 0.0000 0.0000 0.0000 25.2105 0.0000 0.0000
# 5 0.0000 0.0000 0.0000 0.0000 22.7133 0.0000
# 6 0.0000 0.0000 0.0000 0.0000 0.0000 12.9333
#
#
#
# Elastic Compliance Matrix: (Units=1/GPa)
#
#
# Indices 1 2 3 4 5 6 
#
# 1 0.011073 -0.003990 -0.005546 0.000000 0.000000 0.000000
# 2 -0.003990 0.046507 -0.004950 0.000000 0.000000 0.000000
# 3 -0.005546 -0.004950 0.011376 0.000000 0.000000 0.000000
# 4 0.000000 0.000000 0.000000 0.039666 0.000000 0.000000
# 5 0.000000 0.000000 0.000000 0.000000 0.044027 0.000000
# 6 0.000000 0.000000 0.000000 0.000000 0.000000 0.077320
#
#
# Mechanical properties :
#
#
# Convention : Reuss Voigt Hill
#
# Bulk Modulus (GPa) = 25.00978 57.78999 41.39988
# Shear Modulus (GPa) = 18.36420 24.08640 21.22530
#
# Velocity S-wave (km/s) = 3.08586 3.53408 3.31755
# Velocity P-wave (km/s) = 5.06608 6.82783 6.01184
#
# Compressibility (1/GPa) = 0.03998435
#
# Stress axis : x y z
#
# Youngs Moduli (GPa) = 90.30822 21.50218 87.90316
#
# Poissons Ratio (x) = 0.08579 0.48753
# Poissons Ratio (y) = 0.36033 0.43510
# Poissons Ratio (z) = 0.50086 0.10643
#
# Static dielectric constant tensor:
#      x y z
#    x 1.651800 0.000000 0.000000 
#    y 0.000000 1.705920 0.000000 
#    z 0.000000 0.000000 1.738680 
# 
# From -- ./inp_files/19034.got.cif
#   From: 2010.05.17/outbox.cif.g08.bks.cpg/sg55_10_cif.got.tgz:19034.got - 2010.06.03 13:27:54.
