data_PCOD9426069
_publ_section_title
;
Structure prediction by ZEFSAII (Michael W. Deem and Ramdas Pophale) SiO2 
 PCOD9426069
Probable space group: P B A M
;
_chemical_formula_sum "Si O2"
_cell_formula_units_Z 56
_cell_length_a 22.243586
_cell_length_b 14.881161
_cell_length_c 8.669216
_cell_angle_alpha 90.000000
_cell_angle_beta 90.000000
_cell_angle_gamma 90.000000
_cell_volume 2869.600521
_symmetry_space_group_name_H-M "P B A M"
_symmetry_group_IT_number 55
_symmetry_cell_setting 'orthorhombic'
loop_
_space_group_symop_operation_xyz
x,y,z
-x,-y,z
1/2+x,1/2-y,-z
1/2-x,1/2+y,-z
-x,-y,-z
x,y,-z
1/2-x,1/2+y,z
1/2+x,1/2-y,z
loop_
_atom_site_type_symbol
_atom_site_label
_atom_site_fract_x
_atom_site_fract_y
_atom_site_fract_z
Si Si1 0.719448 0.098702 0.686536
Si Si2 0.277696 0.104293 0.685046
Si Si3 0.002309 0.395503 0.185671
Si Si4 0.141662 0.904045 0.314887
Si Si5 0.615266 0.780384 0.183996
Si Si6 0.856662 0.903436 0.183362
Si Si7 0.610419 0.220805 0.684676
O O1 0.719969 0.103472 0.500000
O O2 0.788442 0.109972 0.736521
O O3 0.672036 0.172286 0.740686
O O4 0.700652 0.996800 0.726934
O O5 0.273528 0.110988 0.500000
O O6 0.324196 0.176723 0.747034
O O7 0.210959 0.112854 0.752826
O O8 0.056199 0.343513 0.267540
O O9 0.000000 0.500000 0.230165
O O10 0.940029 0.345641 0.222990
O O11 0.011007 0.390962 0.000000
O O12 0.140470 0.906006 0.500000
O O13 0.106068 0.818805 0.251965
O O14 0.122680 0.000910 0.251214
O O15 0.620498 0.775191 0.000000
O O16 0.894711 0.818596 0.240405
O O17 0.855549 0.908009 0.000000
O O18 0.613300 0.230094 0.500000
#
# Coordination Sequence:
#
# PCOD9426069 Si02
#       7
#     8   8   8   8   8   8   8
#     4   8  17  32  53  82 113 145 181 228 279 329
#     4  10  19  34  56  84 118 153 191 233 281 336
#     4  10  23  42  60  82 116 153 188 230 281 336
#     4  10  20  37  59  83 114 149 187 233 286 343
#     4  11  22  36  56  83 114 150 192 236 286 339
#     4  11  22  37  57  84 118 151 187 233 287 343
#     4  11  21  36  59  85 113 149 195 238 282 337
#
# _framework density 19.51491
#
# number of rings (size 3 to 8) (size 9 to 14) (size 15 to 20)
#    0.000    1.857    0.000    5.571    0.000    2.571 
#    0.000    7.857    0.000    4.286    0.000    0.000 
#    0.000    0.000    0.000    0.000    0.000    0.000 
#
# Total GULP energy -312935.710621 kJ/mol
# GULP energy per Si atom -5588.137690 kJ/mol
# Density = 1.947049 g / cm^3
# Si number density = 19.514910 Si / 1000 Ang^3
#
#
#
# Elastic Constant Matrix: (Units=GPa)
#
#
# Indices 1 2 3 4 5 6 
#
# 1 28.2545 47.2589 27.4397 0.0000 0.0000 0.0000
# 2 47.2589 183.5721 58.6765 0.0000 0.0000 0.0000
# 3 27.4397 58.6765 76.0052 0.0000 0.0000 0.0000
# 4 0.0000 0.0000 0.0000 33.0287 0.0000 0.0000
# 5 0.0000 0.0000 0.0000 0.0000 24.4932 0.0000
# 6 0.0000 0.0000 0.0000 0.0000 0.0000 31.1597
#
#
#
# Elastic Compliance Matrix: (Units=1/GPa)
#
#
# Indices 1 2 3 4 5 6 
#
# 1 0.074455 -0.014041 -0.016041 0.000000 0.000000 0.000000
# 2 -0.014041 0.009880 -0.002558 0.000000 0.000000 0.000000
# 3 -0.016041 -0.002558 0.020923 0.000000 0.000000 0.000000
# 4 0.000000 0.000000 0.000000 0.030277 0.000000 0.000000
# 5 0.000000 0.000000 0.000000 0.000000 0.040828 0.000000
# 6 0.000000 0.000000 0.000000 0.000000 0.000000 0.032093
#
#
# Mechanical properties :
#
#
# Convention : Reuss Voigt Hill
#
# Bulk Modulus (GPa) = 25.01311 61.62022 43.31667
# Shear Modulus (GPa) = 17.41790 28.03344 22.72567
#
# Velocity S-wave (km/s) = 2.99079 3.79425 3.41622
# Velocity P-wave (km/s) = 4.97712 7.13019 6.14863
#
# Compressibility (1/GPa) = 0.03997903
#
# Stress axis : x y z
#
# Youngs Moduli (GPa) = 13.43086 101.21676 47.79405
#
# Poissons Ratio (x) = 1.42114 0.76665
# Poissons Ratio (y) = 0.18858 0.12227
# Poissons Ratio (z) = 0.21544 0.25894
#
# Static dielectric constant tensor:
#      x y z
#    x 1.667690 0.000000 0.000000 
#    y 0.000000 1.696480 0.000000 
#    z 0.000000 0.000000 1.656480 
# 
# From -- ./inp_files/6186.got.cif
#   From: 2010.05.17/outbox.cif.g08.bks.cpg/sg55_4_cif.got.tgz:6186.got - 2010.06.03 13:27:54.
