data_PCOD9426477
_publ_section_title
;
Structure prediction by ZEFSAII (Michael W. Deem and Ramdas Pophale) SiO2 
 PCOD9426477
Probable space group: P B A M
;
_chemical_formula_sum "Si O2"
_cell_formula_units_Z 40
_cell_length_a 8.816539
_cell_length_b 15.778261
_cell_length_c 13.798962
_cell_angle_alpha 90.000000
_cell_angle_beta 90.000000
_cell_angle_gamma 90.000000
_cell_volume 1919.568822
_symmetry_space_group_name_H-M "P B A M"
_symmetry_group_IT_number 55
_symmetry_cell_setting 'orthorhombic'
loop_
_space_group_symop_operation_xyz
x,y,z
-x,-y,z
1/2+x,1/2-y,-z
1/2-x,1/2+y,-z
-x,-y,-z
x,y,-z
1/2-x,1/2+y,z
1/2+x,1/2-y,z
loop_
_atom_site_type_symbol
_atom_site_label
_atom_site_fract_x
_atom_site_fract_y
_atom_site_fract_z
Si Si1 0.367567 0.650677 0.796137
Si Si2 0.360472 0.863183 0.607828
Si Si3 0.378911 0.249081 0.311610
Si Si4 0.179690 0.478049 0.210411
Si Si5 0.672905 0.024860 0.000000
Si Si6 0.574586 0.404643 0.000000
O O1 0.226580 0.713963 0.775808
O O2 0.499877 0.681539 0.724644
O O3 0.292747 0.557984 0.781942
O O4 0.443287 0.647374 0.902162
O O5 0.368800 0.899590 0.500000
O O6 0.238242 0.787622 0.612069
O O7 0.522019 0.825988 0.641843
O O8 0.304265 0.923770 0.693386
O O9 0.211790 0.435054 0.104657
O O10 0.000000 0.500000 0.207407
O O11 0.500000 0.000000 0.000000
O O12 0.750652 0.932816 0.000000
O O13 0.500000 0.500000 0.000000
#
# Coordination Sequence:
#
# PCOD9426477 Si02
#       6
#     8   8   8   8   4   4
#     4  10  22  41  61  92 125 169 209 259 314 377
#     4  11  23  41  64  90 121 164 211 266 324 380
#     4  10  23  42  61  85 128 164 207 260 324 386
#     4  10  19  38  63  92 121 160 211 256 313 376
#     4   8  18  34  59  85 121 159 191 241 306 361
#     4  10  22  36  61  93 125 163 207 257 308 359
#
# _framework density 20.838013
#
# number of rings (size 3 to 8) (size 9 to 14) (size 15 to 20)
#    0.000    2.000    2.000    0.600    5.600    1.200 
#    0.000    7.000    0.000    0.000    0.000    0.000 
#    0.000    0.000    0.000    0.000    0.000    0.000 
#
# Total GULP energy -222806.242231 kJ/mol
# GULP energy per Si atom -5570.156056 kJ/mol
# Density = 2.079058 g / cm^3
# Si number density = 20.838013 Si / 1000 Ang^3
#
#
#
# Elastic Constant Matrix: (Units=GPa)
#
#
# Indices 1 2 3 4 5 6 
#
# 1 97.7950 18.9754 18.1584 0.0000 0.0000 0.0000
# 2 18.9754 41.8529 50.5835 0.0000 0.0000 0.0000
# 3 18.1584 50.5835 176.6526 0.0000 0.0000 0.0000
# 4 0.0000 0.0000 0.0000 -19.1826 0.0000 0.0000
# 5 0.0000 0.0000 0.0000 0.0000 5.2789 0.0000
# 6 0.0000 0.0000 0.0000 0.0000 0.0000 35.1921
#
#
#
# Elastic Compliance Matrix: (Units=1/GPa)
#
#
# Indices 1 2 3 4 5 6 
#
# 1 0.011237 -0.005656 0.000465 0.000000 0.000000 0.000000
# 2 -0.005656 0.039385 -0.010696 0.000000 0.000000 0.000000
# 3 0.000465 -0.010696 0.008676 0.000000 0.000000 0.000000
# 4 0.000000 0.000000 0.000000 -0.052131 0.000000 0.000000
# 5 0.000000 0.000000 0.000000 0.000000 0.189434 0.000000
# 6 0.000000 0.000000 0.000000 0.000000 0.000000 0.028415
#
#
# Mechanical properties :
#
#
# Convention : Reuss Voigt Hill
#
# Bulk Modulus (GPa) = 36.33432 54.63722 45.48577
# Shear Modulus (GPa) = 18.79944 19.49658 19.14801
#
# Velocity S-wave (km/s) = 3.00687 3.06212 3.03462
# Velocity P-wave (km/s) = 5.43410 6.22728 5.84416
#
# Compressibility (1/GPa) = 0.02752219
#
# Stress axis : x y z
#
# Youngs Moduli (GPa) = 88.99444 25.39034 115.26162
#
# Poissons Ratio (x) = 0.14361 -0.05354
# Poissons Ratio (y) = 0.50334 1.23287
# Poissons Ratio (z) = -0.04134 0.27158
#
# Static dielectric constant tensor:
#      x y z
#    x 1.789190 0.000000 0.000000 
#    y 0.000000 1.774120 0.000000 
#    z 0.000000 0.000000 1.794640 
# 
# From -- ./inp_files/17099.got.cif
#   From: 2010.05.17/outbox.cif.g08.bks.cpg/sg55_9_cif.got.tgz:17099.got - 2010.06.03 13:27:54.
