data_PCOD9426742
_publ_section_title
;
Structure prediction by ZEFSAII (Michael W. Deem and Ramdas Pophale) SiO2 
 PCOD9426742
Probable space group: P B A M
;
_chemical_formula_sum "Si O2"
_cell_formula_units_Z 64
_cell_length_a 7.798364
_cell_length_b 23.728160
_cell_length_c 14.263016
_cell_angle_alpha 90.000000
_cell_angle_beta 90.000000
_cell_angle_gamma 90.000000
_cell_volume 2639.240301
_symmetry_space_group_name_H-M "P B A M"
_symmetry_group_IT_number 55
_symmetry_cell_setting 'orthorhombic'
loop_
_space_group_symop_operation_xyz
x,y,z
-x,-y,z
1/2+x,1/2-y,-z
1/2-x,1/2+y,-z
-x,-y,-z
x,y,-z
1/2-x,1/2+y,z
1/2+x,1/2-y,z
loop_
_atom_site_type_symbol
_atom_site_label
_atom_site_fract_x
_atom_site_fract_y
_atom_site_fract_z
Si Si1 0.792650 0.263699 0.613028
Si Si2 0.955934 0.329337 0.107087
Si Si3 0.487827 0.867871 0.394305
Si Si4 0.150573 0.789688 0.109277
Si Si5 0.483260 0.332369 0.295501
Si Si6 0.598728 0.058173 0.104186
Si Si7 0.816116 0.534116 0.708549
Si Si8 0.645398 0.434044 0.607660
O O1 0.762629 0.263642 0.500000
O O2 0.958011 0.304424 0.629879
O O3 0.831283 0.201867 0.652514
O O4 0.644945 0.296454 0.667504
O O5 0.856814 0.275253 0.144838
O O6 0.968691 0.393227 0.142777
O O7 0.154123 0.309885 0.109696
O O8 0.894711 0.334886 0.000000
O O9 0.422152 0.868034 0.500000
O O10 0.361458 0.905656 0.334400
O O11 0.670784 0.901225 0.393850
O O12 0.045842 0.825866 0.184463
O O13 0.089243 0.791215 0.000000
O O14 0.521522 0.395214 0.330214
O O15 0.736219 0.046075 0.184185
O O16 0.500000 0.000000 0.093180
O O17 0.659602 0.075738 0.000000
O O18 0.000000 0.500000 0.710621
O O19 0.690210 0.494836 0.650074
O O20 0.586319 0.436695 0.500000
#
# Coordination Sequence:
#
# PCOD9426742 Si02
#       8
#     8   8   8   8   8   8   8   8
#     4  10  20  34  53  82 117 151 192 245 300 364
#     4   9  19  37  60  86 122 159 199 251 305 361
#     4   8  15  27  46  74 105 135 177 233 284 336
#     4  10  21  38  58  89 123 160 203 250 304 369
#     4  11  21  35  56  84 117 157 198 240 305 370
#     4   9  18  33  54  85 119 154 197 252 308 359
#     4   9  16  28  49  76 105 140 187 237 289 341
#     4   9  17  31  51  77 108 142 184 236 297 352
#
# _framework density 24.249400999999999
#
# number of rings (size 3 to 8) (size 9 to 14) (size 15 to 20)
#    0.000    2.625    0.000    3.000    1.750    1.500 
#    4.500    0.625    0.000    0.750    0.000    3.500 
#    0.000    0.000    0.000    0.000    0.000    0.000 
#
# Total GULP energy -357764.696243 kJ/mol
# GULP energy per Si atom -5590.073379 kJ/mol
# Density = 2.419421 g / cm^3
# Si number density = 24.249401 Si / 1000 Ang^3
#
#
#
# Elastic Constant Matrix: (Units=GPa)
#
#
# Indices 1 2 3 4 5 6 
#
# 1 64.4984 9.5829 32.7302 0.0000 0.0000 0.0000
# 2 9.5829 168.7824 47.7926 0.0000 0.0000 0.0000
# 3 32.7302 47.7926 115.6425 0.0000 0.0000 0.0000
# 4 0.0000 0.0000 0.0000 46.6235 0.0000 0.0000
# 5 0.0000 0.0000 0.0000 0.0000 18.5524 0.0000
# 6 0.0000 0.0000 0.0000 0.0000 0.0000 38.6635
#
#
#
# Elastic Compliance Matrix: (Units=1/GPa)
#
#
# Indices 1 2 3 4 5 6 
#
# 1 0.018139 0.000480 -0.005332 0.000000 0.000000 0.000000
# 2 0.000480 0.006723 -0.002914 0.000000 0.000000 0.000000
# 3 -0.005332 -0.002914 0.011361 0.000000 0.000000 0.000000
# 4 0.000000 0.000000 0.000000 0.021448 0.000000 0.000000
# 5 0.000000 0.000000 0.000000 0.000000 0.053902 0.000000
# 6 0.000000 0.000000 0.000000 0.000000 0.000000 0.025864
#
#
# Mechanical properties :
#
#
# Convention : Reuss Voigt Hill
#
# Bulk Modulus (GPa) = 48.33339 58.79272 53.56306
# Shear Modulus (GPa) = 31.27623 38.02238 34.64931
#
# Velocity S-wave (km/s) = 3.59524 3.96406 3.78414
# Velocity P-wave (km/s) = 6.09995 6.72676 6.42101
#
# Compressibility (1/GPa) = 0.02068963
#
# Stress axis : x y z
#
# Youngs Moduli (GPa) = 55.13047 148.74914 88.02137
#
# Poissons Ratio (x) = -0.07140 0.46935
# Poissons Ratio (y) = -0.02646 0.25651
# Poissons Ratio (z) = 0.29397 0.43349
#
# Static dielectric constant tensor:
#      x y z
#    x 1.985420 0.000000 0.000000 
#    y 0.000000 1.953350 0.000000 
#    z 0.000000 0.000000 1.947950 
# 
# From -- ./inp_files/17834.got.cif
#   From: 2010.05.17/outbox.cif.g08.bks.cpg/sg55_9_cif.got.tgz:17834.got - 2010.06.03 13:27:54.
