data_PCOD9426098
_publ_section_title
;
Structure prediction by ZEFSAII (Michael W. Deem and Ramdas Pophale) SiO2 
 PCOD9426098
Probable space group: P B A M
;
_chemical_formula_sum "Si O2"
_cell_formula_units_Z 56
_cell_length_a 13.875109
_cell_length_b 18.904138
_cell_length_c 9.615037
_cell_angle_alpha 90.000000
_cell_angle_beta 90.000000
_cell_angle_gamma 90.000000
_cell_volume 2521.995123
_symmetry_space_group_name_H-M "P B A M"
_symmetry_group_IT_number 55
_symmetry_cell_setting 'orthorhombic'
loop_
_space_group_symop_operation_xyz
x,y,z
-x,-y,z
1/2+x,1/2-y,-z
1/2-x,1/2+y,-z
-x,-y,-z
x,y,-z
1/2-x,1/2+y,z
1/2+x,1/2-y,z
loop_
_atom_site_type_symbol
_atom_site_label
_atom_site_fract_x
_atom_site_fract_y
_atom_site_fract_z
Si Si1 0.889122 0.512220 0.336819
Si Si2 0.442540 0.364513 0.661639
Si Si3 0.278079 0.424799 0.162887
Si Si4 0.224596 0.214749 0.842051
Si Si5 0.600612 0.429963 0.844767
Si Si6 0.880897 0.350684 0.340704
Si Si7 0.431774 0.779304 0.341592
O O1 0.887654 0.533944 0.500000
O O2 0.822084 0.560838 0.242232
O O3 0.848587 0.431722 0.329821
O O4 0.000000 0.500000 0.294157
O O5 0.421778 0.379888 0.500000
O O6 0.346610 0.370580 0.754161
O O7 0.519810 0.418591 0.728647
O O8 0.497789 0.289364 0.668402
O O9 0.336628 0.499594 0.169776
O O10 0.265596 0.407786 0.000000
O O11 0.168118 0.139389 0.839753
O O12 0.321847 0.198510 0.761139
O O13 0.154723 0.268713 0.763680
O O14 0.241614 0.235322 0.000000
O O15 0.555231 0.429676 0.000000
O O16 0.864816 0.327609 0.500000
O O17 0.995123 0.343354 0.315478
O O18 0.395388 0.782382 0.500000
#
# Coordination Sequence:
#
# PCOD9426098 Si02
#       7
#     8   8   8   8   8   8   8
#     4  10  22  40  61  85 111 144 192 244 286 333
#     4  10  20  33  52  81 114 145 183 230 276 331
#     4  11  21  35  55  80 113 152 184 224 284 342
#     4  10  19  34  57  84 113 146 186 233 284 340
#     4   9  18  32  51  78 111 145 179 219 276 339
#     4  10  20  38  63  84 109 149 192 235 284 338
#     4   9  20  38  57  82 114 151 193 236 284 338
#
# _framework density 22.204643000000001
#
# number of rings (size 3 to 8) (size 9 to 14) (size 15 to 20)
#    0.000    2.143    1.429    1.714    0.000    4.857 
#    2.571    0.000    0.000    0.000    0.000    0.000 
#    0.000    0.000    0.000    0.000    0.000    0.000 
#
# Total GULP energy -313191.621760 kJ/mol
# GULP energy per Si atom -5592.707531 kJ/mol
# Density = 2.215410 g / cm^3
# Si number density = 22.204643 Si / 1000 Ang^3
#
#
#
# Elastic Constant Matrix: (Units=GPa)
#
#
# Indices 1 2 3 4 5 6 
#
# 1 104.2864 6.3242 89.9253 0.0000 0.0000 0.0000
# 2 6.3242 77.4896 19.0496 0.0000 0.0000 0.0000
# 3 89.9253 19.0496 153.2625 0.0000 0.0000 0.0000
# 4 0.0000 0.0000 0.0000 12.4343 0.0000 0.0000
# 5 0.0000 0.0000 0.0000 0.0000 297.2006 0.0000
# 6 0.0000 0.0000 0.0000 0.0000 0.0000 38.4637
#
#
#
# Elastic Compliance Matrix: (Units=1/GPa)
#
#
# Indices 1 2 3 4 5 6 
#
# 1 0.019527 0.001261 -0.011614 0.000000 0.000000 0.000000
# 2 0.001261 0.013393 -0.002405 0.000000 0.000000 0.000000
# 3 -0.011614 -0.002405 0.013638 0.000000 0.000000 0.000000
# 4 0.000000 0.000000 0.000000 0.080423 0.000000 0.000000
# 5 0.000000 0.000000 0.000000 0.000000 0.003365 0.000000
# 6 0.000000 0.000000 0.000000 0.000000 0.000000 0.025999
#
#
# Mechanical properties :
#
#
# Convention : Reuss Voigt Hill
#
# Bulk Modulus (GPa) = 47.52062 62.84852 55.18457
# Shear Modulus (GPa) = 26.47258 84.26901 55.37080
#
# Velocity S-wave (km/s) = 3.45658 6.16713 4.99907
# Velocity P-wave (km/s) = 6.11378 8.89252 7.63070
#
# Compressibility (1/GPa) = 0.02104350
#
# Stress axis : x y z
#
# Youngs Moduli (GPa) = 51.21007 74.66476 73.32318
#
# Poissons Ratio (x) = -0.09419 0.85160
# Poissons Ratio (y) = -0.06460 0.17633
# Poissons Ratio (z) = 0.59477 0.17956
#
# Static dielectric constant tensor:
#      x y z
#    x 1.791260 0.000000 0.000000 
#    y 0.000000 1.877670 0.000000 
#    z 0.000000 0.000000 1.754950 
# 
# From -- ./inp_files/6051.got.cif
#   From: 2010.05.17/outbox.cif.g08.bks.cpg/sg55_4_cif.got.tgz:6051.got - 2010.06.03 13:27:54.
