data_PCOD9426053
_publ_section_title
;
Structure prediction by ZEFSAII (Michael W. Deem and Ramdas Pophale) SiO2 
 PCOD9426053
Probable space group: P B A M
;
_chemical_formula_sum "Si O2"
_cell_formula_units_Z 56
_cell_length_a 22.384952
_cell_length_b 15.008951
_cell_length_c 8.515259
_cell_angle_alpha 90.000000
_cell_angle_beta 90.000000
_cell_angle_gamma 90.000000
_cell_volume 2860.911143
_symmetry_space_group_name_H-M "P B A M"
_symmetry_group_IT_number 55
_symmetry_cell_setting 'orthorhombic'
loop_
_space_group_symop_operation_xyz
x,y,z
-x,-y,z
1/2+x,1/2-y,-z
1/2-x,1/2+y,-z
-x,-y,-z
x,y,-z
1/2-x,1/2+y,z
1/2+x,1/2-y,z
loop_
_atom_site_type_symbol
_atom_site_label
_atom_site_fract_x
_atom_site_fract_y
_atom_site_fract_z
Si Si1 0.113531 0.284876 0.190253
Si Si2 0.222533 0.397821 0.314424
Si Si3 0.383959 0.210418 0.685352
Si Si4 0.143403 0.895996 0.812541
Si Si5 0.718013 0.911174 0.812761
Si Si6 0.497280 0.103285 0.809904
Si Si7 0.857063 0.906496 0.190189
O O1 0.174033 0.327412 0.256149
O O2 0.108499 0.181820 0.241732
O O3 0.057138 0.344360 0.237499
O O4 0.117167 0.286681 0.000000
O O5 0.231862 0.390169 0.500000
O O6 0.286203 0.387749 0.228611
O O7 0.199520 0.496884 0.270681
O O8 0.376938 0.204576 0.500000
O O9 0.389701 0.312960 0.736156
O O10 0.325175 0.168340 0.765010
O O11 0.440069 0.152804 0.741203
O O12 0.124435 0.994862 0.755828
O O13 0.136386 0.891425 0.000000
O O14 0.787029 0.894042 0.769395
O O15 0.715171 0.924877 0.000000
O O16 0.500000 0.000000 0.762180
O O17 0.493146 0.105887 0.000000
O O18 0.860094 0.909162 0.000000
#
# Coordination Sequence:
#
# PCOD9426053 Si02
#       7
#     8   8   8   8   8   8   8
#     4  10  19  35  58  81 108 146 193 236 278 333
#     4  11  21  33  53  86 122 150 182 227 283 337
#     4  12  24  37  56  83 114 147 186 235 291 341
#     4  10  20  37  58  80 111 149 190 232 278 337
#     4  10  19  34  56  81 112 149 187 226 277 340
#     4  10  22  39  59  82 109 146 190 231 277 342
#     4   8  17  33  56  83 106 137 183 233 274 317
#
# _framework density 19.574182
#
# number of rings (size 3 to 8) (size 9 to 14) (size 15 to 20)
#    0.000    1.857    0.000    6.000    0.000    3.143 
#    0.000    4.286    0.000    4.286    0.000    0.000 
#    0.000    0.000    0.000    0.000    0.000    0.000 
#
# Total GULP energy -312858.742057 kJ/mol
# GULP energy per Si atom -5586.763251 kJ/mol
# Density = 1.952963 g / cm^3
# Si number density = 19.574182 Si / 1000 Ang^3
#
#
#
# Elastic Constant Matrix: (Units=GPa)
#
#
# Indices 1 2 3 4 5 6 
#
# 1 33.3863 45.6414 7.9559 0.0000 0.0000 0.0000
# 2 45.6414 163.8947 8.3246 0.0000 0.0000 0.0000
# 3 7.9559 8.3246 25.6139 0.0000 0.0000 0.0000
# 4 0.0000 0.0000 0.0000 4.1205 0.0000 0.0000
# 5 0.0000 0.0000 0.0000 0.0000 -10.8479 0.0000
# 6 0.0000 0.0000 0.0000 0.0000 0.0000 33.9423
#
#
#
# Elastic Compliance Matrix: (Units=1/GPa)
#
#
# Indices 1 2 3 4 5 6 
#
# 1 0.051508 -0.013758 -0.011527 0.000000 0.000000 0.000000
# 2 -0.013758 0.009879 0.001063 0.000000 0.000000 0.000000
# 3 -0.011527 0.001063 0.042276 0.000000 0.000000 0.000000
# 4 0.000000 0.000000 0.000000 0.242689 0.000000 0.000000
# 5 0.000000 0.000000 0.000000 0.000000 -0.092184 0.000000
# 6 0.000000 0.000000 0.000000 0.000000 0.000000 0.029462
#
#
# Mechanical properties :
#
#
# Convention : Reuss Voigt Hill
#
# Bulk Modulus (GPa) = 18.11021 38.52652 28.31837
# Shear Modulus (GPa) = 14.26609 16.17452 15.22030
#
# Velocity S-wave (km/s) = 2.70260 2.87770 2.79152
# Velocity P-wave (km/s) = 4.36015 5.54676 4.98886
#
# Compressibility (1/GPa) = 0.05521747
#
# Stress axis : x y z
#
# Youngs Moduli (GPa) = 19.41445 101.22531 23.65393
#
# Poissons Ratio (x) = 1.39270 0.27266
# Poissons Ratio (y) = 0.26711 -0.02514
# Poissons Ratio (z) = 0.22379 -0.10758
#
# Static dielectric constant tensor:
#      x y z
#    x 1.652050 0.000000 0.000000 
#    y 0.000000 1.712780 0.000000 
#    z 0.000000 0.000000 1.652670 
# 
# From -- ./inp_files/8722.got.cif
#   From: 2010.05.17/outbox.cif.g08.bks.cpg/sg55_5_cif.got.tgz:8722.got - 2010.06.03 13:27:54.
