data_PCOD9426195
_publ_section_title
;
Structure prediction by ZEFSAII (Michael W. Deem and Ramdas Pophale) SiO2 
 PCOD9426195
Probable space group: P B A M
;
_chemical_formula_sum "Si O2"
_cell_formula_units_Z 64
_cell_length_a 14.841361
_cell_length_b 25.694257
_cell_length_c 7.868460
_cell_angle_alpha 90.000000
_cell_angle_beta 90.000000
_cell_angle_gamma 90.000000
_cell_volume 3000.540783
_symmetry_space_group_name_H-M "P B A M"
_symmetry_group_IT_number 55
_symmetry_cell_setting 'orthorhombic'
loop_
_space_group_symop_operation_xyz
x,y,z
-x,-y,z
1/2+x,1/2-y,-z
1/2-x,1/2+y,-z
-x,-y,-z
x,y,-z
1/2-x,1/2+y,z
1/2+x,1/2-y,z
loop_
_atom_site_type_symbol
_atom_site_label
_atom_site_fract_x
_atom_site_fract_y
_atom_site_fract_z
Si Si1 0.571931 0.364729 0.700784
Si Si2 0.249048 0.411466 0.796809
Si Si3 0.052721 0.651471 0.799177
Si Si4 0.775880 0.207083 0.298290
Si Si5 0.940995 0.046645 0.197028
Si Si6 0.444893 0.948659 0.791377
Si Si7 0.251540 0.678887 0.203383
Si Si8 0.476234 0.261949 0.705016
O O1 0.554648 0.370618 0.500000
O O2 0.509056 0.405120 0.795021
O O3 0.677511 0.364071 0.736053
O O4 0.542323 0.307353 0.756582
O O5 0.243727 0.349048 0.766686
O O6 0.344094 0.435172 0.729846
O O7 0.158805 0.440771 0.735020
O O8 0.251478 0.417625 0.000000
O O9 0.152463 0.663233 0.729075
O O10 0.000327 0.705317 0.772643
O O11 0.000412 0.601878 0.731481
O O12 0.063357 0.642729 0.000000
O O13 0.779370 0.201544 0.500000
O O14 0.726909 0.261807 0.260092
O O15 0.877435 0.219281 0.234330
O O16 0.923677 0.032005 0.000000
O O17 0.000000 0.000000 0.277328
O O18 0.500000 0.000000 0.739668
O O19 0.442916 0.948758 0.000000
O O20 0.249775 0.679277 0.000000
O O21 0.474281 0.258755 0.500000
#
# Coordination Sequence:
#
# PCOD9426195 Si02
#       8
#     8   8   8   8   8   8   8   8
#     4  11  22  37  56  84 118 156 196 236 292 354
#     4  10  20  35  58  86 113 148 194 243 291 346
#     4   9  19  35  56  82 110 146 190 235 287 341
#     4  10  19  35  56  81 116 154 191 234 286 350
#     4  10  22  39  59  86 119 156 198 246 298 352
#     4   9  19  36  58  84 112 146 190 240 288 340
#     4  10  21  35  54  84 119 155 193 239 290 348
#     4   9  19  34  53  78 112 149 183 227 284 343
#
# _framework density 21.329488000000001
#
# number of rings (size 3 to 8) (size 9 to 14) (size 15 to 20)
#    0.000    2.250    1.250    1.125    1.750    3.250 
#    0.000    3.750    0.000    1.500    0.000    0.000 
#    0.000    0.000    0.000    0.000    0.000    0.000 
#
# Total GULP energy -357008.346211 kJ/mol
# GULP energy per Si atom -5578.255410 kJ/mol
# Density = 2.128094 g / cm^3
# Si number density = 21.329488 Si / 1000 Ang^3
#
#
#
# Elastic Constant Matrix: (Units=GPa)
#
#
# Indices 1 2 3 4 5 6 
#
# 1 123.4621 82.9464 4.6560 0.0000 0.0000 0.0000
# 2 82.9464 135.9589 1.7305 0.0000 0.0000 0.0000
# 3 4.6560 1.7305 21.6250 0.0000 0.0000 0.0000
# 4 0.0000 0.0000 0.0000 50.6199 0.0000 0.0000
# 5 0.0000 0.0000 0.0000 0.0000 50.6538 0.0000
# 6 0.0000 0.0000 0.0000 0.0000 0.0000 30.3577
#
#
#
# Elastic Compliance Matrix: (Units=1/GPa)
#
#
# Indices 1 2 3 4 5 6 
#
# 1 0.013839 -0.008414 -0.002306 0.000000 0.000000 0.000000
# 2 -0.008414 0.012478 0.000813 0.000000 0.000000 0.000000
# 3 -0.002306 0.000813 0.046674 0.000000 0.000000 0.000000
# 4 0.000000 0.000000 0.000000 0.019755 0.000000 0.000000
# 5 0.000000 0.000000 0.000000 0.000000 0.019742 0.000000
# 6 0.000000 0.000000 0.000000 0.000000 0.000000 0.032941
#
#
# Mechanical properties :
#
#
# Convention : Reuss Voigt Hill
#
# Bulk Modulus (GPa) = 18.80503 51.07909 34.94206
# Shear Modulus (GPa) = 27.32699 39.10716 33.21708
#
# Velocity S-wave (km/s) = 3.58325 4.28656 3.95058
# Velocity P-wave (km/s) = 5.09462 6.96413 6.10140
#
# Compressibility (1/GPa) = 0.05317727
#
# Stress axis : x y z
#
# Youngs Moduli (GPa) = 72.25773 80.14131 21.42504
#
# Poissons Ratio (x) = 0.67429 0.04941
# Poissons Ratio (y) = 0.60796 -0.01742
# Poissons Ratio (z) = 0.16665 -0.06515
#
# Static dielectric constant tensor:
#      x y z
#    x 1.834930 0.000000 0.000000 
#    y 0.000000 1.756490 0.000000 
#    z 0.000000 0.000000 1.769650 
# 
# From -- ./inp_files/6563.got.cif
#   From: 2010.05.17/outbox.cif.g08.bks.cpg/sg55_4_cif.got.tgz:6563.got - 2010.06.03 13:27:54.
