data_PCOD9426350
_publ_section_title
;
Structure prediction by ZEFSAII (Michael W. Deem and Ramdas Pophale) SiO2 
 PCOD9426350
Probable space group: P B A M
;
_chemical_formula_sum "Si O2"
_cell_formula_units_Z 58
_cell_length_a 19.780298
_cell_length_b 18.423761
_cell_length_c 8.066668
_cell_angle_alpha 90.000000
_cell_angle_beta 90.000000
_cell_angle_gamma 90.000000
_cell_volume 2939.715514
_symmetry_space_group_name_H-M "P B A M"
_symmetry_group_IT_number 55
_symmetry_cell_setting 'orthorhombic'
loop_
_space_group_symop_operation_xyz
x,y,z
-x,-y,z
1/2+x,1/2-y,-z
1/2-x,1/2+y,-z
-x,-y,-z
x,y,-z
1/2-x,1/2+y,z
1/2+x,1/2-y,z
loop_
_atom_site_type_symbol
_atom_site_label
_atom_site_fract_x
_atom_site_fract_y
_atom_site_fract_z
Si Si1 0.500000 0.500000 0.500000
Si Si2 0.470294 0.405711 0.190281
Si Si3 0.170051 0.992491 0.813151
Si Si4 0.735417 0.130996 0.694697
Si Si5 0.458664 0.241798 0.301687
Si Si6 0.813844 0.271576 0.808371
Si Si7 0.104855 0.285957 0.701341
Si Si8 0.812249 0.851786 0.308691
O O1 0.509101 0.438328 0.349401
O O2 0.397103 0.444363 0.206503
O O3 0.460393 0.320593 0.216983
O O4 0.495660 0.418593 0.000000
O O5 0.169600 0.064324 0.703984
O O6 0.232199 0.938922 0.778681
O O7 0.172446 0.019630 0.000000
O O8 0.730061 0.115303 0.500000
O O9 0.785518 0.199746 0.717319
O O10 0.662807 0.158705 0.759757
O O11 0.461186 0.251833 0.500000
O O12 0.387190 0.206488 0.257316
O O13 0.527698 0.202140 0.247729
O O14 0.756740 0.332427 0.785466
O O15 0.819970 0.251860 0.000000
O O16 0.106115 0.289181 0.500000
O O17 0.130126 0.204837 0.749708
O O18 0.799233 0.833221 0.500000
#
# Coordination Sequence:
#
# PCOD9426350 Si02
#       8
#     2   8   8   8   8   8   8   8
#     4  12  26  40  56  74 116 168 194 236 292 336
#     4  11  25  39  55  84 118 159 203 238 285 356
#     4  11  23  37  55  83 117 150 189 239 291 345
#     4  10  19  36  59  81 107 147 195 237 282 343
#     4  11  20  36  59  83 114 154 195 238 293 346
#     4  11  21  36  55  81 115 149 191 243 290 342
#     4   8  19  35  56  84 111 142 190 241 285 341
#     4  10  21  37  59  84 110 148 194 238 289 352
#
# _framework density 19.729800000000001
#
# number of rings (size 3 to 8) (size 9 to 14) (size 15 to 20)
#    0.000    1.655    2.069    3.931    3.862    0.000 
#    0.000    7.586    0.000    0.828    0.000    5.793 
#    0.000    0.000    0.000    0.000    0.000    0.000 
#
# Total GULP energy -323326.433685 kJ/mol
# GULP energy per Si atom -5574.593684 kJ/mol
# Density = 1.968489 g / cm^3
# Si number density = 19.729800 Si / 1000 Ang^3
#
#
#
# Elastic Constant Matrix: (Units=GPa)
#
#
# Indices 1 2 3 4 5 6 
#
# 1 123.2541 4.0621 16.5678 0.0000 0.0000 0.0000
# 2 4.0621 26.2853 2.5284 0.0000 0.0000 0.0000
# 3 16.5678 2.5284 74.2803 0.0000 0.0000 0.0000
# 4 0.0000 0.0000 0.0000 15.0992 0.0000 0.0000
# 5 0.0000 0.0000 0.0000 0.0000 -3.4553 0.0000
# 6 0.0000 0.0000 0.0000 0.0000 0.0000 20.3624
#
#
#
# Elastic Compliance Matrix: (Units=1/GPa)
#
#
# Indices 1 2 3 4 5 6 
#
# 1 0.008397 -0.001121 -0.001835 0.000000 0.000000 0.000000
# 2 -0.001121 0.038319 -0.001054 0.000000 0.000000 0.000000
# 3 -0.001835 -0.001054 0.013908 0.000000 0.000000 0.000000
# 4 0.000000 0.000000 0.000000 0.066229 0.000000 0.000000
# 5 0.000000 0.000000 0.000000 0.000000 -0.289408 0.000000
# 6 0.000000 0.000000 0.000000 0.000000 0.000000 0.049110
#
#
# Mechanical properties :
#
#
# Convention : Reuss Voigt Hill
#
# Bulk Modulus (GPa) = 19.01030 30.01514 24.51272
# Shear Modulus (GPa) = -56.88825 19.77867 -18.55479
#
# Velocity S-wave (km/s) = -5.37552 3.16963 -3.06999
# Velocity P-wave (km/s) = 5.37328 5.35178 0.33957
#
# Compressibility (1/GPa) = 0.05260308
#
# Stress axis : x y z
#
# Youngs Moduli (GPa) = 119.09166 26.09684 71.90299
#
# Poissons Ratio (x) = 0.02926 0.13192
# Poissons Ratio (y) = 0.13352 0.07580
# Poissons Ratio (z) = 0.21850 0.02751
#
# Static dielectric constant tensor:
#      x y z
#    x 1.744220 0.000000 0.000000 
#    y 0.000000 1.670320 0.000000 
#    z 0.000000 0.000000 1.706040 
# 
# From -- ./inp_files/7726.got.cif
#   From: 2010.05.17/outbox.cif.g08.bks.cpg/sg55_4_cif.got.tgz:7726.got - 2010.06.03 13:27:54.
