data_PCOD9426417
_publ_section_title
;
Structure prediction by ZEFSAII (Michael W. Deem and Ramdas Pophale) SiO2 
 PCOD9426417
Probable space group: P B A M
;
_chemical_formula_sum "Si O2"
_cell_formula_units_Z 40
_cell_length_a 15.456322
_cell_length_b 9.256908
_cell_length_c 13.434780
_cell_angle_alpha 90.000000
_cell_angle_beta 90.000000
_cell_angle_gamma 90.000000
_cell_volume 1922.218105
_symmetry_space_group_name_H-M "P B A M"
_symmetry_group_IT_number 55
_symmetry_cell_setting 'orthorhombic'
loop_
_space_group_symop_operation_xyz
x,y,z
-x,-y,z
1/2+x,1/2-y,-z
1/2-x,1/2+y,-z
-x,-y,-z
x,y,-z
1/2-x,1/2+y,z
1/2+x,1/2-y,z
loop_
_atom_site_type_symbol
_atom_site_label
_atom_site_fract_x
_atom_site_fract_y
_atom_site_fract_z
Si Si1 0.800587 0.854299 0.247706
Si Si2 0.247769 0.409637 0.613585
Si Si3 0.889866 0.365519 0.180359
Si Si4 0.578682 0.889428 0.605059
Si Si5 0.431042 0.806290 0.114267
O O1 0.784674 0.736583 0.335063
O O2 0.713597 0.847836 0.178654
O O3 0.881798 0.810572 0.181056
O O4 0.806596 0.005774 0.306310
O O5 0.279300 0.388919 0.500000
O O6 0.165026 0.514727 0.605133
O O7 0.916971 0.311097 0.290662
O O8 0.906418 0.537716 0.163385
O O9 0.964483 0.294284 0.114139
O O10 0.570879 0.809482 0.500000
O O11 0.500000 0.000000 0.609966
O O12 0.401047 0.805869 0.000000
#
# Coordination Sequence:
#
# PCOD9426417 Si02
#       5
#     8   8   8   8   8
#     4  11  20  38  60  90 122 151 197 244 291 352
#     4  10  20  34  57  87 121 158 188 231 296 359
#     4  10  19  37  59  84 118 150 199 245 286 349
#     4   9  14  25  50  80 109 140 182 232 278 334
#     4  11  22  38  60  84 114 157 207 249 291 340
#
# _framework density 20.809293
#
# number of rings (size 3 to 8) (size 9 to 14) (size 15 to 20)
#    0.000    1.800    6.000    1.800    0.000    2.400 
#    0.000    2.000    0.000    2.400    0.000    0.000 
#    0.000    0.000    0.000    0.000    0.000    0.000 
#
# Total GULP energy -222766.913005 kJ/mol
# GULP energy per Si atom -5569.172825 kJ/mol
# Density = 2.076193 g / cm^3
# Si number density = 20.809293 Si / 1000 Ang^3
#
#
#
# Elastic Constant Matrix: (Units=GPa)
#
#
# Indices 1 2 3 4 5 6 
#
# 1 75.4706 -9.1947 17.9992 0.0000 0.0000 0.0000
# 2 -9.1947 25.0455 26.4511 0.0000 0.0000 0.0000
# 3 17.9992 26.4511 113.1089 0.0000 0.0000 0.0000
# 4 0.0000 0.0000 0.0000 -12.1637 0.0000 0.0000
# 5 0.0000 0.0000 0.0000 0.0000 17.3082 0.0000
# 6 0.0000 0.0000 0.0000 0.0000 0.0000 33.7064
#
#
#
# Elastic Compliance Matrix: (Units=1/GPa)
#
#
# Indices 1 2 3 4 5 6 
#
# 1 0.015853 0.011267 -0.005158 0.000000 0.000000 0.000000
# 2 0.011267 0.061030 -0.016065 0.000000 0.000000 0.000000
# 3 -0.005158 -0.016065 0.013419 0.000000 0.000000 0.000000
# 4 0.000000 0.000000 0.000000 -0.082212 0.000000 0.000000
# 5 0.000000 0.000000 0.000000 0.000000 0.057776 0.000000
# 6 0.000000 0.000000 0.000000 0.000000 0.000000 0.029668
#
#
# Mechanical properties :
#
#
# Convention : Reuss Voigt Hill
#
# Bulk Modulus (GPa) = 14.20651 31.57071 22.88861
# Shear Modulus (GPa) = 35.99459 19.66145 27.82802
#
# Velocity S-wave (km/s) = 4.16352 3.07716 3.66086
# Velocity P-wave (km/s) = 5.47312 5.27538 5.37516
#
# Compressibility (1/GPa) = 0.07039026
#
# Stress axis : x y z
#
# Youngs Moduli (GPa) = 63.08001 16.38526 74.52281
#
# Poissons Ratio (x) = -0.18461 0.38435
# Poissons Ratio (y) = -0.71071 1.19723
# Poissons Ratio (z) = 0.32534 0.26323
#
# Static dielectric constant tensor:
#      x y z
#    x 1.773450 0.000000 0.000000 
#    y 0.000000 1.770930 0.000000 
#    z 0.000000 0.000000 1.798200 
# 
# From -- ./inp_files/18759.got.cif
#   From: 2010.05.17/outbox.cif.g08.bks.cpg/sg55_10_cif.got.tgz:18759.got - 2010.06.03 13:27:54.
