data_PCOD9426658
_publ_section_title
;
Structure prediction by ZEFSAII (Michael W. Deem and Ramdas Pophale) SiO2 
 PCOD9426658
Probable space group: P B A M
;
_chemical_formula_sum "Si O2"
_cell_formula_units_Z 64
_cell_length_a 18.264873
_cell_length_b 12.721324
_cell_length_c 14.332019
_cell_angle_alpha 90.000000
_cell_angle_beta 90.000000
_cell_angle_gamma 90.000000
_cell_volume 3330.092874
_symmetry_space_group_name_H-M "P B A M"
_symmetry_group_IT_number 55
_symmetry_cell_setting 'orthorhombic'
loop_
_space_group_symop_operation_xyz
x,y,z
-x,-y,z
1/2+x,1/2-y,-z
1/2-x,1/2+y,-z
-x,-y,-z
x,y,-z
1/2-x,1/2+y,z
1/2+x,1/2-y,z
loop_
_atom_site_type_symbol
_atom_site_label
_atom_site_fract_x
_atom_site_fract_y
_atom_site_fract_z
Si Si1 0.996841 0.806855 0.729694
Si Si2 0.782820 0.008604 0.893417
Si Si3 0.386837 0.410039 0.390149
Si Si4 0.880483 0.444844 0.106049
Si Si5 0.335099 0.614942 0.719757
Si Si6 0.609548 0.695819 0.107422
Si Si7 0.942248 0.423381 0.696542
Si Si8 0.195113 0.688303 0.610555
O O1 0.034499 0.881549 0.653098
O O2 0.041673 0.828861 0.825055
O O3 0.017133 0.687583 0.706575
O O4 0.910838 0.823526 0.730961
O O5 0.695152 0.008416 0.888890
O O6 0.809492 0.922316 0.821091
O O7 0.823080 0.118324 0.870831
O O8 0.802372 0.981477 0.000000
O O9 0.391307 0.428678 0.500000
O O10 0.352465 0.509290 0.338674
O O11 0.338807 0.304332 0.373930
O O12 0.867920 0.318315 0.115844
O O13 0.924694 0.469082 0.200049
O O14 0.910853 0.460578 0.000000
O O15 0.269757 0.674314 0.667357
O O16 0.588465 0.678859 0.000000
O O17 0.865587 0.395643 0.646559
O O18 0.000000 0.500000 0.647528
O O19 0.206862 0.674525 0.500000
#
# Coordination Sequence:
#
# PCOD9426658 Si02
#       8
#     8   8   8   8   8   8   8   8
#     4  10  22  37  56  86 116 149 194 237 290 347
#     4  10  20  33  55  87 117 153 195 235 285 347
#     4  10  22  40  60  82 115 152 189 239 299 351
#     4   9  18  36  58  83 117 156 196 240 292 345
#     4  12  22  36  60  89 116 151 196 245 284 350
#     4   9  18  35  58  81 118 161 193 235 294 350
#     4  10  21  40  61  87 115 155 193 239 292 349
#     4  10  23  42  61  85 117 153 192 242 299 352
#
# _framework density 19.218684
#
# number of rings (size 3 to 8) (size 9 to 14) (size 15 to 20)
#    0.000    2.000    2.500    0.750    0.000    3.500 
#    2.250    1.250    0.000    0.000    0.000    0.000 
#    0.000    0.000    0.000    0.000    0.000    0.000 
#
# Total GULP energy -357141.362887 kJ/mol
# GULP energy per Si atom -5580.333795 kJ/mol
# Density = 1.917494 g / cm^3
# Si number density = 19.218684 Si / 1000 Ang^3
#
#
#
# Elastic Constant Matrix: (Units=GPa)
#
#
# Indices 1 2 3 4 5 6 
#
# 1 115.0465 34.0211 30.2086 0.0000 0.0000 0.0000
# 2 34.0211 22.5281 19.0691 0.0000 0.0000 0.0000
# 3 30.2086 19.0691 59.5730 0.0000 0.0000 0.0000
# 4 0.0000 0.0000 0.0000 17.0107 0.0000 0.0000
# 5 0.0000 0.0000 0.0000 0.0000 -4.6356 0.0000
# 6 0.0000 0.0000 0.0000 0.0000 0.0000 26.2020
#
#
#
# Elastic Compliance Matrix: (Units=1/GPa)
#
#
# Indices 1 2 3 4 5 6 
#
# 1 0.015717 -0.023304 -0.000511 0.000000 0.000000 0.000000
# 2 -0.023304 0.095437 -0.018732 0.000000 0.000000 0.000000
# 3 -0.000511 -0.018732 0.023041 0.000000 0.000000 0.000000
# 4 0.000000 0.000000 0.000000 0.058787 0.000000 0.000000
# 5 0.000000 0.000000 0.000000 0.000000 -0.215721 0.000000
# 6 0.000000 0.000000 0.000000 0.000000 0.000000 0.038165
#
#
# Mechanical properties :
#
#
# Convention : Reuss Voigt Hill
#
# Bulk Modulus (GPa) = 20.36544 40.41614 30.39079
# Shear Modulus (GPa) = 42.77637 15.30533 29.04085
#
# Velocity S-wave (km/s) = 4.72293 2.82508 3.89147
# Velocity P-wave (km/s) = 6.35304 5.63176 6.00324
#
# Compressibility (1/GPa) = 0.04910279
#
# Stress axis : x y z
#
# Youngs Moduli (GPa) = 63.62340 10.47813 43.40061
#
# Poissons Ratio (x) = 0.24418 0.02217
# Poissons Ratio (y) = 1.48265 0.81298
# Poissons Ratio (z) = 0.03249 0.19628
#
# Static dielectric constant tensor:
#      x y z
#    x 1.662770 0.000000 0.000000 
#    y 0.000000 1.661910 0.000000 
#    z 0.000000 0.000000 1.686950 
# 
# From -- ./inp_files/19486.got.cif
#   From: 2010.05.17/outbox.cif.g08.bks.cpg/sg55_10_cif.got.tgz:19486.got - 2010.06.03 13:27:54.
