data_PCOD9426423
_publ_section_title
;
Structure prediction by ZEFSAII (Michael W. Deem and Ramdas Pophale) SiO2 
 PCOD9426423
Probable space group: P B A M
;
_chemical_formula_sum "Si O2"
_cell_formula_units_Z 48
_cell_length_a 16.345734
_cell_length_b 10.744943
_cell_length_c 13.714157
_cell_angle_alpha 90.000000
_cell_angle_beta 90.000000
_cell_angle_gamma 90.000000
_cell_volume 2408.671978
_symmetry_space_group_name_H-M "P B A M"
_symmetry_group_IT_number 55
_symmetry_cell_setting 'orthorhombic'
loop_
_space_group_symop_operation_xyz
x,y,z
-x,-y,z
1/2+x,1/2-y,-z
1/2-x,1/2+y,-z
-x,-y,-z
x,y,-z
1/2-x,1/2+y,z
1/2+x,1/2-y,z
loop_
_atom_site_type_symbol
_atom_site_label
_atom_site_fract_x
_atom_site_fract_y
_atom_site_fract_z
Si Si1 0.290849 0.769603 0.888664
Si Si2 0.578666 0.256084 0.613636
Si Si3 0.689188 0.054971 0.715205
Si Si4 0.095983 0.821564 0.888588
Si Si5 0.949241 0.375573 0.736748
Si Si6 0.358825 0.544473 0.760190
O O1 0.322829 0.882997 0.822198
O O2 0.192391 0.783534 0.889910
O O3 0.317764 0.643592 0.834776
O O4 0.319799 0.773116 0.000000
O O5 0.580261 0.283163 0.500000
O O6 0.649068 0.154767 0.642113
O O7 0.494251 0.192944 0.648144
O O8 0.592856 0.376213 0.680816
O O9 0.640518 0.925490 0.710299
O O10 0.785122 0.029250 0.706846
O O11 0.050537 0.714364 0.829207
O O12 0.091932 0.946731 0.825206
O O13 0.068802 0.836786 0.000000
O O14 0.000000 0.500000 0.757665
#
# Coordination Sequence:
#
# PCOD9426423 Si02
#       6
#     8   8   8   8   8   8
#     4   9  17  31  57  90 120 153 191 233 288 347
#     4  10  23  41  61  83 111 154 200 247 308 356
#     4   9  19  35  60  86 116 149 192 247 290 342
#     4  10  20  34  58  88 119 159 194 228 288 353
#     4  10  21  39  58  83 121 159 193 240 287 343
#     4  10  19  37  60  88 121 149 193 252 291 342
#
# _framework density 19.927994000000002
#
# number of rings (size 3 to 8) (size 9 to 14) (size 15 to 20)
#    0.000    2.333    1.667    0.500    0.000    6.000 
#    0.000   10.000    0.000    0.000    0.000    0.000 
#    0.000    0.000    0.000    0.000    0.000    0.000 
#
# Total GULP energy -268033.569828 kJ/mol
# GULP energy per Si atom -5584.032705 kJ/mol
# Density = 1.988264 g / cm^3
# Si number density = 19.927994 Si / 1000 Ang^3
#
#
#
# Elastic Constant Matrix: (Units=GPa)
#
#
# Indices 1 2 3 4 5 6 
#
# 1 14.3604 -2.9763 16.7204 0.0000 0.0000 0.0000
# 2 -2.9763 88.1223 56.5319 0.0000 0.0000 0.0000
# 3 16.7204 56.5319 149.3534 0.0000 0.0000 0.0000
# 4 0.0000 0.0000 0.0000 10.6074 0.0000 0.0000
# 5 0.0000 0.0000 0.0000 0.0000 21.6648 0.0000
# 6 0.0000 0.0000 0.0000 0.0000 0.0000 -7.1199
#
#
#
# Elastic Compliance Matrix: (Units=1/GPa)
#
#
# Indices 1 2 3 4 5 6 
#
# 1 0.089359 0.012462 -0.014721 0.000000 0.000000 0.000000
# 2 0.012462 0.016725 -0.007726 0.000000 0.000000 0.000000
# 3 -0.014721 -0.007726 0.011268 0.000000 0.000000 0.000000
# 4 0.000000 0.000000 0.000000 0.094274 0.000000 0.000000
# 5 0.000000 0.000000 0.000000 0.000000 0.046158 0.000000
# 6 0.000000 0.000000 0.000000 0.000000 0.000000 -0.140452
#
#
# Mechanical properties :
#
#
# Convention : Reuss Voigt Hill
#
# Bulk Modulus (GPa) = 10.26884 43.59866 26.93375
# Shear Modulus (GPa) = 29.45303 17.13446 23.29374
#
# Velocity S-wave (km/s) = 3.84861 2.93545 3.42262
# Velocity P-wave (km/s) = 4.99132 5.78055 5.40037
#
# Compressibility (1/GPa) = 0.09738201
#
# Stress axis : x y z
#
# Youngs Moduli (GPa) = 11.19084 59.79105 88.74843
#
# Poissons Ratio (x) = -0.74510 1.30645
# Poissons Ratio (y) = -0.13946 0.68564
# Poissons Ratio (z) = 0.16474 0.46193
#
# Static dielectric constant tensor:
#      x y z
#    x 1.751840 0.000000 0.000000 
#    y 0.000000 1.708390 0.000000 
#    z 0.000000 0.000000 1.646560 
# 
# From -- ./inp_files/14795.got.cif
#   From: 2010.05.17/outbox.cif.g08.bks.cpg/sg55_8_cif.got.tgz:14795.got - 2010.06.03 13:27:54.
