data_PCOD9426440
_publ_section_title
;
Structure prediction by ZEFSAII (Michael W. Deem and Ramdas Pophale) SiO2 
 PCOD9426440
Probable space group: P B A M
;
_chemical_formula_sum "Si O2"
_cell_formula_units_Z 58
_cell_length_a 25.853750
_cell_length_b 7.556186
_cell_length_c 12.983086
_cell_angle_alpha 90.000000
_cell_angle_beta 90.000000
_cell_angle_gamma 90.000000
_cell_volume 2536.320422
_symmetry_space_group_name_H-M "P B A M"
_symmetry_group_IT_number 55
_symmetry_cell_setting 'orthorhombic'
loop_
_space_group_symop_operation_xyz
x,y,z
-x,-y,z
1/2+x,1/2-y,-z
1/2-x,1/2+y,-z
-x,-y,-z
x,y,-z
1/2-x,1/2+y,z
1/2+x,1/2-y,z
loop_
_atom_site_type_symbol
_atom_site_label
_atom_site_fract_x
_atom_site_fract_y
_atom_site_fract_z
Si Si1 0.883790 0.789198 0.887011
Si Si2 0.463638 0.238930 0.669341
Si Si3 0.942888 0.417987 0.887674
Si Si4 0.791256 0.556156 0.118953
Si Si5 0.284646 0.265993 0.254569
Si Si6 0.000000 0.500000 0.500000
Si Si7 0.189143 0.095356 0.619588
Si Si8 0.921241 0.894117 0.322724
O O1 0.907492 0.591452 0.880220
O O2 0.824111 0.737560 0.874750
O O3 0.907883 0.904348 0.798068
O O4 0.894107 0.861442 0.000000
O O5 0.443339 0.193026 0.783144
O O6 0.434664 0.414641 0.632400
O O7 0.525202 0.287508 0.669543
O O8 0.461405 0.080529 0.589933
O O9 0.000000 0.500000 0.891907
O O10 0.932270 0.331476 0.000000
O O11 0.735475 0.615210 0.159365
O O12 0.809351 0.405488 0.199865
O O13 0.792555 0.496973 0.000000
O O14 0.315096 0.401215 0.327361
O O15 0.235041 0.199315 0.321620
O O16 0.202618 0.079981 0.500000
O O17 0.131866 0.180430 0.630033
#
# Coordination Sequence:
#
# PCOD9426440 Si02
#       8
#     8   8   8   8   8   2   8   8
#     4  10  20  37  61  92 128 166 210 255 312 384
#     4  11  25  41  66  90 129 164 214 262 315 383
#     4  10  19  37  62  87 121 166 211 255 304 364
#     4  10  20  37  62  93 128 165 200 256 321 385
#     4  10  22  41  64  92 122 164 212 263 312 393
#     4  12  24  46  62  92 120 162 212 266 304 386
#     4  11  24  43  65  88 124 164 214 269 321 371
#     4  11  24  42  62  96 126 165 204 265 322 376
#
# _framework density 22.867771999999999
#
# number of rings (size 3 to 8) (size 9 to 14) (size 15 to 20)
#    0.000    1.517    3.448    0.828    3.862    1.103 
#    0.000    2.069    3.034    0.000    0.000    0.000 
#    0.000    0.000    0.000    0.000    0.000    0.000 
#
# Total GULP energy -323148.162644 kJ/mol
# GULP energy per Si atom -5571.520046 kJ/mol
# Density = 2.281572 g / cm^3
# Si number density = 22.867772 Si / 1000 Ang^3
#
#
#
# Elastic Constant Matrix: (Units=GPa)
#
#
# Indices 1 2 3 4 5 6 
#
# 1 63.6372 4.2835 39.9069 0.0000 0.0000 0.0000
# 2 4.2835 56.5746 30.2418 0.0000 0.0000 0.0000
# 3 39.9069 30.2418 98.2601 0.0000 0.0000 0.0000
# 4 0.0000 0.0000 0.0000 9.2397 0.0000 0.0000
# 5 0.0000 0.0000 0.0000 0.0000 74.5298 0.0000
# 6 0.0000 0.0000 0.0000 0.0000 0.0000 19.9299
#
#
#
# Elastic Compliance Matrix: (Units=1/GPa)
#
#
# Indices 1 2 3 4 5 6 
#
# 1 0.021703 0.003673 -0.009945 0.000000 0.000000 0.000000
# 2 0.003673 0.021778 -0.008194 0.000000 0.000000 0.000000
# 3 -0.009945 -0.008194 0.016738 0.000000 0.000000 0.000000
# 4 0.000000 0.000000 0.000000 0.108229 0.000000 0.000000
# 5 0.000000 0.000000 0.000000 0.000000 0.013417 0.000000
# 6 0.000000 0.000000 0.000000 0.000000 0.000000 0.050176
#
#
# Mechanical properties :
#
#
# Convention : Reuss Voigt Hill
#
# Bulk Modulus (GPa) = 31.96274 40.81516 36.38895
# Shear Modulus (GPa) = 18.42280 30.34252 24.38266
#
# Velocity S-wave (km/s) = 2.84143 3.64657 3.26888
# Velocity P-wave (km/s) = 4.97720 5.96800 5.49498
#
# Compressibility (1/GPa) = 0.03128643
#
# Stress axis : x y z
#
# Youngs Moduli (GPa) = 46.07596 45.91803 59.74425
#
# Poissons Ratio (x) = -0.16864 0.59415
# Poissons Ratio (y) = -0.16922 0.48956
# Poissons Ratio (z) = 0.45822 0.37627
#
# Static dielectric constant tensor:
#      x y z
#    x 2.336180 0.000000 0.000000 
#    y 0.000000 2.968970 0.000000 
#    z 0.000000 0.000000 1.861820 
# 
# From -- ./inp_files/16015.got.cif
#   From: 2010.05.17/outbox.cif.g08.bks.cpg/sg55_9_cif.got.tgz:16015.got - 2010.06.03 13:27:54.
