data_PCOD9426088
_publ_section_title
;
Structure prediction by ZEFSAII (Michael W. Deem and Ramdas Pophale) SiO2 
 PCOD9426088
Probable space group: P B A M
;
_chemical_formula_sum "Si O2"
_cell_formula_units_Z 64
_cell_length_a 23.847860
_cell_length_b 15.882448
_cell_length_c 7.489930
_cell_angle_alpha 90.000000
_cell_angle_beta 90.000000
_cell_angle_gamma 90.000000
_cell_volume 2836.903835
_symmetry_space_group_name_H-M "P B A M"
_symmetry_group_IT_number 55
_symmetry_cell_setting 'orthorhombic'
loop_
_space_group_symop_operation_xyz
x,y,z
-x,-y,z
1/2+x,1/2-y,-z
1/2-x,1/2+y,-z
-x,-y,-z
x,y,-z
1/2-x,1/2+y,z
1/2+x,1/2-y,z
loop_
_atom_site_type_symbol
_atom_site_label
_atom_site_fract_x
_atom_site_fract_y
_atom_site_fract_z
Si Si1 0.043741 0.930762 0.208105
Si Si2 0.316490 0.698729 0.714540
Si Si3 0.835898 0.991585 0.717180
Si Si4 0.617262 0.139220 0.717662
Si Si5 0.691984 0.821749 0.791937
Si Si6 0.923698 0.250742 0.780898
Si Si7 0.494069 0.091732 0.796807
Si Si8 0.712457 0.014456 0.706165
O O1 0.047487 0.835634 0.283101
O O2 0.107429 0.964852 0.219879
O O3 0.028003 0.921770 0.000000
O O4 0.000000 0.000000 0.284613
O O5 0.316121 0.696471 0.500000
O O6 0.334344 0.606084 0.775078
O O7 0.358113 0.771078 0.770895
O O8 0.253005 0.718405 0.770102
O O9 0.836217 0.994102 0.500000
O O10 0.775381 0.026722 0.780269
O O11 0.612379 0.135313 0.500000
O O12 0.556529 0.126568 0.796510
O O13 0.661486 0.068641 0.780475
O O14 0.641133 0.763732 0.726390
O O15 0.697343 0.915326 0.710514
O O16 0.681372 0.836922 0.000000
O O17 0.954805 0.335670 0.719849
O O18 0.925875 0.247576 0.000000
O O19 0.500000 0.000000 0.709676
O O20 0.473101 0.077794 0.000000
O O21 0.716645 0.040716 0.500000
#
# Coordination Sequence:
#
# PCOD9426088 Si02
#       8
#     8   8   8   8   8   8   8   8
#     4  10  22  38  56  77 105 145 186 228 276 325
#     4   9  20  37  56  80 114 146 175 223 284 335
#     4   9  19  36  56  79 108 141 178 222 272 327
#     4  10  21  36  57  83 112 146 185 227 274 336
#     4  10  19  34  57  82 109 143 186 227 271 328
#     4   9  20  37  55  80 115 146 181 231 278 326
#     4  10  21  38  59  82 112 151 186 227 284 332
#     4   9  19  36  56  81 115 148 175 220 282 333
#
# _framework density 22.559805999999998
#
# number of rings (size 3 to 8) (size 9 to 14) (size 15 to 20)
#    0.000    2.500    0.000    1.875    3.500    4.500 
#    0.000    2.500    0.000    0.000    0.000    0.000 
#    0.000    0.000    0.000    0.000    0.000    0.000 
#
# Total GULP energy -357319.888214 kJ/mol
# GULP energy per Si atom -5583.123253 kJ/mol
# Density = 2.250846 g / cm^3
# Si number density = 22.559806 Si / 1000 Ang^3
#
#
#
# Elastic Constant Matrix: (Units=GPa)
#
#
# Indices 1 2 3 4 5 6 
#
# 1 75.8267 38.1236 -8.3012 0.0000 0.0000 0.0000
# 2 38.1236 94.7828 -1.7978 0.0000 0.0000 0.0000
# 3 -8.3012 -1.7978 60.3774 0.0000 0.0000 0.0000
# 4 0.0000 0.0000 0.0000 2.1619 0.0000 0.0000
# 5 0.0000 0.0000 0.0000 0.0000 57.3203 0.0000
# 6 0.0000 0.0000 0.0000 0.0000 0.0000 36.9885
#
#
#
# Elastic Compliance Matrix: (Units=1/GPa)
#
#
# Indices 1 2 3 4 5 6 
#
# 1 0.016795 -0.006715 0.002109 0.000000 0.000000 0.000000
# 2 -0.006715 0.013241 -0.000529 0.000000 0.000000 0.000000
# 3 0.002109 -0.000529 0.016837 0.000000 0.000000 0.000000
# 4 0.000000 0.000000 0.000000 0.462562 0.000000 0.000000
# 5 0.000000 0.000000 0.000000 0.000000 0.017446 0.000000
# 6 0.000000 0.000000 0.000000 0.000000 0.000000 0.027035
#
#
# Mechanical properties :
#
#
# Convention : Reuss Voigt Hill
#
# Bulk Modulus (GPa) = 27.32016 31.89289 29.60653
# Shear Modulus (GPa) = 8.67471 32.82495 20.74983
#
# Velocity S-wave (km/s) = 1.96305 3.81861 3.03606
# Velocity P-wave (km/s) = 4.15626 5.79742 5.04403
#
# Compressibility (1/GPa) = 0.03660300
#
# Stress axis : x y z
#
# Youngs Moduli (GPa) = 59.54093 75.52036 59.39397
#
# Poissons Ratio (x) = 0.50715 -0.12527
# Poissons Ratio (y) = 0.39984 0.03142
# Poissons Ratio (z) = -0.12558 0.03995
#
# Static dielectric constant tensor:
#      x y z
#    x 1.793950 0.000000 0.000000 
#    y 0.000000 1.821950 0.000000 
#    z 0.000000 0.000000 1.866370 
# 
# From -- ./inp_files/9636.got.cif
#   From: 2010.05.17/outbox.cif.g08.bks.cpg/sg55_5_cif.got.tgz:9636.got - 2010.06.03 13:27:54.
