data_PCOD9426694
_publ_section_title
;
Structure prediction by ZEFSAII (Michael W. Deem and Ramdas Pophale) SiO2 
 PCOD9426694
Probable space group: P B A M
;
_chemical_formula_sum "Si O2"
_cell_formula_units_Z 48
_cell_length_a 13.019731
_cell_length_b 19.605988
_cell_length_c 7.471712
_cell_angle_alpha 90.000000
_cell_angle_beta 90.000000
_cell_angle_gamma 90.000000
_cell_volume 1907.264246
_symmetry_space_group_name_H-M "P B A M"
_symmetry_group_IT_number 55
_symmetry_cell_setting 'orthorhombic'
loop_
_space_group_symop_operation_xyz
x,y,z
-x,-y,z
1/2+x,1/2-y,-z
1/2-x,1/2+y,-z
-x,-y,-z
x,y,-z
1/2-x,1/2+y,z
1/2+x,1/2-y,z
loop_
_atom_site_type_symbol
_atom_site_label
_atom_site_fract_x
_atom_site_fract_y
_atom_site_fract_z
Si Si1 0.753799 0.355916 0.288412
Si Si2 0.890503 0.969091 0.215087
Si Si3 0.073528 0.329529 0.218265
Si Si4 0.907445 0.231260 0.788293
Si Si5 0.210826 0.894688 0.218778
Si Si6 0.075966 0.552495 0.702082
O O1 0.769822 0.354560 0.500000
O O2 0.642751 0.391258 0.260826
O O3 0.809695 0.285060 0.229922
O O4 0.824195 0.416863 0.207290
O O5 0.810389 0.028306 0.277774
O O6 0.893656 0.970068 0.000000
O O7 0.000000 0.000000 0.276051
O O8 0.184122 0.357038 0.272893
O O9 0.018206 0.259334 0.274228
O O10 0.994700 0.381658 0.303702
O O11 0.070530 0.332303 0.000000
O O12 0.876076 0.157769 0.717948
O O13 0.918826 0.223743 0.000000
O O14 0.211873 0.896345 0.000000
O O15 0.098790 0.527104 0.500000
O O16 0.000000 0.500000 0.795791
#
# Coordination Sequence:
#
# PCOD9426694 Si02
#       6
#     8   8   8   8   8   8
#     4  10  20  34  52  75 104 136 172 216 265 318
#     4  10  21  36  55  79 107 143 185 227 274 328
#     4   9  17  29  48  73  98 127 164 208 256 305
#     4   9  18  33  53  76 103 137 176 220 269 318
#     4   9  18  33  53  78 106 136 177 224 267 319
#     4   9  17  29  46  69  97 128 160 197 246 303
#
# _framework density 25.166936
#
# number of rings (size 3 to 8) (size 9 to 14) (size 15 to 20)
#    0.000    2.667    0.000    1.500    0.000    2.667 
#    0.000    6.667    0.000    4.000    0.000    0.000 
#    0.000    0.000    0.000    0.000    0.000    0.000 
#
# Total GULP energy -267245.997074 kJ/mol
# GULP energy per Si atom -5567.624939 kJ/mol
# Density = 2.510966 g / cm^3
# Si number density = 25.166936 Si / 1000 Ang^3
#
#
#
# Elastic Constant Matrix: (Units=GPa)
#
#
# Indices 1 2 3 4 5 6 
#
# 1 68.0486 10.8176 -1.1874 0.0000 0.0000 0.0000
# 2 10.8176 105.1788 -11.3628 0.0000 0.0000 0.0000
# 3 -1.1874 -11.3628 81.5129 0.0000 0.0000 0.0000
# 4 0.0000 0.0000 0.0000 6.5415 0.0000 0.0000
# 5 0.0000 0.0000 0.0000 0.0000 -21.5907 0.0000
# 6 0.0000 0.0000 0.0000 0.0000 0.0000 31.2472
#
#
#
# Elastic Compliance Matrix: (Units=1/GPa)
#
#
# Indices 1 2 3 4 5 6 
#
# 1 0.014940 -0.001536 0.000003 0.000000 0.000000 0.000000
# 2 -0.001536 0.009811 0.001345 0.000000 0.000000 0.000000
# 3 0.000003 0.001345 0.012456 0.000000 0.000000 0.000000
# 4 0.000000 0.000000 0.000000 0.152869 0.000000 0.000000
# 5 0.000000 0.000000 0.000000 0.000000 -0.046316 0.000000
# 6 0.000000 0.000000 0.000000 0.000000 0.000000 0.032003
#
#
# Mechanical properties :
#
#
# Convention : Reuss Voigt Hill
#
# Bulk Modulus (GPa) = 27.15078 27.91944 27.53511
# Shear Modulus (GPa) = 26.53734 20.33781 23.43757
#
# Velocity S-wave (km/s) = 3.25076 2.84582 3.05501
# Velocity P-wave (km/s) = 4.99015 4.68146 4.83827
#
# Compressibility (1/GPa) = 0.03683135
#
# Stress axis : x y z
#
# Youngs Moduli (GPa) = 66.93598 101.92700 80.28538
#
# Poissons Ratio (x) = 0.15658 -0.00028
# Poissons Ratio (y) = 0.10282 -0.10800
# Poissons Ratio (z) = -0.00023 -0.13712
#
# Static dielectric constant tensor:
#      x y z
#    x 2.230420 0.000000 0.000000 
#    y 0.000000 -6.220110 0.000000 
#    z 0.000000 0.000000 1.959580 
# 
# From -- ./inp_files/4099.got.cif
#   From: 2010.05.17/outbox.cif.g08.bks.cpg/sg55_3_cif.got.tgz:4099.got - 2010.06.03 13:27:54.
