data_PCOD9426521
_publ_section_title
;
Structure prediction by ZEFSAII (Michael W. Deem and Ramdas Pophale) SiO2 
 PCOD9426521
Probable space group: P B A M
;
_chemical_formula_sum "Si O2"
_cell_formula_units_Z 56
_cell_length_a 25.606096
_cell_length_b 14.613659
_cell_length_c 8.826879
_cell_angle_alpha 90.000000
_cell_angle_beta 90.000000
_cell_angle_gamma 90.000000
_cell_volume 3303.007135
_symmetry_space_group_name_H-M "P B A M"
_symmetry_group_IT_number 55
_symmetry_cell_setting 'orthorhombic'
loop_
_space_group_symop_operation_xyz
x,y,z
-x,-y,z
1/2+x,1/2-y,-z
1/2-x,1/2+y,-z
-x,-y,-z
x,y,-z
1/2-x,1/2+y,z
1/2+x,1/2-y,z
loop_
_atom_site_type_symbol
_atom_site_label
_atom_site_fract_x
_atom_site_fract_y
_atom_site_fract_z
Si Si1 0.291849 0.780363 0.183803
Si Si2 0.001821 0.891927 0.183737
Si Si3 0.313743 0.170015 0.818560
Si Si4 0.161394 0.995926 0.329195
Si Si5 0.215211 0.481248 0.677085
Si Si6 0.889089 0.839730 0.821331
Si Si7 0.105259 0.804675 0.676788
O O1 0.239173 0.725282 0.230622
O O2 0.344112 0.727733 0.238598
O O3 0.292742 0.883310 0.244887
O O4 0.291693 0.781623 0.000000
O O5 0.051646 0.839755 0.249686
O O6 0.948384 0.842420 0.236391
O O7 0.004038 0.890330 0.000000
O O8 0.000000 0.000000 0.228336
O O9 0.312314 0.067342 0.754888
O O10 0.364521 0.223313 0.759634
O O11 0.313307 0.167996 0.000000
O O12 0.146897 0.026539 0.500000
O O13 0.223076 0.002201 0.311935
O O14 0.132805 0.058992 0.208987
O O15 0.143783 0.891879 0.313574
O O16 0.201334 0.475583 0.500000
O O17 0.892361 0.822467 0.000000
O O18 0.097352 0.782878 0.500000
#
# Coordination Sequence:
#
# PCOD9426521 Si02
#       7
#     8   8   8   8   8   8   8
#     4  10  21  35  54  80 109 144 182 223 270 324
#     4  10  20  34  55  81 110 146 185 229 277 325
#     4  11  22  36  57  82 110 145 186 228 273 326
#     4  10  20  31  49  78 112 146 179 219 266 322
#     4  11  22  36  54  79 113 148 182 223 272 326
#     4  10  20  35  54  79 111 145 185 226 269 323
#     4  11  22  36  53  79 115 150 186 224 273 331
#
# _framework density 16.954246999999999
#
# number of rings (size 3 to 8) (size 9 to 14) (size 15 to 20)
#    0.000    1.571    4.286    1.286    0.000    3.143 
#    0.000    0.000    0.000    0.857    0.000    6.000 
#    0.000    0.000    0.000    0.000    0.000    0.000 
#
# Total GULP energy -312410.749845 kJ/mol
# GULP energy per Si atom -5578.763390 kJ/mol
# Density = 1.691566 g / cm^3
# Si number density = 16.954247 Si / 1000 Ang^3
#
#
#
# Elastic Constant Matrix: (Units=GPa)
#
#
# Indices 1 2 3 4 5 6 
#
# 1 64.3725 11.1872 16.8373 0.0000 0.0000 0.0000
# 2 11.1872 62.5214 13.0051 0.0000 0.0000 0.0000
# 3 16.8373 13.0051 19.3780 0.0000 0.0000 0.0000
# 4 0.0000 0.0000 0.0000 11.7492 0.0000 0.0000
# 5 0.0000 0.0000 0.0000 0.0000 13.4247 0.0000
# 6 0.0000 0.0000 0.0000 0.0000 0.0000 29.6348
#
#
#
# Elastic Compliance Matrix: (Units=1/GPa)
#
#
# Indices 1 2 3 4 5 6 
#
# 1 0.020104 0.000042 -0.017496 0.000000 0.000000 0.000000
# 2 0.000042 0.018590 -0.012513 0.000000 0.000000 0.000000
# 3 -0.017496 -0.012513 0.075204 0.000000 0.000000 0.000000
# 4 0.000000 0.000000 0.000000 0.085112 0.000000 0.000000
# 5 0.000000 0.000000 0.000000 0.000000 0.074490 0.000000
# 6 0.000000 0.000000 0.000000 0.000000 0.000000 0.033744
#
#
# Mechanical properties :
#
#
# Convention : Reuss Voigt Hill
#
# Bulk Modulus (GPa) = 18.53062 25.37012 21.95037
# Shear Modulus (GPa) = 12.98145 17.97789 15.47967
#
# Velocity S-wave (km/s) = 2.77009 3.25988 3.02491
# Velocity P-wave (km/s) = 4.60268 5.40050 5.01747
#
# Compressibility (1/GPa) = 0.05396475
#
# Stress axis : x y z
#
# Youngs Moduli (GPa) = 49.74255 53.79311 13.29709
#
# Poissons Ratio (x) = -0.00227 0.23265
# Poissons Ratio (y) = -0.00210 0.16638
# Poissons Ratio (z) = 0.87029 0.67309
#
# Static dielectric constant tensor:
#      x y z
#    x 1.579780 0.000000 0.000000 
#    y 0.000000 1.546290 0.000000 
#    z 0.000000 0.000000 1.580640 
# 
# From -- ./inp_files/6158.got.cif
#   From: 2010.05.17/outbox.cif.g08.bks.cpg/sg55_4_cif.got.tgz:6158.got - 2010.06.03 13:27:54.
