data_PCOD9426285
_publ_section_title
;
Structure prediction by ZEFSAII (Michael W. Deem and Ramdas Pophale) SiO2 
 PCOD9426285
Probable space group: P B A M
;
_chemical_formula_sum "Si O2"
_cell_formula_units_Z 34
_cell_length_a 8.661382
_cell_length_b 20.608338
_cell_length_c 9.430628
_cell_angle_alpha 90.000000
_cell_angle_beta 90.000000
_cell_angle_gamma 90.000000
_cell_volume 1683.335862
_symmetry_space_group_name_H-M "P B A M"
_symmetry_group_IT_number 55
_symmetry_cell_setting 'orthorhombic'
loop_
_space_group_symop_operation_xyz
x,y,z
-x,-y,z
1/2+x,1/2-y,-z
1/2-x,1/2+y,-z
-x,-y,-z
x,y,-z
1/2-x,1/2+y,z
1/2+x,1/2-y,z
loop_
_atom_site_type_symbol
_atom_site_label
_atom_site_fract_x
_atom_site_fract_y
_atom_site_fract_z
Si Si1 0.920589 0.307571 0.334549
Si Si2 0.393315 0.698654 0.162774
Si Si3 0.000000 0.000000 0.500000
Si Si4 0.387744 0.940616 0.336484
Si Si5 0.553803 0.565913 0.218045
O O1 0.890568 0.290410 0.500000
O O2 0.765051 0.315693 0.244985
O O3 0.018214 0.252539 0.254581
O O4 0.016914 0.374386 0.334358
O O5 0.493851 0.633127 0.159464
O O6 0.365659 0.720073 0.000000
O O7 0.018974 0.054973 0.625511
O O8 0.330504 0.953175 0.500000
O O9 0.237691 0.935367 0.239858
O O10 0.500000 0.000000 0.299679
O O11 0.500000 0.500000 0.143515
#
# Coordination Sequence:
#
# PCOD9426285 Si02
#       5
#     8   8   2   8   8
#     4  11  25  39  67  94 121 166 218 267 315 384
#     4  12  26  44  63  89 132 170 209 263 332 392
#     4   8  20  32  64 100 124 160 214 276 308 376
#     4  10  19  35  60  96 127 153 200 264 323 368
#     4  10  20  36  64  93 128 165 209 263 321 375
#
# _framework density 20.197989
#
# number of rings (size 3 to 8) (size 9 to 14) (size 15 to 20)
#    0.706    0.706    1.176    4.235    3.294    2.353 
#    0.000    1.176    0.000    4.941    0.000    0.000 
#    0.000    0.000    0.000    0.000    0.000    0.000 
#
# Total GULP energy -189341.667234 kJ/mol
# GULP energy per Si atom -5568.872566 kJ/mol
# Density = 2.015202 g / cm^3
# Si number density = 20.197989 Si / 1000 Ang^3
#
#
#
# Elastic Constant Matrix: (Units=GPa)
#
#
# Indices 1 2 3 4 5 6 
#
# 1 128.1117 41.7053 44.2044 0.0000 0.0000 0.0000
# 2 41.7053 123.0749 38.8553 0.0000 0.0000 0.0000
# 3 44.2044 38.8553 156.2496 0.0000 0.0000 0.0000
# 4 0.0000 0.0000 0.0000 7.5238 0.0000 0.0000
# 5 0.0000 0.0000 0.0000 0.0000 -42.5582 0.0000
# 6 0.0000 0.0000 0.0000 0.0000 0.0000 35.5380
#
#
#
# Elastic Compliance Matrix: (Units=1/GPa)
#
#
# Indices 1 2 3 4 5 6 
#
# 1 0.009321 -0.002524 -0.002009 0.000000 0.000000 0.000000
# 2 -0.002524 0.009501 -0.001649 0.000000 0.000000 0.000000
# 3 -0.002009 -0.001649 0.007378 0.000000 0.000000 0.000000
# 4 0.000000 0.000000 0.000000 0.132912 0.000000 0.000000
# 5 0.000000 0.000000 0.000000 0.000000 -0.023497 0.000000
# 6 0.000000 0.000000 0.000000 0.000000 0.000000 0.028139
#
#
# Mechanical properties :
#
#
# Convention : Reuss Voigt Hill
#
# Bulk Modulus (GPa) = 72.27396 72.99625 72.63510
# Shear Modulus (GPa) = 27.66568 18.94544 23.30556
#
# Velocity S-wave (km/s) = 3.70499 3.06598 3.40053
# Velocity P-wave (km/s) = 7.35956 6.98230 7.17341
#
# Compressibility (1/GPa) = 0.01383624
#
# Stress axis : x y z
#
# Youngs Moduli (GPa) = 107.28861 105.25312 135.53085
#
# Poissons Ratio (x) = 0.26567 0.27231
# Poissons Ratio (y) = 0.27081 0.22343
# Poissons Ratio (z) = 0.21557 0.17351
#
# Static dielectric constant tensor:
#      x y z
#    x 1.698510 0.000000 0.000000 
#    y 0.000000 1.712110 0.000000 
#    z 0.000000 0.000000 1.720320 
# 
# From -- ./inp_files/2151.got.cif
#   From: 2010.05.17/outbox.cif.g08.bks.cpg/sg55_2_cif.got.tgz:2151.got - 2010.06.03 13:27:54.
