data_PCOD9426338
_publ_section_title
;
Structure prediction by ZEFSAII (Michael W. Deem and Ramdas Pophale) SiO2 
 PCOD9426338
Probable space group: P B A M
;
_chemical_formula_sum "Si O2"
_cell_formula_units_Z 48
_cell_length_a 28.950655
_cell_length_b 9.745802
_cell_length_c 7.722430
_cell_angle_alpha 90.000000
_cell_angle_beta 90.000000
_cell_angle_gamma 90.000000
_cell_volume 2178.863171
_symmetry_space_group_name_H-M "P B A M"
_symmetry_group_IT_number 55
_symmetry_cell_setting 'orthorhombic'
loop_
_space_group_symop_operation_xyz
x,y,z
-x,-y,z
1/2+x,1/2-y,-z
1/2-x,1/2+y,-z
-x,-y,-z
x,y,-z
1/2-x,1/2+y,z
1/2+x,1/2-y,z
loop_
_atom_site_type_symbol
_atom_site_label
_atom_site_fract_x
_atom_site_fract_y
_atom_site_fract_z
Si Si1 0.116852 0.322832 0.199982
Si Si2 0.955449 0.096049 0.206592
Si Si3 0.283488 0.305227 0.287272
Si Si4 0.298603 0.995694 0.702940
Si Si5 0.641136 0.475156 0.698093
Si Si6 0.012841 0.346369 0.211199
O O1 0.149875 0.437208 0.280148
O O2 0.139547 0.172627 0.212878
O O3 0.064723 0.312866 0.272281
O O4 0.112174 0.361322 0.000000
O O5 0.973241 0.242727 0.270455
O O6 0.910115 0.037475 0.293908
O O7 0.945576 0.099571 0.000000
O O8 0.000000 0.000000 0.230200
O O9 0.284359 0.299601 0.500000
O O10 0.236336 0.379083 0.228762
O O11 0.324113 0.409504 0.233073
O O12 0.290730 0.149001 0.225330
O O13 0.287722 0.006144 0.500000
O O14 0.654834 0.446779 0.500000
O O15 0.000000 0.500000 0.256707
O O16 0.013187 0.332882 0.000000
#
# Coordination Sequence:
#
# PCOD9426338 Si02
#       6
#     8   8   8   8   8   8
#     4  11  22  38  58  85 116 150 191 237 286 339
#     4  10  19  36  58  81 112 153 194 235 285 339
#     4   9  20  38  62  87 114 149 188 229 284 347
#     4  10  20  39  63  85 111 147 188 230 281 343
#     4  11  22  37  59  87 117 153 196 239 283 339
#     4   9  19  35  55  78 110 153 193 227 280 347
#
# _framework density 22.029834999999999
#
# number of rings (size 3 to 8) (size 9 to 14) (size 15 to 20)
#    0.000    2.000    1.667    2.000    2.333    3.000 
#    0.000    5.000    0.000    2.500    0.000    0.000 
#    0.000    0.000    0.000    0.000    0.000    0.000 
#
# Total GULP energy -268116.516971 kJ/mol
# GULP energy per Si atom -5585.760770 kJ/mol
# Density = 2.197969 g / cm^3
# Si number density = 22.029835 Si / 1000 Ang^3
#
#
#
# Elastic Constant Matrix: (Units=GPa)
#
#
# Indices 1 2 3 4 5 6 
#
# 1 69.7101 18.7534 -0.2029 0.0000 0.0000 0.0000
# 2 18.7534 125.6432 2.0511 0.0000 0.0000 0.0000
# 3 -0.2029 2.0511 25.1124 0.0000 0.0000 0.0000
# 4 0.0000 0.0000 0.0000 7.0587 0.0000 0.0000
# 5 0.0000 0.0000 0.0000 0.0000 22.5596 0.0000
# 6 0.0000 0.0000 0.0000 0.0000 0.0000 35.9897
#
#
#
# Elastic Compliance Matrix: (Units=1/GPa)
#
#
# Indices 1 2 3 4 5 6 
#
# 1 0.014948 -0.002236 0.000303 0.000000 0.000000 0.000000
# 2 -0.002236 0.008304 -0.000696 0.000000 0.000000 0.000000
# 3 0.000303 -0.000696 0.039880 0.000000 0.000000 0.000000
# 4 0.000000 0.000000 0.000000 0.141670 0.000000 0.000000
# 5 0.000000 0.000000 0.000000 0.000000 0.044327 0.000000
# 6 0.000000 0.000000 0.000000 0.000000 0.000000 0.027786
#
#
# Mechanical properties :
#
#
# Convention : Reuss Voigt Hill
#
# Bulk Modulus (GPa) = 17.27885 29.07432 23.17658
# Shear Modulus (GPa) = 16.58572 26.44586 21.51579
#
# Velocity S-wave (km/s) = 2.74683 3.46852 3.12856
# Velocity P-wave (km/s) = 4.23327 5.40992 4.85735
#
# Compressibility (1/GPa) = 0.05787423
#
# Stress axis : x y z
#
# Youngs Moduli (GPa) = 66.90065 120.42159 25.07500
#
# Poissons Ratio (x) = 0.26926 -0.00761
# Poissons Ratio (y) = 0.14959 0.01746
# Poissons Ratio (z) = -0.02030 0.08385
#
# Static dielectric constant tensor:
#      x y z
#    x 1.789120 0.000000 0.000000 
#    y 0.000000 1.801830 0.000000 
#    z 0.000000 0.000000 1.834450 
# 
# From -- ./inp_files/2786.got.cif
#   From: 2010.05.17/outbox.cif.g08.bks.cpg/sg55_2_cif.got.tgz:2786.got - 2010.06.03 13:27:54.
