data_PCOD9426737
_publ_section_title
;
Structure prediction by ZEFSAII (Michael W. Deem and Ramdas Pophale) SiO2 
 PCOD9426737
Probable space group: P B A M
;
_chemical_formula_sum "Si O2"
_cell_formula_units_Z 56
_cell_length_a 14.014642
_cell_length_b 23.959322
_cell_length_c 8.806999
_cell_angle_alpha 90.000000
_cell_angle_beta 90.000000
_cell_angle_gamma 90.000000
_cell_volume 2957.225753
_symmetry_space_group_name_H-M "P B A M"
_symmetry_group_IT_number 55
_symmetry_cell_setting 'orthorhombic'
loop_
_space_group_symop_operation_xyz
x,y,z
-x,-y,z
1/2+x,1/2-y,-z
1/2-x,1/2+y,-z
-x,-y,-z
x,y,-z
1/2-x,1/2+y,z
1/2+x,1/2-y,z
loop_
_atom_site_type_symbol
_atom_site_label
_atom_site_fract_x
_atom_site_fract_y
_atom_site_fract_z
Si Si1 0.899027 0.059418 0.825966
Si Si2 0.986383 0.170103 0.815978
Si Si3 0.798580 0.829895 0.182176
Si Si4 0.783017 0.959760 0.815536
Si Si5 0.396975 0.975108 0.681899
Si Si6 0.696669 0.728296 0.679999
Si Si7 0.197700 0.372696 0.825693
O O1 0.968487 0.106305 0.759376
O O2 0.796762 0.091693 0.827036
O O3 0.871738 0.998852 0.761846
O O4 0.930445 0.050995 0.000000
O O5 0.904147 0.208541 0.748570
O O6 0.093242 0.188000 0.780223
O O7 0.975867 0.169101 0.000000
O O8 0.789834 0.894979 0.223194
O O9 0.725323 0.789397 0.263922
O O10 0.786366 0.825373 0.000000
O O11 0.686449 0.986180 0.750062
O O12 0.781516 0.964445 0.000000
O O13 0.388533 0.973847 0.500000
O O14 0.378361 0.913042 0.746396
O O15 0.500000 0.000000 0.722928
O O16 0.693052 0.725163 0.500000
O O17 0.775334 0.684290 0.742059
O O18 0.171542 0.361579 0.000000
#
# Coordination Sequence:
#
# PCOD9426737 Si02
#       7
#     8   8   8   8   8   8   8
#     4   7  12  26  51  80 105 129 163 212 266 319
#     4   9  18  35  59  83 109 144 187 233 281 340
#     4  10  21  37  57  83 115 151 193 237 282 337
#     4   9  18  33  54  81 113 148 185 229 280 334
#     4  10  20  34  53  81 116 150 185 230 285 344
#     4  11  22  37  57  80 111 149 188 236 290 343
#     4   9  17  33  57  79 102 139 187 233 275 325
#
# _framework density 18.936667
#
# number of rings (size 3 to 8) (size 9 to 14) (size 15 to 20)
#    0.000    2.714    0.000    3.857    0.000    2.857 
#    2.571    2.857    0.000    0.000    0.000    7.000 
#    0.000    0.000    0.000    0.000    0.000    0.000 
#
# Total GULP energy -312285.587441 kJ/mol
# GULP energy per Si atom -5576.528347 kJ/mol
# Density = 1.889357 g / cm^3
# Si number density = 18.936667 Si / 1000 Ang^3
#
#
#
# Elastic Constant Matrix: (Units=GPa)
#
#
# Indices 1 2 3 4 5 6 
#
# 1 58.5478 26.7101 22.0180 0.0000 0.0000 0.0000
# 2 26.7101 101.9139 29.9002 0.0000 0.0000 0.0000
# 3 22.0180 29.9002 43.3920 0.0000 0.0000 0.0000
# 4 0.0000 0.0000 0.0000 15.9123 0.0000 0.0000
# 5 0.0000 0.0000 0.0000 0.0000 12.8427 0.0000
# 6 0.0000 0.0000 0.0000 0.0000 0.0000 27.3048
#
#
#
# Elastic Compliance Matrix: (Units=1/GPa)
#
#
# Indices 1 2 3 4 5 6 
#
# 1 0.021864 -0.003102 -0.008956 0.000000 0.000000 0.000000
# 2 -0.003102 0.012739 -0.007204 0.000000 0.000000 0.000000
# 3 -0.008956 -0.007204 0.032554 0.000000 0.000000 0.000000
# 4 0.000000 0.000000 0.000000 0.062845 0.000000 0.000000
# 5 0.000000 0.000000 0.000000 0.000000 0.077865 0.000000
# 6 0.000000 0.000000 0.000000 0.000000 0.000000 0.036624
#
#
# Mechanical properties :
#
#
# Convention : Reuss Voigt Hill
#
# Bulk Modulus (GPa) = 34.92624 40.12340 37.52482
# Shear Modulus (GPa) = 17.09058 19.56029 18.32544
#
# Velocity S-wave (km/s) = 3.00744 3.21741 3.11420
# Velocity P-wave (km/s) = 5.52661 5.91917 5.72625
#
# Compressibility (1/GPa) = 0.02863177
#
# Stress axis : x y z
#
# Youngs Moduli (GPa) = 45.73812 78.50041 30.71801
#
# Poissons Ratio (x) = 0.24355 0.27512
# Poissons Ratio (y) = 0.14190 0.22128
# Poissons Ratio (z) = 0.40964 0.56549
#
# Static dielectric constant tensor:
#      x y z
#    x 1.657910 0.000000 0.000000 
#    y 0.000000 1.682570 0.000000 
#    z 0.000000 0.000000 1.633140 
# 
# From -- ./inp_files/6023.got.cif
#   From: 2010.05.17/outbox.cif.g08.bks.cpg/sg55_4_cif.got.tgz:6023.got - 2010.06.03 13:27:54.
