data_PCOD9426394
_publ_section_title
;
Structure prediction by ZEFSAII (Michael W. Deem and Ramdas Pophale) SiO2 
 PCOD9426394
Probable space group: P B A M
;
_chemical_formula_sum "Si O2"
_cell_formula_units_Z 32
_cell_length_a 17.993279
_cell_length_b 19.155234
_cell_length_c 5.275028
_cell_angle_alpha 90.000000
_cell_angle_beta 90.000000
_cell_angle_gamma 90.000000
_cell_volume 1818.120003
_symmetry_space_group_name_H-M "P B A M"
_symmetry_group_IT_number 55
_symmetry_cell_setting 'orthorhombic'
loop_
_space_group_symop_operation_xyz
x,y,z
-x,-y,z
1/2+x,1/2-y,-z
1/2-x,1/2+y,-z
-x,-y,-z
x,y,-z
1/2-x,1/2+y,z
1/2+x,1/2-y,z
loop_
_atom_site_type_symbol
_atom_site_label
_atom_site_fract_x
_atom_site_fract_y
_atom_site_fract_z
Si Si1 0.331872 0.650528 0.500000
Si Si2 0.925984 0.621505 0.000000
Si Si3 0.496908 0.583895 0.500000
Si Si4 0.533545 0.665632 0.000000
Si Si5 0.867141 0.771507 0.000000
Si Si6 0.082440 0.469343 0.500000
Si Si7 0.667274 0.886496 0.500000
Si Si8 0.904525 0.318356 0.000000
O O1 0.409675 0.607825 0.500000
O O2 0.330857 0.698481 0.251597
O O3 0.256081 0.607985 0.500000
O O4 0.874178 0.689070 0.000000
O O5 0.910655 0.576860 0.750543
O O6 0.012153 0.647787 0.000000
O O7 0.500000 0.500000 0.500000
O O8 0.535320 0.617916 0.251546
O O9 0.451305 0.699361 0.000000
O O10 0.586439 0.733897 0.000000
O O11 0.135440 0.535678 0.500000
O O12 0.000000 0.500000 0.500000
O O13 0.636838 0.846051 0.251351
#
# Coordination Sequence:
#
# PCOD9426394 Si02
#       8
#     4   4   4   4   4   4   4   4
#     4  10  21  38  56  81 109 145 192 228 282 341
#     4  11  20  35  58  82 112 143 195 235 265 317
#     4  10  19  36  62  85 107 141 187 238 284 329
#     4   9  19  33  57  87 105 130 183 240 276 318
#     4   9  19  36  59  79 102 140 188 237 268 319
#     4  12  21  34  53  88 118 151 189 223 274 337
#     4  12  23  34  57  78 118 158 182 226 283 344
#     4  11  20  35  55  85 110 147 187 233 275 318
#
# _framework density 17.600598999999999
#
# number of rings (size 3 to 8) (size 9 to 14) (size 15 to 20)
#    0.000    1.500    2.500    3.750    0.000    4.000 
#    0.000    0.000   16.500    0.000    0.000    0.000 
#    0.000    0.000    0.000    0.000    0.000    0.000 
#
# Total GULP energy -178622.848657 kJ/mol
# GULP energy per Si atom -5581.964021 kJ/mol
# Density = 1.756054 g / cm^3
# Si number density = 17.600599 Si / 1000 Ang^3
#
#
#
# Elastic Constant Matrix: (Units=GPa)
#
#
# Indices 1 2 3 4 5 6 
#
# 1 62.4132 33.2661 28.6447 0.0000 0.0000 0.0000
# 2 33.2661 166.2002 92.2268 0.0000 0.0000 0.0000
# 3 28.6447 92.2268 191.6204 0.0000 0.0000 0.0000
# 4 0.0000 0.0000 0.0000 31.9541 0.0000 0.0000
# 5 0.0000 0.0000 0.0000 0.0000 20.5588 0.0000
# 6 0.0000 0.0000 0.0000 0.0000 0.0000 27.1296
#
#
#
# Elastic Compliance Matrix: (Units=1/GPa)
#
#
# Indices 1 2 3 4 5 6 
#
# 1 0.018176 -0.002907 -0.001318 0.000000 0.000000 0.000000
# 2 -0.002907 0.008674 -0.003740 0.000000 0.000000 0.000000
# 3 -0.001318 -0.003740 0.007216 0.000000 0.000000 0.000000
# 4 0.000000 0.000000 0.000000 0.031295 0.000000 0.000000
# 5 0.000000 0.000000 0.000000 0.000000 0.048641 0.000000
# 6 0.000000 0.000000 0.000000 0.000000 0.000000 0.036860
#
#
# Mechanical properties :
#
#
# Convention : Reuss Voigt Hill
#
# Bulk Modulus (GPa) = 55.13837 80.94544 68.04190
# Shear Modulus (GPa) = 28.92873 33.66823 31.29848
#
# Velocity S-wave (km/s) = 4.05856 4.37842 4.22152
# Velocity P-wave (km/s) = 7.30466 8.46468 7.90597
#
# Compressibility (1/GPa) = 0.01813619
#
# Stress axis : x y z
#
# Youngs Moduli (GPa) = 55.01614 115.28401 138.58195
#
# Poissons Ratio (x) = 0.33509 0.18267
# Poissons Ratio (y) = 0.15991 0.51835
# Poissons Ratio (z) = 0.07252 0.43121
#
# Static dielectric constant tensor:
#      x y z
#    x 1.583530 0.000000 0.000000 
#    y 0.000000 1.564710 0.000000 
#    z 0.000000 0.000000 1.609500 
# 
# From -- ./inp_files/667.got.cif
#   From: 2010.05.17/outbox.cif.g08.bks.cpg/sg55_1_cif.got.tgz:667.got - 2010.06.03 13:27:54.
