data_PCOD9426410
_publ_section_title
;
Structure prediction by ZEFSAII (Michael W. Deem and Ramdas Pophale) SiO2 
 PCOD9426410
Probable space group: P B A M
;
_chemical_formula_sum "Si O2"
_cell_formula_units_Z 52
_cell_length_a 15.393621
_cell_length_b 8.722897
_cell_length_c 18.547024
_cell_angle_alpha 90.000000
_cell_angle_beta 90.000000
_cell_angle_gamma 90.000000
_cell_volume 2490.438193
_symmetry_space_group_name_H-M "P B A M"
_symmetry_group_IT_number 55
_symmetry_cell_setting 'orthorhombic'
loop_
_space_group_symop_operation_xyz
x,y,z
-x,-y,z
1/2+x,1/2-y,-z
1/2-x,1/2+y,-z
-x,-y,-z
x,y,-z
1/2-x,1/2+y,z
1/2+x,1/2-y,z
loop_
_atom_site_type_symbol
_atom_site_label
_atom_site_fract_x
_atom_site_fract_y
_atom_site_fract_z
Si Si1 0.343785 0.374256 0.221162
Si Si2 0.455050 0.329796 0.919323
Si Si3 0.393182 0.644511 0.314321
Si Si4 0.475898 0.180027 0.582634
Si Si5 0.000000 0.500000 0.133081
Si Si6 0.198752 0.640555 0.653296
Si Si7 0.345634 0.926607 0.766301
O O1 0.391343 0.335284 0.148387
O O2 0.399200 0.481977 0.274494
O O3 0.317585 0.235902 0.273582
O O4 0.250028 0.445293 0.201701
O O5 0.500000 0.500000 0.916317
O O6 0.504739 0.164255 0.908777
O O7 0.416460 0.321235 0.000000
O O8 0.469319 0.712573 0.363482
O O9 0.301618 0.638648 0.359358
O O10 0.379358 0.755012 0.245317
O O11 0.496688 0.217578 0.500000
O O12 0.372051 0.195071 0.596162
O O13 0.500000 0.000000 0.594459
O O14 0.082640 0.507401 0.186083
O O15 0.167521 0.476191 0.682586
#
# Coordination Sequence:
#
# PCOD9426410 Si02
#       7
#     8   8   8   8   4   8   8
#     4  10  22  38  63  92 122 162 206 266 317 368
#     4  11  25  43  62  94 135 171 212 265 328 391
#     4  10  21  37  62  92 123 159 210 265 313 372
#     4  11  23  39  62  91 123 165 210 255 325 396
#     4  12  21  40  72  92 129 174 210 274 323 390
#     4  10  20  37  61  92 122 158 209 262 310 376
#     4  10  19  36  64  95 118 155 221 255 307 375
#
# _framework density 20.879859
#
# number of rings (size 3 to 8) (size 9 to 14) (size 15 to 20)
#    0.000    1.538    3.077    2.077    2.154    0.615 
#    0.000    3.077    0.000    0.000    0.000    0.000 
#    0.000    0.000    0.000    0.000    0.000    0.000 
#
# Total GULP energy -289602.292497 kJ/mol
# GULP energy per Si atom -5569.274856 kJ/mol
# Density = 2.083234 g / cm^3
# Si number density = 20.879859 Si / 1000 Ang^3
#
#
#
# Elastic Constant Matrix: (Units=GPa)
#
#
# Indices 1 2 3 4 5 6 
#
# 1 101.7999 21.2220 53.7002 0.0000 0.0000 0.0000
# 2 21.2220 81.5514 25.6389 0.0000 0.0000 0.0000
# 3 53.7002 25.6389 92.1686 0.0000 0.0000 0.0000
# 4 0.0000 0.0000 0.0000 23.9623 0.0000 0.0000
# 5 0.0000 0.0000 0.0000 0.0000 13.5799 0.0000
# 6 0.0000 0.0000 0.0000 0.0000 0.0000 24.8674
#
#
#
# Elastic Compliance Matrix: (Units=1/GPa)
#
#
# Indices 1 2 3 4 5 6 
#
# 1 0.014289 -0.001207 -0.007990 0.000000 0.000000 0.000000
# 2 -0.001207 0.013539 -0.003063 0.000000 0.000000 0.000000
# 3 -0.007990 -0.003063 0.016357 0.000000 0.000000 0.000000
# 4 0.000000 0.000000 0.000000 0.041732 0.000000 0.000000
# 5 0.000000 0.000000 0.000000 0.000000 0.073638 0.000000
# 6 0.000000 0.000000 0.000000 0.000000 0.000000 0.040213
#
#
# Mechanical properties :
#
#
# Convention : Reuss Voigt Hill
#
# Bulk Modulus (GPa) = 50.84855 52.96021 51.90438
# Shear Modulus (GPa) = 21.65963 24.14584 22.90274
#
# Velocity S-wave (km/s) = 3.22428 3.40430 3.31551
# Velocity P-wave (km/s) = 6.18604 6.39310 6.29042
#
# Compressibility (1/GPa) = 0.01966624
#
# Stress axis : x y z
#
# Youngs Moduli (GPa) = 69.98190 73.85936 61.13628
#
# Poissons Ratio (x) = 0.08912 0.48847
# Poissons Ratio (y) = 0.08444 0.18728
# Poissons Ratio (z) = 0.55914 0.22625
#
# Static dielectric constant tensor:
#      x y z
#    x 1.796750 0.000000 0.000000 
#    y 0.000000 1.921280 0.000000 
#    z 0.000000 0.000000 1.694100 
# 
# From -- ./inp_files/22938.got.cif
#   From: 2010.05.17/outbox.cif.g08.bks.cpg/sg55_12_cif.got.tgz:22938.got - 2010.06.03 13:27:54.
