data_PCOD9426923
_publ_section_title
;
Structure prediction by ZEFSAII (Michael W. Deem and Ramdas Pophale) SiO2 
 PCOD9426923
Probable space group: P B A M
;
_chemical_formula_sum "Si O2"
_cell_formula_units_Z 64
_cell_length_a 28.776087
_cell_length_b 13.186214
_cell_length_c 7.493078
_cell_angle_alpha 90.000000
_cell_angle_beta 90.000000
_cell_angle_gamma 90.000000
_cell_volume 2843.230773
_symmetry_space_group_name_H-M "P B A M"
_symmetry_group_IT_number 55
_symmetry_cell_setting 'orthorhombic'
loop_
_space_group_symop_operation_xyz
x,y,z
-x,-y,z
1/2+x,1/2-y,-z
1/2-x,1/2+y,-z
-x,-y,-z
x,y,-z
1/2-x,1/2+y,z
1/2+x,1/2-y,z
loop_
_atom_site_type_symbol
_atom_site_label
_atom_site_fract_x
_atom_site_fract_y
_atom_site_fract_z
Si Si1 0.954826 0.057914 0.203272
Si Si2 0.657515 0.064224 0.207593
Si Si3 0.622653 0.404179 0.297973
Si Si4 0.308159 0.154290 0.216032
Si Si5 0.519602 0.894825 0.783595
Si Si6 0.704862 0.274355 0.291020
Si Si7 0.402474 0.244979 0.781609
Si Si8 0.425517 0.801731 0.216739
O O1 0.932932 0.160153 0.283205
O O2 0.910521 0.983156 0.200848
O O3 0.969339 0.084250 0.000000
O O4 0.000000 0.000000 0.282403
O O5 0.690876 0.163522 0.217644
O O6 0.607946 0.105975 0.276822
O O7 0.679636 0.960400 0.280177
O O8 0.648733 0.041684 0.000000
O O9 0.629744 0.442258 0.500000
O O10 0.671578 0.364763 0.218668
O O11 0.593812 0.300193 0.297980
O O12 0.257987 0.194742 0.270560
O O13 0.349487 0.229837 0.274260
O O14 0.307812 0.152586 0.000000
O O15 0.569353 0.855462 0.727551
O O16 0.479054 0.816027 0.740284
O O17 0.500000 0.000000 0.715014
O O18 0.521827 0.902736 0.000000
O O19 0.693406 0.268067 0.500000
O O20 0.402012 0.251274 0.000000
O O21 0.421457 0.795229 0.000000
#
# Coordination Sequence:
#
# PCOD9426923 Si02
#       8
#     8   8   8   8   8   8   8   8
#     4  10  20  35  56  81 111 147 182 218 266 325
#     4   9  18  33  54  79 105 134 171 216 265 316
#     4  10  21  36  53  74 101 135 177 223 267 310
#     4  10  20  35  55  79 108 140 176 222 274 321
#     4   9  15  25  47  78 107 132 160 199 247 299
#     4  10  22  38  55  77 105 140 183 228 274 326
#     4   9  18  31  48  76 110 138 170 213 260 313
#     4   9  16  29  52  79 104 132 168 207 250 305
#
# _framework density 22.509605000000001
#
# number of rings (size 3 to 8) (size 9 to 14) (size 15 to 20)
#    0.000    2.500    0.000    2.250    0.000    8.250 
#    0.000    4.375    0.000    1.125    0.000    0.000 
#    0.000    0.000    0.000    0.000    0.000    0.000 
#
# Total GULP energy -357069.958785 kJ/mol
# GULP energy per Si atom -5579.218106 kJ/mol
# Density = 2.245837 g / cm^3
# Si number density = 22.509605 Si / 1000 Ang^3
#
#
#
# Elastic Constant Matrix: (Units=GPa)
#
#
# Indices 1 2 3 4 5 6 
#
# 1 141.7285 36.6021 -5.5663 0.0000 0.0000 0.0000
# 2 36.6021 82.5719 -5.5881 0.0000 0.0000 0.0000
# 3 -5.5663 -5.5881 58.9910 0.0000 0.0000 0.0000
# 4 0.0000 0.0000 0.0000 -26.5970 0.0000 0.0000
# 5 0.0000 0.0000 0.0000 0.0000 -3.0591 0.0000
# 6 0.0000 0.0000 0.0000 0.0000 0.0000 28.5905
#
#
#
# Elastic Compliance Matrix: (Units=1/GPa)
#
#
# Indices 1 2 3 4 5 6 
#
# 1 0.007978 -0.003508 0.000421 0.000000 0.000000 0.000000
# 2 -0.003508 0.013731 0.000970 0.000000 0.000000 0.000000
# 3 0.000421 0.000970 0.017083 0.000000 0.000000 0.000000
# 4 0.000000 0.000000 0.000000 -0.037598 0.000000 0.000000
# 5 0.000000 0.000000 0.000000 0.000000 -0.326895 0.000000
# 6 0.000000 0.000000 0.000000 0.000000 0.000000 0.034977
#
#
# Mechanical properties :
#
#
# Convention : Reuss Voigt Hill
#
# Bulk Modulus (GPa) = 28.93761 37.13186 33.03473
# Shear Modulus (GPa) = -18.18387 16.97647 -0.60370
#
# Velocity S-wave (km/s) = -2.84531 2.74923 -0.51844
# Velocity P-wave (km/s) = 1.44540 5.15844 3.78805
#
# Compressibility (1/GPa) = 0.03455711
#
# Stress axis : x y z
#
# Youngs Moduli (GPa) = 125.34080 72.82611 58.53677
#
# Poissons Ratio (x) = 0.25548 -0.02461
# Poissons Ratio (y) = 0.43971 -0.05676
# Poissons Ratio (z) = -0.05271 -0.07062
#
# Static dielectric constant tensor:
#      x y z
#    x 1.809860 0.000000 0.000000 
#    y 0.000000 1.855500 0.000000 
#    z 0.000000 0.000000 1.901910 
# 
# From -- ./inp_files/9804.got.cif
#   From: 2010.05.17/outbox.cif.g08.bks.cpg/sg55_5_cif.got.tgz:9804.got - 2010.06.03 13:27:54.
