data_PCOD9426342
_publ_section_title
;
Structure prediction by ZEFSAII (Michael W. Deem and Ramdas Pophale) SiO2 
 PCOD9426342
Probable space group: P B A M
;
_chemical_formula_sum "Si O2"
_cell_formula_units_Z 64
_cell_length_a 15.064791
_cell_length_b 22.838115
_cell_length_c 7.463928
_cell_angle_alpha 90.000000
_cell_angle_beta 90.000000
_cell_angle_gamma 90.000000
_cell_volume 2567.975097
_symmetry_space_group_name_H-M "P B A M"
_symmetry_group_IT_number 55
_symmetry_cell_setting 'orthorhombic'
loop_
_space_group_symop_operation_xyz
x,y,z
-x,-y,z
1/2+x,1/2-y,-z
1/2-x,1/2+y,-z
-x,-y,-z
x,y,-z
1/2-x,1/2+y,z
1/2+x,1/2-y,z
loop_
_atom_site_type_symbol
_atom_site_label
_atom_site_fract_x
_atom_site_fract_y
_atom_site_fract_z
Si Si1 0.360290 0.239414 0.215484
Si Si2 0.045111 0.411335 0.781922
Si Si3 0.815138 0.824820 0.301054
Si Si4 0.368893 0.034813 0.782116
Si Si5 0.639481 0.630174 0.781316
Si Si6 0.563446 0.215999 0.217675
Si Si7 0.684956 0.503978 0.219333
Si Si8 0.047799 0.082844 0.798541
O O1 0.286372 0.191426 0.261359
O O2 0.334231 0.304944 0.279124
O O3 0.461451 0.227761 0.272823
O O4 0.362665 0.240310 0.000000
O O5 0.094276 0.470658 0.730637
O O6 0.085492 0.350049 0.725173
O O7 0.942422 0.418675 0.724106
O O8 0.045723 0.410851 0.000000
O O9 0.821903 0.848066 0.500000
O O10 0.869251 0.764170 0.286067
O O11 0.871488 0.870964 0.188756
O O12 0.268169 0.034862 0.720687
O O13 0.367885 0.037653 0.000000
O O14 0.693061 0.571956 0.728880
O O15 0.538232 0.615352 0.722477
O O16 0.642693 0.632880 0.000000
O O17 0.566872 0.219102 0.000000
O O18 0.593674 0.474596 0.281882
O O19 0.684228 0.502756 0.000000
O O20 0.019317 0.067077 0.000000
#
# Coordination Sequence:
#
# PCOD9426342 Si02
#       8
#     8   8   8   8   8   8   8   8
#     4  10  21  37  60  87 116 146 190 240 289 342
#     4   8  15  26  45  74 113 141 170 217 276 335
#     4  12  26  40  56  81 117 157 196 234 285 345
#     4   8  14  25  40  74 115 144 166 210 277 337
#     4   9  17  32  53  84 115 141 177 233 295 340
#     4  10  20  37  62  88 110 145 191 242 292 336
#     4   9  17  26  50  84 113 140 175 229 288 337
#     4  10  19  36  58  82 112 144 187 237 284 334
#
# _framework density 24.922360000000001
#
# number of rings (size 3 to 8) (size 9 to 14) (size 15 to 20)
#    0.000    2.500    1.250    2.250    3.500    2.000 
#    0.000    0.000    0.000    2.250    0.000    1.750 
#    0.000    0.000    0.000    0.000    0.000    0.000 
#
# Total GULP energy -357649.084118 kJ/mol
# GULP energy per Si atom -5588.266939 kJ/mol
# Density = 2.486564 g / cm^3
# Si number density = 24.922360 Si / 1000 Ang^3
#
#
#
# Elastic Constant Matrix: (Units=GPa)
#
#
# Indices 1 2 3 4 5 6 
#
# 1 83.8230 -16.9917 -3.1955 0.0000 0.0000 0.0000
# 2 -16.9917 70.1344 -0.8868 0.0000 0.0000 0.0000
# 3 -3.1955 -0.8868 76.0661 0.0000 0.0000 0.0000
# 4 0.0000 0.0000 0.0000 -50.9880 0.0000 0.0000
# 5 0.0000 0.0000 0.0000 0.0000 8.9729 0.0000
# 6 0.0000 0.0000 0.0000 0.0000 0.0000 41.4576
#
#
#
# Elastic Compliance Matrix: (Units=1/GPa)
#
#
# Indices 1 2 3 4 5 6 
#
# 1 0.012570 0.003053 0.000564 0.000000 0.000000 0.000000
# 2 0.003053 0.015002 0.000303 0.000000 0.000000 0.000000
# 3 0.000564 0.000303 0.013174 0.000000 0.000000 0.000000
# 4 0.000000 0.000000 0.000000 -0.019612 0.000000 0.000000
# 5 0.000000 0.000000 0.000000 0.000000 0.111446 0.000000
# 6 0.000000 0.000000 0.000000 0.000000 0.000000 0.024121
#
#
# Mechanical properties :
#
#
# Convention : Reuss Voigt Hill
#
# Bulk Modulus (GPa) = 20.58282 20.87506 20.72894
# Shear Modulus (GPa) = 30.29264 16.62834 23.46049
#
# Velocity S-wave (km/s) = 3.49016 2.58583 3.07146
# Velocity P-wave (km/s) = 4.95160 4.16048 4.57318
#
# Compressibility (1/GPa) = 0.04858421
#
# Stress axis : x y z
#
# Youngs Moduli (GPa) = 79.55348 66.65901 75.90897
#
# Poissons Ratio (x) = -0.20348 -0.04279
# Poissons Ratio (y) = -0.24284 -0.02301
# Poissons Ratio (z) = -0.04484 -0.02021
#
# Static dielectric constant tensor:
#      x y z
#    x 1.969470 0.000000 0.000000 
#    y 0.000000 1.953590 0.000000 
#    z 0.000000 0.000000 2.031800 
# 
# From -- ./inp_files/6597.got.cif
#   From: 2010.05.17/outbox.cif.g08.bks.cpg/sg55_4_cif.got.tgz:6597.got - 2010.06.03 13:27:54.
