data_PCOD9426021
_publ_section_title
;
Structure prediction by ZEFSAII (Michael W. Deem and Ramdas Pophale) SiO2 
 PCOD9426021
Probable space group: P B A M
;
_chemical_formula_sum "Si O2"
_cell_formula_units_Z 64
_cell_length_a 15.404139
_cell_length_b 24.602982
_cell_length_c 8.193586
_cell_angle_alpha 90.000000
_cell_angle_beta 90.000000
_cell_angle_gamma 90.000000
_cell_volume 3105.268760
_symmetry_space_group_name_H-M "P B A M"
_symmetry_group_IT_number 55
_symmetry_cell_setting 'orthorhombic'
loop_
_space_group_symop_operation_xyz
x,y,z
-x,-y,z
1/2+x,1/2-y,-z
1/2-x,1/2+y,-z
-x,-y,-z
x,y,-z
1/2-x,1/2+y,z
1/2+x,1/2-y,z
loop_
_atom_site_type_symbol
_atom_site_label
_atom_site_fract_x
_atom_site_fract_y
_atom_site_fract_z
Si Si1 0.504331 0.366943 0.300953
Si Si2 0.774501 0.255575 0.302245
Si Si3 0.312677 0.366605 0.304396
Si Si4 0.574056 0.251985 0.697165
Si Si5 0.432638 0.167044 0.194856
Si Si6 0.735663 0.027769 0.189791
Si Si7 0.092777 0.028474 0.695138
Si Si8 0.575693 0.957949 0.199624
O O1 0.504408 0.368261 0.500000
O O2 0.408464 0.384415 0.247187
O O3 0.522458 0.305790 0.249729
O O4 0.577542 0.409498 0.251033
O O5 0.776073 0.256595 0.500000
O O6 0.798996 0.194684 0.246210
O O7 0.673836 0.260866 0.250220
O O8 0.846321 0.299393 0.247954
O O9 0.314938 0.364426 0.500000
O O10 0.242210 0.411479 0.259270
O O11 0.574817 0.250342 0.500000
O O12 0.519160 0.199913 0.752977
O O13 0.432933 0.104512 0.256183
O O14 0.431740 0.165435 0.000000
O O15 0.828517 0.000147 0.217005
O O16 0.663788 0.986906 0.258309
O O17 0.716926 0.034012 0.000000
O O18 0.109841 0.025765 0.500000
O O19 0.000000 0.000000 0.721187
O O20 0.500000 0.000000 0.245913
O O21 0.576299 0.955418 0.000000
#
# Coordination Sequence:
#
# PCOD9426021 Si02
#       8
#     8   8   8   8   8   8   8   8
#     4   9  17  33  56  80 113 154 189 222 280 359
#     4  10  22  39  63  90 122 159 194 244 305 365
#     4  10  19  37  59  82 116 154 192 238 295 360
#     4  10  21  39  62  88 118 157 198 241 303 363
#     4  11  23  40  64  91 121 158 204 255 299 356
#     4  11  23  37  58  86 113 150 198 250 292 338
#     4  10  19  34  55  80 114 156 190 221 279 359
#     4   9  22  44  62  79 116 167 206 242 302 358
#
# _framework density 20.610130999999999
#
# number of rings (size 3 to 8) (size 9 to 14) (size 15 to 20)
#    0.000    2.000    2.500    0.750    3.500    1.250 
#    0.000    2.500    0.000    3.000    0.000    0.000 
#    0.000    0.000    0.000    0.000    0.000    0.000 
#
# Total GULP energy -357069.356934 kJ/mol
# GULP energy per Si atom -5579.208702 kJ/mol
# Density = 2.056322 g / cm^3
# Si number density = 20.610131 Si / 1000 Ang^3
#
#
#
# Elastic Constant Matrix: (Units=GPa)
#
#
# Indices 1 2 3 4 5 6 
#
# 1 92.9483 53.3451 10.5828 0.0000 0.0000 0.0000
# 2 53.3451 173.0965 12.2944 0.0000 0.0000 0.0000
# 3 10.5828 12.2944 8.0923 0.0000 0.0000 0.0000
# 4 0.0000 0.0000 0.0000 22.7936 0.0000 0.0000
# 5 0.0000 0.0000 0.0000 0.0000 21.1423 0.0000
# 6 0.0000 0.0000 0.0000 0.0000 0.0000 28.8840
#
#
#
# Elastic Compliance Matrix: (Units=1/GPa)
#
#
# Indices 1 2 3 4 5 6 
#
# 1 0.014262 -0.003442 -0.013422 0.000000 0.000000 0.000000
# 2 -0.003442 0.007307 -0.006599 0.000000 0.000000 0.000000
# 3 -0.013422 -0.006599 0.151153 0.000000 0.000000 0.000000
# 4 0.000000 0.000000 0.000000 0.043872 0.000000 0.000000
# 5 0.000000 0.000000 0.000000 0.000000 0.047298 0.000000
# 6 0.000000 0.000000 0.000000 0.000000 0.000000 0.034621
#
#
# Mechanical properties :
#
#
# Convention : Reuss Voigt Hill
#
# Bulk Modulus (GPa) = 7.94947 47.39797 27.67372
# Shear Modulus (GPa) = 12.90748 27.75831 20.33289
#
# Velocity S-wave (km/s) = 2.50525 3.67390 3.14434
# Velocity P-wave (km/s) = 3.49769 6.40656 5.16129
#
# Compressibility (1/GPa) = 0.12579461
#
# Stress axis : x y z
#
# Youngs Moduli (GPa) = 70.11464 136.86209 6.61582
#
# Poissons Ratio (x) = 0.47109 0.08880
# Poissons Ratio (y) = 0.24134 0.04366
# Poissons Ratio (z) = 0.94110 0.90319
#
# Static dielectric constant tensor:
#      x y z
#    x 1.747350 0.000000 0.000000 
#    y 0.000000 1.758610 0.000000 
#    z 0.000000 0.000000 1.738600 
# 
# From -- ./inp_files/6485.got.cif
#   From: 2010.05.17/outbox.cif.g08.bks.cpg/sg55_4_cif.got.tgz:6485.got - 2010.06.03 13:27:54.
