data_PCOD9426414
_publ_section_title
;
Structure prediction by ZEFSAII (Michael W. Deem and Ramdas Pophale) SiO2 
 PCOD9426414
Probable space group: P B A M
;
_chemical_formula_sum "Si O2"
_cell_formula_units_Z 64
_cell_length_a 15.311287
_cell_length_b 19.074537
_cell_length_c 11.561289
_cell_angle_alpha 90.000000
_cell_angle_beta 90.000000
_cell_angle_gamma 90.000000
_cell_volume 3376.540472
_symmetry_space_group_name_H-M "P B A M"
_symmetry_group_IT_number 55
_symmetry_cell_setting 'orthorhombic'
loop_
_space_group_symop_operation_xyz
x,y,z
-x,-y,z
1/2+x,1/2-y,-z
1/2-x,1/2+y,-z
-x,-y,-z
x,y,-z
1/2-x,1/2+y,z
1/2+x,1/2-y,z
loop_
_atom_site_type_symbol
_atom_site_label
_atom_site_fract_x
_atom_site_fract_y
_atom_site_fract_z
Si Si1 0.168166 0.671009 0.376383
Si Si2 0.698257 0.012308 0.870795
Si Si3 0.059059 0.790867 0.280417
Si Si4 0.545891 0.426328 0.635863
Si Si5 0.102610 0.512967 0.370814
Si Si6 0.898041 0.744817 0.129891
Si Si7 0.802846 0.878722 0.801493
Si Si8 0.773752 0.162591 0.133470
O O1 0.215187 0.675928 0.500000
O O2 0.100793 0.734143 0.365564
O O3 0.120821 0.596063 0.371085
O O4 0.235210 0.668251 0.271387
O O5 0.762178 0.078948 0.864372
O O6 0.643664 0.014507 0.750196
O O7 0.750415 0.939118 0.866372
O O8 0.654692 0.017166 0.000000
O O9 0.015979 0.859702 0.336851
O O10 0.140510 0.814849 0.201599
O O11 0.983407 0.751144 0.208465
O O12 0.500000 0.500000 0.665544
O O13 0.566470 0.427399 0.500000
O O14 0.632702 0.416161 0.710830
O O15 0.134692 0.487269 0.500000
O O16 0.000000 0.500000 0.367198
O O17 0.859125 0.823608 0.126918
O O18 0.819212 0.695308 0.174061
O O19 0.920769 0.721609 0.000000
O O20 0.782647 0.186060 0.000000
#
# Coordination Sequence:
#
# PCOD9426414 Si02
#       8
#     8   8   8   8   8   8   8   8
#     4  10  20  35  56  81 111 151 194 242 289 350
#     4  10  21  36  59  86 116 151 198 252 299 352
#     4  11  21  36  58  83 113 153 196 240 294 355
#     4  10  21  36  57  85 117 153 195 247 295 351
#     4   9  20  38  58  81 116 155 195 240 299 361
#     4  10  21  36  56  81 112 149 191 234 291 357
#     4  10  19  37  58  81 114 152 193 238 297 358
#     4  10  21  38  56  82 120 151 189 245 299 350
#
# _framework density 18.954312000000002
#
# number of rings (size 3 to 8) (size 9 to 14) (size 15 to 20)
#    0.000    2.000    1.250    2.250    1.750    0.750 
#    0.000    1.875    0.000    6.000    0.000    0.000 
#    0.000    0.000    0.000    0.000    0.000    0.000 
#
# Total GULP energy -356607.876201 kJ/mol
# GULP energy per Si atom -5571.998066 kJ/mol
# Density = 1.891117 g / cm^3
# Si number density = 18.954312 Si / 1000 Ang^3
#
#
#
# Elastic Constant Matrix: (Units=GPa)
#
#
# Indices 1 2 3 4 5 6 
#
# 1 53.3838 0.1350 36.3024 0.0000 0.0000 0.0000
# 2 0.1350 24.1283 9.9066 0.0000 0.0000 0.0000
# 3 36.3024 9.9066 105.5173 0.0000 0.0000 0.0000
# 4 0.0000 0.0000 0.0000 -16.0249 0.0000 0.0000
# 5 0.0000 0.0000 0.0000 0.0000 59.0840 0.0000
# 6 0.0000 0.0000 0.0000 0.0000 0.0000 21.4766
#
#
#
# Elastic Compliance Matrix: (Units=1/GPa)
#
#
# Indices 1 2 3 4 5 6 
#
# 1 0.024733 0.003490 -0.008837 0.000000 0.000000 0.000000
# 2 0.003490 0.043599 -0.005294 0.000000 0.000000 0.000000
# 3 -0.008837 -0.005294 0.013014 0.000000 0.000000 0.000000
# 4 0.000000 0.000000 0.000000 -0.062403 0.000000 0.000000
# 5 0.000000 0.000000 0.000000 0.000000 0.016925 0.000000
# 6 0.000000 0.000000 0.000000 0.000000 0.000000 0.046562
#
#
# Mechanical properties :
#
#
# Convention : Reuss Voigt Hill
#
# Bulk Modulus (GPa) = 16.64877 30.63525 23.64201
# Shear Modulus (GPa) = 40.40928 22.01950 31.21439
#
# Velocity S-wave (km/s) = 4.62229 3.41209 4.06251
# Velocity P-wave (km/s) = 6.10657 5.63213 5.87414
#
# Compressibility (1/GPa) = 0.06006448
#
# Stress axis : x y z
#
# Youngs Moduli (GPa) = 40.43239 22.93618 76.83826
#
# Poissons Ratio (x) = -0.08004 0.67900
# Poissons Ratio (y) = -0.14110 0.40678
# Poissons Ratio (z) = 0.35729 0.12142
#
# Static dielectric constant tensor:
#      x y z
#    x 1.640720 0.000000 0.000000 
#    y 0.000000 1.654850 0.000000 
#    z 0.000000 0.000000 1.698140 
# 
# From -- ./inp_files/14384.got.cif
#   From: 2010.05.17/outbox.cif.g08.bks.cpg/sg55_8_cif.got.tgz:14384.got - 2010.06.03 13:27:54.
