data_PCOD9426901
_publ_section_title
;
Structure prediction by ZEFSAII (Michael W. Deem and Ramdas Pophale) SiO2 
 PCOD9426901
Probable space group: P B A M
;
_chemical_formula_sum "Si O2"
_cell_formula_units_Z 56
_cell_length_a 13.296856
_cell_length_b 23.957802
_cell_length_c 7.602704
_cell_angle_alpha 90.000000
_cell_angle_beta 90.000000
_cell_angle_gamma 90.000000
_cell_volume 2421.943564
_symmetry_space_group_name_H-M "P B A M"
_symmetry_group_IT_number 55
_symmetry_cell_setting 'orthorhombic'
loop_
_space_group_symop_operation_xyz
x,y,z
-x,-y,z
1/2+x,1/2-y,-z
1/2-x,1/2+y,-z
-x,-y,-z
x,y,-z
1/2-x,1/2+y,z
1/2+x,1/2-y,z
loop_
_atom_site_type_symbol
_atom_site_label
_atom_site_fract_x
_atom_site_fract_y
_atom_site_fract_z
Si Si1 0.033321 0.831649 0.709923
Si Si2 0.336592 0.738733 0.212222
Si Si3 0.414799 0.039044 0.200831
Si Si4 0.721806 0.867524 0.785289
Si Si5 0.421707 0.562239 0.704051
Si Si6 0.252748 0.347257 0.800821
Si Si7 0.219313 0.973303 0.294698
O O1 0.048370 0.835516 0.500000
O O2 0.942890 0.788973 0.742609
O O3 0.998205 0.892529 0.781370
O O4 0.138580 0.817458 0.796798
O O5 0.249087 0.695292 0.269820
O O6 0.321231 0.801374 0.279954
O O7 0.330305 0.741760 0.000000
O O8 0.377626 0.098900 0.274094
O O9 0.500000 0.000000 0.285904
O O10 0.313714 0.001828 0.200713
O O11 0.448190 0.050145 0.000000
O O12 0.816730 0.903343 0.717937
O O13 0.722859 0.869593 0.000000
O O14 0.451450 0.556307 0.500000
O O15 0.385314 0.501603 0.771124
O O16 0.270103 0.407192 0.715827
O O17 0.221030 0.359301 0.000000
O O18 0.225589 0.988749 0.500000
#
# Coordination Sequence:
#
# PCOD9426901 Si02
#       7
#     8   8   8   8   8   8   8
#     4  10  20  36  59  83 108 139 181 229 280 335
#     4   9  19  37  57  76 103 143 187 229 268 321
#     4   9  17  31  52  80 111 141 178 222 275 337
#     4   8  14  28  51  74  97 131 175 218 259 310
#     4   8  16  31  52  77 104 136 169 212 269 326
#     4  11  23  38  55  79 114 150 188 230 278 329
#     4  10  20  35  54  77 110 145 182 228 281 330
#
# _framework density 23.121925999999998
#
# number of rings (size 3 to 8) (size 9 to 14) (size 15 to 20)
#    0.000    2.714    0.000    1.286    0.000    3.143 
#    2.571    2.857    0.000    0.000    0.000    0.000 
#    0.000    0.000    0.000    0.000    0.000    0.000 
#
# Total GULP energy -312243.255975 kJ/mol
# GULP energy per Si atom -5575.772428 kJ/mol
# Density = 2.306930 g / cm^3
# Si number density = 23.121926 Si / 1000 Ang^3
#
#
#
# Elastic Constant Matrix: (Units=GPa)
#
#
# Indices 1 2 3 4 5 6 
#
# 1 32.3019 -3.5074 -11.1324 0.0000 0.0000 0.0000
# 2 -3.5074 105.5508 2.7708 0.0000 0.0000 0.0000
# 3 -11.1324 2.7708 63.6677 0.0000 0.0000 0.0000
# 4 0.0000 0.0000 0.0000 46.9320 0.0000 0.0000
# 5 0.0000 0.0000 0.0000 0.0000 12.3063 0.0000
# 6 0.0000 0.0000 0.0000 0.0000 0.0000 36.8069
#
#
#
# Elastic Compliance Matrix: (Units=1/GPa)
#
#
# Indices 1 2 3 4 5 6 
#
# 1 0.033037 0.000947 0.005735 0.000000 0.000000 0.000000
# 2 0.000947 0.009512 -0.000248 0.000000 0.000000 0.000000
# 3 0.005735 -0.000248 0.016720 0.000000 0.000000 0.000000
# 4 0.000000 0.000000 0.000000 0.021307 0.000000 0.000000
# 5 0.000000 0.000000 0.000000 0.000000 0.081259 0.000000
# 6 0.000000 0.000000 0.000000 0.000000 0.000000 0.027169
#
#
# Mechanical properties :
#
#
# Convention : Reuss Voigt Hill
#
# Bulk Modulus (GPa) = 13.86226 19.75362 16.80794
# Shear Modulus (GPa) = 24.97718 33.43499 29.20609
#
# Velocity S-wave (km/s) = 3.29026 3.80679 3.55791
# Velocity P-wave (km/s) = 4.52137 5.28053 4.91563
#
# Compressibility (1/GPa) = 0.07213830
#
# Stress axis : x y z
#
# Youngs Moduli (GPa) = 30.26875 105.12915 59.80787
#
# Poissons Ratio (x) = -0.09958 -0.34302
# Poissons Ratio (y) = -0.02867 0.01485
# Poissons Ratio (z) = -0.17360 0.02611
#
# Static dielectric constant tensor:
#      x y z
#    x 1.884220 0.000000 0.000000 
#    y 0.000000 1.934780 0.000000 
#    z 0.000000 0.000000 1.926970 
# 
# From -- ./inp_files/6062.got.cif
#   From: 2010.05.17/outbox.cif.g08.bks.cpg/sg55_4_cif.got.tgz:6062.got - 2010.06.03 13:27:54.
