data_PCOD9426499
_publ_section_title
;
Structure prediction by ZEFSAII (Michael W. Deem and Ramdas Pophale) SiO2 
 PCOD9426499
Probable space group: P B A M
;
_chemical_formula_sum "Si O2"
_cell_formula_units_Z 56
_cell_length_a 7.951022
_cell_length_b 18.698940
_cell_length_c 15.652405
_cell_angle_alpha 90.000000
_cell_angle_beta 90.000000
_cell_angle_gamma 90.000000
_cell_volume 2327.132009
_symmetry_space_group_name_H-M "P B A M"
_symmetry_group_IT_number 55
_symmetry_cell_setting 'orthorhombic'
loop_
_space_group_symop_operation_xyz
x,y,z
-x,-y,z
1/2+x,1/2-y,-z
1/2-x,1/2+y,-z
-x,-y,-z
x,y,-z
1/2-x,1/2+y,z
1/2+x,1/2-y,z
loop_
_atom_site_type_symbol
_atom_site_label
_atom_site_fract_x
_atom_site_fract_y
_atom_site_fract_z
Si Si1 0.490159 0.684976 0.881648
Si Si2 0.722182 0.461558 0.593036
Si Si3 0.000000 0.500000 0.796364
Si Si4 0.078028 0.160353 0.686732
Si Si5 0.671091 0.464227 0.097195
Si Si6 0.080295 0.405351 0.360338
Si Si7 0.277468 0.267821 0.598564
Si Si8 0.199773 0.296190 0.000000
O O1 0.490945 0.680653 0.779368
O O2 0.363276 0.620436 0.904852
O O3 0.670479 0.673191 0.925367
O O4 0.418208 0.756749 0.925379
O O5 0.645629 0.449381 0.500000
O O6 0.619509 0.422136 0.667469
O O7 0.766241 0.543923 0.608908
O O8 0.908656 0.426958 0.593274
O O9 0.836967 0.482073 0.851134
O O10 0.954798 0.567432 0.735826
O O11 0.247899 0.203412 0.664452
O O12 0.947431 0.189920 0.617790
O O13 0.500000 0.500000 0.131774
O O14 0.693080 0.490372 0.000000
O O15 0.133051 0.325572 0.379324
O O16 0.269331 0.245370 0.500000
#
# Coordination Sequence:
#
# PCOD9426499 Si02
#       8
#     8   8   4   8   8   8   8   4
#     4  11  23  47  66 103 133 183 236 290 359 436
#     4  10  19  39  64  92 131 180 225 283 345 412
#     4  10  23  44  69 106 144 186 238 300 365 435
#     4  12  26  41  67  96 134 179 235 294 351 425
#     4  11  24  46  72 107 144 184 234 299 376 441
#     4  10  22  40  64  99 131 185 231 283 348 416
#     4  12  25  43  63  98 139 185 235 292 357 422
#     4  10  22  44  70  88 135 172 220 283 347 430
#
# _framework density 24.063955
#
# number of rings (size 3 to 8) (size 9 to 14) (size 15 to 20)
#    0.000    1.286    1.429    6.643    2.000    1.714 
#    5.143    1.429    0.000    0.000    0.000    0.000 
#    0.000    0.000    0.000    0.000    0.000    0.000 
#
# Total GULP energy -312320.863917 kJ/mol
# GULP energy per Si atom -5577.158284 kJ/mol
# Density = 2.400918 g / cm^3
# Si number density = 24.063955 Si / 1000 Ang^3
#
#
#
# Elastic Constant Matrix: (Units=GPa)
#
#
# Indices 1 2 3 4 5 6 
#
# 1 61.9771 0.7847 6.9350 0.0000 0.0000 0.0000
# 2 0.7847 60.1092 8.9936 0.0000 0.0000 0.0000
# 3 6.9350 8.9936 131.3613 0.0000 0.0000 0.0000
# 4 0.0000 0.0000 0.0000 2474.7008 0.0000 0.0000
# 5 0.0000 0.0000 0.0000 0.0000 71.7830 0.0000
# 6 0.0000 0.0000 0.0000 0.0000 0.0000 23.8454
#
#
#
# Elastic Compliance Matrix: (Units=1/GPa)
#
#
# Indices 1 2 3 4 5 6 
#
# 1 0.016231 -0.000085 -0.000851 0.000000 0.000000 0.000000
# 2 -0.000085 0.016809 -0.001146 0.000000 0.000000 0.000000
# 3 -0.000851 -0.001146 0.007736 0.000000 0.000000 0.000000
# 4 0.000000 0.000000 0.000000 0.000404 0.000000 0.000000
# 5 0.000000 0.000000 0.000000 0.000000 0.013931 0.000000
# 6 0.000000 0.000000 0.000000 0.000000 0.000000 0.041937
#
#
# Mechanical properties :
#
#
# Convention : Reuss Voigt Hill
#
# Bulk Modulus (GPa) = 27.31323 31.87490 29.59406
# Shear Modulus (GPa) = 44.08541 529.84813 286.96677
#
# Velocity S-wave (km/s) = 4.28484 14.85467 10.93209
# Velocity P-wave (km/s) = 5.98788 17.53539 13.10238
#
# Compressibility (1/GPa) = 0.03661230
#
# Stress axis : x y z
#
# Youngs Moduli (GPa) = 61.60933 59.49189 129.26556
#
# Poissons Ratio (x) = 0.00503 0.11002
# Poissons Ratio (y) = 0.00521 0.14819
# Poissons Ratio (z) = 0.05244 0.06820
#
# Static dielectric constant tensor:
#      x y z
#    x 1.937020 0.000000 0.000000 
#    y 0.000000 2.001010 0.000000 
#    z 0.000000 0.000000 1.918030 
# 
# From -- ./inp_files/17683.got.cif
#   From: 2010.05.17/outbox.cif.g08.bks.cpg/sg55_9_cif.got.tgz:17683.got - 2010.06.03 13:27:54.
