data_PCOD9426131
_publ_section_title
;
Structure prediction by ZEFSAII (Michael W. Deem and Ramdas Pophale) SiO2 
 PCOD9426131
Probable space group: P B A M
;
_chemical_formula_sum "Si O2"
_cell_formula_units_Z 64
_cell_length_a 19.222751
_cell_length_b 20.068673
_cell_length_c 7.631677
_cell_angle_alpha 90.000000
_cell_angle_beta 90.000000
_cell_angle_gamma 90.000000
_cell_volume 2944.110988
_symmetry_space_group_name_H-M "P B A M"
_symmetry_group_IT_number 55
_symmetry_cell_setting 'orthorhombic'
loop_
_space_group_symop_operation_xyz
x,y,z
-x,-y,z
1/2+x,1/2-y,-z
1/2-x,1/2+y,-z
-x,-y,-z
x,y,-z
1/2-x,1/2+y,z
1/2+x,1/2-y,z
loop_
_atom_site_type_symbol
_atom_site_label
_atom_site_fract_x
_atom_site_fract_y
_atom_site_fract_z
Si Si1 0.249736 0.624352 0.211397
Si Si2 0.397348 0.180549 0.212095
Si Si3 0.937923 0.043844 0.796916
Si Si4 0.835557 0.624289 0.794318
Si Si5 0.014618 0.424296 0.785533
Si Si6 0.481395 0.309870 0.293464
Si Si7 0.366443 0.729304 0.294106
Si Si8 0.282014 0.474718 0.784825
O O1 0.179226 0.659919 0.273956
O O2 0.317240 0.666205 0.264318
O O3 0.254593 0.547572 0.267050
O O4 0.247716 0.624057 0.000000
O O5 0.454126 0.126050 0.270934
O O6 0.424314 0.252690 0.267709
O O7 0.396447 0.179827 0.000000
O O8 0.958985 0.120867 0.790396
O O9 0.860941 0.034448 0.721372
O O10 0.932100 0.022119 0.000000
O O11 0.000000 0.000000 0.716636
O O12 0.910157 0.600599 0.722445
O O13 0.831979 0.703735 0.779354
O O14 0.770234 0.583112 0.723240
O O15 0.837989 0.607858 0.000000
O O16 0.000000 0.500000 0.732465
O O17 0.014507 0.423030 0.000000
O O18 0.489793 0.322762 0.500000
O O19 0.555870 0.283763 0.222888
O O20 0.373659 0.741180 0.500000
O O21 0.283477 0.472371 0.000000
#
# Coordination Sequence:
#
# PCOD9426131 Si02
#       8
#     8   8   8   8   8   8   8   8
#     4  10  21  38  62  88 116 149 189 240 296 350
#     4  10  20  35  58  89 118 149 191 237 285 347
#     4  10  21  38  62  88 117 152 195 251 303 348
#     4  10  19  34  58  85 115 151 189 237 290 340
#     4   9  16  29  54  86 115 143 180 229 283 335
#     4  11  24  40  58  82 118 159 198 243 288 343
#     4  11  24  40  57  81 117 158 200 240 284 345
#     4   9  19  36  59  90 118 144 190 245 296 350
#
# _framework density 21.738310999999999
#
# number of rings (size 3 to 8) (size 9 to 14) (size 15 to 20)
#    0.000    2.000    1.250    2.250    1.750    6.250 
#    0.000    1.250    0.000    3.000    0.000    0.000 
#    0.000    0.000    0.000    0.000    0.000    0.000 
#
# Total GULP energy -357694.793689 kJ/mol
# GULP energy per Si atom -5588.981151 kJ/mol
# Density = 2.168883 g / cm^3
# Si number density = 21.738311 Si / 1000 Ang^3
#
#
#
# Elastic Constant Matrix: (Units=GPa)
#
#
# Indices 1 2 3 4 5 6 
#
# 1 140.3360 43.4721 3.0026 0.0000 0.0000 0.0000
# 2 43.4721 100.3918 -17.5570 0.0000 0.0000 0.0000
# 3 3.0026 -17.5570 40.0856 0.0000 0.0000 0.0000
# 4 0.0000 0.0000 0.0000 -240.8646 0.0000 0.0000
# 5 0.0000 0.0000 0.0000 0.0000 1.2651 0.0000
# 6 0.0000 0.0000 0.0000 0.0000 0.0000 44.4205
#
#
#
# Elastic Compliance Matrix: (Units=1/GPa)
#
#
# Indices 1 2 3 4 5 6 
#
# 1 0.008441 -0.004078 -0.002418 0.000000 0.000000 0.000000
# 2 -0.004078 0.012757 0.005893 0.000000 0.000000 0.000000
# 3 -0.002418 0.005893 0.027709 0.000000 0.000000 0.000000
# 4 0.000000 0.000000 0.000000 -0.004152 0.000000 0.000000
# 5 0.000000 0.000000 0.000000 0.000000 0.790457 0.000000
# 6 0.000000 0.000000 0.000000 0.000000 0.000000 0.022512
#
#
# Mechanical properties :
#
#
# Convention : Reuss Voigt Hill
#
# Bulk Modulus (GPa) = 20.96415 37.62765 29.29590
# Shear Modulus (GPa) = 5.71539 -22.24276 -8.26369
#
# Velocity S-wave (km/s) = 1.62323 -3.20223 -1.95184
# Velocity P-wave (km/s) = 3.63015 1.91692 2.90281
#
# Compressibility (1/GPa) = 0.04770049
#
# Stress axis : x y z
#
# Youngs Moduli (GPa) = 118.47302 78.38566 36.08953
#
# Poissons Ratio (x) = 0.31965 0.08728
# Poissons Ratio (y) = 0.48313 -0.21268
# Poissons Ratio (z) = 0.28651 -0.46193
#
# Static dielectric constant tensor:
#      x y z
#    x 1.782520 0.000000 0.000000 
#    y 0.000000 1.735060 0.000000 
#    z 0.000000 0.000000 1.828290 
# 
# From -- ./inp_files/8041.got.cif
#   From: 2010.05.17/outbox.cif.g08.bks.cpg/sg55_5_cif.got.tgz:8041.got - 2010.06.03 13:27:54.
