data_PCOD9426141
_publ_section_title
;
Structure prediction by ZEFSAII (Michael W. Deem and Ramdas Pophale) SiO2 
 PCOD9426141
Probable space group: P B A M
;
_chemical_formula_sum "Si O2"
_cell_formula_units_Z 48
_cell_length_a 14.538106
_cell_length_b 20.628125
_cell_length_c 7.501159
_cell_angle_alpha 90.000000
_cell_angle_beta 90.000000
_cell_angle_gamma 90.000000
_cell_volume 2249.551586
_symmetry_space_group_name_H-M "P B A M"
_symmetry_group_IT_number 55
_symmetry_cell_setting 'orthorhombic'
loop_
_space_group_symop_operation_xyz
x,y,z
-x,-y,z
1/2+x,1/2-y,-z
1/2-x,1/2+y,-z
-x,-y,-z
x,y,-z
1/2-x,1/2+y,z
1/2+x,1/2-y,z
loop_
_atom_site_type_symbol
_atom_site_label
_atom_site_fract_x
_atom_site_fract_y
_atom_site_fract_z
Si Si1 0.912729 0.319994 0.704436
Si Si2 0.253736 0.888788 0.281795
Si Si3 0.270872 0.738684 0.283562
Si Si4 0.545428 0.067553 0.718042
Si Si5 0.476094 0.694142 0.207564
Si Si6 0.939485 0.058193 0.292877
O O1 0.896923 0.340530 0.500000
O O2 0.812819 0.305746 0.783365
O O3 0.980845 0.373586 0.782164
O O4 0.965369 0.251552 0.705023
O O5 0.251209 0.888359 0.500000
O O6 0.256290 0.813269 0.226561
O O7 0.349314 0.921734 0.225922
O O8 0.161556 0.924797 0.218474
O O9 0.268025 0.739301 0.500000
O O10 0.369512 0.711798 0.229444
O O11 0.547503 0.069432 0.500000
O O12 0.500000 0.000000 0.771300
O O13 0.502936 0.624623 0.284380
O O14 0.500030 0.693462 0.000000
O O15 0.923365 0.040766 0.500000
O O16 0.000000 0.000000 0.213083
#
# Coordination Sequence:
#
# PCOD9426141 Si02
#       6
#     8   8   8   8   8   8
#     4  10  19  35  59  83 107 144 193 244 288 332
#     4   9  16  30  55  84 112 144 183 235 287 338
#     4  10  19  34  59  84 110 145 195 244 284 335
#     4   9  17  29  51  84 115 138 174 230 291 342
#     4  12  24  36  55  84 119 152 190 235 290 358
#     4  10  21  38  61  87 116 151 197 247 294 347
#
# _framework density 21.337586000000002
#
# number of rings (size 3 to 8) (size 9 to 14) (size 15 to 20)
#    0.000    2.000    3.333    1.500    0.000    2.333 
#    0.000    5.000    0.000    0.500    0.000    0.000 
#    0.000    0.000    0.000    0.000    0.000    0.000 
#
# Total GULP energy -268107.124999 kJ/mol
# GULP energy per Si atom -5585.565104 kJ/mol
# Density = 2.128902 g / cm^3
# Si number density = 21.337586 Si / 1000 Ang^3
#
#
#
# Elastic Constant Matrix: (Units=GPa)
#
#
# Indices 1 2 3 4 5 6 
#
# 1 159.4831 44.8435 -7.8134 0.0000 0.0000 0.0000
# 2 44.8435 110.1621 -12.5626 0.0000 0.0000 0.0000
# 3 -7.8134 -12.5626 62.5488 0.0000 0.0000 0.0000
# 4 0.0000 0.0000 0.0000 37.3661 0.0000 0.0000
# 5 0.0000 0.0000 0.0000 0.0000 27.9209 0.0000
# 6 0.0000 0.0000 0.0000 0.0000 0.0000 28.4884
#
#
#
# Elastic Compliance Matrix: (Units=1/GPa)
#
#
# Indices 1 2 3 4 5 6 
#
# 1 0.007087 -0.002849 0.000313 0.000000 0.000000 0.000000
# 2 -0.002849 0.010436 0.001740 0.000000 0.000000 0.000000
# 3 0.000313 0.001740 0.016376 0.000000 0.000000 0.000000
# 4 0.000000 0.000000 0.000000 0.026762 0.000000 0.000000
# 5 0.000000 0.000000 0.000000 0.000000 0.035815 0.000000
# 6 0.000000 0.000000 0.000000 0.000000 0.000000 0.035102
#
#
# Mechanical properties :
#
#
# Convention : Reuss Voigt Hill
#
# Bulk Modulus (GPa) = 30.95343 42.34764 36.65053
# Shear Modulus (GPa) = 34.73694 39.27019 37.00357
#
# Velocity S-wave (km/s) = 4.03919 4.29467 4.16889
# Velocity P-wave (km/s) = 6.02423 6.66947 6.35505
#
# Compressibility (1/GPa) = 0.03230660
#
# Stress axis : x y z
#
# Youngs Moduli (GPa) = 141.10949 95.82464 61.06454
#
# Poissons Ratio (x) = 0.27301 -0.01911
# Poissons Ratio (y) = 0.40203 -0.10626
# Poissons Ratio (z) = -0.04417 -0.16674
#
# Static dielectric constant tensor:
#      x y z
#    x 1.757390 0.000000 0.000000 
#    y 0.000000 1.725330 0.000000 
#    z 0.000000 0.000000 1.714530 
# 
# From -- ./inp_files/5552.got.cif
#   From: 2010.05.17/outbox.cif.g08.bks.cpg/sg55_3_cif.got.tgz:5552.got - 2010.06.03 13:27:54.
