data_PCOD9426077
_publ_section_title
;
Structure prediction by ZEFSAII (Michael W. Deem and Ramdas Pophale) SiO2 
 PCOD9426077
Probable space group: P B A M
;
_chemical_formula_sum "Si O2"
_cell_formula_units_Z 64
_cell_length_a 34.310268
_cell_length_b 10.727319
_cell_length_c 7.786638
_cell_angle_alpha 90.000000
_cell_angle_beta 90.000000
_cell_angle_gamma 90.000000
_cell_volume 2865.928100
_symmetry_space_group_name_H-M "P B A M"
_symmetry_group_IT_number 55
_symmetry_cell_setting 'orthorhombic'
loop_
_space_group_symop_operation_xyz
x,y,z
-x,-y,z
1/2+x,1/2-y,-z
1/2-x,1/2+y,-z
-x,-y,-z
x,y,-z
1/2-x,1/2+y,z
1/2+x,1/2-y,z
loop_
_atom_site_type_symbol
_atom_site_label
_atom_site_fract_x
_atom_site_fract_y
_atom_site_fract_z
Si Si1 0.580617 0.473060 0.700134
Si Si2 0.133317 0.256408 0.792829
Si Si3 0.490844 0.677329 0.302264
Si Si4 0.438887 0.173877 0.299845
Si Si5 0.782949 0.093459 0.210470
Si Si6 0.438569 0.899683 0.802944
Si Si7 0.779450 0.803576 0.790521
Si Si8 0.633608 0.690944 0.806412
O O1 0.577585 0.513973 0.500000
O O2 0.608139 0.352313 0.708390
O O3 0.538664 0.427039 0.768616
O O4 0.604658 0.573579 0.804066
O O5 0.106976 0.377720 0.756893
O O6 0.177852 0.245851 0.737484
O O7 0.133600 0.237974 0.000000
O O8 0.496392 0.641306 0.500000
O O9 0.532650 0.717317 0.229313
O O10 0.466057 0.805944 0.298913
O O11 0.447883 0.161786 0.500000
O O12 0.393422 0.206147 0.281190
O O13 0.448506 0.043150 0.214810
O O14 0.752157 0.199958 0.263636
O O15 0.825656 0.141609 0.267594
O O16 0.774894 0.949334 0.264355
O O17 0.783471 0.089718 0.000000
O O18 0.443434 0.860196 0.000000
O O19 0.778084 0.805627 0.000000
O O20 0.641434 0.734025 0.000000
#
# Coordination Sequence:
#
# PCOD9426077 Si02
#       8
#     8   8   8   8   8   8   8   8
#     4  10  19  34  57  80 104 141 185 224 270 330
#     4   9  17  32  55  82 110 140 179 223 268 319
#     4   9  20  37  56  78 106 145 191 231 272 333
#     4  11  23  38  54  75 108 149 188 230 280 336
#     4   9  18  31  53  82 113 142 179 228 280 332
#     4  10  20  33  54  84 114 144 181 231 281 330
#     4   9  16  30  53  83 112 144 181 226 276 330
#     4  11  22  37  55  79 110 143 182 233 284 331
#
# _framework density 22.331336
#
# number of rings (size 3 to 8) (size 9 to 14) (size 15 to 20)
#    0.000    2.250    1.250    1.875    0.000    5.000 
#    0.000    6.250    0.000    1.500    0.000    0.000 
#    0.000    0.000    0.000    0.000    0.000    0.000 
#
# Total GULP energy -357097.340552 kJ/mol
# GULP energy per Si atom -5579.645946 kJ/mol
# Density = 2.228051 g / cm^3
# Si number density = 22.331336 Si / 1000 Ang^3
#
#
#
# Elastic Constant Matrix: (Units=GPa)
#
#
# Indices 1 2 3 4 5 6 
#
# 1 183.5050 63.2999 12.2137 0.0000 0.0000 0.0000
# 2 63.2999 92.2307 5.9471 0.0000 0.0000 0.0000
# 3 12.2137 5.9471 31.7850 0.0000 0.0000 0.0000
# 4 0.0000 0.0000 0.0000 29.8374 0.0000 0.0000
# 5 0.0000 0.0000 0.0000 0.0000 16.0864 0.0000
# 6 0.0000 0.0000 0.0000 0.0000 0.0000 32.0620
#
#
#
# Elastic Compliance Matrix: (Units=1/GPa)
#
#
# Indices 1 2 3 4 5 6 
#
# 1 0.007249 -0.004854 -0.001877 0.000000 0.000000 0.000000
# 2 -0.004854 0.014225 -0.000796 0.000000 0.000000 0.000000
# 3 -0.001877 -0.000796 0.032332 0.000000 0.000000 0.000000
# 4 0.000000 0.000000 0.000000 0.033515 0.000000 0.000000
# 5 0.000000 0.000000 0.000000 0.000000 0.062164 0.000000
# 6 0.000000 0.000000 0.000000 0.000000 0.000000 0.031190
#
#
# Mechanical properties :
#
#
# Convention : Reuss Voigt Hill
#
# Bulk Modulus (GPa) = 25.80610 52.27134 39.03872
# Shear Modulus (GPa) = 23.96401 30.66783 27.31592
#
# Velocity S-wave (km/s) = 3.27939 3.70984 3.50124
# Velocity P-wave (km/s) = 5.09120 6.46595 5.81931
#
# Compressibility (1/GPa) = 0.03875053
#
# Stress axis : x y z
#
# Youngs Moduli (GPa) = 137.95497 70.29840 30.92933
#
# Poissons Ratio (x) = 0.34122 0.05806
# Poissons Ratio (y) = 0.66962 0.02463
# Poissons Ratio (z) = 0.25897 0.05598
#
# Static dielectric constant tensor:
#      x y z
#    x 1.838690 0.000000 0.000000 
#    y 0.000000 1.822970 0.000000 
#    z 0.000000 0.000000 1.804960 
# 
# From -- ./inp_files/10748.got.cif
#   From: 2010.05.17/outbox.cif.g08.bks.cpg/sg55_6_cif.got.tgz:10748.got - 2010.06.03 13:27:54.
