data_PCOD9426226
_publ_section_title
;
Structure prediction by ZEFSAII (Michael W. Deem and Ramdas Pophale) SiO2 
 PCOD9426226
Probable space group: P B A M
;
_chemical_formula_sum "Si O2"
_cell_formula_units_Z 56
_cell_length_a 19.820191
_cell_length_b 14.211106
_cell_length_c 7.687961
_cell_angle_alpha 90.000000
_cell_angle_beta 90.000000
_cell_angle_gamma 90.000000
_cell_volume 2165.443644
_symmetry_space_group_name_H-M "P B A M"
_symmetry_group_IT_number 55
_symmetry_cell_setting 'orthorhombic'
loop_
_space_group_symop_operation_xyz
x,y,z
-x,-y,z
1/2+x,1/2-y,-z
1/2-x,1/2+y,-z
-x,-y,-z
x,y,-z
1/2-x,1/2+y,z
1/2+x,1/2-y,z
loop_
_atom_site_type_symbol
_atom_site_label
_atom_site_fract_x
_atom_site_fract_y
_atom_site_fract_z
Si Si1 0.207245 0.231519 0.703818
Si Si2 0.214523 0.448513 0.202188
Si Si3 0.070223 0.467413 0.202935
Si Si4 0.499453 0.789495 0.707129
Si Si5 0.640709 0.567471 0.207710
Si Si6 0.576672 0.384579 0.708864
Si Si7 0.146293 0.719548 0.792979
O O1 0.194966 0.249483 0.500000
O O2 0.211814 0.334117 0.792118
O O3 0.146011 0.167101 0.768572
O O4 0.281597 0.185962 0.723982
O O5 0.144111 0.484603 0.280025
O O6 0.287602 0.472206 0.278533
O O7 0.213952 0.478419 0.000000
O O8 0.000000 0.500000 0.287918
O O9 0.057060 0.355311 0.209187
O O10 0.070730 0.497248 0.000000
O O11 0.491556 0.792888 0.500000
O O12 0.483905 0.683045 0.768857
O O13 0.574225 0.825710 0.751573
O O14 0.582442 0.492992 0.241070
O O15 0.635461 0.673401 0.276426
O O16 0.647645 0.576002 0.000000
O O17 0.575529 0.384172 0.500000
O O18 0.152771 0.719619 0.000000
#
# Coordination Sequence:
#
# PCOD9426226 Si02
#       7
#     8   8   8   8   8   8   8
#     4  10  19  35  58  83 111 149 193 239 289 347
#     4   9  18  35  56  80 111 147 189 235 286 341
#     4  10  21  37  59  87 119 155 196 242 293 347
#     4  11  23  40  59  85 119 157 197 239 293 355
#     4   9  20  36  56  83 113 150 198 245 289 340
#     4  10  22  37  56  85 119 152 195 238 287 350
#     4  10  22  40  59  85 117 152 196 245 294 347
#
# _framework density 25.860752999999999
#
# number of rings (size 3 to 8) (size 9 to 14) (size 15 to 20)
#    0.000    2.143    1.429    2.143    0.000    7.143 
#    0.000    4.286    0.000    0.000    0.000    0.000 
#    0.000    0.000    0.000    0.000    0.000    0.000 
#
# Total GULP energy -313059.416308 kJ/mol
# GULP energy per Si atom -5590.346720 kJ/mol
# Density = 2.580189 g / cm^3
# Si number density = 25.860753 Si / 1000 Ang^3
#
#
#
# Elastic Constant Matrix: (Units=GPa)
#
#
# Indices 1 2 3 4 5 6 
#
# 1 141.2212 1.1925 -8.1642 0.0000 0.0000 0.0000
# 2 1.1925 61.4221 -9.0133 0.0000 0.0000 0.0000
# 3 -8.1642 -9.0133 68.8639 0.0000 0.0000 0.0000
# 4 0.0000 0.0000 0.0000 29.8159 0.0000 0.0000
# 5 0.0000 0.0000 0.0000 0.0000 3.0398 0.0000
# 6 0.0000 0.0000 0.0000 0.0000 0.0000 45.5009
#
#
#
# Elastic Compliance Matrix: (Units=1/GPa)
#
#
# Indices 1 2 3 4 5 6 
#
# 1 0.007130 -0.000015 0.000843 0.000000 0.000000 0.000000
# 2 -0.000015 0.016600 0.002171 0.000000 0.000000 0.000000
# 3 0.000843 0.002171 0.014906 0.000000 0.000000 0.000000
# 4 0.000000 0.000000 0.000000 0.033539 0.000000 0.000000
# 5 0.000000 0.000000 0.000000 0.000000 0.328969 0.000000
# 6 0.000000 0.000000 0.000000 0.000000 0.000000 0.021978
#
#
# Mechanical properties :
#
#
# Convention : Reuss Voigt Hill
#
# Bulk Modulus (GPa) = 22.40425 26.61524 24.50974
# Shear Modulus (GPa) = 11.57409 34.83746 23.20577
#
# Velocity S-wave (km/s) = 2.11784 3.67429 2.99881
# Velocity P-wave (km/s) = 3.82917 5.32115 4.63558
#
# Compressibility (1/GPa) = 0.04463439
#
# Stress axis : x y z
#
# Youngs Moduli (GPa) = 140.25301 60.24226 67.08925
#
# Poissons Ratio (x) = 0.00088 -0.05658
# Poissons Ratio (y) = 0.00206 -0.14565
# Poissons Ratio (z) = -0.11829 -0.13078
#
# Static dielectric constant tensor:
#      x y z
#    x 2.038490 0.000000 0.000000 
#    y 0.000000 2.138890 0.000000 
#    z 0.000000 0.000000 1.942050 
# 
# From -- ./inp_files/6121.got.cif
#   From: 2010.05.17/outbox.cif.g08.bks.cpg/sg55_4_cif.got.tgz:6121.got - 2010.06.03 13:27:54.
