data_PCOD9426828
_publ_section_title
;
Structure prediction by ZEFSAII (Michael W. Deem and Ramdas Pophale) SiO2 
 PCOD9426828
Probable space group: P B A M
;
_chemical_formula_sum "Si O2"
_cell_formula_units_Z 58
_cell_length_a 15.325766
_cell_length_b 22.948142
_cell_length_c 7.648453
_cell_angle_alpha 90.000000
_cell_angle_beta 90.000000
_cell_angle_gamma 90.000000
_cell_volume 2689.944510
_symmetry_space_group_name_H-M "P B A M"
_symmetry_group_IT_number 55
_symmetry_cell_setting 'orthorhombic'
loop_
_space_group_symop_operation_xyz
x,y,z
-x,-y,z
1/2+x,1/2-y,-z
1/2-x,1/2+y,-z
-x,-y,-z
x,y,-z
1/2-x,1/2+y,z
1/2+x,1/2-y,z
loop_
_atom_site_type_symbol
_atom_site_label
_atom_site_fract_x
_atom_site_fract_y
_atom_site_fract_z
Si Si1 0.279891 0.974460 0.713046
Si Si2 0.094033 0.578726 0.712114
Si Si3 0.000000 0.000000 0.000000
Si Si4 0.030832 0.254897 0.702977
Si Si5 0.168644 0.166564 0.201803
Si Si6 0.408246 0.881089 0.712842
Si Si7 0.155044 0.707978 0.799118
Si Si8 0.886404 0.957355 0.299208
O O1 0.279447 0.974881 0.500000
O O2 0.347371 0.024847 0.769606
O O3 0.183076 0.993643 0.764455
O O4 0.320185 0.912983 0.770787
O O5 0.098487 0.581097 0.500000
O O6 0.130368 0.639644 0.782718
O O7 0.991748 0.578655 0.758422
O O8 0.038441 0.042836 0.156187
O O9 0.054000 0.251404 0.500000
O O10 0.077953 0.200722 0.789780
O O11 0.069751 0.316042 0.774924
O O12 0.926184 0.258595 0.715133
O O13 0.246330 0.208263 0.272202
O O14 0.161939 0.104954 0.296460
O O15 0.190541 0.154344 0.000000
O O16 0.406724 0.878438 0.500000
O O17 0.156280 0.726716 0.000000
O O18 0.911746 0.968758 0.500000
#
# Coordination Sequence:
#
# PCOD9426828 Si02
#       8
#     8   8   2   8   8   8   8   8
#     4   9  16  29  55  88 119 155 204 252 303 373
#     4   9  15  26  50  83 118 152 191 240 297 362
#     4  12  26  48  64  90 130 156 198 276 326 372
#     4  10  21  36  59  88 122 164 212 263 320 390
#     4  11  22  40  65  91 125 165 214 269 323 386
#     4   8  15  28  49  83 124 160 192 242 306 367
#     4  10  20  34  56  84 121 160 202 258 320 381
#     4  11  23  41  70  97 122 167 218 270 328 385
#
# _framework density 21.561783999999999
#
# number of rings (size 3 to 8) (size 9 to 14) (size 15 to 20)
#    0.000    2.207    2.069    2.690    0.000    3.310 
#    0.000    1.379   10.621    6.621    0.000    0.000 
#    0.000    0.000    0.000    0.000    0.000    0.276 
#
# Total GULP energy -323074.152536 kJ/mol
# GULP energy per Si atom -5570.244009 kJ/mol
# Density = 2.151271 g / cm^3
# Si number density = 21.561784 Si / 1000 Ang^3
#
#
#
# Elastic Constant Matrix: (Units=GPa)
#
#
# Indices 1 2 3 4 5 6 
#
# 1 66.6702 21.5733 14.4345 0.0000 0.0000 0.0000
# 2 21.5733 17.1547 9.1587 0.0000 0.0000 0.0000
# 3 14.4345 9.1587 76.9741 0.0000 0.0000 0.0000
# 4 0.0000 0.0000 0.0000 123.2189 0.0000 0.0000
# 5 0.0000 0.0000 0.0000 0.0000 7.9138 0.0000
# 6 0.0000 0.0000 0.0000 0.0000 0.0000 34.7418
#
#
#
# Elastic Compliance Matrix: (Units=1/GPa)
#
#
# Indices 1 2 3 4 5 6 
#
# 1 0.025366 -0.031352 -0.001026 0.000000 0.000000 0.000000
# 2 -0.031352 0.100998 -0.006138 0.000000 0.000000 0.000000
# 3 -0.001026 -0.006138 0.013914 0.000000 0.000000 0.000000
# 4 0.000000 0.000000 0.000000 0.008116 0.000000 0.000000
# 5 0.000000 0.000000 0.000000 0.000000 0.126361 0.000000
# 6 0.000000 0.000000 0.000000 0.000000 0.000000 0.028784
#
#
# Mechanical properties :
#
#
# Convention : Reuss Voigt Hill
#
# Bulk Modulus (GPa) = 15.81144 27.90357 21.85750
# Shear Modulus (GPa) = 12.44854 40.88371 26.66613
#
# Velocity S-wave (km/s) = 2.40540 4.35917 3.52053
# Velocity P-wave (km/s) = 3.88119 6.18917 5.16572
#
# Compressibility (1/GPa) = 0.06324536
#
# Stress axis : x y z
#
# Youngs Moduli (GPa) = 39.42218 9.90123 71.86916
#
# Poissons Ratio (x) = 0.31042 0.07377
# Poissons Ratio (y) = 1.23597 0.44112
# Poissons Ratio (z) = 0.04046 0.06077
#
# Static dielectric constant tensor:
#      x y z
#    x 1.853220 0.000000 0.000000 
#    y 0.000000 1.770950 0.000000 
#    z 0.000000 0.000000 1.739490 
# 
# From -- ./inp_files/6840.got.cif
#   From: 2010.05.17/outbox.cif.g08.bks.cpg/sg55_4_cif.got.tgz:6840.got - 2010.06.03 13:27:54.
