data_PCOD9426677
_publ_section_title
;
Structure prediction by ZEFSAII (Michael W. Deem and Ramdas Pophale) SiO2 
 PCOD9426677
Probable space group: P B A M
;
_chemical_formula_sum "Si O2"
_cell_formula_units_Z 48
_cell_length_a 4.994485
_cell_length_b 13.817064
_cell_length_c 30.405187
_cell_angle_alpha 90.000000
_cell_angle_beta 90.000000
_cell_angle_gamma 90.000000
_cell_volume 2098.235165
_symmetry_space_group_name_H-M "P B A M"
_symmetry_group_IT_number 55
_symmetry_cell_setting 'orthorhombic'
loop_
_space_group_symop_operation_xyz
x,y,z
-x,-y,z
1/2+x,1/2-y,-z
1/2-x,1/2+y,-z
-x,-y,-z
x,y,-z
1/2-x,1/2+y,z
1/2+x,1/2-y,z
loop_
_atom_site_type_symbol
_atom_site_label
_atom_site_fract_x
_atom_site_fract_y
_atom_site_fract_z
Si Si1 0.809477 0.681170 0.500000
Si Si2 0.282708 0.192945 0.000000
Si Si3 0.815934 0.682959 0.685844
Si Si4 0.936623 0.681764 0.407622
Si Si5 0.014613 0.881843 0.142956
Si Si6 0.255568 0.933794 0.771991
Si Si7 0.513666 0.884455 0.092163
O O1 0.013460 0.773594 0.500000
O O2 0.870909 0.629846 0.453668
O O3 0.375234 0.142368 0.044680
O O4 0.465852 0.289911 0.000000
O O5 0.518070 0.726090 0.686992
O O6 0.858023 0.618806 0.728581
O O7 0.873923 0.632274 0.638909
O O8 0.234983 0.725017 0.407752
O O9 0.145117 0.861768 0.190243
O O10 0.216666 0.851183 0.104390
O O11 0.718783 0.850434 0.130070
O O12 0.000000 0.000000 0.143246
O O13 0.500000 0.000000 0.789540
O O14 0.000000 0.000000 0.760155
O O15 0.500000 0.000000 0.093703
#
# Coordination Sequence:
#
# PCOD9426677 Si02
#       7
#     4   4   8   8   8   8   8
#     4   8  12  20  36  60  86 120 162 208 256 300
#     4  12  25  40  55  82 118 142 162 204 259 306
#     4  10  20  34  50  75 108 140 172 216 267 319
#     4   8  14  24  40  62  93 126 163 210 259 303
#     4   9  18  34  58  81 100 128 174 219 247 283
#     4  11  21  36  57  81 107 140 178 220 265 314
#     4  10  20  38  61  80 100 135 177 209 241 293
#
# _framework density 22.876367999999999
#
# number of rings (size 3 to 8) (size 9 to 14) (size 15 to 20)
#    0.000    2.333    0.000    4.750    0.000    0.000 
#    0.000    8.333    0.000    0.000    0.000    1.167 
#    0.000    0.000    0.000    0.000    0.000    0.000 
#
# Total GULP energy -267989.544464 kJ/mol
# GULP energy per Si atom -5583.115510 kJ/mol
# Density = 2.282430 g / cm^3
# Si number density = 22.876368 Si / 1000 Ang^3
#
#
#
# Elastic Constant Matrix: (Units=GPa)
#
#
# Indices 1 2 3 4 5 6 
#
# 1 100.0897 -5.1858 14.3859 0.0000 0.0000 0.0000
# 2 -5.1858 37.8883 15.6914 0.0000 0.0000 0.0000
# 3 14.3859 15.6914 183.7723 0.0000 0.0000 0.0000
# 4 0.0000 0.0000 0.0000 0.0333 0.0000 0.0000
# 5 0.0000 0.0000 0.0000 0.0000 36.6746 0.0000
# 6 0.0000 0.0000 0.0000 0.0000 0.0000 11.5087
#
#
#
# Elastic Compliance Matrix: (Units=1/GPa)
#
#
# Indices 1 2 3 4 5 6 
#
# 1 0.010221 0.001794 -0.000953 0.000000 0.000000 0.000000
# 2 0.001794 0.027676 -0.002504 0.000000 0.000000 0.000000
# 3 -0.000953 -0.002504 0.005730 0.000000 0.000000 0.000000
# 4 0.000000 0.000000 0.000000 30.000008 0.000000 0.000000
# 5 0.000000 0.000000 0.000000 0.000000 0.027267 0.000000
# 6 0.000000 0.000000 0.000000 0.000000 0.000000 0.086891
#
#
# Mechanical properties :
#
#
# Convention : Reuss Voigt Hill
#
# Bulk Modulus (GPa) = 24.81356 41.28147 33.04752
# Shear Modulus (GPa) = 0.16570 29.43391 14.79981
#
# Velocity S-wave (km/s) = 0.26943 3.59088 2.54628
# Velocity P-wave (km/s) = 3.31167 5.93946 4.80855
#
# Compressibility (1/GPa) = 0.04030055
#
# Stress axis : x y z
#
# Youngs Moduli (GPa) = 97.83792 36.13274 174.52304
#
# Poissons Ratio (x) = -0.06481 0.16637
# Poissons Ratio (y) = -0.17550 0.43692
# Poissons Ratio (z) = 0.09327 0.09046
#
# Static dielectric constant tensor:
#      x y z
#    x 1.814330 0.000000 0.000000 
#    y 0.000000 1.858100 0.000000 
#    z 0.000000 0.000000 1.935250 
# 
# From -- ./inp_files/23827.got.cif
#   From: 2010.05.17/outbox.cif.g08.bks.cpg/sg55_12_cif.got.tgz:23827.got - 2010.06.03 13:27:54.
