data_PCOD9426713
_publ_section_title
;
Structure prediction by ZEFSAII (Michael W. Deem and Ramdas Pophale) SiO2 
 PCOD9426713
Probable space group: P B A M
;
_chemical_formula_sum "Si O2"
_cell_formula_units_Z 64
_cell_length_a 16.810665
_cell_length_b 20.889614
_cell_length_c 10.071022
_cell_angle_alpha 90.000000
_cell_angle_beta 90.000000
_cell_angle_gamma 90.000000
_cell_volume 3536.623705
_symmetry_space_group_name_H-M "P B A M"
_symmetry_group_IT_number 55
_symmetry_cell_setting 'orthorhombic'
loop_
_space_group_symop_operation_xyz
x,y,z
-x,-y,z
1/2+x,1/2-y,-z
1/2-x,1/2+y,-z
-x,-y,-z
x,y,-z
1/2-x,1/2+y,z
1/2+x,1/2-y,z
loop_
_atom_site_type_symbol
_atom_site_label
_atom_site_fract_x
_atom_site_fract_y
_atom_site_fract_z
Si Si1 0.565248 0.164312 0.157479
Si Si2 0.201111 0.374258 0.345334
Si Si3 0.165386 0.983542 0.656201
Si Si4 0.967619 0.115759 0.651387
Si Si5 0.724555 0.406704 0.154067
Si Si6 0.334373 0.272768 0.350366
Si Si7 0.617803 0.840205 0.843115
Si Si8 0.913537 0.814657 0.844978
O O1 0.627642 0.126022 0.246102
O O2 0.474181 0.144311 0.183390
O O3 0.574067 0.240262 0.189910
O O4 0.581432 0.157208 0.000000
O O5 0.176263 0.374861 0.500000
O O6 0.263275 0.432104 0.326057
O O7 0.252275 0.309596 0.322737
O O8 0.163263 0.000384 0.500000
O O9 0.082407 0.947602 0.687524
O O10 0.184445 0.042742 0.749161
O O11 0.998138 0.108498 0.500000
O O12 0.901683 0.172223 0.649079
O O13 0.033607 0.139395 0.753161
O O14 0.817161 0.394862 0.184120
O O15 0.676785 0.339672 0.166963
O O16 0.716730 0.426793 0.000000
O O17 0.330721 0.245561 0.500000
O O18 0.357395 0.220278 0.244139
O O19 0.623938 0.824664 0.000000
O O20 0.936906 0.821566 0.000000
#
# Coordination Sequence:
#
# PCOD9426713 Si02
#       8
#     8   8   8   8   8   8   8   8
#     4  10  20  34  54  82 110 138 173 215 267 323
#     4   9  19  35  55  78 104 136 176 223 265 310
#     4   9  20  39  57  75 104 141 184 223 259 311
#     4   9  18  33  54  79 106 138 175 216 259 310
#     4  10  22  37  53  76 106 141 180 222 262 311
#     4   9  17  31  52  78 105 134 171 213 263 318
#     4  10  20  35  54  76 107 142 175 215 266 319
#     4  10  20  34  52  80 114 140 172 216 265 320
#
# _framework density 18.096356
#
# number of rings (size 3 to 8) (size 9 to 14) (size 15 to 20)
#    0.000    2.500    1.250    2.250    0.000    5.000 
#    0.000    5.625    0.000    3.750    0.000    0.000 
#    0.000    0.000    0.000    0.000    0.000    0.000 
#
# Total GULP energy -356994.429225 kJ/mol
# GULP energy per Si atom -5578.037957 kJ/mol
# Density = 1.805517 g / cm^3
# Si number density = 18.096356 Si / 1000 Ang^3
#
#
#
# Elastic Constant Matrix: (Units=GPa)
#
#
# Indices 1 2 3 4 5 6 
#
# 1 79.8317 5.8952 30.6171 0.0000 0.0000 0.0000
# 2 5.8952 28.2611 13.1478 0.0000 0.0000 0.0000
# 3 30.6171 13.1478 25.1918 0.0000 0.0000 0.0000
# 4 0.0000 0.0000 0.0000 28.8564 0.0000 0.0000
# 5 0.0000 0.0000 0.0000 0.0000 31.1607 0.0000
# 6 0.0000 0.0000 0.0000 0.0000 0.0000 18.7161
#
#
#
# Elastic Compliance Matrix: (Units=1/GPa)
#
#
# Indices 1 2 3 4 5 6 
#
# 1 0.026407 0.012444 -0.038589 0.000000 0.000000 0.000000
# 2 0.012444 0.052595 -0.042574 0.000000 0.000000 0.000000
# 3 -0.038589 -0.042574 0.108814 0.000000 0.000000 0.000000
# 4 0.000000 0.000000 0.000000 0.034654 0.000000 0.000000
# 5 0.000000 0.000000 0.000000 0.000000 0.032092 0.000000
# 6 0.000000 0.000000 0.000000 0.000000 0.000000 0.053430
#
#
# Mechanical properties :
#
#
# Convention : Reuss Voigt Hill
#
# Bulk Modulus (GPa) = 19.84936 25.84496 22.84716
# Shear Modulus (GPa) = 10.81734 21.32162 16.06948
#
# Velocity S-wave (km/s) = 2.44757 3.43626 2.98316
# Velocity P-wave (km/s) = 4.35660 5.48240 4.95160
#
# Compressibility (1/GPa) = 0.05037947
#
# Stress axis : x y z
#
# Youngs Moduli (GPa) = 37.86883 19.01327 9.19000
#
# Poissons Ratio (x) = -0.23660 0.35463
# Poissons Ratio (y) = -0.47124 0.39125
# Poissons Ratio (z) = 1.46130 0.80946
#
# Static dielectric constant tensor:
#      x y z
#    x 1.631580 0.000000 0.000000 
#    y 0.000000 1.608590 0.000000 
#    z 0.000000 0.000000 1.600720 
# 
# From -- ./inp_files/7941.got.cif
#   From: 2010.05.17/outbox.cif.g08.bks.cpg/sg55_4_cif.got.tgz:7941.got - 2010.06.03 13:27:54.
