data_PCOD9426488
_publ_section_title
;
Structure prediction by ZEFSAII (Michael W. Deem and Ramdas Pophale) SiO2 
 PCOD9426488
Probable space group: P B A M
;
_chemical_formula_sum "Si O2"
_cell_formula_units_Z 48
_cell_length_a 19.473646
_cell_length_b 15.416151
_cell_length_c 8.481480
_cell_angle_alpha 90.000000
_cell_angle_beta 90.000000
_cell_angle_gamma 90.000000
_cell_volume 2546.213807
_symmetry_space_group_name_H-M "P B A M"
_symmetry_group_IT_number 55
_symmetry_cell_setting 'orthorhombic'
loop_
_space_group_symop_operation_xyz
x,y,z
-x,-y,z
1/2+x,1/2-y,-z
1/2-x,1/2+y,-z
-x,-y,-z
x,y,-z
1/2-x,1/2+y,z
1/2+x,1/2-y,z
loop_
_atom_site_type_symbol
_atom_site_label
_atom_site_fract_x
_atom_site_fract_y
_atom_site_fract_z
Si Si1 0.170231 0.370605 0.688163
Si Si2 0.923567 0.965042 0.309811
Si Si3 0.578025 0.784523 0.687860
Si Si4 0.578027 0.976099 0.187635
Si Si5 0.431184 0.726154 0.814472
Si Si6 0.828133 0.123726 0.307848
O O1 0.169465 0.358064 0.500000
O O2 0.130616 0.458950 0.729789
O O3 0.128593 0.292200 0.766356
O O4 0.249177 0.374537 0.742191
O O5 0.919407 0.955199 0.500000
O O6 0.913166 0.871889 0.232337
O O7 0.868904 0.037489 0.258254
O O8 0.000000 0.000000 0.273730
O O9 0.585145 0.795248 0.500000
O O10 0.590883 0.876472 0.769153
O O11 0.500871 0.753587 0.725548
O O12 0.629887 0.709039 0.741645
O O13 0.500000 0.000000 0.236551
O O14 0.582632 0.988902 0.000000
O O15 0.444247 0.733070 0.000000
O O16 0.829305 0.123198 0.500000
#
# Coordination Sequence:
#
# PCOD9426488 Si02
#       6
#     8   8   8   8   8   8
#     4  11  23  41  64  89 120 160 203 249 300 357
#     4  10  19  38  66  91 118 156 202 249 296 352
#     4  11  21  39  66  92 117 157 208 252 297 354
#     4  11  23  39  60  90 126 157 195 250 304 358
#     4  12  24  38  58  91 127 160 200 247 300 361
#     4   9  21  40  63  93 122 151 200 258 301 347
#
# _framework density 18.851521000000002
#
# number of rings (size 3 to 8) (size 9 to 14) (size 15 to 20)
#    0.000    1.333    3.333    3.000    0.000    2.333 
#    0.000   11.667    0.000    0.000    0.000    0.000 
#    0.000    0.000    0.000    0.000    0.000    0.000 
#
# Total GULP energy -268345.251154 kJ/mol
# GULP energy per Si atom -5590.526066 kJ/mol
# Density = 1.880861 g / cm^3
# Si number density = 18.851521 Si / 1000 Ang^3
#
#
#
# Elastic Constant Matrix: (Units=GPa)
#
#
# Indices 1 2 3 4 5 6 
#
# 1 124.3322 43.3756 -4.9327 0.0000 0.0000 0.0000
# 2 43.3756 128.3581 -9.8584 0.0000 0.0000 0.0000
# 3 -4.9327 -9.8584 13.8693 0.0000 0.0000 0.0000
# 4 0.0000 0.0000 0.0000 -126.4994 0.0000 0.0000
# 5 0.0000 0.0000 0.0000 0.0000 -21.2661 0.0000
# 6 0.0000 0.0000 0.0000 0.0000 0.0000 32.8457
#
#
#
# Elastic Compliance Matrix: (Units=1/GPa)
#
#
# Indices 1 2 3 4 5 6 
#
# 1 0.009134 -0.003001 0.001115 0.000000 0.000000 0.000000
# 2 -0.003001 0.009227 0.005491 0.000000 0.000000 0.000000
# 3 0.001115 0.005491 0.076402 0.000000 0.000000 0.000000
# 4 0.000000 0.000000 0.000000 -0.007905 0.000000 0.000000
# 5 0.000000 0.000000 0.000000 0.000000 -0.047023 0.000000
# 6 0.000000 0.000000 0.000000 0.000000 0.000000 0.030445
#
#
# Mechanical properties :
#
#
# Convention : Reuss Voigt Hill
#
# Bulk Modulus (GPa) = 9.80649 35.96985 22.88817
# Shear Modulus (GPa) = 51.51474 -7.11895 22.19789
#
# Velocity S-wave (km/s) = 5.23315 -1.94539 3.43521
# Velocity P-wave (km/s) = 6.45970 3.75180 5.28222
#
# Compressibility (1/GPa) = 0.10197333
#
# Stress axis : x y z
#
# Youngs Moduli (GPa) = 109.47883 108.38286 13.08872
#
# Poissons Ratio (x) = 0.32526 -0.01460
# Poissons Ratio (y) = 0.32855 -0.07187
# Poissons Ratio (z) = -0.12212 -0.59513
#
# Static dielectric constant tensor:
#      x y z
#    x 1.629110 0.000000 0.000000 
#    y 0.000000 1.622920 0.000000 
#    z 0.000000 0.000000 1.635540 
# 
# From -- ./inp_files/7414.got.cif
#   From: 2010.05.17/outbox.cif.g08.bks.cpg/sg55_4_cif.got.tgz:7414.got - 2010.06.03 13:27:54.
