data_PCOD9426741
_publ_section_title
;
Structure prediction by ZEFSAII (Michael W. Deem and Ramdas Pophale) SiO2 
 PCOD9426741
Probable space group: P B A M
;
_chemical_formula_sum "Si O2"
_cell_formula_units_Z 60
_cell_length_a 26.404708
_cell_length_b 12.101155
_cell_length_c 7.517581
_cell_angle_alpha 90.000000
_cell_angle_beta 90.000000
_cell_angle_gamma 90.000000
_cell_volume 2402.073594
_symmetry_space_group_name_H-M "P B A M"
_symmetry_group_IT_number 55
_symmetry_cell_setting 'orthorhombic'
loop_
_space_group_symop_operation_xyz
x,y,z
-x,-y,z
1/2+x,1/2-y,-z
1/2-x,1/2+y,-z
-x,-y,-z
x,y,-z
1/2-x,1/2+y,z
1/2+x,1/2-y,z
loop_
_atom_site_type_symbol
_atom_site_label
_atom_site_fract_x
_atom_site_fract_y
_atom_site_fract_z
Si Si1 0.891828 0.189521 0.203150
Si Si2 0.215171 0.993725 0.500000
Si Si3 0.578857 0.453396 0.207934
Si Si4 0.945879 0.557634 0.711367
Si Si5 0.317652 0.665998 0.796313
Si Si6 0.771569 0.596751 0.210497
Si Si7 0.150640 0.585431 0.794153
Si Si8 0.995821 0.773555 0.705925
O O1 0.861355 0.293357 0.282517
O O2 0.950462 0.229483 0.198949
O O3 0.898687 0.067527 0.287636
O O4 0.873459 0.172699 0.000000
O O5 0.208350 0.088267 0.345065
O O6 0.224163 0.901226 0.659657
O O7 0.623560 0.364595 0.221733
O O8 0.529825 0.393376 0.284410
O O9 0.568109 0.475490 0.000000
O O10 0.935297 0.560019 0.500000
O O11 0.900513 0.487516 0.791609
O O12 0.956364 0.682155 0.775177
O O13 0.000000 0.500000 0.739661
O O14 0.304785 0.793252 0.767187
O O15 0.302587 0.639336 0.000000
O O16 0.805895 0.493964 0.280814
O O17 0.760427 0.587184 0.000000
O O18 0.164682 0.603322 0.000000
O O19 0.006254 0.745880 0.500000
#
# Coordination Sequence:
#
# PCOD9426741 Si02
#       8
#     8   4   8   8   8   8   8   8
#     4  10  21  38  58  87 128 171 220 270 320 379
#     4  12  24  44  74 108 130 167 216 271 347 413
#     4  10  22  41  63  89 124 176 222 267 326 385
#     4  10  20  34  53  81 121 165 209 262 320 371
#     4  10  23  46  73 102 140 175 220 275 334 413
#     4  10  23  45  71 104 139 173 216 275 341 410
#     4  10  21  38  62  92 126 168 218 269 325 391
#     4  11  22  35  56  87 126 172 222 273 322 377
#
# _framework density 24.978418999999999
#
# number of rings (size 3 to 8) (size 9 to 14) (size 15 to 20)
#    0.000    1.733    1.333    2.400    1.867    4.533 
#    4.800    0.000    0.000    0.000    0.000    0.000 
#    0.000    0.000    0.000    0.000    0.000    0.000 
#
# Total GULP energy -334525.193074 kJ/mol
# GULP energy per Si atom -5575.419885 kJ/mol
# Density = 2.492157 g / cm^3
# Si number density = 24.978419 Si / 1000 Ang^3
#
#
#
# Elastic Constant Matrix: (Units=GPa)
#
#
# Indices 1 2 3 4 5 6 
#
# 1 41.6995 22.3293 6.8622 0.0000 0.0000 0.0000
# 2 22.3293 141.9568 14.3811 0.0000 0.0000 0.0000
# 3 6.8622 14.3811 101.4696 0.0000 0.0000 0.0000
# 4 0.0000 0.0000 0.0000 26.9474 0.0000 0.0000
# 5 0.0000 0.0000 0.0000 0.0000 15.4957 0.0000
# 6 0.0000 0.0000 0.0000 0.0000 0.0000 43.7639
#
#
#
# Elastic Compliance Matrix: (Units=1/GPa)
#
#
# Indices 1 2 3 4 5 6 
#
# 1 0.026333 -0.004019 -0.001211 0.000000 0.000000 0.000000
# 2 -0.004019 0.007761 -0.000828 0.000000 0.000000 0.000000
# 3 -0.001211 -0.000828 0.010054 0.000000 0.000000 0.000000
# 4 0.000000 0.000000 0.000000 0.037109 0.000000 0.000000
# 5 0.000000 0.000000 0.000000 0.000000 0.064534 0.000000
# 6 0.000000 0.000000 0.000000 0.000000 0.000000 0.022850
#
#
# Mechanical properties :
#
#
# Convention : Reuss Voigt Hill
#
# Bulk Modulus (GPa) = 31.22028 41.36346 36.29187
# Shear Modulus (GPa) = 26.11853 33.34495 29.73174
#
# Velocity S-wave (km/s) = 3.23715 3.65766 3.45381
# Velocity P-wave (km/s) = 5.14764 5.86802 5.51959
#
# Compressibility (1/GPa) = 0.03203047
#
# Stress axis : x y z
#
# Youngs Moduli (GPa) = 37.97565 128.85752 99.45852
#
# Poissons Ratio (x) = 0.51792 0.12046
# Poissons Ratio (y) = 0.15264 0.08236
# Poissons Ratio (z) = 0.04600 0.10670
#
# Static dielectric constant tensor:
#      x y z
#    x 2.030340 0.000000 0.000000 
#    y 0.000000 2.011600 0.000000 
#    z 0.000000 0.000000 0.748740 
# 
# From -- ./inp_files/10676.got.cif
#   From: 2010.05.17/outbox.cif.g08.bks.cpg/sg55_6_cif.got.tgz:10676.got - 2010.06.03 13:27:54.
