data_PCOD9426470
_publ_section_title
;
Structure prediction by ZEFSAII (Michael W. Deem and Ramdas Pophale) SiO2 
 PCOD9426470
Probable space group: P B A M
;
_chemical_formula_sum "Si O2"
_cell_formula_units_Z 64
_cell_length_a 18.836652
_cell_length_b 11.937646
_cell_length_c 14.348346
_cell_angle_alpha 90.000000
_cell_angle_beta 90.000000
_cell_angle_gamma 90.000000
_cell_volume 3226.444890
_symmetry_space_group_name_H-M "P B A M"
_symmetry_group_IT_number 55
_symmetry_cell_setting 'orthorhombic'
loop_
_space_group_symop_operation_xyz
x,y,z
-x,-y,z
1/2+x,1/2-y,-z
1/2-x,1/2+y,-z
-x,-y,-z
x,y,-z
1/2-x,1/2+y,z
1/2+x,1/2-y,z
loop_
_atom_site_type_symbol
_atom_site_label
_atom_site_fract_x
_atom_site_fract_y
_atom_site_fract_z
Si Si1 0.670961 0.743247 0.598561
Si Si2 0.473871 0.873392 0.395369
Si Si3 0.801164 0.417815 0.761575
Si Si4 0.435215 0.082460 0.889883
Si Si5 0.685698 0.139128 0.651138
Si Si6 0.074751 0.956754 0.338696
Si Si7 0.851558 0.850404 0.230221
Si Si8 0.503310 0.714307 0.214417
O O1 0.658528 0.804376 0.500000
O O2 0.670945 0.820711 0.690666
O O3 0.749654 0.692410 0.596677
O O4 0.617804 0.638322 0.607381
O O5 0.498589 0.840278 0.500000
O O6 0.388860 0.878034 0.398391
O O7 0.494067 0.788383 0.311136
O O8 0.500000 0.000000 0.375425
O O9 0.863487 0.443046 0.834034
O O10 0.789930 0.524291 0.696356
O O11 0.724402 0.392119 0.807556
O O12 0.459747 0.205809 0.859245
O O13 0.500000 0.000000 0.863088
O O14 0.424294 0.073485 0.000000
O O15 0.668100 0.229506 0.730202
O O16 0.049836 0.891870 0.244825
O O17 0.123518 0.062483 0.311407
O O18 0.000000 0.000000 0.381258
O O19 0.926345 0.828228 0.179237
#
# Coordination Sequence:
#
# PCOD9426470 Si02
#       8
#     8   8   8   8   8   8   8   8
#     4  11  23  36  56  88 122 165 210 250 300 361
#     4  10  20  32  52  83 117 156 202 247 292 353
#     4  11  21  40  63  88 122 162 210 258 307 363
#     4  11  23  40  65  96 125 158 201 256 322 381
#     4  10  20  37  57  82 122 166 203 249 309 356
#     4  10  20  38  60  83 116 161 204 249 298 357
#     4   9  20  37  63  87 115 162 202 250 301 365
#     4  10  19  38  60  84 120 159 196 248 306 363
#
# _framework density 19.836072999999999
#
# number of rings (size 3 to 8) (size 9 to 14) (size 15 to 20)
#    0.000    1.750    2.500    3.000    0.000    1.750 
#    0.000    5.625    0.000   12.000    0.000    0.000 
#    0.000    0.000    0.000    0.000    0.000    0.000 
#
# Total GULP energy -356824.123217 kJ/mol
# GULP energy per Si atom -5575.376925 kJ/mol
# Density = 1.979093 g / cm^3
# Si number density = 19.836073 Si / 1000 Ang^3
#
#
#
# Elastic Constant Matrix: (Units=GPa)
#
#
# Indices 1 2 3 4 5 6 
#
# 1 96.1105 -15.0831 3.7803 0.0000 0.0000 0.0000
# 2 -15.0831 53.7203 -10.6858 0.0000 0.0000 0.0000
# 3 3.7803 -10.6858 42.5723 0.0000 0.0000 0.0000
# 4 0.0000 0.0000 0.0000 -9.8538 0.0000 0.0000
# 5 0.0000 0.0000 0.0000 0.0000 143.4107 0.0000
# 6 0.0000 0.0000 0.0000 0.0000 0.0000 34.4986
#
#
#
# Elastic Compliance Matrix: (Units=1/GPa)
#
#
# Indices 1 2 3 4 5 6 
#
# 1 0.010886 0.003015 -0.000210 0.000000 0.000000 0.000000
# 2 0.003015 0.020428 0.004860 0.000000 0.000000 0.000000
# 3 -0.000210 0.004860 0.024728 0.000000 0.000000 0.000000
# 4 0.000000 0.000000 0.000000 -0.101484 0.000000 0.000000
# 5 0.000000 0.000000 0.000000 0.000000 0.006973 0.000000
# 6 0.000000 0.000000 0.000000 0.000000 0.000000 0.028987
#
#
# Mechanical properties :
#
#
# Convention : Reuss Voigt Hill
#
# Bulk Modulus (GPa) = 14.01124 16.49177 15.25150
# Shear Modulus (GPa) = -4897.47006 47.90388 -2424.78309
#
# Velocity S-wave (km/s) = -49.74265 4.91958 -35.00092
# Velocity P-wave (km/s) = 57.37621 6.37196 40.32014
#
# Compressibility (1/GPa) = 0.07137129
#
# Stress axis : x y z
#
# Youngs Moduli (GPa) = 91.86057 48.95224 40.44008
#
# Poissons Ratio (x) = -0.14758 0.00849
# Poissons Ratio (y) = -0.27693 -0.19653
# Poissons Ratio (z) = 0.01929 -0.23790
#
# Static dielectric constant tensor:
#      x y z
#    x 1.764190 0.000000 0.000000 
#    y 0.000000 1.695810 0.000000 
#    z 0.000000 0.000000 1.679050 
# 
# From -- ./inp_files/19503.got.cif
#   From: 2010.05.17/outbox.cif.g08.bks.cpg/sg55_10_cif.got.tgz:19503.got - 2010.06.03 13:27:54.
