data_PCOD9426523
_publ_section_title
;
Structure prediction by ZEFSAII (Michael W. Deem and Ramdas Pophale) SiO2 
 PCOD9426523
Probable space group: P B A M
;
_chemical_formula_sum "Si O2"
_cell_formula_units_Z 56
_cell_length_a 13.315440
_cell_length_b 13.680118
_cell_length_c 18.818417
_cell_angle_alpha 90.000000
_cell_angle_beta 90.000000
_cell_angle_gamma 90.000000
_cell_volume 3427.902442
_symmetry_space_group_name_H-M "P B A M"
_symmetry_group_IT_number 55
_symmetry_cell_setting 'orthorhombic'
loop_
_space_group_symop_operation_xyz
x,y,z
-x,-y,z
1/2+x,1/2-y,-z
1/2-x,1/2+y,-z
-x,-y,-z
x,y,-z
1/2-x,1/2+y,z
1/2+x,1/2-y,z
loop_
_atom_site_type_symbol
_atom_site_label
_atom_site_fract_x
_atom_site_fract_y
_atom_site_fract_z
Si Si1 0.215630 0.368225 0.812218
Si Si2 0.390140 0.219238 0.191210
Si Si3 0.743132 0.432968 0.268818
Si Si4 0.337951 0.036534 0.581022
Si Si5 0.921098 0.773942 0.719741
Si Si6 0.965320 0.612207 0.918531
Si Si7 0.462967 0.835625 0.579998
O O1 0.307344 0.297675 0.831727
O O2 0.253935 0.468018 0.776678
O O3 0.147254 0.311814 0.754121
O O4 0.141135 0.383492 0.878278
O O5 0.331070 0.135392 0.235276
O O6 0.471869 0.269760 0.242007
O O7 0.453143 0.172750 0.126781
O O8 0.766219 0.452191 0.351743
O O9 0.639861 0.372654 0.265919
O O10 0.297721 0.045764 0.500000
O O11 0.426215 0.117486 0.589093
O O12 0.390288 0.930058 0.586312
O O13 0.937092 0.744547 0.638204
O O14 0.000000 0.500000 0.917859
O O15 0.958600 0.645813 0.000000
O O16 0.454520 0.797449 0.500000
#
# Coordination Sequence:
#
# PCOD9426523 Si02
#       7
#     8   8   8   8   8   8   8
#     4  10  21  35  55  81 108 141 176 221 266 316
#     4  10  21  36  54  82 109 138 180 220 266 320
#     4  11  19  32  54  76 106 145 182 228 272 319
#     4   9  17  28  48  74 102 138 180 230 283 323
#     4  10  20  31  52  78 100 143 187 222 270 324
#     4  10  20  36  61  88 111 140 175 212 257 315
#     4   9  16  28  47  72 101 135 179 232 282 325
#
# _framework density 16.336521000000001
#
# number of rings (size 3 to 8) (size 9 to 14) (size 15 to 20)
#    0.000    2.143    4.286    0.857    0.000    1.714 
#    0.000    0.000    0.000    0.857    0.000    6.000 
#    0.000    0.000    0.000    0.000    0.000    0.000 
#
# Total GULP energy -312168.769214 kJ/mol
# GULP energy per Si atom -5574.442307 kJ/mol
# Density = 1.629934 g / cm^3
# Si number density = 16.336521 Si / 1000 Ang^3
#
#
#
# Elastic Constant Matrix: (Units=GPa)
#
#
# Indices 1 2 3 4 5 6 
#
# 1 69.1290 38.6175 41.5743 0.0000 0.0000 0.0000
# 2 38.6175 60.6498 39.9664 0.0000 0.0000 0.0000
# 3 41.5743 39.9664 125.5980 0.0000 0.0000 0.0000
# 4 0.0000 0.0000 0.0000 18.8681 0.0000 0.0000
# 5 0.0000 0.0000 0.0000 0.0000 8.0720 0.0000
# 6 0.0000 0.0000 0.0000 0.0000 0.0000 21.7453
#
#
#
# Elastic Compliance Matrix: (Units=1/GPa)
#
#
# Indices 1 2 3 4 5 6 
#
# 1 0.023855 -0.012635 -0.003876 0.000000 0.000000 0.000000
# 2 -0.012635 0.027555 -0.004586 0.000000 0.000000 0.000000
# 3 -0.003876 -0.004586 0.010704 0.000000 0.000000 0.000000
# 4 0.000000 0.000000 0.000000 0.053000 0.000000 0.000000
# 5 0.000000 0.000000 0.000000 0.000000 0.123885 0.000000
# 6 0.000000 0.000000 0.000000 0.000000 0.000000 0.045987
#
#
# Mechanical properties :
#
#
# Convention : Reuss Voigt Hill
#
# Bulk Modulus (GPa) = 50.19885 55.07700 52.63792
# Shear Modulus (GPa) = 14.97816 18.75165 16.86491
#
# Velocity S-wave (km/s) = 3.03124 3.39165 3.21650
# Velocity P-wave (km/s) = 6.56094 7.00892 6.78862
#
# Compressibility (1/GPa) = 0.01992077
#
# Stress axis : x y z
#
# Youngs Moduli (GPa) = 41.92010 36.29067 93.42243
#
# Poissons Ratio (x) = 0.45854 0.36207
# Poissons Ratio (y) = 0.52967 0.42843
# Poissons Ratio (z) = 0.16247 0.16643
#
# Static dielectric constant tensor:
#      x y z
#    x 1.537670 0.000000 0.000000 
#    y 0.000000 1.532820 0.000000 
#    z 0.000000 0.000000 1.541950 
# 
# From -- ./inp_files/21674.got.cif
#   From: 2010.05.17/outbox.cif.g08.bks.cpg/sg55_11_cif.got.tgz:21674.got - 2010.06.03 13:27:54.
