data_PCOD9426528
_publ_section_title
;
Structure prediction by ZEFSAII (Michael W. Deem and Ramdas Pophale) SiO2 
 PCOD9426528
Probable space group: P B A M
;
_chemical_formula_sum "Si O2"
_cell_formula_units_Z 48
_cell_length_a 8.457794
_cell_length_b 23.119940
_cell_length_c 11.933845
_cell_angle_alpha 90.000000
_cell_angle_beta 90.000000
_cell_angle_gamma 90.000000
_cell_volume 2333.588085
_symmetry_space_group_name_H-M "P B A M"
_symmetry_group_IT_number 55
_symmetry_cell_setting 'orthorhombic'
loop_
_space_group_symop_operation_xyz
x,y,z
-x,-y,z
1/2+x,1/2-y,-z
1/2-x,1/2+y,-z
-x,-y,-z
x,y,-z
1/2-x,1/2+y,z
1/2+x,1/2-y,z
loop_
_atom_site_type_symbol
_atom_site_label
_atom_site_fract_x
_atom_site_fract_y
_atom_site_fract_z
Si Si1 0.940409 0.907528 0.000000
Si Si2 0.636909 0.278207 0.634112
Si Si3 0.892472 0.588591 0.807504
Si Si4 0.972885 0.338458 0.633035
Si Si5 0.740228 0.738778 0.000000
Si Si6 0.465689 0.166754 0.000000
Si Si7 0.914801 0.161340 0.808105
Si Si8 0.735932 0.014869 0.000000
O O1 0.959525 0.870967 0.887520
O O2 0.102825 0.946738 0.000000
O O3 0.789240 0.948826 0.000000
O O4 0.614039 0.283905 0.500000
O O5 0.607881 0.210125 0.660065
O O6 0.503396 0.311436 0.703618
O O7 0.806940 0.306382 0.661987
O O8 0.993796 0.601075 0.696139
O O9 0.983188 0.630572 0.893815
O O10 0.720040 0.614776 0.779883
O O11 0.855057 0.533273 0.886043
O O12 0.973148 0.347414 0.500000
O O13 0.705057 0.806128 0.000000
O O14 0.668947 0.708217 0.110480
O O15 0.923510 0.723592 0.000000
#
# Coordination Sequence:
#
# PCOD9426528 Si02
#       8
#     4   8   8   8   4   4   8   4
#     4   8  15  30  52  75  96 118 148 192 242 282
#     4  10  20  32  46  66  94 127 160 192 226 267
#     4   9  17  29  46  68  92 119 152 188 228 275
#     4  10  20  32  46  66  94 127 160 192 226 267
#     4   9  17  26  37  59  89 116 142 175 217 265
#     4   9  17  26  37  59  89 116 142 175 217 265
#     4   9  17  29  46  68  92 119 152 188 228 275
#     4   8  15  30  52  75  96 118 148 192 242 282
#
# _framework density 20.569182999999999
#
# number of rings (size 3 to 8) (size 9 to 14) (size 15 to 20)
#    0.000    2.833    0.000    4.000    0.000    6.000 
#    0.000    2.500    0.000    3.000    0.000    7.000 
#    0.000    0.000    0.000    0.000    0.000    0.000 
#
# Total GULP energy -267847.575720 kJ/mol
# GULP energy per Si atom -5580.157827 kJ/mol
# Density = 2.052237 g / cm^3
# Si number density = 20.569183 Si / 1000 Ang^3
#
#
#
# Elastic Constant Matrix: (Units=GPa)
#
#
# Indices 1 2 3 4 5 6 
#
# 1 87.4429 19.1065 33.4114 0.0000 0.0000 0.0000
# 2 19.1065 23.8763 11.4156 0.0000 0.0000 0.0000
# 3 33.4114 11.4156 67.2090 0.0000 0.0000 0.0000
# 4 0.0000 0.0000 0.0000 -4.2350 0.0000 0.0000
# 5 0.0000 0.0000 0.0000 0.0000 38.9714 0.0000
# 6 0.0000 0.0000 0.0000 0.0000 0.0000 26.9095
#
#
#
# Elastic Compliance Matrix: (Units=1/GPa)
#
#
# Indices 1 2 3 4 5 6 
#
# 1 0.015972 -0.009779 -0.006279 0.000000 0.000000 0.000000
# 2 -0.009779 0.051572 -0.003898 0.000000 0.000000 0.000000
# 3 -0.006279 -0.003898 0.018663 0.000000 0.000000 0.000000
# 4 0.000000 0.000000 0.000000 -0.236129 0.000000 0.000000
# 5 0.000000 0.000000 0.000000 0.000000 0.025660 0.000000
# 6 0.000000 0.000000 0.000000 0.000000 0.000000 0.037162
#
#
# Mechanical properties :
#
#
# Convention : Reuss Voigt Hill
#
# Bulk Modulus (GPa) = 21.60119 34.04390 27.82254
# Shear Modulus (GPa) = -157.44456 19.96883 -68.73786
#
# Velocity S-wave (km/s) = -8.75843 3.11917 -5.78709
# Velocity P-wave (km/s) = 9.57891 5.43683 5.57658
#
# Compressibility (1/GPa) = 0.04629375
#
# Stress axis : x y z
#
# Youngs Moduli (GPa) = 62.60954 19.39040 53.58322
#
# Poissons Ratio (x) = 0.18962 0.33645
# Poissons Ratio (y) = 0.61227 0.20887
# Poissons Ratio (z) = 0.39313 0.07559
#
# Static dielectric constant tensor:
#      x y z
#    x 1.799980 0.000000 0.000000 
#    y 0.000000 1.750390 0.000000 
#    z 0.000000 0.000000 1.812850 
# 
# From -- ./inp_files/12346.got.cif
#   From: 2010.05.17/outbox.cif.g08.bks.cpg/sg55_7_cif.got.tgz:12346.got - 2010.06.03 13:27:54.
