data_PCOD9426834
_publ_section_title
;
Structure prediction by ZEFSAII (Michael W. Deem and Ramdas Pophale) SiO2 
 PCOD9426834
Probable space group: P B A M
;
_chemical_formula_sum "Si O2"
_cell_formula_units_Z 64
_cell_length_a 23.947274
_cell_length_b 9.662605
_cell_length_c 14.427546
_cell_angle_alpha 90.000000
_cell_angle_beta 90.000000
_cell_angle_gamma 90.000000
_cell_volume 3338.433866
_symmetry_space_group_name_H-M "P B A M"
_symmetry_group_IT_number 55
_symmetry_cell_setting 'orthorhombic'
loop_
_space_group_symop_operation_xyz
x,y,z
-x,-y,z
1/2+x,1/2-y,-z
1/2-x,1/2+y,-z
-x,-y,-z
x,y,-z
1/2-x,1/2+y,z
1/2+x,1/2-y,z
loop_
_atom_site_type_symbol
_atom_site_label
_atom_site_fract_x
_atom_site_fract_y
_atom_site_fract_z
Si Si1 0.287851 0.482645 0.105920
Si Si2 0.918237 0.853483 0.609803
Si Si3 0.486911 0.164151 0.698527
Si Si4 0.823015 0.781906 0.748252
Si Si5 0.339086 0.000704 0.161954
Si Si6 0.955060 0.375906 0.099666
Si Si7 0.196851 0.764254 0.743519
Si Si8 0.103463 0.838760 0.393159
O O1 0.311812 0.602153 0.172934
O O2 0.220034 0.490949 0.108287
O O3 0.304745 0.339853 0.156286
O O4 0.306669 0.492916 0.000000
O O5 0.916177 0.822385 0.500000
O O6 0.859943 0.830686 0.662887
O O7 0.962066 0.754667 0.660805
O O8 0.930130 0.017541 0.619248
O O9 0.470000 0.201018 0.804757
O O10 0.434895 0.210339 0.635872
O O11 0.500000 0.000000 0.694164
O O12 0.851249 0.649951 0.797155
O O13 0.761401 0.736029 0.715750
O O14 0.393172 0.059615 0.110620
O O15 0.325011 0.109167 0.243310
O O16 0.000000 0.500000 0.096683
O O17 0.958312 0.301377 0.000000
O O18 0.157236 0.840534 0.672155
O O19 0.119757 0.829730 0.500000
#
# Coordination Sequence:
#
# PCOD9426834 Si02
#       8
#     8   8   8   8   8   8   8   8
#     4  10  21  37  60  89 122 162 205 247 300 366
#     4  11  24  42  64  88 118 163 205 251 313 375
#     4  11  23  42  64  92 125 152 202 262 303 355
#     4  10  21  38  61  89 125 157 202 255 304 364
#     4  10  20  36  59  88 123 158 202 250 300 353
#     4  10  20  34  56  86 122 160 194 235 298 356
#     4  10  21  39  59  88 126 159 196 253 308 364
#     4  11  23  42  65  87 116 162 207 250 312 373
#
# _framework density 19.170665
#
# number of rings (size 3 to 8) (size 9 to 14) (size 15 to 20)
#    0.000    1.625    2.500    2.625    0.000    8.000 
#    0.000    0.625    0.000    0.750    0.000    0.000 
#    0.000    0.000    0.000    0.000    0.000    0.000 
#
# Total GULP energy -357062.947031 kJ/mol
# GULP energy per Si atom -5579.108547 kJ/mol
# Density = 1.912703 g / cm^3
# Si number density = 19.170665 Si / 1000 Ang^3
#
#
#
# Elastic Constant Matrix: (Units=GPa)
#
#
# Indices 1 2 3 4 5 6 
#
# 1 82.3751 13.2863 42.7048 0.0000 0.0000 0.0000
# 2 13.2863 74.6554 34.5766 0.0000 0.0000 0.0000
# 3 42.7048 34.5766 108.9084 0.0000 0.0000 0.0000
# 4 0.0000 0.0000 0.0000 18.8665 0.0000 0.0000
# 5 0.0000 0.0000 0.0000 0.0000 -6.6681 0.0000
# 6 0.0000 0.0000 0.0000 0.0000 0.0000 23.7677
#
#
#
# Elastic Compliance Matrix: (Units=1/GPa)
#
#
# Indices 1 2 3 4 5 6 
#
# 1 0.015237 0.000065 -0.005995 0.000000 0.000000 0.000000
# 2 0.000065 0.015704 -0.005011 0.000000 0.000000 0.000000
# 3 -0.005995 -0.005011 0.013124 0.000000 0.000000 0.000000
# 4 0.000000 0.000000 0.000000 0.053004 0.000000 0.000000
# 5 0.000000 0.000000 0.000000 0.000000 -0.149969 0.000000
# 6 0.000000 0.000000 0.000000 0.000000 0.000000 0.042074
#
#
# Mechanical properties :
#
#
# Convention : Reuss Voigt Hill
#
# Bulk Modulus (GPa) = 45.08159 49.67493 47.37826
# Shear Modulus (GPa) = 270.96872 18.88464 144.92668
#
# Velocity S-wave (km/s) = 11.90178 3.14200 8.70415
# Velocity P-wave (km/s) = 14.57521 6.25549 11.21534
#
# Compressibility (1/GPa) = 0.02218200
#
# Stress axis : x y z
#
# Youngs Moduli (GPa) = 65.62864 63.67679 76.19655
#
# Poissons Ratio (x) = -0.00414 0.45683
# Poissons Ratio (y) = -0.00427 0.38185
# Poissons Ratio (z) = 0.39347 0.31911
#
# Static dielectric constant tensor:
#      x y z
#    x 1.683200 0.000000 0.000000 
#    y 0.000000 1.674050 0.000000 
#    z 0.000000 0.000000 1.656520 
# 
# From -- ./inp_files/19982.got.cif
#   From: 2010.05.17/outbox.cif.g08.bks.cpg/sg55_10_cif.got.tgz:19982.got - 2010.06.03 13:27:54.
