data_PCOD9426803
_publ_section_title
;
Structure prediction by ZEFSAII (Michael W. Deem and Ramdas Pophale) SiO2 
 PCOD9426803
Probable space group: P B A M
;
_chemical_formula_sum "Si O2"
_cell_formula_units_Z 56
_cell_length_a 22.400233
_cell_length_b 8.388577
_cell_length_c 14.055441
_cell_angle_alpha 90.000000
_cell_angle_beta 90.000000
_cell_angle_gamma 90.000000
_cell_volume 2641.102812
_symmetry_space_group_name_H-M "P B A M"
_symmetry_group_IT_number 55
_symmetry_cell_setting 'orthorhombic'
loop_
_space_group_symop_operation_xyz
x,y,z
-x,-y,z
1/2+x,1/2-y,-z
1/2-x,1/2+y,-z
-x,-y,-z
x,y,-z
1/2-x,1/2+y,z
1/2+x,1/2-y,z
loop_
_atom_site_type_symbol
_atom_site_label
_atom_site_fract_x
_atom_site_fract_y
_atom_site_fract_z
Si Si1 0.329147 0.093532 0.271302
Si Si2 0.589650 0.326648 0.394305
Si Si3 0.979509 0.825795 0.798898
Si Si4 0.139048 0.106225 0.890742
Si Si5 0.203890 0.221713 0.717339
Si Si6 0.435949 0.039813 0.605271
Si Si7 0.401479 0.235902 0.888499
O O1 0.272387 0.192498 0.306465
O O2 0.351752 0.133380 0.165625
O O3 0.311157 0.908548 0.278716
O O4 0.387048 0.133223 0.335947
O O5 0.578699 0.395456 0.500000
O O6 0.539654 0.347598 0.311896
O O7 0.654758 0.364656 0.350399
O O8 0.590881 0.135978 0.405601
O O9 0.917480 0.790937 0.852250
O O10 0.035133 0.720274 0.832720
O O11 0.000000 0.000000 0.832836
O O12 0.192822 0.146788 0.821167
O O13 0.120987 0.920098 0.881137
O O14 0.150919 0.140594 0.000000
O O15 0.447340 0.109873 0.500000
O O16 0.500000 0.000000 0.651056
O O17 0.408968 0.199365 0.000000
#
# Coordination Sequence:
#
# PCOD9426803 Si02
#       7
#     8   8   8   8   8   8   8
#     4  11  22  37  57  81 113 150 189 237 288 339
#     4   9  18  33  53  78 110 146 182 225 276 331
#     4   9  17  31  54  83 115 149 187 230 280 338
#     4   9  18  35  57  79 109 150 190 232 282 335
#     4  10  22  37  55  78 108 146 190 235 281 337
#     4   9  18  34  57  82 108 142 183 227 281 341
#     4  10  20  34  55  83 113 147 189 234 282 338
#
# _framework density 21.203263
#
# number of rings (size 3 to 8) (size 9 to 14) (size 15 to 20)
#    0.000    2.429    0.000    2.143    0.000    3.714 
#    0.000    0.000    0.000   19.286    0.000    0.000 
#    0.000    0.000    0.000    0.000    0.000    0.000 
#
# Total GULP energy -312055.818922 kJ/mol
# GULP energy per Si atom -5572.425338 kJ/mol
# Density = 2.115500 g / cm^3
# Si number density = 21.203263 Si / 1000 Ang^3
#
#
#
# Elastic Constant Matrix: (Units=GPa)
#
#
# Indices 1 2 3 4 5 6 
#
# 1 130.7768 16.8446 52.5297 0.0000 0.0000 0.0000
# 2 16.8446 20.8023 14.4968 0.0000 0.0000 0.0000
# 3 52.5297 14.4968 94.5366 0.0000 0.0000 0.0000
# 4 0.0000 0.0000 0.0000 15.5475 0.0000 0.0000
# 5 0.0000 0.0000 0.0000 0.0000 13.5680 0.0000
# 6 0.0000 0.0000 0.0000 0.0000 0.0000 27.3612
#
#
#
# Elastic Compliance Matrix: (Units=1/GPa)
#
#
# Indices 1 2 3 4 5 6 
#
# 1 0.010264 -0.004856 -0.004959 0.000000 0.000000 0.000000
# 2 -0.004856 0.056120 -0.005908 0.000000 0.000000 0.000000
# 3 -0.004959 -0.005908 0.014239 0.000000 0.000000 0.000000
# 4 0.000000 0.000000 0.000000 0.064319 0.000000 0.000000
# 5 0.000000 0.000000 0.000000 0.000000 0.073703 0.000000
# 6 0.000000 0.000000 0.000000 0.000000 0.000000 0.036548
#
#
# Mechanical properties :
#
#
# Convention : Reuss Voigt Hill
#
# Bulk Modulus (GPa) = 20.33370 45.98423 33.15897
# Shear Modulus (GPa) = 16.50001 22.11165 19.30583
#
# Velocity S-wave (km/s) = 2.79262 3.23281 3.02074
# Velocity P-wave (km/s) = 4.47314 5.97237 5.27628
#
# Compressibility (1/GPa) = 0.04917943
#
# Stress axis : x y z
#
# Youngs Moduli (GPa) = 97.43037 17.81883 70.22924
#
# Poissons Ratio (x) = 0.08652 0.34823
# Poissons Ratio (y) = 0.47308 0.41490
# Poissons Ratio (z) = 0.48311 0.10527
#
# Static dielectric constant tensor:
#      x y z
#    x 1.787540 0.000000 0.000000 
#    y 0.000000 1.781970 0.000000 
#    z 0.000000 0.000000 1.810210 
# 
# From -- ./inp_files/19750.got.cif
#   From: 2010.05.17/outbox.cif.g08.bks.cpg/sg55_10_cif.got.tgz:19750.got - 2010.06.03 13:27:54.
