data_PCOD9426126
_publ_section_title
;
Structure prediction by ZEFSAII (Michael W. Deem and Ramdas Pophale) SiO2 
 PCOD9426126
Probable space group: P B A M
;
_chemical_formula_sum "Si O2"
_cell_formula_units_Z 48
_cell_length_a 10.398753
_cell_length_b 30.070815
_cell_length_c 8.367670
_cell_angle_alpha 90.000000
_cell_angle_beta 90.000000
_cell_angle_gamma 90.000000
_cell_volume 2616.561855
_symmetry_space_group_name_H-M "P B A M"
_symmetry_group_IT_number 55
_symmetry_cell_setting 'orthorhombic'
loop_
_space_group_symop_operation_xyz
x,y,z
-x,-y,z
1/2+x,1/2-y,-z
1/2-x,1/2+y,-z
-x,-y,-z
x,y,-z
1/2-x,1/2+y,z
1/2+x,1/2-y,z
loop_
_atom_site_type_symbol
_atom_site_label
_atom_site_fract_x
_atom_site_fract_y
_atom_site_fract_z
Si Si1 0.516121 0.715256 0.305447
Si Si2 0.875463 0.473392 0.688590
Si Si3 0.256383 0.113969 0.187528
Si Si4 0.279268 0.211312 0.306118
Si Si5 0.131775 0.975238 0.811407
Si Si6 0.030084 0.885594 0.310764
O O1 0.517152 0.715399 0.500000
O O2 0.616682 0.752472 0.252010
O O3 0.367624 0.722947 0.257404
O O4 0.554115 0.665146 0.256652
O O5 0.890375 0.465237 0.500000
O O6 0.850775 0.426326 0.772309
O O7 0.750805 0.503654 0.719730
O O8 0.000000 0.500000 0.747569
O O9 0.306888 0.162043 0.241595
O O10 0.121341 0.106179 0.278474
O O11 0.227870 0.114404 0.000000
O O12 0.281390 0.209572 0.500000
O O13 0.110803 0.923342 0.776898
O O14 0.150157 0.983195 0.000000
O O15 0.000000 0.000000 0.762617
O O16 0.053936 0.888707 0.500000
#
# Coordination Sequence:
#
# PCOD9426126 Si02
#       6
#     8   8   8   8   8   8
#     4   8  16  31  54  79 105 135 179 228 272 314
#     4  11  24  41  60  83 110 146 192 236 279 330
#     4  11  21  35  56  82 112 148 184 223 280 341
#     4   9  17  34  56  79 105 141 181 226 273 323
#     4  11  22  36  58  87 116 148 183 225 282 337
#     4  10  19  34  58  85 111 144 190 236 272 319
#
# _framework density 18.344684000000001
#
# number of rings (size 3 to 8) (size 9 to 14) (size 15 to 20)
#    0.000    2.000    1.667    4.000    0.000    2.000 
#    3.000    4.167    0.000    0.000    0.000    0.000 
#    0.000    0.000    0.000    0.000    0.000    0.000 
#
# Total GULP energy -267961.639591 kJ/mol
# GULP energy per Si atom -5582.534158 kJ/mol
# Density = 1.830293 g / cm^3
# Si number density = 18.344684 Si / 1000 Ang^3
#
#
#
# Elastic Constant Matrix: (Units=GPa)
#
#
# Indices 1 2 3 4 5 6 
#
# 1 75.9726 66.9698 -0.0197 0.0000 0.0000 0.0000
# 2 66.9698 140.9808 0.0685 0.0000 0.0000 0.0000
# 3 -0.0197 0.0685 12.8591 0.0000 0.0000 0.0000
# 4 0.0000 0.0000 0.0000 -30.7859 0.0000 0.0000
# 5 0.0000 0.0000 0.0000 0.0000 -245.0060 0.0000
# 6 0.0000 0.0000 0.0000 0.0000 0.0000 35.0026
#
#
#
# Elastic Compliance Matrix: (Units=1/GPa)
#
#
# Indices 1 2 3 4 5 6 
#
# 1 0.022645 -0.010757 0.000092 0.000000 0.000000 0.000000
# 2 -0.010757 0.012203 -0.000082 0.000000 0.000000 0.000000
# 3 0.000092 -0.000082 0.077767 0.000000 0.000000 0.000000
# 4 0.000000 0.000000 0.000000 -0.032482 0.000000 0.000000
# 5 0.000000 0.000000 0.000000 0.000000 -0.004082 0.000000
# 6 0.000000 0.000000 0.000000 0.000000 0.000000 0.028569
#
#
# Mechanical properties :
#
#
# Convention : Reuss Voigt Hill
#
# Bulk Modulus (GPa) = 10.97434 40.42774 25.70104
# Shear Modulus (GPa) = 31.95156 -37.30493 -2.67668
#
# Velocity S-wave (km/s) = 4.17794 -4.51439 -1.20924
# Velocity P-wave (km/s) = 5.41007 2.25549 3.47718
#
# Compressibility (1/GPa) = 0.09112163
#
# Stress axis : x y z
#
# Youngs Moduli (GPa) = 44.15985 81.94633 12.85900
#
# Poissons Ratio (x) = 0.88150 -0.00118
# Poissons Ratio (y) = 0.47503 0.00105
# Poissons Ratio (z) = -0.00407 0.00668
#
# Static dielectric constant tensor:
#      x y z
#    x 1.611770 0.000000 0.000000 
#    y 0.000000 1.629330 0.000000 
#    z 0.000000 0.000000 1.613330 
# 
# From -- ./inp_files/2842.got.cif
#   From: 2010.05.17/outbox.cif.g08.bks.cpg/sg55_2_cif.got.tgz:2842.got - 2010.06.03 13:27:54.
