data_PCOD9426389
_publ_section_title
;
Structure prediction by ZEFSAII (Michael W. Deem and Ramdas Pophale) SiO2 
 PCOD9426389
Probable space group: P B A M
;
_chemical_formula_sum "Si O2"
_cell_formula_units_Z 64
_cell_length_a 28.559368
_cell_length_b 13.148354
_cell_length_c 8.094882
_cell_angle_alpha 90.000000
_cell_angle_beta 90.000000
_cell_angle_gamma 90.000000
_cell_volume 3039.698458
_symmetry_space_group_name_H-M "P B A M"
_symmetry_group_IT_number 55
_symmetry_cell_setting 'orthorhombic'
loop_
_space_group_symop_operation_xyz
x,y,z
-x,-y,z
1/2+x,1/2-y,-z
1/2-x,1/2+y,-z
-x,-y,-z
x,y,-z
1/2-x,1/2+y,z
1/2+x,1/2-y,z
loop_
_atom_site_type_symbol
_atom_site_label
_atom_site_fract_x
_atom_site_fract_y
_atom_site_fract_z
Si Si1 0.798362 0.757282 0.300612
Si Si2 0.548149 0.767084 0.193816
Si Si3 0.860465 0.349795 0.308447
Si Si4 0.448298 0.464853 0.699870
Si Si5 0.300608 0.330333 0.189167
Si Si6 0.152580 0.036867 0.696615
Si Si7 0.969918 0.597476 0.699729
Si Si8 0.863374 0.572871 0.297989
O O1 0.799869 0.760658 0.500000
O O2 0.746247 0.723599 0.254069
O O3 0.831775 0.665865 0.243243
O O4 0.818565 0.865432 0.238993
O O5 0.583588 0.839853 0.293360
O O6 0.556803 0.652430 0.250122
O O7 0.495970 0.802828 0.235696
O O8 0.556927 0.778039 0.000000
O O9 0.846596 0.337920 0.500000
O O10 0.839735 0.256386 0.208769
O O11 0.845959 0.461099 0.247364
O O12 0.500000 0.500000 0.758279
O O13 0.448518 0.471867 0.500000
O O14 0.401084 0.522689 0.759857
O O15 0.318665 0.432585 0.276679
O O16 0.293651 0.357842 0.000000
O O17 0.148016 0.051377 0.500000
O O18 0.970257 0.599864 0.500000
O O19 0.916666 0.588591 0.755727
O O20 0.000000 0.500000 0.755054
O O21 0.863353 0.570854 0.500000
#
# Coordination Sequence:
#
# PCOD9426389 Si02
#       8
#     8   8   8   8   8   8   8   8
#     4  10  23  43  67  95 124 161 212 266 318 374
#     4  12  24  37  56  90 129 169 207 252 316 377
#     4  11  21  40  66  93 121 160 213 263 310 372
#     4  10  22  40  66  95 122 163 216 263 309 371
#     4  12  26  43  64  93 127 165 207 259 325 386
#     4  10  22  42  68  96 127 165 212 264 315 376
#     4  10  19  36  61  88 121 164 208 255 304 358
#     4   9  20  38  65  95 121 156 210 266 312 364
#
# _framework density 21.054722000000002
#
# number of rings (size 3 to 8) (size 9 to 14) (size 15 to 20)
#    0.000    1.500    2.500    2.625    3.500    1.000 
#    0.000    1.250    0.000    0.000    0.000    0.000 
#    0.000    0.000    0.000    0.000    0.000    0.000 
#
# Total GULP energy -357506.659182 kJ/mol
# GULP energy per Si atom -5586.041550 kJ/mol
# Density = 2.100680 g / cm^3
# Si number density = 21.054722 Si / 1000 Ang^3
#
#
#
# Elastic Constant Matrix: (Units=GPa)
#
#
# Indices 1 2 3 4 5 6 
#
# 1 98.4297 41.3220 4.3367 0.0000 0.0000 0.0000
# 2 41.3220 101.5568 -5.6128 0.0000 0.0000 0.0000
# 3 4.3367 -5.6128 18.5682 0.0000 0.0000 0.0000
# 4 0.0000 0.0000 0.0000 -24.0750 0.0000 0.0000
# 5 0.0000 0.0000 0.0000 0.0000 -3.6634 0.0000
# 6 0.0000 0.0000 0.0000 0.0000 0.0000 28.8898
#
#
#
# Elastic Compliance Matrix: (Units=1/GPa)
#
#
# Indices 1 2 3 4 5 6 
#
# 1 0.012624 -0.005389 -0.004577 0.000000 0.000000 0.000000
# 2 -0.005389 0.012315 0.004981 0.000000 0.000000 0.000000
# 3 -0.004577 0.004981 0.056430 0.000000 0.000000 0.000000
# 4 0.000000 0.000000 0.000000 -0.041537 0.000000 0.000000
# 5 0.000000 0.000000 0.000000 0.000000 -0.272972 0.000000
# 6 0.000000 0.000000 0.000000 0.000000 0.000000 0.034614
#
#
# Mechanical properties :
#
#
# Convention : Reuss Voigt Hill
#
# Bulk Modulus (GPa) = 14.00602 33.18295 23.59448
# Shear Modulus (GPa) = -30.34811 12.13087 -9.10862
#
# Velocity S-wave (km/s) = -3.80069 2.40294 -2.08220
# Velocity P-wave (km/s) = 3.54875 4.84699 2.33449
#
# Compressibility (1/GPa) = 0.07139789
#
# Stress axis : x y z
#
# Youngs Moduli (GPa) = 79.21573 81.20251 17.72093
#
# Poissons Ratio (x) = 0.43763 0.08112
# Poissons Ratio (y) = 0.42693 -0.08827
# Poissons Ratio (z) = 0.36261 -0.40449
#
# Static dielectric constant tensor:
#      x y z
#    x 1.786490 0.000000 0.000000 
#    y 0.000000 1.744100 0.000000 
#    z 0.000000 0.000000 1.734850 
# 
# From -- ./inp_files/10825.got.cif
#   From: 2010.05.17/outbox.cif.g08.bks.cpg/sg55_6_cif.got.tgz:10825.got - 2010.06.03 13:27:54.
