data_PCOD9426074
_publ_section_title
;
Structure prediction by ZEFSAII (Michael W. Deem and Ramdas Pophale) SiO2 
 PCOD9426074
Probable space group: P B A M
;
_chemical_formula_sum "Si O2"
_cell_formula_units_Z 48
_cell_length_a 10.293389
_cell_length_b 16.469935
_cell_length_c 15.346622
_cell_angle_alpha 90.000000
_cell_angle_beta 90.000000
_cell_angle_gamma 90.000000
_cell_volume 2601.735046
_symmetry_space_group_name_H-M "P B A M"
_symmetry_group_IT_number 55
_symmetry_cell_setting 'orthorhombic'
loop_
_space_group_symop_operation_xyz
x,y,z
-x,-y,z
1/2+x,1/2-y,-z
1/2-x,1/2+y,-z
-x,-y,-z
x,y,-z
1/2-x,1/2+y,z
1/2+x,1/2-y,z
loop_
_atom_site_type_symbol
_atom_site_label
_atom_site_fract_x
_atom_site_fract_y
_atom_site_fract_z
Si Si1 0.098542 0.113685 0.186762
Si Si2 0.334144 0.450632 0.742214
Si Si3 0.396313 0.927611 0.000000
Si Si4 0.677002 0.675390 0.603566
Si Si5 0.943179 0.590903 0.187057
Si Si6 0.858210 0.957840 0.000000
Si Si7 0.441505 0.766554 0.697452
O O1 0.148595 0.095543 0.088986
O O2 0.105244 0.202309 0.228506
O O3 0.948487 0.085304 0.197111
O O4 0.166410 0.047227 0.249351
O O5 0.346611 0.413447 0.646429
O O6 0.202596 0.417584 0.780412
O O7 0.429512 0.880178 0.912250
O O8 0.500000 0.000000 0.000000
O O9 0.255983 0.973467 0.000000
O O10 0.679902 0.674274 0.500000
O O11 0.555210 0.727169 0.639736
O O12 0.814802 0.708427 0.641247
O O13 0.003166 0.656613 0.251456
O O14 0.000000 0.500000 0.190162
O O15 0.000000 0.000000 0.000000
#
# Coordination Sequence:
#
# PCOD9426074 Si02
#       7
#     8   8   4   8   8   4   8
#     4  10  19  34  56  86 112 147 194 231 280 324
#     4   9  18  35  56  80 109 145 186 234 284 335
#     4  10  20  31  50  79 112 149 190 225 265 321
#     4  10  21  40  60  83 112 144 187 238 291 347
#     4  10  20  35  55  78 115 156 189 223 280 338
#     4  12  18  31  60  81 111 152 194 227 261 335
#     4  10  23  36  60  84 115 149 184 238 290 338
#
# _framework density 18.449227
#
# number of rings (size 3 to 8) (size 9 to 14) (size 15 to 20)
#    0.000    2.000    3.333    0.500    2.333    0.667 
#    0.000    7.500    0.000    6.500    0.000    0.000 
#    0.000    0.000    0.000    0.000    0.000    0.000 
#
# Total GULP energy -267341.223432 kJ/mol
# GULP energy per Si atom -5569.608822 kJ/mol
# Density = 1.840724 g / cm^3
# Si number density = 18.449227 Si / 1000 Ang^3
#
#
#
# Elastic Constant Matrix: (Units=GPa)
#
#
# Indices 1 2 3 4 5 6 
#
# 1 44.3437 -4.9383 32.6156 0.0000 0.0000 0.0000
# 2 -4.9383 79.8519 67.2583 0.0000 0.0000 0.0000
# 3 32.6156 67.2583 168.9721 0.0000 0.0000 0.0000
# 4 0.0000 0.0000 0.0000 20.7604 0.0000 0.0000
# 5 0.0000 0.0000 0.0000 0.0000 20.4595 0.0000
# 6 0.0000 0.0000 0.0000 0.0000 0.0000 17.3202
#
#
#
# Elastic Compliance Matrix: (Units=1/GPa)
#
#
# Indices 1 2 3 4 5 6 
#
# 1 0.031252 0.010551 -0.010232 0.000000 0.000000 0.000000
# 2 0.010551 0.022402 -0.010954 0.000000 0.000000 0.000000
# 3 -0.010232 -0.010954 0.012253 0.000000 0.000000 0.000000
# 4 0.000000 0.000000 0.000000 0.048169 0.000000 0.000000
# 5 0.000000 0.000000 0.000000 0.000000 0.048877 0.000000
# 6 0.000000 0.000000 0.000000 0.000000 0.000000 0.057736
#
#
# Mechanical properties :
#
#
# Convention : Reuss Voigt Hill
#
# Bulk Modulus (GPa) = 22.40242 53.67098 38.03670
# Shear Modulus (GPa) = 19.46758 24.92349 22.19553
#
# Velocity S-wave (km/s) = 3.25190 3.67948 3.47228
# Velocity P-wave (km/s) = 5.12532 6.87064 6.06113
#
# Compressibility (1/GPa) = 0.04463804
#
# Stress axis : x y z
#
# Youngs Moduli (GPa) = 31.99779 44.63942 81.61145
#
# Poissons Ratio (x) = -0.47100 0.83507
# Poissons Ratio (y) = -0.33762 0.89393
# Poissons Ratio (z) = 0.32741 0.48896
#
# Static dielectric constant tensor:
#      x y z
#    x 1.667940 0.000000 0.000000 
#    y 0.000000 1.772420 0.000000 
#    z 0.000000 0.000000 1.656750 
# 
# From -- ./inp_files/18304.got.cif
#   From: 2010.05.17/outbox.cif.g08.bks.cpg/sg55_10_cif.got.tgz:18304.got - 2010.06.03 13:27:54.
