data_PCOD9426353
_publ_section_title
;
Structure prediction by ZEFSAII (Michael W. Deem and Ramdas Pophale) SiO2 
 PCOD9426353
Probable space group: P B A M
;
_chemical_formula_sum "Si O2"
_cell_formula_units_Z 48
_cell_length_a 32.013430
_cell_length_b 10.472350
_cell_length_c 7.842168
_cell_angle_alpha 90.000000
_cell_angle_beta 90.000000
_cell_angle_gamma 90.000000
_cell_volume 2629.132649
_symmetry_space_group_name_H-M "P B A M"
_symmetry_group_IT_number 55
_symmetry_cell_setting 'orthorhombic'
loop_
_space_group_symop_operation_xyz
x,y,z
-x,-y,z
1/2+x,1/2-y,-z
1/2-x,1/2+y,-z
-x,-y,-z
x,y,-z
1/2-x,1/2+y,z
1/2+x,1/2-y,z
loop_
_atom_site_type_symbol
_atom_site_label
_atom_site_fract_x
_atom_site_fract_y
_atom_site_fract_z
Si Si1 0.783732 0.587339 0.698254
Si Si2 0.216068 0.120761 0.795838
Si Si3 0.375650 0.944488 0.195542
Si Si4 0.032607 0.114574 0.800889
Si Si5 0.376768 0.646024 0.204878
Si Si6 0.428495 0.040541 0.500000
Si Si7 0.508450 0.199200 0.500000
O O1 0.794906 0.594990 0.500000
O O2 0.772500 0.731425 0.756399
O O3 0.747282 0.484588 0.723360
O O4 0.825570 0.542035 0.794382
O O5 0.168388 0.103077 0.729155
O O6 0.216564 0.106424 0.000000
O O7 0.382815 0.795848 0.246052
O O8 0.399721 0.029725 0.332364
O O9 0.389445 0.963507 0.000000
O O10 0.080153 0.076994 0.749761
O O11 0.018125 0.221284 0.669684
O O12 0.034023 0.157424 0.000000
O O13 0.000000 0.000000 0.790066
O O14 0.372937 0.639654 0.000000
O O15 0.460176 0.158056 0.500000
O O16 0.460108 0.920249 0.500000
#
# Coordination Sequence:
#
# PCOD9426353 Si02
#       7
#     8   8   8   8   8   4   4
#     4  11  21  36  58  88 118 150 195 244 293 347
#     4  10  20  36  58  84 116 156 195 236 292 352
#     4  10  19  36  59  82 113 152 191 234 279 341
#     4  10  20  37  60  83 111 149 195 244 290 341
#     4   8  16  32  56  82 107 143 193 235 276 336
#     4  11  22  36  56  85 113 151 188 231 282 347
#     4  11  23  36  56  83 118 148 182 237 297 334
#
# _framework density 18.256972000000001
#
# number of rings (size 3 to 8) (size 9 to 14) (size 15 to 20)
#    0.000    2.000    2.500    3.250    0.000    0.667 
#    1.500    3.333    0.000    4.000    0.000    0.000 
#    0.000    0.000    0.000    0.000    0.000    0.000 
#
# Total GULP energy -267648.859343 kJ/mol
# GULP energy per Si atom -5576.017903 kJ/mol
# Density = 1.821542 g / cm^3
# Si number density = 18.256972 Si / 1000 Ang^3
#
#
#
# Elastic Constant Matrix: (Units=GPa)
#
#
# Indices 1 2 3 4 5 6 
#
# 1 137.3104 52.6593 20.0361 0.0000 0.0000 0.0000
# 2 52.6593 47.0707 14.5210 0.0000 0.0000 0.0000
# 3 20.0361 14.5210 77.2281 0.0000 0.0000 0.0000
# 4 0.0000 0.0000 0.0000 19.2763 0.0000 0.0000
# 5 0.0000 0.0000 0.0000 0.0000 25.4618 0.0000
# 6 0.0000 0.0000 0.0000 0.0000 0.0000 35.9509
#
#
#
# Elastic Compliance Matrix: (Units=1/GPa)
#
#
# Indices 1 2 3 4 5 6 
#
# 1 0.012787 -0.014100 -0.000666 0.000000 0.000000 0.000000
# 2 -0.014100 0.038100 -0.003506 0.000000 0.000000 0.000000
# 3 -0.000666 -0.003506 0.013781 0.000000 0.000000 0.000000
# 4 0.000000 0.000000 0.000000 0.051877 0.000000 0.000000
# 5 0.000000 0.000000 0.000000 0.000000 0.039274 0.000000
# 6 0.000000 0.000000 0.000000 0.000000 0.000000 0.027816
#
#
# Mechanical properties :
#
#
# Convention : Reuss Voigt Hill
#
# Bulk Modulus (GPa) = 35.55685 48.44912 42.00298
# Shear Modulus (GPa) = 21.78126 27.76399 24.77263
#
# Velocity S-wave (km/s) = 3.45779 3.90389 3.68759
# Velocity P-wave (km/s) = 5.95481 6.84948 6.41775
#
# Compressibility (1/GPa) = 0.02812398
#
# Stress axis : x y z
#
# Youngs Moduli (GPa) = 78.20148 26.24648 72.56516
#
# Poissons Ratio (x) = 0.37008 0.04836
# Poissons Ratio (y) = 1.10265 0.25440
# Poissons Ratio (z) = 0.05211 0.09201
#
# Static dielectric constant tensor:
#      x y z
#    x 1.670580 0.000000 0.000000 
#    y 0.000000 1.597280 0.000000 
#    z 0.000000 0.000000 1.636780 
# 
# From -- ./inp_files/10563.got.cif
#   From: 2010.05.17/outbox.cif.g08.bks.cpg/sg55_6_cif.got.tgz:10563.got - 2010.06.03 13:27:54.
