data_PCOD9426013
_publ_section_title
;
Structure prediction by ZEFSAII (Michael W. Deem and Ramdas Pophale) SiO2 
 PCOD9426013
Probable space group: P B A M
;
_chemical_formula_sum "Si O2"
_cell_formula_units_Z 38
_cell_length_a 10.308448
_cell_length_b 5.141556
_cell_length_c 27.378743
_cell_angle_alpha 90.000000
_cell_angle_beta 90.000000
_cell_angle_gamma 90.000000
_cell_volume 1451.113425
_symmetry_space_group_name_H-M "P B A M"
_symmetry_group_IT_number 55
_symmetry_cell_setting 'orthorhombic'
loop_
_space_group_symop_operation_xyz
x,y,z
-x,-y,z
1/2+x,1/2-y,-z
1/2-x,1/2+y,-z
-x,-y,-z
x,y,-z
1/2-x,1/2+y,z
1/2+x,1/2-y,z
loop_
_atom_site_type_symbol
_atom_site_label
_atom_site_fract_x
_atom_site_fract_y
_atom_site_fract_z
Si Si1 0.414159 0.250301 0.000000
Si Si2 0.661855 0.690701 0.690723
Si Si3 0.839963 0.317296 0.208545
Si Si4 0.500000 0.500000 0.500000
Si Si5 0.341387 0.231086 0.415944
Si Si6 0.321628 0.322340 0.109171
O O1 0.500000 0.500000 0.000000
O O2 0.349249 0.260991 0.052834
O O3 0.500000 0.000000 0.000000
O O4 0.780682 0.900061 0.691326
O O5 0.587375 0.755005 0.740929
O O6 0.598825 0.741028 0.638305
O O7 0.723731 0.101682 0.209565
O O8 0.594595 0.767574 0.155948
O O9 0.441701 0.304897 0.457418
O O10 0.272333 0.951243 0.420732
O O11 0.301339 0.628599 0.114949
#
# Coordination Sequence:
#
# PCOD9426013 Si02
#       6
#     4   8   8   2   8   8
#     4  12  24  36  50  72 110 146 172 212 278 328
#     4   8  14  28  49  75 103 133 168 215 268 321
#     4   8  14  25  48  77  97 123 169 217 262 308
#     4  12  24  38  60  84 116 154 196 236 280 340
#     4  10  22  38  57  83 115 150 190 234 285 336
#     4  10  19  34  55  78  99 132 182 225 256 317
#
# _framework density 26.186786999999999
#
# number of rings (size 3 to 8) (size 9 to 14) (size 15 to 20)
#    0.000    2.526    0.000    2.526    0.000    1.684 
#    0.000    0.000    2.316    0.000    0.000    0.000 
#    0.000    0.000    0.000    0.000    0.000    0.000 
#
# Total GULP energy -211704.070770 kJ/mol
# GULP energy per Si atom -5571.159757 kJ/mol
# Density = 2.612718 g / cm^3
# Si number density = 26.186787 Si / 1000 Ang^3
#
#
#
# Elastic Constant Matrix: (Units=GPa)
#
#
# Indices 1 2 3 4 5 6 
#
# 1 41.0685 42.0873 34.6702 0.0000 0.0000 0.0000
# 2 42.0873 158.7220 13.9519 0.0000 0.0000 0.0000
# 3 34.6702 13.9519 309.7133 0.0000 0.0000 0.0000
# 4 0.0000 0.0000 0.0000 62.4647 0.0000 0.0000
# 5 0.0000 0.0000 0.0000 0.0000 18.2905 0.0000
# 6 0.0000 0.0000 0.0000 0.0000 0.0000 45.9847
#
#
#
# Elastic Compliance Matrix: (Units=1/GPa)
#
#
# Indices 1 2 3 4 5 6 
#
# 1 0.037315 -0.009565 -0.003746 0.000000 0.000000 0.000000
# 2 -0.009565 0.008777 0.000675 0.000000 0.000000 0.000000
# 3 -0.003746 0.000675 0.003618 0.000000 0.000000 0.000000
# 4 0.000000 0.000000 0.000000 0.016009 0.000000 0.000000
# 5 0.000000 0.000000 0.000000 0.000000 0.054673 0.000000
# 6 0.000000 0.000000 0.000000 0.000000 0.000000 0.021746
#
#
# Mechanical properties :
#
#
# Convention : Reuss Voigt Hill
#
# Bulk Modulus (GPa) = 40.92060 76.76916 58.84488
# Shear Modulus (GPa) = 28.48091 53.26761 40.87426
#
# Velocity S-wave (km/s) = 3.30147 4.51504 3.95508
# Velocity P-wave (km/s) = 5.49484 7.52066 6.58611
#
# Compressibility (1/GPa) = 0.02443757
#
# Stress axis : x y z
#
# Youngs Moduli (GPa) = 26.79914 113.93027 276.41628
#
# Poissons Ratio (x) = 1.08976 1.03552
# Poissons Ratio (y) = 0.25634 -0.18668
# Poissons Ratio (z) = 0.10040 -0.07694
#
# Static dielectric constant tensor:
#      x y z
#    x 2.372290 0.000000 0.000000 
#    y 0.000000 1.979070 0.000000 
#    z 0.000000 0.000000 2.246290 
# 
# From -- ./inp_files/23745.got.cif
#   From: 2010.05.17/outbox.cif.g08.bks.cpg/sg55_12_cif.got.tgz:23745.got - 2010.06.03 13:27:54.
