data_PCOD9426995
_publ_section_title
;
Structure prediction by ZEFSAII (Michael W. Deem and Ramdas Pophale) SiO2 
 PCOD9426995
Probable space group: P B A M
;
_chemical_formula_sum "Si O2"
_cell_formula_units_Z 64
_cell_length_a 11.180451
_cell_length_b 31.593909
_cell_length_c 8.802272
_cell_angle_alpha 90.000000
_cell_angle_beta 90.000000
_cell_angle_gamma 90.000000
_cell_volume 3109.263081
_symmetry_space_group_name_H-M "P B A M"
_symmetry_group_IT_number 55
_symmetry_cell_setting 'orthorhombic'
loop_
_space_group_symop_operation_xyz
x,y,z
-x,-y,z
1/2+x,1/2-y,-z
1/2-x,1/2+y,-z
-x,-y,-z
x,y,-z
1/2-x,1/2+y,z
1/2+x,1/2-y,z
loop_
_atom_site_type_symbol
_atom_site_label
_atom_site_fract_x
_atom_site_fract_y
_atom_site_fract_z
Si Si1 0.986922 0.451344 0.323522
Si Si2 0.142469 0.003105 0.169297
Si Si3 0.349924 0.124497 0.826495
Si Si4 0.356535 0.214175 0.318021
Si Si5 0.573225 0.643744 0.326040
Si Si6 0.754340 0.079370 0.321100
Si Si7 0.146935 0.088208 0.669923
Si Si8 0.076638 0.224556 0.685765
O O1 0.947517 0.454210 0.500000
O O2 0.113733 0.427884 0.317554
O O3 0.000000 0.500000 0.268515
O O4 0.904003 0.419700 0.231335
O O5 0.193382 0.958771 0.223171
O O6 0.167825 0.039600 0.290875
O O7 0.187247 0.014450 0.000000
O O8 0.000000 0.000000 0.161487
O O9 0.380151 0.165845 0.729982
O O10 0.210603 0.116246 0.796042
O O11 0.379632 0.131859 0.000000
O O12 0.352605 0.217614 0.500000
O O13 0.474932 0.240833 0.269098
O O14 0.218473 0.226720 0.265479
O O15 0.598100 0.657308 0.500000
O O16 0.697207 0.624956 0.264144
O O17 0.490541 0.601829 0.326884
O O18 0.490547 0.681134 0.263645
O O19 0.788348 0.075114 0.500000
O O20 0.191045 0.099042 0.500000
O O21 0.083177 0.224476 0.500000
#
# Coordination Sequence:
#
# PCOD9426995 Si02
#       8
#     8   8   8   8   8   8   8   8
#     4  10  22  40  61  87 119 158 207 259 308 360
#     4  11  22  33  49  81 123 160 195 237 293 359
#     4  12  25  40  61  88 121 161 205 245 298 372
#     4  10  20  38  65  94 122 158 202 255 310 366
#     4   9  17  31  55  87 115 144 190 252 306 350
#     4  10  20  35  57  84 115 155 205 254 301 356
#     4  11  20  35  60  83 112 149 198 252 296 343
#     4   9  18  34  60  93 122 151 199 257 313 364
#
# _framework density 20.583656000000001
#
# number of rings (size 3 to 8) (size 9 to 14) (size 15 to 20)
#    0.000    1.750    2.500    2.625    0.000    3.250 
#    0.000    4.375    0.000    0.000    0.000    0.000 
#    0.000    0.000    0.000    0.000    0.000    0.000 
#
# Total GULP energy -356418.714807 kJ/mol
# GULP energy per Si atom -5569.042419 kJ/mol
# Density = 2.053681 g / cm^3
# Si number density = 20.583656 Si / 1000 Ang^3
#
#
#
# Elastic Constant Matrix: (Units=GPa)
#
#
# Indices 1 2 3 4 5 6 
#
# 1 87.7783 33.2207 13.6694 0.0000 0.0000 0.0000
# 2 33.2207 83.1617 4.3115 0.0000 0.0000 0.0000
# 3 13.6694 4.3115 22.9737 0.0000 0.0000 0.0000
# 4 0.0000 0.0000 0.0000 -0.0790 0.0000 0.0000
# 5 0.0000 0.0000 0.0000 0.0000 9.5290 0.0000
# 6 0.0000 0.0000 0.0000 0.0000 0.0000 33.2458
#
#
#
# Elastic Compliance Matrix: (Units=1/GPa)
#
#
# Indices 1 2 3 4 5 6 
#
# 1 0.014656 -0.005455 -0.007696 0.000000 0.000000 0.000000
# 2 -0.005455 0.014174 0.000586 0.000000 0.000000 0.000000
# 3 -0.007696 0.000586 0.047997 0.000000 0.000000 0.000000
# 4 0.000000 0.000000 0.000000-12.662471 0.000000 0.000000
# 5 0.000000 0.000000 0.000000 0.000000 0.104943 0.000000
# 6 0.000000 0.000000 0.000000 0.000000 0.000000 0.030079
#
#
# Mechanical properties :
#
#
# Convention : Reuss Voigt Hill
#
# Bulk Modulus (GPa) = 19.34413 32.92409 26.13411
# Shear Modulus (GPa) = -0.40296 18.05330 8.82517
#
# Velocity S-wave (km/s) = -0.44293 2.96475 2.07287
# Velocity P-wave (km/s) = 3.02599 5.26779 4.29571
#
# Compressibility (1/GPa) = 0.05169527
#
# Stress axis : x y z
#
# Youngs Moduli (GPa) = 68.23358 70.55328 20.83446
#
# Poissons Ratio (x) = 0.38490 0.16035
# Poissons Ratio (y) = 0.37225 -0.01221
# Poissons Ratio (z) = 0.52514 -0.04135
#
# Static dielectric constant tensor:
#      x y z
#    x 1.858310 0.000000 0.000000 
#    y 0.000000 1.748100 0.000000 
#    z 0.000000 0.000000 1.722930 
# 
# From -- ./inp_files/4659.got.cif
#   From: 2010.05.17/outbox.cif.g08.bks.cpg/sg55_3_cif.got.tgz:4659.got - 2010.06.03 13:27:54.
