data_PCOD9426957
_publ_section_title
;
Structure prediction by ZEFSAII (Michael W. Deem and Ramdas Pophale) SiO2 
 PCOD9426957
Probable space group: P B A M
;
_chemical_formula_sum "Si O2"
_cell_formula_units_Z 64
_cell_length_a 13.007017
_cell_length_b 28.574123
_cell_length_c 8.724613
_cell_angle_alpha 90.000000
_cell_angle_beta 90.000000
_cell_angle_gamma 90.000000
_cell_volume 3242.625470
_symmetry_space_group_name_H-M "P B A M"
_symmetry_group_IT_number 55
_symmetry_cell_setting 'orthorhombic'
loop_
_space_group_symop_operation_xyz
x,y,z
-x,-y,z
1/2+x,1/2-y,-z
1/2-x,1/2+y,-z
-x,-y,-z
x,y,-z
1/2-x,1/2+y,z
1/2+x,1/2-y,z
loop_
_atom_site_type_symbol
_atom_site_label
_atom_site_fract_x
_atom_site_fract_y
_atom_site_fract_z
Si Si1 0.937696 0.165660 0.681195
Si Si2 0.380841 0.512724 0.825614
Si Si3 0.303888 0.422451 0.322920
Si Si4 0.764399 0.909167 0.316722
Si Si5 0.767296 0.711776 0.185209
Si Si6 0.338108 0.683972 0.816808
Si Si7 0.110556 0.377224 0.179056
Si Si8 0.545688 0.950044 0.684147
O O1 0.950934 0.173388 0.500000
O O2 0.900691 0.111832 0.702264
O O3 0.840609 0.195704 0.741977
O O4 0.043968 0.176928 0.764536
O O5 0.500000 0.500000 0.826121
O O6 0.328325 0.475669 0.713045
O O7 0.358114 0.563960 0.763006
O O8 0.342394 0.507958 0.000000
O O9 0.270593 0.416534 0.500000
O O10 0.215206 0.405677 0.209771
O O11 0.773415 0.910805 0.500000
O O12 0.768930 0.855972 0.261024
O O13 0.661742 0.937306 0.268540
O O14 0.798949 0.764290 0.225262
O O15 0.856942 0.674925 0.231612
O O16 0.757645 0.708175 0.000000
O O17 0.332105 0.679189 0.000000
O O18 0.024030 0.406353 0.265667
O O19 0.084696 0.375598 0.000000
O O20 0.545435 0.952652 0.500000
O O21 0.500000 0.000000 0.741147
#
# Coordination Sequence:
#
# PCOD9426957 Si02
#       8
#     8   8   8   8   8   8   8   8
#     4  10  21  37  60  88 116 149 191 241 295 348
#     4  11  23  37  56  83 113 147 187 231 282 341
#     4  10  20  35  56  82 113 147 184 230 283 338
#     4  11  24  40  59  86 119 154 196 244 293 351
#     4   9  21  40  60  85 116 154 199 245 297 356
#     4  11  23  40  61  84 118 159 196 241 297 356
#     4  10  20  36  60  86 111 144 192 243 288 342
#     4  10  22  40  60  84 119 160 196 237 296 359
#
# _framework density 19.737093999999999
#
# number of rings (size 3 to 8) (size 9 to 14) (size 15 to 20)
#    0.000    1.750    0.000    3.750    0.000    9.250 
#    0.000    3.750    0.000    0.000    0.000    0.000 
#    0.000    0.000    0.000    0.000    0.000    0.000 
#
# Total GULP energy -357445.915884 kJ/mol
# GULP energy per Si atom -5585.092436 kJ/mol
# Density = 1.969217 g / cm^3
# Si number density = 19.737094 Si / 1000 Ang^3
#
#
#
# Elastic Constant Matrix: (Units=GPa)
#
#
# Indices 1 2 3 4 5 6 
#
# 1 75.7503 34.2960 21.2603 0.0000 0.0000 0.0000
# 2 34.2960 121.1221 22.7830 0.0000 0.0000 0.0000
# 3 21.2603 22.7830 29.1431 0.0000 0.0000 0.0000
# 4 0.0000 0.0000 0.0000 30.0192 0.0000 0.0000
# 5 0.0000 0.0000 0.0000 0.0000 26.5310 0.0000
# 6 0.0000 0.0000 0.0000 0.0000 0.0000 25.1811
#
#
#
# Elastic Compliance Matrix: (Units=1/GPa)
#
#
# Indices 1 2 3 4 5 6 
#
# 1 0.017477 -0.002990 -0.010412 0.000000 0.000000 0.000000
# 2 -0.002990 0.010191 -0.005786 0.000000 0.000000 0.000000
# 3 -0.010412 -0.005786 0.046432 0.000000 0.000000 0.000000
# 4 0.000000 0.000000 0.000000 0.033312 0.000000 0.000000
# 5 0.000000 0.000000 0.000000 0.000000 0.037692 0.000000
# 6 0.000000 0.000000 0.000000 0.000000 0.000000 0.039712
#
#
# Mechanical properties :
#
#
# Convention : Reuss Voigt Hill
#
# Bulk Modulus (GPa) = 27.99204 42.52156 35.25680
# Shear Modulus (GPa) = 21.26739 26.19132 23.72935
#
# Velocity S-wave (km/s) = 3.28614 3.64677 3.47114
# Velocity P-wave (km/s) = 5.34898 6.27078 5.82813
#
# Compressibility (1/GPa) = 0.03572444
#
# Stress axis : x y z
#
# Youngs Moduli (GPa) = 57.21652 98.12494 21.53671
#
# Poissons Ratio (x) = 0.29341 0.22425
# Poissons Ratio (y) = 0.17109 0.12460
# Poissons Ratio (z) = 0.59576 0.56771
#
# Static dielectric constant tensor:
#      x y z
#    x 1.696090 0.000000 0.000000 
#    y 0.000000 1.691010 0.000000 
#    z 0.000000 0.000000 1.670760 
# 
# From -- ./inp_files/4699.got.cif
#   From: 2010.05.17/outbox.cif.g08.bks.cpg/sg55_3_cif.got.tgz:4699.got - 2010.06.03 13:27:54.
