data_PCOD9426453
_publ_section_title
;
Structure prediction by ZEFSAII (Michael W. Deem and Ramdas Pophale) SiO2 
 PCOD9426453
Probable space group: P B A M
;
_chemical_formula_sum "Si O2"
_cell_formula_units_Z 40
_cell_length_a 8.808381
_cell_length_b 13.530344
_cell_length_c 15.212264
_cell_angle_alpha 90.000000
_cell_angle_beta 90.000000
_cell_angle_gamma 90.000000
_cell_volume 1813.004089
_symmetry_space_group_name_H-M "P B A M"
_symmetry_group_IT_number 55
_symmetry_cell_setting 'orthorhombic'
loop_
_space_group_symop_operation_xyz
x,y,z
-x,-y,z
1/2+x,1/2-y,-z
1/2-x,1/2+y,-z
-x,-y,-z
x,y,-z
1/2-x,1/2+y,z
1/2+x,1/2-y,z
loop_
_atom_site_type_symbol
_atom_site_label
_atom_site_fract_x
_atom_site_fract_y
_atom_site_fract_z
Si Si1 0.351417 0.250961 0.825512
Si Si2 0.799671 0.642522 0.668235
Si Si3 0.622655 0.380511 0.098512
Si Si4 0.270407 0.067058 0.733620
Si Si5 0.459679 0.673782 0.599944
O O1 0.237150 0.310636 0.763379
O O2 0.257102 0.200599 0.902657
O O3 0.481692 0.320814 0.860703
O O4 0.386594 0.153421 0.764853
O O5 0.833322 0.528512 0.686007
O O6 0.635233 0.652170 0.620117
O O7 0.916653 0.711317 0.615974
O O8 0.681609 0.455813 0.174059
O O9 0.598917 0.416812 0.000000
O O10 0.146461 0.115365 0.668522
O O11 0.424157 0.646422 0.500000
#
# Coordination Sequence:
#
# PCOD9426453 Si02
#       5
#     8   8   8   8   8
#     4   9  19  36  60  89 123 168 208 255 313 370
#     4  11  20  43  62  86 130 164 207 259 320 378
#     4  10  19  37  63  91 125 165 212 258 308 369
#     4   9  22  37  65  87 127 169 210 248 321 383
#     4  11  23  38  65  95 120 161 212 262 317 384
#
# _framework density 22.062830999999999
#
# number of rings (size 3 to 8) (size 9 to 14) (size 15 to 20)
#    1.200    0.800    2.000    1.800    0.000    2.400 
#    0.000   12.000    0.000    7.200    0.000    0.000 
#    0.000    0.000    0.000    0.000    0.000    0.000 
#
# Total GULP energy -223025.084043 kJ/mol
# GULP energy per Si atom -5575.627101 kJ/mol
# Density = 2.201261 g / cm^3
# Si number density = 22.062831 Si / 1000 Ang^3
#
#
#
# Elastic Constant Matrix: (Units=GPa)
#
#
# Indices 1 2 3 4 5 6 
#
# 1 70.7775 24.1228 24.1371 0.0000 0.0000 0.0000
# 2 24.1228 83.9511 11.8268 0.0000 0.0000 0.0000
# 3 24.1371 11.8268 157.0262 0.0000 0.0000 0.0000
# 4 0.0000 0.0000 0.0000 -0.6223 0.0000 0.0000
# 5 0.0000 0.0000 0.0000 0.0000 18.0341 0.0000
# 6 0.0000 0.0000 0.0000 0.0000 0.0000 15.9393
#
#
#
# Elastic Compliance Matrix: (Units=1/GPa)
#
#
# Indices 1 2 3 4 5 6 
#
# 1 0.016373 -0.004397 -0.002186 0.000000 0.000000 0.000000
# 2 -0.004397 0.013220 -0.000320 0.000000 0.000000 0.000000
# 3 -0.002186 -0.000320 0.006728 0.000000 0.000000 0.000000
# 4 0.000000 0.000000 0.000000 -1.607039 0.000000 0.000000
# 5 0.000000 0.000000 0.000000 0.000000 0.055451 0.000000
# 6 0.000000 0.000000 0.000000 0.000000 0.000000 0.062738
#
#
# Mechanical properties :
#
#
# Convention : Reuss Voigt Hill
#
# Bulk Modulus (GPa) = 44.41101 47.99203 46.20152
# Shear Modulus (GPa) = -3.49353 23.44808 9.97728
#
# Velocity S-wave (km/s) = -1.25971 3.26358 2.12886
# Velocity P-wave (km/s) = 4.24938 6.00008 5.19895
#
# Compressibility (1/GPa) = 0.02251694
#
# Stress axis : x y z
#
# Youngs Moduli (GPa) = 61.07759 75.64228 148.62365
#
# Poissons Ratio (x) = 0.33257 0.32482
# Poissons Ratio (y) = 0.26854 0.04754
# Poissons Ratio (z) = 0.13349 0.02420
#
# Static dielectric constant tensor:
#      x y z
#    x 1.858500 0.000000 0.000000 
#    y 0.000000 1.849300 0.000000 
#    z 0.000000 0.000000 1.783820 
# 
# From -- ./inp_files/18156.got.cif
#   From: 2010.05.17/outbox.cif.g08.bks.cpg/sg55_10_cif.got.tgz:18156.got - 2010.06.03 13:27:54.
