data_PCOD9426290
_publ_section_title
;
Structure prediction by ZEFSAII (Michael W. Deem and Ramdas Pophale) SiO2 
 PCOD9426290
Probable space group: P B A M
;
_chemical_formula_sum "Si O2"
_cell_formula_units_Z 64
_cell_length_a 24.183242
_cell_length_b 14.880970
_cell_length_c 7.412596
_cell_angle_alpha 90.000000
_cell_angle_beta 90.000000
_cell_angle_gamma 90.000000
_cell_volume 2667.571654
_symmetry_space_group_name_H-M "P B A M"
_symmetry_group_IT_number 55
_symmetry_cell_setting 'orthorhombic'
loop_
_space_group_symop_operation_xyz
x,y,z
-x,-y,z
1/2+x,1/2-y,-z
1/2-x,1/2+y,-z
-x,-y,-z
x,y,-z
1/2-x,1/2+y,z
1/2+x,1/2-y,z
loop_
_atom_site_type_symbol
_atom_site_label
_atom_site_fract_x
_atom_site_fract_y
_atom_site_fract_z
Si Si1 0.635354 0.863429 0.702661
Si Si2 0.514480 0.897626 0.717501
Si Si3 0.112896 0.834792 0.218607
Si Si4 0.582681 0.239980 0.208420
Si Si5 0.207839 0.967051 0.217019
Si Si6 0.252118 0.653132 0.712232
Si Si7 0.304509 0.839615 0.794924
Si Si8 0.007813 0.103285 0.220237
O O1 0.634315 0.902671 0.500000
O O2 0.576570 0.884170 0.788402
O O3 0.636163 0.755797 0.699196
O O4 0.694147 0.885699 0.787348
O O5 0.515287 0.884661 0.500000
O O6 0.468974 0.828461 0.787939
O O7 0.500000 0.000000 0.756202
O O8 0.152564 0.915719 0.274119
O O9 0.049434 0.848288 0.270512
O O10 0.114773 0.827323 0.000000
O O11 0.636377 0.189464 0.288986
O O12 0.558912 0.334523 0.283051
O O13 0.597977 0.258630 0.000000
O O14 0.262629 0.913733 0.285189
O O15 0.206202 0.071036 0.267065
O O16 0.209508 0.960888 0.000000
O O17 0.244576 0.671209 0.500000
O O18 0.270875 0.745827 0.798197
O O19 0.316427 0.869960 0.000000
O O20 0.011004 0.101974 0.000000
O O21 0.000000 0.000000 0.277694
#
# Coordination Sequence:
#
# PCOD9426290 Si02
#       8
#     8   8   8   8   8   8   8   8
#     4  10  21  38  58  82 113 149 192 240 285 335
#     4  10  22  39  59  82 114 156 193 230 286 347
#     4  10  19  35  61  85 107 145 192 235 286 339
#     4  10  21  37  59  86 116 148 189 239 284 337
#     4  10  22  38  58  85 115 149 191 238 290 345
#     4  11  24  39  59  86 116 154 196 238 288 344
#     4  10  22  40  60  85 118 154 193 240 292 344
#     4   9  18  32  54  84 112 142 181 226 279 335
#
# _framework density 23.991859000000002
#
# number of rings (size 3 to 8) (size 9 to 14) (size 15 to 20)
#    0.000    2.000    2.500    0.375    3.500    2.250 
#    0.000    0.000    0.000    0.750    0.000    0.000 
#    0.000    0.000    0.000    0.000    0.000    0.000 
#
# Total GULP energy -357511.721422 kJ/mol
# GULP energy per Si atom -5586.120647 kJ/mol
# Density = 2.393725 g / cm^3
# Si number density = 23.991859 Si / 1000 Ang^3
#
#
#
# Elastic Constant Matrix: (Units=GPa)
#
#
# Indices 1 2 3 4 5 6 
#
# 1 80.7937 -19.9001 -0.7459 0.0000 0.0000 0.0000
# 2 -19.9001 62.2029 -9.4680 0.0000 0.0000 0.0000
# 3 -0.7459 -9.4680 80.2584 0.0000 0.0000 0.0000
# 4 0.0000 0.0000 0.0000 12.5006 0.0000 0.0000
# 5 0.0000 0.0000 0.0000 0.0000 -4.5336 0.0000
# 6 0.0000 0.0000 0.0000 0.0000 0.0000 37.0874
#
#
#
# Elastic Compliance Matrix: (Units=1/GPa)
#
#
# Indices 1 2 3 4 5 6 
#
# 1 0.013469 0.004407 0.000645 0.000000 0.000000 0.000000
# 2 0.004407 0.017812 0.002142 0.000000 0.000000 0.000000
# 3 0.000645 0.002142 0.012718 0.000000 0.000000 0.000000
# 4 0.000000 0.000000 0.000000 0.079996 0.000000 0.000000
# 5 0.000000 0.000000 0.000000 0.000000 -0.220574 0.000000
# 6 0.000000 0.000000 0.000000 0.000000 0.000000 0.026963
#
#
# Mechanical properties :
#
#
# Convention : Reuss Voigt Hill
#
# Bulk Modulus (GPa) = 17.12665 18.11410 17.62038
# Shear Modulus (GPa) = -77.47040 25.90215 -25.78413
#
# Velocity S-wave (km/s) = -5.68862 3.28933 -3.28182
# Velocity P-wave (km/s) = 5.99943 4.68964 2.64579
#
# Compressibility (1/GPa) = 0.05838852
#
# Stress axis : x y z
#
# Youngs Moduli (GPa) = 74.24641 56.14058 78.62574
#
# Poissons Ratio (x) = -0.24742 -0.05072
# Poissons Ratio (y) = -0.32721 -0.16844
# Poissons Ratio (z) = -0.04790 -0.12027
#
# Static dielectric constant tensor:
#      x y z
#    x 1.916720 0.000000 0.000000 
#    y 0.000000 1.866460 0.000000 
#    z 0.000000 0.000000 1.987070 
# 
# From -- ./inp_files/6594.got.cif
#   From: 2010.05.17/outbox.cif.g08.bks.cpg/sg55_4_cif.got.tgz:6594.got - 2010.06.03 13:27:54.
