data_PCOD9426966
_publ_section_title
;
Structure prediction by ZEFSAII (Michael W. Deem and Ramdas Pophale) SiO2 
 PCOD9426966
Probable space group: P B A M
;
_chemical_formula_sum "Si O2"
_cell_formula_units_Z 56
_cell_length_a 18.383687
_cell_length_b 12.455919
_cell_length_c 13.771201
_cell_angle_alpha 90.000000
_cell_angle_beta 90.000000
_cell_angle_gamma 90.000000
_cell_volume 3153.408324
_symmetry_space_group_name_H-M "P B A M"
_symmetry_group_IT_number 55
_symmetry_cell_setting 'orthorhombic'
loop_
_space_group_symop_operation_xyz
x,y,z
-x,-y,z
1/2+x,1/2-y,-z
1/2-x,1/2+y,-z
-x,-y,-z
x,y,-z
1/2-x,1/2+y,z
1/2+x,1/2-y,z
loop_
_atom_site_type_symbol
_atom_site_label
_atom_site_fract_x
_atom_site_fract_y
_atom_site_fract_z
Si Si1 0.562083 0.567462 0.776557
Si Si2 0.161616 0.132884 0.748657
Si Si3 0.807498 0.669904 0.885893
Si Si4 0.057060 0.596034 0.391341
Si Si5 0.823470 0.445795 0.228528
Si Si6 0.640826 0.744550 0.108675
Si Si7 0.527681 0.318374 0.614652
O O1 0.500000 0.500000 0.831645
O O2 0.627062 0.482931 0.772104
O O3 0.587880 0.675859 0.825153
O O4 0.525375 0.602743 0.674905
O O5 0.159204 0.224198 0.832876
O O6 0.246305 0.102898 0.733778
O O7 0.108237 0.174810 0.662653
O O8 0.819877 0.564342 0.819109
O O9 0.720765 0.691146 0.887402
O O10 0.830147 0.658286 0.000000
O O11 0.088749 0.607776 0.500000
O O12 0.118824 0.567882 0.314454
O O13 0.000000 0.500000 0.391725
O O14 0.010073 0.702733 0.371572
O O15 0.849216 0.365059 0.144453
O O16 0.613373 0.741233 0.000000
O O17 0.530856 0.341992 0.500000
#
# Coordination Sequence:
#
# PCOD9426966 Si02
#       7
#     8   8   8   8   8   8   8
#     4  10  20  37  59  83 115 153 192 244 298 346
#     4  10  22  36  60  88 117 149 198 250 288 338
#     4  10  21  37  59  85 116 159 195 235 298 354
#     4  10  21  37  60  85 118 162 197 232 294 360
#     4  11  20  37  62  85 118 150 198 249 284 341
#     4  10  20  35  56  84 114 151 197 240 292 347
#     4  10  21  40  62  85 118 158 196 239 303 361
#
# _framework density 17.758562000000001
#
# number of rings (size 3 to 8) (size 9 to 14) (size 15 to 20)
#    0.000    1.857    2.857    1.286    0.000    4.571 
#    0.000    2.143    0.000    2.571    0.000    0.000 
#    0.000    0.000    0.000    0.000    0.000    0.000 
#
# Total GULP energy -311818.843883 kJ/mol
# GULP energy per Si atom -5568.193641 kJ/mol
# Density = 1.771814 g / cm^3
# Si number density = 17.758562 Si / 1000 Ang^3
#
#
#
# Elastic Constant Matrix: (Units=GPa)
#
#
# Indices 1 2 3 4 5 6 
#
# 1 70.6238 25.4647 55.5071 0.0000 0.0000 0.0000
# 2 25.4647 118.6949 48.1020 0.0000 0.0000 0.0000
# 3 55.5071 48.1020 123.5494 0.0000 0.0000 0.0000
# 4 0.0000 0.0000 0.0000 -26.0536 0.0000 0.0000
# 5 0.0000 0.0000 0.0000 0.0000 11.7781 0.0000
# 6 0.0000 0.0000 0.0000 0.0000 0.0000 28.3849
#
#
#
# Elastic Compliance Matrix: (Units=1/GPa)
#
#
# Indices 1 2 3 4 5 6 
#
# 1 0.021960 -0.000847 -0.009536 0.000000 0.000000 0.000000
# 2 -0.000847 0.010036 -0.003527 0.000000 0.000000 0.000000
# 3 -0.009536 -0.003527 0.013751 0.000000 0.000000 0.000000
# 4 0.000000 0.000000 0.000000 -0.038382 0.000000 0.000000
# 5 0.000000 0.000000 0.000000 0.000000 0.084903 0.000000
# 6 0.000000 0.000000 0.000000 0.000000 0.000000 0.035230
#
#
# Mechanical properties :
#
#
# Convention : Reuss Voigt Hill
#
# Bulk Modulus (GPa) = 55.78017 63.44619 59.61318
# Shear Modulus (GPa) = 30.99932 15.07485 23.03709
#
# Velocity S-wave (km/s) = 4.18257 2.91671 3.60563
# Velocity P-wave (km/s) = 7.40295 6.86641 7.13972
#
# Compressibility (1/GPa) = 0.01792752
#
# Stress axis : x y z
#
# Youngs Moduli (GPa) = 45.53759 99.64208 72.71944
#
# Poissons Ratio (x) = 0.08436 0.69348
# Poissons Ratio (y) = 0.03855 0.25648
# Poissons Ratio (z) = 0.43426 0.35144
#
# Static dielectric constant tensor:
#      x y z
#    x 1.624530 0.000000 0.000000 
#    y 0.000000 1.723050 0.000000 
#    z 0.000000 0.000000 1.605760 
# 
# From -- ./inp_files/15341.got.cif
#   From: 2010.05.17/outbox.cif.g08.bks.cpg/sg55_8_cif.got.tgz:15341.got - 2010.06.03 13:27:54.
