data_PCOD9426329
_publ_section_title
;
Structure prediction by ZEFSAII (Michael W. Deem and Ramdas Pophale) SiO2 
 PCOD9426329
Probable space group: P B A M
;
_chemical_formula_sum "Si O2"
_cell_formula_units_Z 64
_cell_length_a 10.088229
_cell_length_b 27.409366
_cell_length_c 14.071013
_cell_angle_alpha 90.000000
_cell_angle_beta 90.000000
_cell_angle_gamma 90.000000
_cell_volume 3890.803397
_symmetry_space_group_name_H-M "P B A M"
_symmetry_group_IT_number 55
_symmetry_cell_setting 'orthorhombic'
loop_
_space_group_symop_operation_xyz
x,y,z
-x,-y,z
1/2+x,1/2-y,-z
1/2-x,1/2+y,-z
-x,-y,-z
x,y,-z
1/2-x,1/2+y,z
1/2+x,1/2-y,z
loop_
_atom_site_type_symbol
_atom_site_label
_atom_site_fract_x
_atom_site_fract_y
_atom_site_fract_z
Si Si1 0.444958 0.633761 0.889721
Si Si2 0.968337 0.580166 0.389501
Si Si3 0.120340 0.035093 0.791424
Si Si4 0.007929 0.359780 0.209425
Si Si5 0.735008 0.679171 0.111433
Si Si6 0.221189 0.508150 0.389096
Si Si7 0.102037 0.542147 0.886973
Si Si8 0.301060 0.207184 0.888466
O O1 0.420446 0.590195 0.816414
O O2 0.588987 0.657067 0.875613
O O3 0.330441 0.674257 0.879814
O O4 0.437083 0.615696 0.000000
O O5 0.955344 0.593564 0.500000
O O6 0.845271 0.544254 0.364744
O O7 0.981748 0.625397 0.319252
O O8 0.100417 0.546866 0.380344
O O9 0.165377 0.023988 0.683613
O O10 0.253202 0.026903 0.852298
O O11 0.000000 0.000000 0.817985
O O12 0.943538 0.407271 0.159326
O O13 0.913518 0.315299 0.178810
O O14 0.153477 0.348512 0.170230
O O15 0.729983 0.736712 0.133538
O O16 0.769730 0.674494 0.000000
O O17 0.261102 0.507084 0.500000
O O18 0.000000 0.500000 0.858709
O O19 0.100543 0.547805 0.000000
O O20 0.344596 0.204700 0.000000
#
# Coordination Sequence:
#
# PCOD9426329 Si02
#       8
#     8   8   8   8   8   8   8   8
#     4  10  21  36  50  73 112 147 178 215 267 330
#     4   9  18  33  59  84 104 134 181 235 277 319
#     4  12  24  35  52  77 114 152 179 213 275 332
#     4  12  20  34  60  81 107 140 185 231 270 323
#     4  10  22  35  54  82 108 142 184 228 272 317
#     4   9  18  36  56  78 106 139 184 232 272 313
#     4  11  23  36  52  78 110 148 191 223 257 320
#     4  10  19  36  57  79 108 142 183 228 269 316
#
# _framework density 16.449045000000002
#
# number of rings (size 3 to 8) (size 9 to 14) (size 15 to 20)
#    0.000    1.625    2.500    3.750    3.500    3.250 
#    0.000    0.000    0.000    0.750    0.000    1.750 
#    0.000    0.000    0.000    0.000    0.000    0.000 
#
# Total GULP energy -357319.158364 kJ/mol
# GULP energy per Si atom -5583.111849 kJ/mol
# Density = 1.641161 g / cm^3
# Si number density = 16.449045 Si / 1000 Ang^3
#
#
#
# Elastic Constant Matrix: (Units=GPa)
#
#
# Indices 1 2 3 4 5 6 
#
# 1 85.4932 41.7026 39.1271 0.0000 0.0000 0.0000
# 2 41.7026 61.6954 41.2497 0.0000 0.0000 0.0000
# 3 39.1271 41.2497 71.3983 0.0000 0.0000 0.0000
# 4 0.0000 0.0000 0.0000 -1.8605 0.0000 0.0000
# 5 0.0000 0.0000 0.0000 0.0000 37.1688 0.0000
# 6 0.0000 0.0000 0.0000 0.0000 0.0000 22.5298
#
#
#
# Elastic Compliance Matrix: (Units=1/GPa)
#
#
# Indices 1 2 3 4 5 6 
#
# 1 0.018376 -0.009268 -0.004716 0.000000 0.000000 0.000000
# 2 -0.009268 0.031085 -0.012880 0.000000 0.000000 0.000000
# 3 -0.004716 -0.012880 0.024031 0.000000 0.000000 0.000000
# 4 0.000000 0.000000 0.000000 -0.537502 0.000000 0.000000
# 5 0.000000 0.000000 0.000000 0.000000 0.026904 0.000000
# 6 0.000000 0.000000 0.000000 0.000000 0.000000 0.044386
#
#
# Mechanical properties :
#
#
# Convention : Reuss Voigt Hill
#
# Bulk Modulus (GPa) = 50.59508 51.41621 51.00565
# Shear Modulus (GPa) = -15.04195 18.00147 1.47976
#
# Velocity S-wave (km/s) = -3.02728 3.31173 0.94950
# Velocity P-wave (km/s) = 4.31349 6.77858 5.68134
#
# Compressibility (1/GPa) = 0.01976477
#
# Stress axis : x y z
#
# Youngs Moduli (GPa) = 54.41908 32.16983 41.61217
#
# Poissons Ratio (x) = 0.29816 0.19623
# Poissons Ratio (y) = 0.50437 0.53596
# Poissons Ratio (z) = 0.25662 0.41435
#
# Static dielectric constant tensor:
#      x y z
#    x 1.551080 0.000000 0.000000 
#    y 0.000000 1.539570 0.000000 
#    z 0.000000 0.000000 1.558090 
# 
# From -- ./inp_files/17948.got.cif
#   From: 2010.05.17/outbox.cif.g08.bks.cpg/sg55_9_cif.got.tgz:17948.got - 2010.06.03 13:27:54.
