data_PCOD9426128
_publ_section_title
;
Structure prediction by ZEFSAII (Michael W. Deem and Ramdas Pophale) SiO2 
 PCOD9426128
Probable space group: P B A M
;
_chemical_formula_sum "Si O2"
_cell_formula_units_Z 56
_cell_length_a 18.800288
_cell_length_b 18.023560
_cell_length_c 7.677244
_cell_angle_alpha 90.000000
_cell_angle_beta 90.000000
_cell_angle_gamma 90.000000
_cell_volume 2601.419687
_symmetry_space_group_name_H-M "P B A M"
_symmetry_group_IT_number 55
_symmetry_cell_setting 'orthorhombic'
loop_
_space_group_symop_operation_xyz
x,y,z
-x,-y,z
1/2+x,1/2-y,-z
1/2-x,1/2+y,-z
-x,-y,-z
x,y,-z
1/2-x,1/2+y,z
1/2+x,1/2-y,z
loop_
_atom_site_type_symbol
_atom_site_label
_atom_site_fract_x
_atom_site_fract_y
_atom_site_fract_z
Si Si1 0.101130 0.558764 0.710961
Si Si2 0.362836 0.610047 0.700922
Si Si3 0.541988 0.258027 0.710466
Si Si4 0.562181 0.098223 0.288567
Si Si5 0.114341 0.804247 0.208560
Si Si6 0.783567 0.319966 0.798303
Si Si7 0.926866 0.035020 0.202059
O O1 0.107345 0.562000 0.500000
O O2 0.107627 0.472808 0.768621
O O3 0.157426 0.615410 0.786948
O O4 0.020414 0.582218 0.754796
O O5 0.380812 0.596378 0.500000
O O6 0.419772 0.668149 0.777220
O O7 0.287066 0.649667 0.709861
O O8 0.369134 0.530332 0.789264
O O9 0.547490 0.259057 0.500000
O O10 0.577584 0.181424 0.772478
O O11 0.459213 0.261097 0.756788
O O12 0.565963 0.098225 0.500000
O O13 0.179478 0.754344 0.276341
O O14 0.101378 0.887506 0.278455
O O15 0.124617 0.808287 0.000000
O O16 0.765428 0.307156 0.000000
O O17 0.943071 0.051793 0.000000
O O18 0.000000 0.000000 0.277543
#
# Coordination Sequence:
#
# PCOD9426128 Si02
#       7
#     8   8   8   8   8   8   8
#     4   9  16  31  56  80 108 145 186 227 278 338
#     4  11  24  39  58  85 116 151 195 242 291 347
#     4  10  19  34  58  85 113 145 187 238 284 336
#     4   8  15  29  53  83 110 140 178 227 280 331
#     4  10  21  37  60  88 115 152 195 234 288 354
#     4  11  23  39  57  80 117 157 194 238 293 353
#     4  10  20  38  64  88 116 151 189 238 296 351
#
# _framework density 21.526706999999998
#
# number of rings (size 3 to 8) (size 9 to 14) (size 15 to 20)
#    0.000    2.143    2.857    1.714    0.000    2.000 
#    2.571    2.143    0.000    0.000    0.000    0.000 
#    0.000    0.000    0.000    0.000    0.000    0.000 
#
# Total GULP energy -312519.607999 kJ/mol
# GULP energy per Si atom -5580.707286 kJ/mol
# Density = 2.147771 g / cm^3
# Si number density = 21.526707 Si / 1000 Ang^3
#
#
#
# Elastic Constant Matrix: (Units=GPa)
#
#
# Indices 1 2 3 4 5 6 
#
# 1 60.0609 26.2773 -2.6469 0.0000 0.0000 0.0000
# 2 26.2773 164.5948 3.4596 0.0000 0.0000 0.0000
# 3 -2.6469 3.4596 41.6332 0.0000 0.0000 0.0000
# 4 0.0000 0.0000 0.0000 -2.4665 0.0000 0.0000
# 5 0.0000 0.0000 0.0000 0.0000 16.8680 0.0000
# 6 0.0000 0.0000 0.0000 0.0000 0.0000 30.1270
#
#
#
# Elastic Compliance Matrix: (Units=1/GPa)
#
#
# Indices 1 2 3 4 5 6 
#
# 1 0.017979 -0.002899 0.001384 0.000000 0.000000 0.000000
# 2 -0.002899 0.006554 -0.000729 0.000000 0.000000 0.000000
# 3 0.001384 -0.000729 0.024168 0.000000 0.000000 0.000000
# 4 0.000000 0.000000 0.000000 -0.405438 0.000000 0.000000
# 5 0.000000 0.000000 0.000000 0.000000 0.059284 0.000000
# 6 0.000000 0.000000 0.000000 0.000000 0.000000 0.033193
#
#
# Mechanical properties :
#
#
# Convention : Reuss Voigt Hill
#
# Bulk Modulus (GPa) = 22.61821 35.60763 29.11292
# Shear Modulus (GPa) = -20.40531 24.85230 2.22350
#
# Velocity S-wave (km/s) = -3.08215 3.40146 1.01742
# Velocity P-wave (km/s) = 1.46162 5.65717 3.86441
#
# Compressibility (1/GPa) = 0.04421217
#
# Stress axis : x y z
#
# Youngs Moduli (GPa) = 55.61955 152.58461 41.37723
#
# Poissons Ratio (x) = 0.44241 -0.05727
# Poissons Ratio (y) = 0.16127 0.03016
# Poissons Ratio (z) = -0.07698 0.11122
#
# Static dielectric constant tensor:
#      x y z
#    x 1.744700 0.000000 0.000000 
#    y 0.000000 1.832530 0.000000 
#    z 0.000000 0.000000 1.799450 
# 
# From -- ./inp_files/7837.got.cif
#   From: 2010.05.17/outbox.cif.g08.bks.cpg/sg55_4_cif.got.tgz:7837.got - 2010.06.03 13:27:54.
