data_PCOD9426558
_publ_section_title
;
Structure prediction by ZEFSAII (Michael W. Deem and Ramdas Pophale) SiO2 
 PCOD9426558
Probable space group: P B A M
;
_chemical_formula_sum "Si O2"
_cell_formula_units_Z 64
_cell_length_a 17.835031
_cell_length_b 11.574944
_cell_length_c 14.557150
_cell_angle_alpha 90.000000
_cell_angle_beta 90.000000
_cell_angle_gamma 90.000000
_cell_volume 3005.170550
_symmetry_space_group_name_H-M "P B A M"
_symmetry_group_IT_number 55
_symmetry_cell_setting 'orthorhombic'
loop_
_space_group_symop_operation_xyz
x,y,z
-x,-y,z
1/2+x,1/2-y,-z
1/2-x,1/2+y,-z
-x,-y,-z
x,y,-z
1/2-x,1/2+y,z
1/2+x,1/2-y,z
loop_
_atom_site_type_symbol
_atom_site_label
_atom_site_fract_x
_atom_site_fract_y
_atom_site_fract_z
Si Si1 0.049189 0.249080 0.706922
Si Si2 0.065285 0.334532 0.896248
Si Si3 0.229008 0.953160 0.290639
Si Si4 0.100606 0.713691 0.604691
Si Si5 0.880816 0.552353 0.601486
Si Si6 0.911990 0.970148 0.607423
Si Si7 0.391074 0.090920 0.896418
Si Si8 0.782189 0.297562 0.753114
O O1 0.067906 0.242241 0.814458
O O2 0.075489 0.374648 0.675940
O O3 0.095611 0.157745 0.648292
O O4 0.963635 0.239164 0.672358
O O5 0.110680 0.453280 0.877112
O O6 0.978186 0.373636 0.895894
O O7 0.083916 0.295325 0.000000
O O8 0.294474 0.951803 0.367095
O O9 0.243238 0.835670 0.231043
O O10 0.147076 0.952255 0.337541
O O11 0.235469 0.081861 0.245125
O O12 0.095479 0.760371 0.500000
O O13 0.087271 0.576248 0.598653
O O14 0.182173 0.715965 0.651197
O O15 0.888796 0.604367 0.500000
O O16 0.894959 0.971569 0.500000
O O17 0.000000 0.000000 0.619580
O O18 0.347726 0.168050 0.823708
O O19 0.362242 0.108773 0.000000
#
# Coordination Sequence:
#
# PCOD9426558 Si02
#       8
#     8   8   8   8   8   8   8   8
#     4  12  20  33  59  87 121 157 206 262 312 373
#     4   9  18  32  58  94 125 159 205 261 322 380
#     4  11  24  40  62  85 124 167 213 255 308 377
#     4  10  20  32  52  85 123 159 198 248 309 369
#     4  10  21  34  53  84 120 161 201 251 307 361
#     4  11  25  42  59  83 118 165 214 260 314 383
#     4   9  18  35  60  90 124 162 207 261 319 380
#     4  11  22  40  61  90 123 167 209 261 314 375
#
# _framework density 21.296628999999999
#
# number of rings (size 3 to 8) (size 9 to 14) (size 15 to 20)
#    0.000    1.625    1.250    5.625    1.750    3.500 
#    0.000    0.625    0.000    4.125    0.000    0.000 
#    0.000    0.000    0.000    0.000    0.000    0.000 
#
# Total GULP energy -356947.663491 kJ/mol
# GULP energy per Si atom -5577.307242 kJ/mol
# Density = 2.124816 g / cm^3
# Si number density = 21.296629 Si / 1000 Ang^3
#
#
#
# Elastic Constant Matrix: (Units=GPa)
#
#
# Indices 1 2 3 4 5 6 
#
# 1 59.0838 17.2614 19.4738 0.0000 0.0000 0.0000
# 2 17.2614 121.0540 47.5732 0.0000 0.0000 0.0000
# 3 19.4738 47.5732 82.2801 0.0000 0.0000 0.0000
# 4 0.0000 0.0000 0.0000 14.0659 0.0000 0.0000
# 5 0.0000 0.0000 0.0000 0.0000 16.0298 0.0000
# 6 0.0000 0.0000 0.0000 0.0000 0.0000 32.5181
#
#
#
# Elastic Compliance Matrix: (Units=1/GPa)
#
#
# Indices 1 2 3 4 5 6 
#
# 1 0.018488 -0.001186 -0.003690 0.000000 0.000000 0.000000
# 2 -0.001186 0.010766 -0.005944 0.000000 0.000000 0.000000
# 3 -0.003690 -0.005944 0.016464 0.000000 0.000000 0.000000
# 4 0.000000 0.000000 0.000000 0.071094 0.000000 0.000000
# 5 0.000000 0.000000 0.000000 0.000000 0.062384 0.000000
# 6 0.000000 0.000000 0.000000 0.000000 0.000000 0.030752
#
#
# Mechanical properties :
#
#
# Convention : Reuss Voigt Hill
#
# Bulk Modulus (GPa) = 41.53266 47.89274 44.71270
# Shear Modulus (GPa) = 20.86702 24.39674 22.63188
#
# Velocity S-wave (km/s) = 3.13362 3.38830 3.26344
# Velocity P-wave (km/s) = 5.71288 6.15180 5.93640
#
# Compressibility (1/GPa) = 0.02407744
#
# Stress axis : x y z
#
# Youngs Moduli (GPa) = 54.08974 92.88662 60.74011
#
# Poissons Ratio (x) = 0.11018 0.22412
# Poissons Ratio (y) = 0.06416 0.36103
# Poissons Ratio (z) = 0.19958 0.55211
#
# Static dielectric constant tensor:
#      x y z
#    x 1.811810 0.000000 0.000000 
#    y 0.000000 1.841460 0.000000 
#    z 0.000000 0.000000 1.764630 
# 
# From -- ./inp_files/19494.got.cif
#   From: 2010.05.17/outbox.cif.g08.bks.cpg/sg55_10_cif.got.tgz:19494.got - 2010.06.03 13:27:54.
