data_PCOD9426127
_publ_section_title
;
Structure prediction by ZEFSAII (Michael W. Deem and Ramdas Pophale) SiO2 
 PCOD9426127
Probable space group: P B A M
;
_chemical_formula_sum "Si O2"
_cell_formula_units_Z 36
_cell_length_a 15.205616
_cell_length_b 11.707155
_cell_length_c 11.304396
_cell_angle_alpha 90.000000
_cell_angle_beta 90.000000
_cell_angle_gamma 90.000000
_cell_volume 2012.346440
_symmetry_space_group_name_H-M "P B A M"
_symmetry_group_IT_number 55
_symmetry_cell_setting 'orthorhombic'
loop_
_space_group_symop_operation_xyz
x,y,z
-x,-y,z
1/2+x,1/2-y,-z
1/2-x,1/2+y,-z
-x,-y,-z
x,y,-z
1/2-x,1/2+y,z
1/2+x,1/2-y,z
loop_
_atom_site_type_symbol
_atom_site_label
_atom_site_fract_x
_atom_site_fract_y
_atom_site_fract_z
Si Si1 0.650150 0.586885 0.000000
Si Si2 0.340761 0.671616 0.000000
Si Si3 0.390510 0.887319 0.640457
Si Si4 0.980346 0.301723 0.000000
Si Si5 0.762501 0.216495 0.794627
Si Si6 0.926626 0.362657 0.743161
O O1 0.573758 0.682119 0.000000
O O2 0.706851 0.615288 0.117106
O O3 0.622068 0.456066 0.000000
O O4 0.280958 0.692446 0.884878
O O5 0.417764 0.766112 0.000000
O O6 0.381457 0.892001 0.500000
O O7 0.309876 0.824281 0.702546
O O8 0.483745 0.830053 0.675461
O O9 0.397099 0.015285 0.693248
O O10 0.952722 0.367304 0.881705
O O11 0.847772 0.272498 0.734834
#
# Coordination Sequence:
#
# PCOD9426127 Si02
#       6
#     4   4   8   4   8   8
#     4   9  20  33  54  87 114 143 173 222 289 344
#     4  11  18  34  55  85 115 140 178 226 275 348
#     4  11  23  38  58  81 110 154 196 231 272 318
#     4  10  19  34  58  85 112 145 175 221 293 341
#     4  10  21  36  57  84 114 145 185 227 283 330
#     4  10  21  38  57  85 113 143 185 233 279 337
#
# _framework density 17.889564
#
# number of rings (size 3 to 8) (size 9 to 14) (size 15 to 20)
#    0.000    1.778    2.222    3.667    0.000    5.333 
#    0.000    0.000    0.000    0.000    0.000    6.222 
#    0.000    0.000    0.000    0.000    0.000    0.000 
#
# Total GULP energy -200977.580011 kJ/mol
# GULP energy per Si atom -5582.710556 kJ/mol
# Density = 1.784885 g / cm^3
# Si number density = 17.889564 Si / 1000 Ang^3
#
#
#
# Elastic Constant Matrix: (Units=GPa)
#
#
# Indices 1 2 3 4 5 6 
#
# 1 137.7182 45.7909 60.7335 0.0000 0.0000 0.0000
# 2 45.7909 57.0496 55.9940 0.0000 0.0000 0.0000
# 3 60.7335 55.9940 128.4066 0.0000 0.0000 0.0000
# 4 0.0000 0.0000 0.0000 15.0034 0.0000 0.0000
# 5 0.0000 0.0000 0.0000 0.0000 4.5707 0.0000
# 6 0.0000 0.0000 0.0000 0.0000 0.0000 26.7753
#
#
#
# Elastic Compliance Matrix: (Units=1/GPa)
#
#
# Indices 1 2 3 4 5 6 
#
# 1 0.010249 -0.006064 -0.002203 0.000000 0.000000 0.000000
# 2 -0.006064 0.034232 -0.012059 0.000000 0.000000 0.000000
# 3 -0.002203 -0.012059 0.014089 0.000000 0.000000 0.000000
# 4 0.000000 0.000000 0.000000 0.066652 0.000000 0.000000
# 5 0.000000 0.000000 0.000000 0.000000 0.218783 0.000000
# 6 0.000000 0.000000 0.000000 0.000000 0.000000 0.037348
#
#
# Mechanical properties :
#
#
# Convention : Reuss Voigt Hill
#
# Bulk Modulus (GPa) = 55.81444 72.02347 63.91896
# Shear Modulus (GPa) = 11.68285 19.98028 15.83156
#
# Velocity S-wave (km/s) = 2.55826 3.34558 2.97806
# Velocity P-wave (km/s) = 6.32404 7.43447 6.90162
#
# Compressibility (1/GPa) = 0.01791651
#
# Stress axis : x y z
#
# Youngs Moduli (GPa) = 97.56962 29.21236 70.97930
#
# Poissons Ratio (x) = 0.17714 0.15639
# Poissons Ratio (y) = 0.59165 0.85597
# Poissons Ratio (z) = 0.21498 0.35228
#
# Static dielectric constant tensor:
#      x y z
#    x 1.638560 0.000000 0.000000 
#    y 0.000000 1.599960 0.000000 
#    z 0.000000 0.000000 1.584880 
# 
# From -- ./inp_files/13909.got.cif
#   From: 2010.05.17/outbox.cif.g08.bks.cpg/sg55_7_cif.got.tgz:13909.got - 2010.06.03 13:27:54.
