data_PCOD9426842
_publ_section_title
;
Structure prediction by ZEFSAII (Michael W. Deem and Ramdas Pophale) SiO2 
 PCOD9426842
Probable space group: P B A M
;
_chemical_formula_sum "Si O2"
_cell_formula_units_Z 48
_cell_length_a 12.369537
_cell_length_b 23.644188
_cell_length_c 8.544617
_cell_angle_alpha 90.000000
_cell_angle_beta 90.000000
_cell_angle_gamma 90.000000
_cell_volume 2499.024125
_symmetry_space_group_name_H-M "P B A M"
_symmetry_group_IT_number 55
_symmetry_cell_setting 'orthorhombic'
loop_
_space_group_symop_operation_xyz
x,y,z
-x,-y,z
1/2+x,1/2-y,-z
1/2-x,1/2+y,-z
-x,-y,-z
x,y,-z
1/2-x,1/2+y,z
1/2+x,1/2-y,z
loop_
_atom_site_type_symbol
_atom_site_label
_atom_site_fract_x
_atom_site_fract_y
_atom_site_fract_z
Si Si1 0.653485 0.273052 0.690762
Si Si2 0.915452 0.649364 0.310780
Si Si3 0.275868 0.420276 0.184715
Si Si4 0.162474 0.643233 0.309329
Si Si5 0.175021 0.044007 0.688729
Si Si6 0.988101 0.129475 0.688681
O O1 0.655261 0.272494 0.500000
O O2 0.633415 0.209442 0.743624
O O3 0.764377 0.303405 0.741574
O O4 0.554484 0.314521 0.734897
O O5 0.916820 0.649880 0.500000
O O6 0.837286 0.599642 0.256655
O O7 0.039189 0.644037 0.255912
O O8 0.308873 0.482663 0.240971
O O9 0.370499 0.378164 0.241041
O O10 0.268335 0.419204 0.000000
O O11 0.161271 0.644660 0.500000
O O12 0.228314 0.586795 0.265931
O O13 0.174670 0.039171 0.500000
O O14 0.064122 0.076077 0.732575
O O15 0.979069 0.129852 0.500000
#
# Coordination Sequence:
#
# PCOD9426842 Si02
#       6
#     8   8   8   8   8   8
#     4   8  16  31  57  88 110 131 171 225 274 326
#     4  10  20  34  57  83 109 142 178 222 271 321
#     4  12  25  36  49  77 115 149 187 224 263 318
#     4   8  16  32  55  85 110 133 173 224 276 323
#     4   9  18  36  59  81 109 140 179 228 275 322
#     4   9  18  35  60  87 109 137 177 227 280 323
#
# _framework density 19.207498000000001
#
# number of rings (size 3 to 8) (size 9 to 14) (size 15 to 20)
#    0.000    2.667    0.000    4.000    2.333    3.333 
#    0.000    5.000    0.000    2.000    0.000    0.000 
#    0.000    0.000    0.000    0.000    0.000    0.000 
#
# Total GULP energy -267866.607440 kJ/mol
# GULP energy per Si atom -5580.554322 kJ/mol
# Density = 1.916378 g / cm^3
# Si number density = 19.207498 Si / 1000 Ang^3
#
#
#
# Elastic Constant Matrix: (Units=GPa)
#
#
# Indices 1 2 3 4 5 6 
#
# 1 109.1400 1.8638 15.8270 0.0000 0.0000 0.0000
# 2 1.8638 33.8228 6.7480 0.0000 0.0000 0.0000
# 3 15.8270 6.7480 11.5597 0.0000 0.0000 0.0000
# 4 0.0000 0.0000 0.0000 -15.5999 0.0000 0.0000
# 5 0.0000 0.0000 0.0000 0.0000 -12.1402 0.0000
# 6 0.0000 0.0000 0.0000 0.0000 0.0000 10.1918
#
#
#
# Elastic Compliance Matrix: (Units=1/GPa)
#
#
# Indices 1 2 3 4 5 6 
#
# 1 0.011675 0.002881 -0.017667 0.000000 0.000000 0.000000
# 2 0.002881 0.034174 -0.023895 0.000000 0.000000 0.000000
# 3 -0.017667 -0.023895 0.124645 0.000000 0.000000 0.000000
# 4 0.000000 0.000000 0.000000 -0.064103 0.000000 0.000000
# 5 0.000000 0.000000 0.000000 0.000000 -0.082371 0.000000
# 6 0.000000 0.000000 0.000000 0.000000 0.000000 0.098118
#
#
# Mechanical properties :
#
#
# Convention : Reuss Voigt Hill
#
# Bulk Modulus (GPa) = 10.73722 22.60002 16.66862
# Shear Modulus (GPa) = 21.68778 5.16260 13.42519
#
# Velocity S-wave (km/s) = 3.36390 1.64123 2.64665
# Velocity P-wave (km/s) = 4.54863 3.92216 4.24696
#
# Compressibility (1/GPa) = 0.09313400
#
# Stress axis : x y z
#
# Youngs Moduli (GPa) = 85.65032 29.26177 8.02275
#
# Poissons Ratio (x) = -0.08432 0.14174
# Poissons Ratio (y) = -0.24680 0.19170
# Poissons Ratio (z) = 1.51322 0.69920
#
# Static dielectric constant tensor:
#      x y z
#    x 1.665170 0.000000 0.000000 
#    y 0.000000 1.659490 0.000000 
#    z 0.000000 0.000000 1.650000 
# 
# From -- ./inp_files/4053.got.cif
#   From: 2010.05.17/outbox.cif.g08.bks.cpg/sg55_3_cif.got.tgz:4053.got - 2010.06.03 13:27:54.
