data_PCOD9426426
_publ_section_title
;
Structure prediction by ZEFSAII (Michael W. Deem and Ramdas Pophale) SiO2 
 PCOD9426426
Probable space group: P B A M
;
_chemical_formula_sum "Si O2"
_cell_formula_units_Z 40
_cell_length_a 9.405180
_cell_length_b 26.529754
_cell_length_c 7.599184
_cell_angle_alpha 90.000000
_cell_angle_beta 90.000000
_cell_angle_gamma 90.000000
_cell_volume 1896.126443
_symmetry_space_group_name_H-M "P B A M"
_symmetry_group_IT_number 55
_symmetry_cell_setting 'orthorhombic'
loop_
_space_group_symop_operation_xyz
x,y,z
-x,-y,z
1/2+x,1/2-y,-z
1/2-x,1/2+y,-z
-x,-y,-z
x,y,-z
1/2-x,1/2+y,z
1/2+x,1/2-y,z
loop_
_atom_site_type_symbol
_atom_site_label
_atom_site_fract_x
_atom_site_fract_y
_atom_site_fract_z
Si Si1 0.683635 0.276429 0.795367
Si Si2 0.330602 0.905126 0.199825
Si Si3 0.010002 0.686685 0.216156
Si Si4 0.083295 0.052644 0.500000
Si Si5 0.337456 0.985819 0.500000
Si Si6 0.042351 0.859367 0.300791
O O1 0.608188 0.226721 0.721052
O O2 0.834013 0.295893 0.722074
O O3 0.564909 0.319944 0.782740
O O4 0.712116 0.265299 0.000000
O O5 0.459072 0.869288 0.263687
O O6 0.305331 0.951061 0.331167
O O7 0.188621 0.870731 0.204080
O O8 0.357180 0.921668 0.000000
O O9 0.010253 0.687292 0.000000
O O10 0.038306 0.087539 0.335712
O O11 0.244907 0.036108 0.500000
O O12 0.000000 0.000000 0.500000
O O13 0.500000 0.000000 0.500000
O O14 0.076738 0.841469 0.500000
#
# Coordination Sequence:
#
# PCOD9426426 Si02
#       6
#     8   8   8   4   4   8
#     4  10  19  37  60  90 124 163 203 251 305 365
#     4  11  22  42  66  94 124 164 210 252 310 377
#     4   9  20  36  60  89 126 162 205 252 304 369
#     4  10  20  44  63  82 123 158 205 254 307 364
#     4  12  26  44  67  90 127 166 199 266 323 358
#     4  10  21  37  63  87 122 161 203 256 302 366
#
# _framework density 21.09564
#
# number of rings (size 3 to 8) (size 9 to 14) (size 15 to 20)
#    0.600    1.200    3.000    1.800    2.800    3.600 
#    1.800    3.000    0.000    0.000    0.000    0.000 
#    0.000    0.000    0.000    0.000    0.000    0.000 
#
# Total GULP energy -223255.136156 kJ/mol
# GULP energy per Si atom -5581.378404 kJ/mol
# Density = 2.104763 g / cm^3
# Si number density = 21.095640 Si / 1000 Ang^3
#
#
#
# Elastic Constant Matrix: (Units=GPa)
#
#
# Indices 1 2 3 4 5 6 
#
# 1 89.7827 -2.6690 1.9857 0.0000 0.0000 0.0000
# 2 -2.6690 53.2467 2.2154 0.0000 0.0000 0.0000
# 3 1.9857 2.2154 63.9859 0.0000 0.0000 0.0000
# 4 0.0000 0.0000 0.0000 9.4855 0.0000 0.0000
# 5 0.0000 0.0000 0.0000 0.0000 15.9925 0.0000
# 6 0.0000 0.0000 0.0000 0.0000 0.0000 37.9892
#
#
#
# Elastic Compliance Matrix: (Units=1/GPa)
#
#
# Indices 1 2 3 4 5 6 
#
# 1 0.011163 0.000575 -0.000366 0.000000 0.000000 0.000000
# 2 0.000575 0.018837 -0.000670 0.000000 0.000000 0.000000
# 3 -0.000366 -0.000670 0.015663 0.000000 0.000000 0.000000
# 4 0.000000 0.000000 0.000000 0.105424 0.000000 0.000000
# 5 0.000000 0.000000 0.000000 0.000000 0.062529 0.000000
# 6 0.000000 0.000000 0.000000 0.000000 0.000000 0.026323
#
#
# Mechanical properties :
#
#
# Convention : Reuss Voigt Hill
#
# Bulk Modulus (GPa) = 22.35122 23.34215 22.84669
# Shear Modulus (GPa) = 19.54834 26.39232 22.97033
#
# Velocity S-wave (km/s) = 3.04740 3.54090 3.30338
# Velocity P-wave (km/s) = 4.79587 5.27316 5.04017
#
# Compressibility (1/GPa) = 0.04474028
#
# Stress axis : x y z
#
# Youngs Moduli (GPa) = 89.58012 53.08643 63.84468
#
# Poissons Ratio (x) = -0.03051 0.02339
# Poissons Ratio (y) = -0.05149 0.04278
# Poissons Ratio (z) = 0.03282 0.03557
#
# Static dielectric constant tensor:
#      x y z
#    x 1.774520 0.000000 0.000000 
#    y 0.000000 1.747360 0.000000 
#    z 0.000000 0.000000 1.773470 
# 
# From -- ./inp_files/2537.got.cif
#   From: 2010.05.17/outbox.cif.g08.bks.cpg/sg55_2_cif.got.tgz:2537.got - 2010.06.03 13:27:54.
