data_PCOD9426201
_publ_section_title
;
Structure prediction by ZEFSAII (Michael W. Deem and Ramdas Pophale) SiO2 
 PCOD9426201
Probable space group: P B A M
;
_chemical_formula_sum "Si O2"
_cell_formula_units_Z 64
_cell_length_a 11.790376
_cell_length_b 29.707542
_cell_length_c 7.299170
_cell_angle_alpha 90.000000
_cell_angle_beta 90.000000
_cell_angle_gamma 90.000000
_cell_volume 2556.629840
_symmetry_space_group_name_H-M "P B A M"
_symmetry_group_IT_number 55
_symmetry_cell_setting 'orthorhombic'
loop_
_space_group_symop_operation_xyz
x,y,z
-x,-y,z
1/2+x,1/2-y,-z
1/2-x,1/2+y,-z
-x,-y,-z
x,y,-z
1/2-x,1/2+y,z
1/2+x,1/2-y,z
loop_
_atom_site_type_symbol
_atom_site_label
_atom_site_fract_x
_atom_site_fract_y
_atom_site_fract_z
Si Si1 0.104219 0.906691 0.220949
Si Si2 0.369056 0.130779 0.223015
Si Si3 0.541426 0.061229 0.792390
Si Si4 0.650595 0.412280 0.777131
Si Si5 0.086200 0.730302 0.775877
Si Si6 0.246889 0.492244 0.223603
Si Si7 0.811509 0.647405 0.288478
Si Si8 0.158233 0.251881 0.795543
O O1 0.168514 0.952228 0.280504
O O2 0.178788 0.864282 0.277670
O O3 0.976311 0.905843 0.287043
O O4 0.102943 0.907560 0.000000
O O5 0.433221 0.086035 0.290883
O O6 0.238302 0.126465 0.275696
O O7 0.423039 0.177720 0.278190
O O8 0.375536 0.129643 0.000000
O O9 0.619801 0.021474 0.714846
O O10 0.627296 0.104124 0.797400
O O11 0.510216 0.049053 0.000000
O O12 0.702542 0.460233 0.720441
O O13 0.647676 0.413246 0.000000
O O14 0.215537 0.742259 0.715697
O O15 0.969840 0.755953 0.717196
O O16 0.085996 0.733807 0.000000
O O17 0.242486 0.491917 0.000000
O O18 0.844552 0.649896 0.500000
O O19 0.838562 0.693922 0.194064
O O20 0.159080 0.231210 0.000000
#
# Coordination Sequence:
#
# PCOD9426201 Si02
#       8
#     8   8   8   8   8   8   8   8
#     4   9  17  30  49  72 102 139 173 211 255 303
#     4   9  16  27  46  75 105 131 164 211 256 302
#     4   9  16  30  52  73 100 132 166 209 254 299
#     4   9  16  25  43  75 109 134 166 211 257 302
#     4   9  18  31  52  78 105 132 167 207 255 309
#     4   8  14  24  42  71 103 136 168 205 255 304
#     4  11  21  33  52  76  99 130 173 213 252 306
#     4  10  19  35  57  80 104 134 168 212 259 310
#
# _framework density 25.032955999999999
#
# number of rings (size 3 to 8) (size 9 to 14) (size 15 to 20)
#    0.000    2.750    1.250    2.250    0.000    3.000 
#    0.000    6.875    0.000    6.750    0.000    3.500 
#    0.000    0.000    0.000    0.000    0.000    0.000 
#
# Total GULP energy -357314.663329 kJ/mol
# GULP energy per Si atom -5583.041615 kJ/mol
# Density = 2.497598 g / cm^3
# Si number density = 25.032956 Si / 1000 Ang^3
#
#
#
# Elastic Constant Matrix: (Units=GPa)
#
#
# Indices 1 2 3 4 5 6 
#
# 1 233.2139 24.2860 4.1683 0.0000 0.0000 0.0000
# 2 24.2860 35.5558 -3.0621 0.0000 0.0000 0.0000
# 3 4.1683 -3.0621 115.8069 0.0000 0.0000 0.0000
# 4 0.0000 0.0000 0.0000 -80.6040 0.0000 0.0000
# 5 0.0000 0.0000 0.0000 0.0000 -31.7471 0.0000
# 6 0.0000 0.0000 0.0000 0.0000 0.0000 34.5293
#
#
#
# Elastic Compliance Matrix: (Units=1/GPa)
#
#
# Indices 1 2 3 4 5 6 
#
# 1 0.004623 -0.003180 -0.000250 0.000000 0.000000 0.000000
# 2 -0.003180 0.030376 0.000918 0.000000 0.000000 0.000000
# 3 -0.000250 0.000918 0.008668 0.000000 0.000000 0.000000
# 4 0.000000 0.000000 0.000000 -0.012406 0.000000 0.000000
# 5 0.000000 0.000000 0.000000 0.000000 -0.031499 0.000000
# 6 0.000000 0.000000 0.000000 0.000000 0.000000 0.028961
#
#
# Mechanical properties :
#
#
# Convention : Reuss Voigt Hill
#
# Bulk Modulus (GPa) = 25.87823 48.37344 37.12584
# Shear Modulus (GPa) = 107.22974 8.38126 57.80550
#
# Velocity S-wave (km/s) = 6.55198 1.83176 4.81060
# Velocity P-wave (km/s) = 8.22180 4.88259 6.76157
#
# Compressibility (1/GPa) = 0.03864251
#
# Stress axis : x y z
#
# Youngs Moduli (GPa) = 216.28648 32.92116 115.36228
#
# Poissons Ratio (x) = 0.10468 0.02890
# Poissons Ratio (y) = 0.68770 -0.10586
# Poissons Ratio (z) = 0.05418 -0.03021
#
# Static dielectric constant tensor:
#      x y z
#    x 2.035670 0.000000 0.000000 
#    y 0.000000 1.916260 0.000000 
#    z 0.000000 0.000000 2.021810 
# 
# From -- ./inp_files/4595.got.cif
#   From: 2010.05.17/outbox.cif.g08.bks.cpg/sg55_3_cif.got.tgz:4595.got - 2010.06.03 13:27:54.
