data_PCOD9426802
_publ_section_title
;
Structure prediction by ZEFSAII (Michael W. Deem and Ramdas Pophale) SiO2 
 PCOD9426802
Probable space group: P B A M
;
_chemical_formula_sum "Si O2"
_cell_formula_units_Z 56
_cell_length_a 16.018954
_cell_length_b 21.451495
_cell_length_c 8.287375
_cell_angle_alpha 90.000000
_cell_angle_beta 90.000000
_cell_angle_gamma 90.000000
_cell_volume 2847.794911
_symmetry_space_group_name_H-M "P B A M"
_symmetry_group_IT_number 55
_symmetry_cell_setting 'orthorhombic'
loop_
_space_group_symop_operation_xyz
x,y,z
-x,-y,z
1/2+x,1/2-y,-z
1/2-x,1/2+y,-z
-x,-y,-z
x,y,-z
1/2-x,1/2+y,z
1/2+x,1/2-y,z
loop_
_atom_site_type_symbol
_atom_site_label
_atom_site_fract_x
_atom_site_fract_y
_atom_site_fract_z
Si Si1 0.491170 0.814694 0.810313
Si Si2 0.628575 0.714748 0.195745
Si Si3 0.297345 0.974199 0.310545
Si Si4 0.371557 0.523642 0.811319
Si Si5 0.306650 0.830789 0.307507
Si Si6 0.561118 0.941534 0.683853
Si Si7 0.482181 0.398883 0.812305
O O1 0.569674 0.772491 0.753025
O O2 0.398475 0.804854 0.737537
O O3 0.518168 0.885465 0.776328
O O4 0.482732 0.803152 0.000000
O O5 0.724765 0.707083 0.249633
O O6 0.575298 0.655099 0.257344
O O7 0.631487 0.714012 0.000000
O O8 0.320537 0.969423 0.500000
O O9 0.207143 0.003777 0.290614
O O10 0.358500 0.026210 0.237446
O O11 0.301121 0.903254 0.245275
O O12 0.428565 0.461852 0.811790
O O13 0.427606 0.580785 0.746372
O O14 0.349316 0.535306 0.000000
O O15 0.301563 0.833412 0.500000
O O16 0.578380 0.919212 0.500000
O O17 0.500000 0.000000 0.672868
O O18 0.497292 0.381982 0.000000
#
# Coordination Sequence:
#
# PCOD9426802 Si02
#       7
#     8   8   8   8   8   8   8
#     4  11  24  40  61  89 119 153 197 249 300 354
#     4  10  21  40  62  85 118 156 197 245 293 345
#     4  10  20  34  55  83 113 146 185 235 290 342
#     4   9  16  29  53  81 109 145 188 230 279 341
#     4  11  22  39  63  87 114 154 199 237 289 358
#     4  10  20  39  61  81 114 152 187 241 303 354
#     4   8  15  30  53  80 109 144 183 228 282 335
#
# _framework density 19.664337
#
# number of rings (size 3 to 8) (size 9 to 14) (size 15 to 20)
#    0.000    2.143    2.857    1.714    0.000    2.571 
#    2.571    2.143    0.000    0.000    0.000    0.000 
#    0.000    0.000    0.000    0.000    0.000    0.000 
#
# Total GULP energy -311811.152626 kJ/mol
# GULP energy per Si atom -5568.056297 kJ/mol
# Density = 1.961958 g / cm^3
# Si number density = 19.664337 Si / 1000 Ang^3
#
#
#
# Elastic Constant Matrix: (Units=GPa)
#
#
# Indices 1 2 3 4 5 6 
#
# 1 150.1816 61.0407 21.9900 0.0000 0.0000 0.0000
# 2 61.0407 74.1359 14.3666 0.0000 0.0000 0.0000
# 3 21.9900 14.3666 20.1048 0.0000 0.0000 0.0000
# 4 0.0000 0.0000 0.0000 19.5209 0.0000 0.0000
# 5 0.0000 0.0000 0.0000 0.0000 14.6204 0.0000
# 6 0.0000 0.0000 0.0000 0.0000 0.0000 30.0091
#
#
#
# Elastic Compliance Matrix: (Units=1/GPa)
#
#
# Indices 1 2 3 4 5 6 
#
# 1 0.010643 -0.007553 -0.006243 0.000000 0.000000 0.000000
# 2 -0.007553 0.021017 -0.006757 0.000000 0.000000 0.000000
# 3 -0.006243 -0.006757 0.061397 0.000000 0.000000 0.000000
# 4 0.000000 0.000000 0.000000 0.051227 0.000000 0.000000
# 5 0.000000 0.000000 0.000000 0.000000 0.068397 0.000000
# 6 0.000000 0.000000 0.000000 0.000000 0.000000 0.033323
#
#
# Mechanical properties :
#
#
# Convention : Reuss Voigt Hill
#
# Bulk Modulus (GPa) = 19.24951 48.80186 34.02568
# Shear Modulus (GPa) = 16.42425 22.63176 19.52801
#
# Velocity S-wave (km/s) = 2.89317 3.39618 3.15472
# Velocity P-wave (km/s) = 4.57940 6.34429 5.53267
#
# Compressibility (1/GPa) = 0.05194937
#
# Stress axis : x y z
#
# Youngs Moduli (GPa) = 93.96212 47.58071 16.28744
#
# Poissons Ratio (x) = 0.35937 0.10169
# Poissons Ratio (y) = 0.70968 0.11006
# Poissons Ratio (z) = 0.58664 0.32152
#
# Static dielectric constant tensor:
#      x y z
#    x 1.590040 0.000000 0.000000 
#    y 0.000000 1.595090 0.000000 
#    z 0.000000 0.000000 1.712880 
# 
# From -- ./inp_files/6011.got.cif
#   From: 2010.05.17/outbox.cif.g08.bks.cpg/sg55_4_cif.got.tgz:6011.got - 2010.06.03 13:27:54.
