data_PCOD9426581
_publ_section_title
;
Structure prediction by ZEFSAII (Michael W. Deem and Ramdas Pophale) SiO2 
 PCOD9426581
Probable space group: P B A M
;
_chemical_formula_sum "Si O2"
_cell_formula_units_Z 64
_cell_length_a 20.260665
_cell_length_b 18.943134
_cell_length_c 7.592762
_cell_angle_alpha 90.000000
_cell_angle_beta 90.000000
_cell_angle_gamma 90.000000
_cell_volume 2914.105791
_symmetry_space_group_name_H-M "P B A M"
_symmetry_group_IT_number 55
_symmetry_cell_setting 'orthorhombic'
loop_
_space_group_symop_operation_xyz
x,y,z
-x,-y,z
1/2+x,1/2-y,-z
1/2-x,1/2+y,-z
-x,-y,-z
x,y,-z
1/2-x,1/2+y,z
1/2+x,1/2-y,z
loop_
_atom_site_type_symbol
_atom_site_label
_atom_site_fract_x
_atom_site_fract_y
_atom_site_fract_z
Si Si1 0.758125 0.016586 0.295436
Si Si2 0.254927 0.646923 0.204319
Si Si3 0.613597 0.017423 0.284730
Si Si4 0.900813 0.041178 0.285298
Si Si5 0.969189 0.643472 0.296551
Si Si6 0.625104 0.263963 0.798460
Si Si7 0.532295 0.391549 0.713445
Si Si8 0.390819 0.148094 0.289208
O O1 0.756968 0.037577 0.500000
O O2 0.760523 0.930722 0.289529
O O3 0.687065 0.037272 0.219765
O O4 0.826125 0.046441 0.218827
O O5 0.307892 0.702356 0.277704
O O6 0.179362 0.672355 0.215156
O O7 0.272434 0.635980 0.000000
O O8 0.614133 0.021498 0.500000
O O9 0.558175 0.070718 0.218163
O O10 0.603633 0.935377 0.245185
O O11 0.899070 0.042986 0.500000
O O12 0.956331 0.097292 0.231176
O O13 0.929375 0.963820 0.240301
O O14 0.985197 0.627283 0.500000
O O15 0.909214 0.697931 0.291903
O O16 0.037857 0.675952 0.226816
O O17 0.571272 0.326359 0.790887
O O18 0.637686 0.243108 0.000000
O O19 0.533784 0.384875 0.500000
O O20 0.383483 0.157333 0.500000
#
# Coordination Sequence:
#
# PCOD9426581 Si02
#       8
#     8   8   8   8   8   8   8   8
#     4   9  15  28  52  78 103 130 164 209 257 306
#     4  10  20  33  50  74 103 136 171 208 249 299
#     4   8  15  29  53  82 105 124 156 210 266 307
#     4   8  14  25  47  77 103 128 165 214 261 295
#     4  10  20  35  55  78 103 135 171 211 261 316
#     4  11  23  36  49  71 106 145 179 210 250 305
#     4   9  16  29  49  72  99 134 173 215 257 299
#     4   9  18  34  58  82 101 125 166 217 266 312
#
# _framework density 21.962140000000002
#
# number of rings (size 3 to 8) (size 9 to 14) (size 15 to 20)
#    0.000    2.750    1.250    2.625    0.000    3.500 
#    0.000    5.625    0.000    6.750    0.000    0.000 
#    0.000    0.000    0.000    0.000    0.000    0.000 
#
# Total GULP energy -356887.057690 kJ/mol
# GULP energy per Si atom -5576.360276 kJ/mol
# Density = 2.191215 g / cm^3
# Si number density = 21.962140 Si / 1000 Ang^3
#
#
#
# Elastic Constant Matrix: (Units=GPa)
#
#
# Indices 1 2 3 4 5 6 
#
# 1 155.9985 16.6890 -0.2888 0.0000 0.0000 0.0000
# 2 16.6890 22.6939 -4.7145 0.0000 0.0000 0.0000
# 3 -0.2888 -4.7145 45.5408 0.0000 0.0000 0.0000
# 4 0.0000 0.0000 0.0000 29.0145 0.0000 0.0000
# 5 0.0000 0.0000 0.0000 0.0000 9.5562 0.0000
# 6 0.0000 0.0000 0.0000 0.0000 0.0000 25.4892
#
#
#
# Elastic Compliance Matrix: (Units=1/GPa)
#
#
# Indices 1 2 3 4 5 6 
#
# 1 0.006969 -0.005228 -0.000497 0.000000 0.000000 0.000000
# 2 -0.005228 0.048955 0.005035 0.000000 0.000000 0.000000
# 3 -0.000497 0.005035 0.022476 0.000000 0.000000 0.000000
# 4 0.000000 0.000000 0.000000 0.034465 0.000000 0.000000
# 5 0.000000 0.000000 0.000000 0.000000 0.104644 0.000000
# 6 0.000000 0.000000 0.000000 0.000000 0.000000 0.039232
#
#
# Mechanical properties :
#
#
# Convention : Reuss Voigt Hill
#
# Bulk Modulus (GPa) = 12.98364 27.51162 20.24763
# Shear Modulus (GPa) = 17.61828 26.98181 22.30005
#
# Velocity S-wave (km/s) = 2.83541 3.50888 3.18997
# Velocity P-wave (km/s) = 4.07971 5.38242 4.77569
#
# Compressibility (1/GPa) = 0.07702003
#
# Stress axis : x y z
#
# Youngs Moduli (GPa) = 143.49879 20.42677 44.49111
#
# Poissons Ratio (x) = 0.10679 0.02211
# Poissons Ratio (y) = 0.75021 -0.22400
# Poissons Ratio (z) = 0.07132 -0.10284
#
# Static dielectric constant tensor:
#      x y z
#    x 1.872760 0.000000 0.000000 
#    y 0.000000 1.765980 0.000000 
#    z 0.000000 0.000000 1.828800 
# 
# From -- ./inp_files/8978.got.cif
#   From: 2010.05.17/outbox.cif.g08.bks.cpg/sg55_5_cif.got.tgz:8978.got - 2010.06.03 13:27:54.
