data_PCOD9426168
_publ_section_title
;
Structure prediction by ZEFSAII (Michael W. Deem and Ramdas Pophale) SiO2 
 PCOD9426168
Probable space group: P B A M
;
_chemical_formula_sum "Si O2"
_cell_formula_units_Z 56
_cell_length_a 21.187778
_cell_length_b 14.801707
_cell_length_c 7.630217
_cell_angle_alpha 90.000000
_cell_angle_beta 90.000000
_cell_angle_gamma 90.000000
_cell_volume 2392.952656
_symmetry_space_group_name_H-M "P B A M"
_symmetry_group_IT_number 55
_symmetry_cell_setting 'orthorhombic'
loop_
_space_group_symop_operation_xyz
x,y,z
-x,-y,z
1/2+x,1/2-y,-z
1/2-x,1/2+y,-z
-x,-y,-z
x,y,-z
1/2-x,1/2+y,z
1/2+x,1/2-y,z
loop_
_atom_site_type_symbol
_atom_site_label
_atom_site_fract_x
_atom_site_fract_y
_atom_site_fract_z
Si Si1 0.133101 0.883864 0.299831
Si Si2 0.529983 0.906327 0.789137
Si Si3 0.673512 0.903064 0.214573
Si Si4 0.987883 0.209378 0.291884
Si Si5 0.290275 0.711138 0.215050
Si Si6 0.599804 0.422355 0.204034
Si Si7 0.224224 0.405623 0.797733
O O1 0.147445 0.859119 0.500000
O O2 0.082454 0.813819 0.222719
O O3 0.200091 0.896060 0.207447
O O4 0.098751 0.981346 0.296309
O O5 0.601836 0.896149 0.725005
O O6 0.494991 0.813098 0.744973
O O7 0.500000 0.000000 0.724439
O O8 0.531729 0.912168 0.000000
O O9 0.721412 0.824432 0.268481
O O10 0.702226 0.998903 0.276115
O O11 0.673670 0.902007 0.000000
O O12 0.985931 0.195911 0.500000
O O13 0.037653 0.138185 0.218426
O O14 0.342560 0.639250 0.271085
O O15 0.302189 0.812488 0.279137
O O16 0.291749 0.712961 0.000000
O O17 0.611759 0.442460 0.000000
O O18 0.203478 0.407849 0.000000
#
# Coordination Sequence:
#
# PCOD9426168 Si02
#       7
#     8   8   8   8   8   8   8
#     4  11  23  40  59  86 124 160 197 245 302 365
#     4  10  22  39  64  94 121 155 205 254 296 352
#     4   9  17  33  56  87 120 148 186 241 297 344
#     4  11  25  42  59  83 122 166 201 244 306 365
#     4   9  18  32  56  88 116 146 189 244 296 345
#     4  11  22  38  63  91 117 152 205 257 306 361
#     4  10  19  34  61  87 115 152 192 240 296 353
#
# _framework density 23.402049999999999
#
# number of rings (size 3 to 8) (size 9 to 14) (size 15 to 20)
#    0.000    1.857    1.429    2.571    2.000    5.429 
#    0.000    2.143    0.000    0.000    0.000    0.000 
#    0.000    0.000    0.000    0.000    0.000    0.000 
#
# Total GULP energy -313151.270597 kJ/mol
# GULP energy per Si atom -5591.986975 kJ/mol
# Density = 2.334879 g / cm^3
# Si number density = 23.402050 Si / 1000 Ang^3
#
#
#
# Elastic Constant Matrix: (Units=GPa)
#
#
# Indices 1 2 3 4 5 6 
#
# 1 51.1799 -0.3024 -8.9005 0.0000 0.0000 0.0000
# 2 -0.3024 126.6844 -7.1075 0.0000 0.0000 0.0000
# 3 -8.9005 -7.1075 53.3600 0.0000 0.0000 0.0000
# 4 0.0000 0.0000 0.0000 8.5594 0.0000 0.0000
# 5 0.0000 0.0000 0.0000 0.0000 -14.8594 0.0000
# 6 0.0000 0.0000 0.0000 0.0000 0.0000 31.6965
#
#
#
# Elastic Compliance Matrix: (Units=1/GPa)
#
#
# Indices 1 2 3 4 5 6 
#
# 1 0.020130 0.000238 0.003389 0.000000 0.000000 0.000000
# 2 0.000238 0.007956 0.001099 0.000000 0.000000 0.000000
# 3 0.003389 0.001099 0.019452 0.000000 0.000000 0.000000
# 4 0.000000 0.000000 0.000000 0.116831 0.000000 0.000000
# 5 0.000000 0.000000 0.000000 0.000000 -0.067298 0.000000
# 6 0.000000 0.000000 0.000000 0.000000 0.000000 0.031549
#
#
# Mechanical properties :
#
#
# Convention : Reuss Voigt Hill
#
# Bulk Modulus (GPa) = 17.54627 22.06706 19.80666
# Shear Modulus (GPa) = 36.18893 21.58162 28.88527
#
# Velocity S-wave (km/s) = 3.93670 3.04009 3.51708
# Velocity P-wave (km/s) = 5.30824 4.66614 4.99751
#
# Compressibility (1/GPa) = 0.05699218
#
# Stress axis : x y z
#
# Youngs Moduli (GPa) = 49.67771 125.69318 51.40744
#
# Poissons Ratio (x) = -0.02994 -0.17424
# Poissons Ratio (y) = -0.01183 -0.05652
# Poissons Ratio (z) = -0.16838 -0.13819
#
# Static dielectric constant tensor:
#      x y z
#    x 1.863420 0.000000 0.000000 
#    y 0.000000 1.876440 0.000000 
#    z 0.000000 0.000000 1.874900 
# 
# From -- ./inp_files/8806.got.cif
#   From: 2010.05.17/outbox.cif.g08.bks.cpg/sg55_5_cif.got.tgz:8806.got - 2010.06.03 13:27:54.
