data_PCOD9426383
_publ_section_title
;
Structure prediction by ZEFSAII (Michael W. Deem and Ramdas Pophale) SiO2 
 PCOD9426383
Probable space group: P B A M
;
_chemical_formula_sum "Si O2"
_cell_formula_units_Z 56
_cell_length_a 8.268466
_cell_length_b 19.906618
_cell_length_c 16.326358
_cell_angle_alpha 90.000000
_cell_angle_beta 90.000000
_cell_angle_gamma 90.000000
_cell_volume 2687.272717
_symmetry_space_group_name_H-M "P B A M"
_symmetry_group_IT_number 55
_symmetry_cell_setting 'orthorhombic'
loop_
_space_group_symop_operation_xyz
x,y,z
-x,-y,z
1/2+x,1/2-y,-z
1/2-x,1/2+y,-z
-x,-y,-z
x,y,-z
1/2-x,1/2+y,z
1/2+x,1/2-y,z
loop_
_atom_site_type_symbol
_atom_site_label
_atom_site_fract_x
_atom_site_fract_y
_atom_site_fract_z
Si Si1 0.213657 0.459428 0.596156
Si Si2 0.824302 0.783579 0.595043
Si Si3 0.668330 0.923064 0.000000
Si Si4 0.856777 0.160512 0.665467
Si Si5 0.875294 0.402105 0.341989
Si Si6 0.219058 0.066720 0.178652
Si Si7 0.798039 0.585972 0.000000
Si Si8 0.662977 0.588172 0.824497
O O1 0.184638 0.458211 0.500000
O O2 0.359619 0.411674 0.621155
O O3 0.231183 0.535491 0.624741
O O4 0.056616 0.426291 0.639642
O O5 0.875137 0.786887 0.500000
O O6 0.763977 0.709942 0.618411
O O7 0.676968 0.835152 0.611408
O O8 0.968085 0.806713 0.654734
O O9 0.743573 0.906387 0.087776
O O10 0.486180 0.895688 0.000000
O O11 0.689208 0.004479 0.000000
O O12 0.796345 0.143896 0.756900
O O13 0.829886 0.398089 0.246501
O O14 0.028204 0.077480 0.189340
O O15 0.245559 0.985570 0.186916
O O16 0.707060 0.607177 0.082650
#
# Coordination Sequence:
#
# PCOD9426383 Si02
#       8
#     8   8   4   8   8   8   4   8
#     4  11  23  39  60  90 125 165 206 264 328 372
#     4  12  25  43  63  89 122 169 220 264 316 382
#     4   9  19  31  59  96 135 166 200 251 310 380
#     4  12  25  43  65  88 123 167 216 266 316 380
#     4  11  22  38  63  92 128 161 204 265 314 385
#     4  10  19  36  60  96 131 165 202 252 317 376
#     4   9  19  33  61  94 131 168 202 253 306 384
#     4  10  20  38  61  93 130 164 207 251 317 373
#
# _framework density 20.838971000000001
#
# number of rings (size 3 to 8) (size 9 to 14) (size 15 to 20)
#    0.000    1.286    2.857    4.286    2.000    3.429 
#    0.000    1.429    0.000    1.714    0.000    0.000 
#    0.000    0.000    0.000    0.000    0.000    0.000 
#
# Total GULP energy -312825.974587 kJ/mol
# GULP energy per Si atom -5586.178118 kJ/mol
# Density = 2.079154 g / cm^3
# Si number density = 20.838971 Si / 1000 Ang^3
#
#
#
# Elastic Constant Matrix: (Units=GPa)
#
#
# Indices 1 2 3 4 5 6 
#
# 1 32.4845 -1.8204 12.9766 0.0000 0.0000 0.0000
# 2 -1.8204 61.4763 15.4677 0.0000 0.0000 0.0000
# 3 12.9766 15.4677 159.4241 0.0000 0.0000 0.0000
# 4 0.0000 0.0000 0.0000 22.3916 0.0000 0.0000
# 5 0.0000 0.0000 0.0000 0.0000 28.5121 0.0000
# 6 0.0000 0.0000 0.0000 0.0000 0.0000 22.2795
#
#
#
# Elastic Compliance Matrix: (Units=1/GPa)
#
#
# Indices 1 2 3 4 5 6 
#
# 1 0.031979 0.001642 -0.002762 0.000000 0.000000 0.000000
# 2 0.001642 0.016758 -0.001760 0.000000 0.000000 0.000000
# 3 -0.002762 -0.001760 0.006668 0.000000 0.000000 0.000000
# 4 0.000000 0.000000 0.000000 0.044660 0.000000 0.000000
# 5 0.000000 0.000000 0.000000 0.000000 0.035073 0.000000
# 6 0.000000 0.000000 0.000000 0.000000 0.000000 0.044884
#
#
# Mechanical properties :
#
#
# Convention : Reuss Voigt Hill
#
# Bulk Modulus (GPa) = 20.14280 34.07030 27.10655
# Shear Modulus (GPa) = 24.71208 29.75405 27.23307
#
# Velocity S-wave (km/s) = 3.44737 3.78273 3.61894
# Velocity P-wave (km/s) = 5.05299 5.95513 5.52251
#
# Compressibility (1/GPa) = 0.04964553
#
# Stress axis : x y z
#
# Youngs Moduli (GPa) = 31.27009 59.67387 149.96697
#
# Poissons Ratio (x) = -0.09798 0.41426
# Poissons Ratio (y) = -0.05134 0.26387
# Poissons Ratio (z) = 0.08638 0.10500
#
# Static dielectric constant tensor:
#      x y z
#    x 1.781440 0.000000 0.000000 
#    y 0.000000 1.732920 0.000000 
#    z 0.000000 0.000000 1.761970 
# 
# From -- ./inp_files/17693.got.cif
#   From: 2010.05.17/outbox.cif.g08.bks.cpg/sg55_9_cif.got.tgz:17693.got - 2010.06.03 13:27:54.
