data_PCOD9426926
_publ_section_title
;
Structure prediction by ZEFSAII (Michael W. Deem and Ramdas Pophale) SiO2 
 PCOD9426926
Probable space group: P B A M
;
_chemical_formula_sum "Si O2"
_cell_formula_units_Z 56
_cell_length_a 13.182295
_cell_length_b 10.458599
_cell_length_c 16.272908
_cell_angle_alpha 90.000000
_cell_angle_beta 90.000000
_cell_angle_gamma 90.000000
_cell_volume 2243.518769
_symmetry_space_group_name_H-M "P B A M"
_symmetry_group_IT_number 55
_symmetry_cell_setting 'orthorhombic'
loop_
_space_group_symop_operation_xyz
x,y,z
-x,-y,z
1/2+x,1/2-y,-z
1/2-x,1/2+y,-z
-x,-y,-z
x,y,-z
1/2-x,1/2+y,z
1/2+x,1/2-y,z
loop_
_atom_site_type_symbol
_atom_site_label
_atom_site_fract_x
_atom_site_fract_y
_atom_site_fract_z
Si Si1 0.456468 0.655335 0.089150
Si Si2 0.335424 0.091932 0.236618
Si Si3 0.327526 0.297600 0.907334
Si Si4 0.102421 0.086445 0.267349
Si Si5 0.651306 0.927339 0.410234
Si Si6 0.844431 0.734544 0.410407
Si Si7 0.111661 0.428206 0.910327
O O1 0.572991 0.612956 0.095000
O O2 0.403640 0.628825 0.173390
O O3 0.463900 0.809329 0.089269
O O4 0.410861 0.624283 0.000000
O O5 0.392128 0.999522 0.174799
O O6 0.324410 0.214278 0.176089
O O7 0.222262 0.041479 0.265714
O O8 0.395804 0.107824 0.321939
O O9 0.225236 0.375441 0.908113
O O10 0.329277 0.238585 0.000000
O O11 0.099293 0.202573 0.332709
O O12 0.000000 0.000000 0.282225
O O13 0.599634 0.913471 0.500000
O O14 0.743136 0.823432 0.413531
O O15 0.674848 0.081436 0.404436
O O16 0.894687 0.755805 0.500000
O O17 0.102199 0.490094 0.000000
#
# Coordination Sequence:
#
# PCOD9426926 Si02
#       7
#     8   8   8   8   8   8   8
#     4  10  21  37  56  80 121 163 204 257 314 372
#     4  11  21  34  60  83 118 157 204 257 314 372
#     4  10  21  37  56  83 117 158 205 254 310 373
#     4  11  22  36  56  90 121 160 208 259 316 377
#     4   9  19  35  60  92 123 159 206 257 313 377
#     4   9  19  38  62  91 126 162 205 260 318 374
#     4  10  20  35  55  81 115 154 202 252 306 370
#
# _framework density 24.960788000000001
#
# number of rings (size 3 to 8) (size 9 to 14) (size 15 to 20)
#    0.000    2.000    1.429    2.143    2.000    1.714 
#    0.000    2.143    0.000    0.857    0.000    3.000 
#    0.000    0.000    0.000    0.000    0.000    0.000 
#
# Total GULP energy -311896.343701 kJ/mol
# GULP energy per Si atom -5569.577566 kJ/mol
# Density = 2.490398 g / cm^3
# Si number density = 24.960788 Si / 1000 Ang^3
#
#
#
# Elastic Constant Matrix: (Units=GPa)
#
#
# Indices 1 2 3 4 5 6 
#
# 1 40.0479 6.8587 28.6166 0.0000 0.0000 0.0000
# 2 6.8587 50.4923 51.0198 0.0000 0.0000 0.0000
# 3 28.6166 51.0198 286.5973 0.0000 0.0000 0.0000
# 4 0.0000 0.0000 0.0000 44.1651 0.0000 0.0000
# 5 0.0000 0.0000 0.0000 0.0000 3.7008 0.0000
# 6 0.0000 0.0000 0.0000 0.0000 0.0000 34.5217
#
#
#
# Elastic Compliance Matrix: (Units=1/GPa)
#
#
# Indices 1 2 3 4 5 6 
#
# 1 0.026943 -0.001148 -0.002486 0.000000 0.000000 0.000000
# 2 -0.001148 0.024198 -0.004193 0.000000 0.000000 0.000000
# 3 -0.002486 -0.004193 0.004484 0.000000 0.000000 0.000000
# 4 0.000000 0.000000 0.000000 0.022642 0.000000 0.000000
# 5 0.000000 0.000000 0.000000 0.000000 0.270208 0.000000
# 6 0.000000 0.000000 0.000000 0.000000 0.000000 0.028967
#
#
# Mechanical properties :
#
#
# Convention : Reuss Voigt Hill
#
# Bulk Modulus (GPa) = 25.01823 61.12531 43.07177
# Shear Modulus (GPa) = 12.30255 35.85370 24.07813
#
# Velocity S-wave (km/s) = 2.22249 3.79410 3.10923
# Velocity P-wave (km/s) = 4.07808 6.61327 5.49391
#
# Compressibility (1/GPa) = 0.03997085
#
# Stress axis : x y z
#
# Youngs Moduli (GPa) = 37.11535 41.32612 223.02149
#
# Poissons Ratio (x) = 0.04744 0.55441
# Poissons Ratio (y) = 0.04261 0.93514
# Poissons Ratio (z) = 0.09226 0.17328
#
# Static dielectric constant tensor:
#      x y z
#    x 2.017480 0.000000 0.000000 
#    y 0.000000 2.136550 0.000000 
#    z 0.000000 0.000000 1.945080 
# 
# From -- ./inp_files/18977.got.cif
#   From: 2010.05.17/outbox.cif.g08.bks.cpg/sg55_10_cif.got.tgz:18977.got - 2010.06.03 13:27:54.
