data_PCOD9426121
_publ_section_title
;
Structure prediction by ZEFSAII (Michael W. Deem and Ramdas Pophale) SiO2 
 PCOD9426121
Probable space group: P B A M
;
_chemical_formula_sum "Si O2"
_cell_formula_units_Z 40
_cell_length_a 15.568643
_cell_length_b 9.364648
_cell_length_c 12.226587
_cell_angle_alpha 90.000000
_cell_angle_beta 90.000000
_cell_angle_gamma 90.000000
_cell_volume 1782.573559
_symmetry_space_group_name_H-M "P B A M"
_symmetry_group_IT_number 55
_symmetry_cell_setting 'orthorhombic'
loop_
_space_group_symop_operation_xyz
x,y,z
-x,-y,z
1/2+x,1/2-y,-z
1/2-x,1/2+y,-z
-x,-y,-z
x,y,-z
1/2-x,1/2+y,z
1/2+x,1/2-y,z
loop_
_atom_site_type_symbol
_atom_site_label
_atom_site_fract_x
_atom_site_fract_y
_atom_site_fract_z
Si Si1 0.286463 0.615683 0.778985
Si Si2 0.105943 0.594163 0.877571
Si Si3 0.426949 0.905990 0.336403
Si Si4 0.524639 0.334562 0.203619
Si Si5 0.764870 0.134081 0.377676
O O1 0.208066 0.614646 0.862943
O O2 0.374889 0.668625 0.833729
O O3 0.306240 0.468983 0.713528
O O4 0.248458 0.714909 0.681575
O O5 0.085945 0.477052 0.784514
O O6 0.047813 0.736117 0.854815
O O7 0.089239 0.544686 0.000000
O O8 0.462317 0.746076 0.320167
O O9 0.334186 0.914653 0.387182
O O10 0.500000 0.000000 0.388296
O O11 0.500000 0.500000 0.205139
O O12 0.802849 0.137124 0.500000
#
# Coordination Sequence:
#
# PCOD9426121 Si02
#       5
#     8   8   8   8   8
#     4  10  21  38  58  86 120 151 193 246 288 343
#     4  10  21  38  59  81 112 158 199 232 285 351
#     4   8  18  35  54  77 109 148 192 238 279 341
#     4  10  20  36  57  83 117 148 185 241 295 337
#     4  10  19  34  58  83 112 153 192 234 292 345
#
# _framework density 22.439467
#
# number of rings (size 3 to 8) (size 9 to 14) (size 15 to 20)
#    0.000    2.400    0.000    1.800    0.000    5.200 
#    0.000   14.000    0.000   29.400    0.000    0.000 
#    0.000    0.000    0.000    0.000    0.000    0.000 
#
# Total GULP energy -222733.751281 kJ/mol
# GULP energy per Si atom -5568.343782 kJ/mol
# Density = 2.238839 g / cm^3
# Si number density = 22.439467 Si / 1000 Ang^3
#
#
#
# Elastic Constant Matrix: (Units=GPa)
#
#
# Indices 1 2 3 4 5 6 
#
# 1 91.2292 6.1822 25.8740 0.0000 0.0000 0.0000
# 2 6.1822 108.2730 24.5445 0.0000 0.0000 0.0000
# 3 25.8740 24.5445 125.1863 0.0000 0.0000 0.0000
# 4 0.0000 0.0000 0.0000 -2.2072 0.0000 0.0000
# 5 0.0000 0.0000 0.0000 0.0000 -23.9801 0.0000
# 6 0.0000 0.0000 0.0000 0.0000 0.0000 24.2708
#
#
#
# Elastic Compliance Matrix: (Units=1/GPa)
#
#
# Indices 1 2 3 4 5 6 
#
# 1 0.011646 -0.000125 -0.002382 0.000000 0.000000 0.000000
# 2 -0.000125 0.009667 -0.001870 0.000000 0.000000 0.000000
# 3 -0.002382 -0.001870 0.008847 0.000000 0.000000 0.000000
# 4 0.000000 0.000000 0.000000 -0.453072 0.000000 0.000000
# 5 0.000000 0.000000 0.000000 0.000000 -0.041701 0.000000
# 6 0.000000 0.000000 0.000000 0.000000 0.000000 0.041202
#
#
# Mechanical properties :
#
#
# Convention : Reuss Voigt Hill
#
# Bulk Modulus (GPa) = 46.71633 48.65443 47.68538
# Shear Modulus (GPa) = -12.26924 17.48922 2.60999
#
# Velocity S-wave (km/s) = -2.34085 2.79479 1.07965
# Velocity P-wave (km/s) = 3.68211 5.66958 4.78027
#
# Compressibility (1/GPa) = 0.02140579
#
# Stress axis : x y z
#
# Youngs Moduli (GPa) = 85.86951 103.44643 113.03191
#
# Poissons Ratio (x) = 0.01292 0.26930
# Poissons Ratio (y) = 0.01072 0.21131
# Poissons Ratio (z) = 0.20458 0.19339
#
# Static dielectric constant tensor:
#      x y z
#    x 1.880910 0.000000 0.000000 
#    y 0.000000 1.890900 0.000000 
#    z 0.000000 0.000000 1.834480 
# 
# From -- ./inp_files/15206.got.cif
#   From: 2010.05.17/outbox.cif.g08.bks.cpg/sg55_8_cif.got.tgz:15206.got - 2010.06.03 13:27:54.
