data_PCOD9426783
_publ_section_title
;
Structure prediction by ZEFSAII (Michael W. Deem and Ramdas Pophale) SiO2 
 PCOD9426783
Probable space group: P B A M
;
_chemical_formula_sum "Si O2"
_cell_formula_units_Z 56
_cell_length_a 22.275624
_cell_length_b 14.925964
_cell_length_c 8.870201
_cell_angle_alpha 90.000000
_cell_angle_beta 90.000000
_cell_angle_gamma 90.000000
_cell_volume 2949.210216
_symmetry_space_group_name_H-M "P B A M"
_symmetry_group_IT_number 55
_symmetry_cell_setting 'orthorhombic'
loop_
_space_group_symop_operation_xyz
x,y,z
-x,-y,z
1/2+x,1/2-y,-z
1/2-x,1/2+y,-z
-x,-y,-z
x,y,-z
1/2-x,1/2+y,z
1/2+x,1/2-y,z
loop_
_atom_site_type_symbol
_atom_site_label
_atom_site_fract_x
_atom_site_fract_y
_atom_site_fract_z
Si Si1 0.930638 0.486088 0.817840
Si Si2 0.119099 0.695605 0.677891
Si Si3 0.724384 0.673836 0.319926
Si Si4 0.540939 0.627841 0.324336
Si Si5 0.354165 0.477131 0.177030
Si Si6 0.855208 0.659750 0.180759
Si Si7 0.414197 0.652096 0.179672
O O1 0.901891 0.393731 0.760508
O O2 0.889675 0.570120 0.769019
O O3 0.000000 0.500000 0.768239
O O4 0.931215 0.484623 0.000000
O O5 0.125766 0.676233 0.500000
O O6 0.180505 0.744691 0.731789
O O7 0.068448 0.772565 0.693633
O O8 0.725613 0.677557 0.500000
O O9 0.692946 0.581315 0.269335
O O10 0.790647 0.674405 0.254134
O O11 0.548077 0.602400 0.500000
O O12 0.581333 0.564638 0.220121
O O13 0.472661 0.627196 0.273684
O O14 0.360654 0.582091 0.212204
O O15 0.342037 0.465944 0.000000
O O16 0.895206 0.746888 0.212511
O O17 0.847389 0.654275 0.000000
O O18 0.427183 0.644193 0.000000
#
# Coordination Sequence:
#
# PCOD9426783 Si02
#       7
#     8   8   8   8   8   8   8
#     4  10  21  37  59  86 113 145 187 233 281 332
#     4   9  20  37  56  80 110 145 184 225 272 329
#     4  10  22  40  58  80 110 144 185 229 278 333
#     4  10  20  34  54  83 116 146 178 219 269 325
#     4  10  20  35  57  83 110 143 182 222 267 322
#     4  10  22  39  57  80 111 145 185 232 279 330
#     4  10  21  36  55  80 110 144 181 222 270 324
#
# _framework density 18.988133999999999
#
# number of rings (size 3 to 8) (size 9 to 14) (size 15 to 20)
#    0.000    2.143    0.000    3.429    0.000   10.000 
#    0.000    4.286    0.000    0.000    0.000    0.000 
#    0.000    0.000    0.000    0.000    0.000    0.000 
#
# Total GULP energy -312634.308764 kJ/mol
# GULP energy per Si atom -5582.755514 kJ/mol
# Density = 1.894492 g / cm^3
# Si number density = 18.988134 Si / 1000 Ang^3
#
#
#
# Elastic Constant Matrix: (Units=GPa)
#
#
# Indices 1 2 3 4 5 6 
#
# 1 53.7270 -4.2489 3.4764 0.0000 0.0000 0.0000
# 2 -4.2489 84.2984 11.5751 0.0000 0.0000 0.0000
# 3 3.4764 11.5751 4.0184 0.0000 0.0000 0.0000
# 4 0.0000 0.0000 0.0000 17.2144 0.0000 0.0000
# 5 0.0000 0.0000 0.0000 0.0000 11.5436 0.0000
# 6 0.0000 0.0000 0.0000 0.0000 0.0000 9.2074
#
#
#
# Elastic Compliance Matrix: (Units=1/GPa)
#
#
# Indices 1 2 3 4 5 6 
#
# 1 0.021401 0.005990 -0.035770 0.000000 0.000000 0.000000
# 2 0.005990 0.021302 -0.066542 0.000000 0.000000 0.000000
# 3 -0.035770 -0.066542 0.471479 0.000000 0.000000 0.000000
# 4 0.000000 0.000000 0.000000 0.058091 0.000000 0.000000
# 5 0.000000 0.000000 0.000000 0.000000 0.086628 0.000000
# 6 0.000000 0.000000 0.000000 0.000000 0.000000 0.108608
#
#
# Mechanical properties :
#
#
# Convention : Reuss Voigt Hill
#
# Bulk Modulus (GPa) = 3.11005 18.18325 10.64665
# Shear Modulus (GPa) = 4.68457 16.34247 10.51352
#
# Velocity S-wave (km/s) = 1.57241 2.93690 2.35561
# Velocity P-wave (km/s) = 2.22218 4.59319 3.60801
#
# Compressibility (1/GPa) = 0.32153815
#
# Stress axis : x y z
#
# Youngs Moduli (GPa) = 46.72715 46.94491 2.12098
#
# Poissons Ratio (x) = -0.28121 0.07587
# Poissons Ratio (y) = -0.27991 0.14114
# Poissons Ratio (z) = 1.67142 3.12383
#
# Static dielectric constant tensor:
#      x y z
#    x 1.640690 0.000000 0.000000 
#    y 0.000000 1.664250 0.000000 
#    z 0.000000 0.000000 1.645050 
# 
# From -- ./inp_files/6172.got.cif
#   From: 2010.05.17/outbox.cif.g08.bks.cpg/sg55_4_cif.got.tgz:6172.got - 2010.06.03 13:27:54.
