data_PCOD9426750
_publ_section_title
;
Structure prediction by ZEFSAII (Michael W. Deem and Ramdas Pophale) SiO2 
 PCOD9426750
Probable space group: P B A M
;
_chemical_formula_sum "Si O2"
_cell_formula_units_Z 64
_cell_length_a 35.495096
_cell_length_b 11.172494
_cell_length_c 9.343781
_cell_angle_alpha 90.000000
_cell_angle_beta 90.000000
_cell_angle_gamma 90.000000
_cell_volume 3705.451524
_symmetry_space_group_name_H-M "P B A M"
_symmetry_group_IT_number 55
_symmetry_cell_setting 'orthorhombic'
loop_
_space_group_symop_operation_xyz
x,y,z
-x,-y,z
1/2+x,1/2-y,-z
1/2-x,1/2+y,-z
-x,-y,-z
x,y,-z
1/2-x,1/2+y,z
1/2+x,1/2-y,z
loop_
_atom_site_type_symbol
_atom_site_label
_atom_site_fract_x
_atom_site_fract_y
_atom_site_fract_z
Si Si1 0.771692 0.877611 0.327546
Si Si2 0.582255 0.243856 0.666446
Si Si3 0.640156 0.624907 0.168275
Si Si4 0.005579 0.141009 0.664753
Si Si5 0.544414 0.985236 0.335050
Si Si6 0.936206 0.257789 0.170875
Si Si7 0.218567 0.847444 0.672033
Si Si8 0.149892 0.154046 0.167428
O O1 0.775749 0.873361 0.500000
O O2 0.742266 0.771817 0.287953
O O3 0.810803 0.844362 0.251366
O O4 0.764206 0.019373 0.290963
O O5 0.591082 0.272187 0.500000
O O6 0.547565 0.327379 0.715097
O O7 0.565218 0.111482 0.673466
O O8 0.618921 0.261902 0.761018
O O9 0.602229 0.691429 0.215537
O O10 0.677489 0.657625 0.256057
O O11 0.634957 0.482256 0.181024
O O12 0.646470 0.651653 0.000000
O O13 0.002925 0.186243 0.500000
O O14 0.972986 0.198882 0.758445
O O15 0.000000 0.000000 0.663837
O O16 0.546914 0.942610 0.500000
O O17 0.500000 0.000000 0.302083
O O18 0.563280 0.892177 0.228786
O O19 0.938856 0.252105 0.000000
O O20 0.214854 0.846172 0.500000
O O21 0.155432 0.179969 0.000000
#
# Coordination Sequence:
#
# PCOD9426750 Si02
#       8
#     8   8   8   8   8   8   8   8
#     4   9  18  35  57  82 111 140 175 220 267 316
#     4  10  20  35  54  76 103 137 176 222 269 310
#     4   9  20  37  54  77 111 144 173 214 265 315
#     4  10  20  34  54  78 103 135 178 223 266 318
#     4  10  20  38  57  72 101 142 183 224 268 320
#     4  11  22  35  53  77 108 140 176 222 270 319
#     4   9  18  34  58  83 108 140 179 221 264 317
#     4  10  20  35  56  80 108 142 177 213 261 319
#
# _framework density 17.271850000000001
#
# number of rings (size 3 to 8) (size 9 to 14) (size 15 to 20)
#    0.000    2.250    1.250    1.500    0.000    3.500 
#    2.250    0.000    0.000    0.000    0.000    0.000 
#    0.000    0.000    0.000    0.000    0.000    0.000 
#
# Total GULP energy -356850.619260 kJ/mol
# GULP energy per Si atom -5575.790926 kJ/mol
# Density = 1.723254 g / cm^3
# Si number density = 17.271850 Si / 1000 Ang^3
#
#
#
# Elastic Constant Matrix: (Units=GPa)
#
#
# Indices 1 2 3 4 5 6 
#
# 1 54.7666 10.3195 25.6308 0.0000 0.0000 0.0000
# 2 10.3195 32.3811 14.9016 0.0000 0.0000 0.0000
# 3 25.6308 14.9016 30.5907 0.0000 0.0000 0.0000
# 4 0.0000 0.0000 0.0000 23.1696 0.0000 0.0000
# 5 0.0000 0.0000 0.0000 0.0000 21.1765 0.0000
# 6 0.0000 0.0000 0.0000 0.0000 0.0000 34.2514
#
#
#
# Elastic Compliance Matrix: (Units=1/GPa)
#
#
# Indices 1 2 3 4 5 6 
#
# 1 0.030207 0.002604 -0.026578 0.000000 0.000000 0.000000
# 2 0.002604 0.040030 -0.021682 0.000000 0.000000 0.000000
# 3 -0.026578 -0.021682 0.065520 0.000000 0.000000 0.000000
# 4 0.000000 0.000000 0.000000 0.043160 0.000000 0.000000
# 5 0.000000 0.000000 0.000000 0.000000 0.047222 0.000000
# 6 0.000000 0.000000 0.000000 0.000000 0.000000 0.029196
#
#
# Mechanical properties :
#
#
# Convention : Reuss Voigt Hill
#
# Bulk Modulus (GPa) = 22.49907 24.38250 23.44078
# Shear Modulus (GPa) = 13.83271 20.17860 17.00566
#
# Velocity S-wave (km/s) = 2.83306 3.42174 3.14122
# Velocity P-wave (km/s) = 4.87405 5.45515 5.17276
#
# Compressibility (1/GPa) = 0.04444628
#
# Stress axis : x y z
#
# Youngs Moduli (GPa) = 33.10479 24.98122 15.26246
#
# Poissons Ratio (x) = -0.06506 0.40565
# Poissons Ratio (y) = -0.08622 0.33092
# Poissons Ratio (z) = 0.87986 0.54164
#
# Static dielectric constant tensor:
#      x y z
#    x 1.555350 0.000000 0.000000 
#    y 0.000000 1.612170 0.000000 
#    z 0.000000 0.000000 1.578990 
# 
# From -- ./inp_files/10809.got.cif
#   From: 2010.05.17/outbox.cif.g08.bks.cpg/sg55_6_cif.got.tgz:10809.got - 2010.06.03 13:27:54.
