data_PCOD9426559
_publ_section_title
;
Structure prediction by ZEFSAII (Michael W. Deem and Ramdas Pophale) SiO2 
 PCOD9426559
Probable space group: P B A M
;
_chemical_formula_sum "Si O2"
_cell_formula_units_Z 64
_cell_length_a 11.959319
_cell_length_b 34.667241
_cell_length_c 7.675348
_cell_angle_alpha 90.000000
_cell_angle_beta 90.000000
_cell_angle_gamma 90.000000
_cell_volume 3182.173138
_symmetry_space_group_name_H-M "P B A M"
_symmetry_group_IT_number 55
_symmetry_cell_setting 'orthorhombic'
loop_
_space_group_symop_operation_xyz
x,y,z
-x,-y,z
1/2+x,1/2-y,-z
1/2-x,1/2+y,-z
-x,-y,-z
x,y,-z
1/2-x,1/2+y,z
1/2+x,1/2-y,z
loop_
_atom_site_type_symbol
_atom_site_label
_atom_site_fract_x
_atom_site_fract_y
_atom_site_fract_z
Si Si1 0.024524 0.642000 0.204527
Si Si2 0.407195 0.553377 0.212743
Si Si3 0.886135 0.715106 0.788470
Si Si4 0.346438 0.468318 0.790233
Si Si5 0.334288 0.329377 0.294227
Si Si6 0.226035 0.128958 0.214542
Si Si7 0.423544 0.699061 0.796952
Si Si8 0.808650 0.599086 0.294965
O O1 0.969246 0.681355 0.276891
O O2 0.930023 0.609209 0.221304
O O3 0.145569 0.630521 0.274156
O O4 0.041990 0.649176 0.000000
O O5 0.536963 0.551441 0.268666
O O6 0.351331 0.512834 0.266953
O O7 0.340592 0.590869 0.271724
O O8 0.408007 0.553724 0.000000
O O9 0.761345 0.702425 0.737745
O O10 0.915350 0.757768 0.723425
O O11 0.391958 0.785427 0.000000
O O12 0.241618 0.442917 0.734862
O O13 0.348232 0.468592 0.000000
O O14 0.353443 0.333534 0.500000
O O15 0.451392 0.317298 0.213931
O O16 0.280183 0.369211 0.224448
O O17 0.160893 0.167135 0.275245
O O18 0.223647 0.128185 0.000000
O O19 0.393247 0.703006 0.000000
O O20 0.817465 0.606126 0.500000
#
# Coordination Sequence:
#
# PCOD9426559 Si02
#       8
#     8   8   8   8   8   8   8   8
#     4   9  18  33  52  72  97 132 170 207 248 301
#     4   8  15  28  48  78 107 129 159 206 256 304
#     4   9  19  33  52  75  99 128 168 213 253 292
#     4   9  16  29  53  78 101 129 165 208 254 301
#     4  10  21  35  50  71 102 134 167 206 248 302
#     4   9  17  30  50  76 103 130 163 206 257 305
#     4  10  20  32  54  80 102 129 165 214 260 301
#     4  10  20  34  51  72  99 133 171 209 249 294
#
# _framework density 20.112044000000001
#
# number of rings (size 3 to 8) (size 9 to 14) (size 15 to 20)
#    0.000    2.750    0.000    2.250    1.750    3.000 
#    0.000    2.500    0.000    6.000    0.000    0.000 
#    0.000    0.000    0.000    0.000    0.000    0.000 
#
# Total GULP energy -357076.886197 kJ/mol
# GULP energy per Si atom -5579.326347 kJ/mol
# Density = 2.006627 g / cm^3
# Si number density = 20.112044 Si / 1000 Ang^3
#
#
#
# Elastic Constant Matrix: (Units=GPa)
#
#
# Indices 1 2 3 4 5 6 
#
# 1 109.7424 68.5948 -6.3334 0.0000 0.0000 0.0000
# 2 68.5948 107.6049 5.3248 0.0000 0.0000 0.0000
# 3 -6.3334 5.3248 29.2572 0.0000 0.0000 0.0000
# 4 0.0000 0.0000 0.0000 -11.0502 0.0000 0.0000
# 5 0.0000 0.0000 0.0000 0.0000 -208.3099 0.0000
# 6 0.0000 0.0000 0.0000 0.0000 0.0000 18.2537
#
#
#
# Elastic Compliance Matrix: (Units=1/GPa)
#
#
# Indices 1 2 3 4 5 6 
#
# 1 0.015936 -0.010423 0.005347 0.000000 0.000000 0.000000
# 2 -0.010423 0.016195 -0.005204 0.000000 0.000000 0.000000
# 3 0.005347 -0.005204 0.036284 0.000000 0.000000 0.000000
# 4 0.000000 0.000000 0.000000 -0.090496 0.000000 0.000000
# 5 0.000000 0.000000 0.000000 0.000000 -0.004801 0.000000
# 6 0.000000 0.000000 0.000000 0.000000 0.000000 0.054783
#
#
# Mechanical properties :
#
#
# Convention : Reuss Voigt Hill
#
# Bulk Modulus (GPa) = 20.89664 42.41964 31.65814
# Shear Modulus (GPa) = 77.62288 -28.28673 24.66807
#
# Velocity S-wave (km/s) = 6.21924 -3.75434 3.50599
# Velocity P-wave (km/s) = 7.87304 1.53101 5.67136
#
# Compressibility (1/GPa) = 0.04785457
#
# Stress axis : x y z
#
# Youngs Moduli (GPa) = 62.75154 61.74656 27.56021
#
# Poissons Ratio (x) = 0.64360 -0.14736
# Poissons Ratio (y) = 0.65407 0.14342
# Poissons Ratio (z) = -0.33552 0.32132
#
# Static dielectric constant tensor:
#      x y z
#    x 1.678050 0.000000 0.000000 
#    y 0.000000 1.715020 0.000000 
#    z 0.000000 0.000000 1.735350 
# 
# From -- ./inp_files/4570.got.cif
#   From: 2010.05.17/outbox.cif.g08.bks.cpg/sg55_3_cif.got.tgz:4570.got - 2010.06.03 13:27:54.
