data_PCOD9426746
_publ_section_title
;
Structure prediction by ZEFSAII (Michael W. Deem and Ramdas Pophale) SiO2 
 PCOD9426746
Probable space group: P B A M
;
_chemical_formula_sum "Si O2"
_cell_formula_units_Z 64
_cell_length_a 25.335777
_cell_length_b 15.250971
_cell_length_c 7.843524
_cell_angle_alpha 90.000000
_cell_angle_beta 90.000000
_cell_angle_gamma 90.000000
_cell_volume 3030.700027
_symmetry_space_group_name_H-M "P B A M"
_symmetry_group_IT_number 55
_symmetry_cell_setting 'orthorhombic'
loop_
_space_group_symop_operation_xyz
x,y,z
-x,-y,z
1/2+x,1/2-y,-z
1/2-x,1/2+y,-z
-x,-y,-z
x,y,-z
1/2-x,1/2+y,z
1/2+x,1/2-y,z
loop_
_atom_site_type_symbol
_atom_site_label
_atom_site_fract_x
_atom_site_fract_y
_atom_site_fract_z
Si Si1 0.371446 0.945912 0.795592
Si Si2 0.739625 0.136545 0.299094
Si Si3 0.734822 0.338402 0.799631
Si Si4 0.554888 0.747840 0.298830
Si Si5 0.669591 0.503556 0.702087
Si Si6 0.516127 0.095491 0.703182
Si Si7 0.352618 0.138315 0.793731
Si Si8 0.552584 0.550814 0.290453
O O1 0.315297 0.913746 0.729548
O O2 0.421760 0.892245 0.733037
O O3 0.379127 0.046963 0.740542
O O4 0.369836 0.943423 0.000000
O O5 0.748365 0.148372 0.500000
O O6 0.731452 0.233912 0.224815
O O7 0.787855 0.075820 0.229880
O O8 0.691980 0.405247 0.725571
O O9 0.792733 0.363233 0.731646
O O10 0.734311 0.356534 0.000000
O O11 0.543441 0.742473 0.500000
O O12 0.517839 0.824252 0.224670
O O13 0.614521 0.780674 0.275300
O O14 0.548011 0.650977 0.230177
O O15 0.667365 0.519725 0.500000
O O16 0.609738 0.514563 0.766943
O O17 0.506440 0.092518 0.500000
O O18 0.500000 0.000000 0.774991
O O19 0.352582 0.143173 0.000000
O O20 0.500000 0.500000 0.236645
O O21 0.553118 0.549111 0.500000
#
# Coordination Sequence:
#
# PCOD9426746 Si02
#       8
#     8   8   8   8   8   8   8   8
#     4  11  22  37  57  83 118 159 197 239 300 362
#     4  11  23  39  60  89 122 155 199 250 300 356
#     4  11  23  39  60  87 121 159 199 243 301 364
#     4  10  20  35  59  85 115 156 202 249 297 352
#     4  10  21  38  62  90 117 152 200 248 297 352
#     4  10  20  34  53  84 119 154 196 244 297 351
#     4  10  21  36  56  83 116 155 197 241 295 355
#     4   9  19  37  60  86 114 148 192 243 293 344
#
# _framework density 21.117235000000001
#
# number of rings (size 3 to 8) (size 9 to 14) (size 15 to 20)
#    0.000    1.750    2.500    1.875    0.000    4.750 
#    0.000    3.125    0.000    1.500    0.000    0.000 
#    0.000    0.000    0.000    0.000    0.000    0.000 
#
# Total GULP energy -357372.679952 kJ/mol
# GULP energy per Si atom -5583.948124 kJ/mol
# Density = 2.106917 g / cm^3
# Si number density = 21.117235 Si / 1000 Ang^3
#
#
#
# Elastic Constant Matrix: (Units=GPa)
#
#
# Indices 1 2 3 4 5 6 
#
# 1 168.1643 86.0001 -2.6001 0.0000 0.0000 0.0000
# 2 86.0001 141.5478 3.2334 0.0000 0.0000 0.0000
# 3 -2.6001 3.2334 19.5981 0.0000 0.0000 0.0000
# 4 0.0000 0.0000 0.0000 0.0941 0.0000 0.0000
# 5 0.0000 0.0000 0.0000 0.0000 -7.1819 0.0000
# 6 0.0000 0.0000 0.0000 0.0000 0.0000 24.6973
#
#
#
# Elastic Compliance Matrix: (Units=1/GPa)
#
#
# Indices 1 2 3 4 5 6 
#
# 1 0.008707 -0.005337 0.002036 0.000000 0.000000 0.000000
# 2 -0.005337 0.010362 -0.002418 0.000000 0.000000 0.000000
# 3 0.002036 -0.002418 0.051694 0.000000 0.000000 0.000000
# 4 0.000000 0.000000 0.000000 10.626615 0.000000 0.000000
# 5 0.000000 0.000000 0.000000 0.000000 -0.139239 0.000000
# 6 0.000000 0.000000 0.000000 0.000000 0.000000 0.040490
#
#
# Mechanical properties :
#
#
# Convention : Reuss Voigt Hill
#
# Bulk Modulus (GPa) = 16.85586 55.84188 36.34887
# Shear Modulus (GPa) = 0.47037 19.70035 10.08536
#
# Velocity S-wave (km/s) = 0.47247 3.05766 2.18775
# Velocity P-wave (km/s) = 2.88045 6.24235 4.86127
#
# Compressibility (1/GPa) = 0.05932656
#
# Stress axis : x y z
#
# Youngs Moduli (GPa) = 114.84609 96.50222 19.34447
#
# Poissons Ratio (x) = 0.51501 -0.03938
# Poissons Ratio (y) = 0.61291 0.04677
# Poissons Ratio (z) = -0.23379 0.23331
#
# Static dielectric constant tensor:
#      x y z
#    x 1.756540 0.000000 0.000000 
#    y 0.000000 1.782020 0.000000 
#    z 0.000000 0.000000 1.757490 
# 
# From -- ./inp_files/6673.got.cif
#   From: 2010.05.17/outbox.cif.g08.bks.cpg/sg55_4_cif.got.tgz:6673.got - 2010.06.03 13:27:54.
