data_PCOD9426938
_publ_section_title
;
Structure prediction by ZEFSAII (Michael W. Deem and Ramdas Pophale) SiO2 
 PCOD9426938
Probable space group: P B A M
;
_chemical_formula_sum "Si O2"
_cell_formula_units_Z 56
_cell_length_a 10.159479
_cell_length_b 16.545011
_cell_length_c 15.624663
_cell_angle_alpha 90.000000
_cell_angle_beta 90.000000
_cell_angle_gamma 90.000000
_cell_volume 2626.329164
_symmetry_space_group_name_H-M "P B A M"
_symmetry_group_IT_number 55
_symmetry_cell_setting 'orthorhombic'
loop_
_space_group_symop_operation_xyz
x,y,z
-x,-y,z
1/2+x,1/2-y,-z
1/2-x,1/2+y,-z
-x,-y,-z
x,y,-z
1/2-x,1/2+y,z
1/2+x,1/2-y,z
loop_
_atom_site_type_symbol
_atom_site_label
_atom_site_fract_x
_atom_site_fract_y
_atom_site_fract_z
Si Si1 0.950069 0.667830 0.226833
Si Si2 0.316651 0.283473 0.749409
Si Si3 0.354464 0.467576 0.773392
Si Si4 0.297863 0.557960 0.401095
Si Si5 0.479972 0.309355 0.407272
Si Si6 0.995064 0.619043 0.405807
Si Si7 0.860348 0.543467 0.903942
O O1 0.836388 0.733920 0.242390
O O2 0.904901 0.626456 0.140434
O O3 0.089803 0.710819 0.223172
O O4 0.942980 0.605477 0.308336
O O5 0.351663 0.370728 0.789563
O O6 0.355055 0.303863 0.652698
O O7 0.500000 0.500000 0.790780
O O8 0.319976 0.494055 0.675464
O O9 0.243019 0.498349 0.839296
O O10 0.322226 0.530794 0.500000
O O11 0.402683 0.630122 0.382951
O O12 0.148633 0.592708 0.400401
O O13 0.435492 0.335702 0.500000
O O14 0.523199 0.215768 0.410804
O O15 0.946241 0.587755 0.500000
O O16 0.000000 0.500000 0.907650
O O17 0.806914 0.551481 0.000000
#
# Coordination Sequence:
#
# PCOD9426938 Si02
#       7
#     8   8   8   8   8   8   8
#     4  10  22  38  60  88 125 158 207 259 316 376
#     4  10  22  36  56  89 118 160 202 257 311 373
#     4  11  22  38  64  94 129 163 211 264 320 374
#     4  10  20  35  55  88 130 175 217 261 311 370
#     4   9  18  29  48  77 117 161 208 251 293 350
#     4   9  19  32  53  84 122 168 215 258 307 361
#     4  10  23  45  69  92 119 159 205 252 319 399
#
# _framework density 21.322535999999999
#
# number of rings (size 3 to 8) (size 9 to 14) (size 15 to 20)
#    0.000    2.143    1.429    0.857    8.000    2.857 
#    0.000    5.000    0.000    7.714    0.000    0.000 
#    0.000    0.000    0.000    0.000    0.000    0.000 
#
# Total GULP energy -311977.138968 kJ/mol
# GULP energy per Si atom -5571.020339 kJ/mol
# Density = 2.127401 g / cm^3
# Si number density = 21.322536 Si / 1000 Ang^3
#
#
#
# Elastic Constant Matrix: (Units=GPa)
#
#
# Indices 1 2 3 4 5 6 
#
# 1 83.4228 8.7833 34.5056 0.0000 0.0000 0.0000
# 2 8.7833 58.0993 21.9598 0.0000 0.0000 0.0000
# 3 34.5056 21.9598 120.8750 0.0000 0.0000 0.0000
# 4 0.0000 0.0000 0.0000 22.1742 0.0000 0.0000
# 5 0.0000 0.0000 0.0000 0.0000 202.5149 0.0000
# 6 0.0000 0.0000 0.0000 0.0000 0.0000 30.8988
#
#
#
# Elastic Compliance Matrix: (Units=1/GPa)
#
#
# Indices 1 2 3 4 5 6 
#
# 1 0.013614 -0.000633 -0.003771 0.000000 0.000000 0.000000
# 2 -0.000633 0.018510 -0.003182 0.000000 0.000000 0.000000
# 3 -0.003771 -0.003182 0.009928 0.000000 0.000000 0.000000
# 4 0.000000 0.000000 0.000000 0.045097 0.000000 0.000000
# 5 0.000000 0.000000 0.000000 0.000000 0.004938 0.000000
# 6 0.000000 0.000000 0.000000 0.000000 0.000000 0.032364
#
#
# Mechanical properties :
#
#
# Convention : Reuss Voigt Hill
#
# Bulk Modulus (GPa) = 37.20328 43.65494 40.42911
# Shear Modulus (GPa) = 33.65124 64.26081 48.95603
#
# Velocity S-wave (km/s) = 3.97697 5.49572 4.79683
# Velocity P-wave (km/s) = 6.21081 7.79671 7.04850
#
# Compressibility (1/GPa) = 0.02687935
#
# Stress axis : x y z
#
# Youngs Moduli (GPa) = 73.45582 54.02379 100.72813
#
# Poissons Ratio (x) = 0.03418 0.37987
# Poissons Ratio (y) = 0.04647 0.32054
# Poissons Ratio (z) = 0.27702 0.17192
#
# Static dielectric constant tensor:
#      x y z
#    x 1.789140 0.000000 0.000000 
#    y 0.000000 1.862330 0.000000 
#    z 0.000000 0.000000 1.870040 
# 
# From -- ./inp_files/17646.got.cif
#   From: 2010.05.17/outbox.cif.g08.bks.cpg/sg55_9_cif.got.tgz:17646.got - 2010.06.03 13:27:54.
