data_PCOD9426964
_publ_section_title
;
Structure prediction by ZEFSAII (Michael W. Deem and Ramdas Pophale) SiO2 
 PCOD9426964
Probable space group: P B A M
;
_chemical_formula_sum "Si O2"
_cell_formula_units_Z 64
_cell_length_a 29.549367
_cell_length_b 12.760870
_cell_length_c 7.552239
_cell_angle_alpha 90.000000
_cell_angle_beta 90.000000
_cell_angle_gamma 90.000000
_cell_volume 2847.765285
_symmetry_space_group_name_H-M "P B A M"
_symmetry_group_IT_number 55
_symmetry_cell_setting 'orthorhombic'
loop_
_space_group_symop_operation_xyz
x,y,z
-x,-y,z
1/2+x,1/2-y,-z
1/2-x,1/2+y,-z
-x,-y,-z
x,y,-z
1/2-x,1/2+y,z
1/2+x,1/2-y,z
loop_
_atom_site_type_symbol
_atom_site_label
_atom_site_fract_x
_atom_site_fract_y
_atom_site_fract_z
Si Si1 0.440201 0.268677 0.707758
Si Si2 0.158830 0.720387 0.785177
Si Si3 0.702068 0.560866 0.216386
Si Si4 0.878271 0.639419 0.293552
Si Si5 0.201999 0.511132 0.795134
Si Si6 0.049414 0.001370 0.203385
Si Si7 0.018647 0.385831 0.716355
Si Si8 0.135023 0.123241 0.214796
O O1 0.447107 0.288222 0.500000
O O2 0.393371 0.207121 0.731186
O O3 0.434047 0.381738 0.796029
O O4 0.483322 0.203574 0.775295
O O5 0.178332 0.831987 0.723454
O O6 0.188733 0.623700 0.718075
O O7 0.159427 0.719793 0.000000
O O8 0.753649 0.546243 0.277977
O O9 0.673600 0.458452 0.269597
O O10 0.700990 0.566204 0.000000
O O11 0.880345 0.611679 0.500000
O O12 0.842126 0.561350 0.210523
O O13 0.929773 0.631749 0.223815
O O14 0.860768 0.757823 0.273411
O O15 0.213496 0.531696 0.000000
O O16 0.087285 0.076441 0.281509
O O17 0.043605 0.036952 0.000000
O O18 0.000000 0.000000 0.288369
O O19 0.018457 0.382700 0.500000
O O20 0.000000 0.500000 0.768295
O O21 0.134638 0.122412 0.000000
#
# Coordination Sequence:
#
# PCOD9426964 Si02
#       8
#     8   8   8   8   8   8   8   8
#     4  11  21  34  57  85 114 153 195 240 290 352
#     4  10  20  38  61  87 117 148 193 247 293 345
#     4   9  19  37  62  87 111 149 195 241 291 349
#     4  11  23  39  59  86 122 156 190 242 296 346
#     4  10  22  38  63  90 112 149 200 246 292 352
#     4  10  20  35  56  83 115 151 190 240 295 341
#     4   9  19  36  56  78 111 158 201 230 278 350
#     4  10  20  37  60  83 114 154 195 236 284 348
#
# _framework density 22.473763999999999
#
# number of rings (size 3 to 8) (size 9 to 14) (size 15 to 20)
#    0.000    2.000    1.250    2.250    1.750    2.250 
#    0.000    3.125    0.000    4.500    0.000    0.000 
#    0.000    0.000    0.000    0.000    0.000    0.000 
#
# Total GULP energy -357696.012335 kJ/mol
# GULP energy per Si atom -5589.000193 kJ/mol
# Density = 2.242261 g / cm^3
# Si number density = 22.473764 Si / 1000 Ang^3
#
#
#
# Elastic Constant Matrix: (Units=GPa)
#
#
# Indices 1 2 3 4 5 6 
#
# 1 137.8895 34.9986 -1.8583 0.0000 0.0000 0.0000
# 2 34.9986 105.2767 -10.7025 0.0000 0.0000 0.0000
# 3 -1.8583 -10.7025 55.9492 0.0000 0.0000 0.0000
# 4 0.0000 0.0000 0.0000 82.9494 0.0000 0.0000
# 5 0.0000 0.0000 0.0000 0.0000 7.2592 0.0000
# 6 0.0000 0.0000 0.0000 0.0000 0.0000 34.9539
#
#
#
# Elastic Compliance Matrix: (Units=1/GPa)
#
#
# Indices 1 2 3 4 5 6 
#
# 1 0.007924 -0.002659 -0.000245 0.000000 0.000000 0.000000
# 2 -0.002659 0.010580 0.001935 0.000000 0.000000 0.000000
# 3 -0.000245 0.001935 0.018235 0.000000 0.000000 0.000000
# 4 0.000000 0.000000 0.000000 0.012056 0.000000 0.000000
# 5 0.000000 0.000000 0.000000 0.000000 0.137755 0.000000
# 6 0.000000 0.000000 0.000000 0.000000 0.000000 0.028609
#
#
# Mechanical properties :
#
#
# Convention : Reuss Voigt Hill
#
# Bulk Modulus (GPa) = 28.73535 38.22123 33.47829
# Shear Modulus (GPa) = 21.86295 43.47767 32.67031
#
# Velocity S-wave (km/s) = 3.12239 4.40318 3.81689
# Velocity P-wave (km/s) = 5.08065 6.54940 5.86121
#
# Compressibility (1/GPa) = 0.03480034
#
# Stress axis : x y z
#
# Youngs Moduli (GPa) = 126.20172 94.52183 54.83828
#
# Poissons Ratio (x) = 0.25135 0.01346
# Poissons Ratio (y) = 0.33559 -0.10614
# Poissons Ratio (z) = 0.03098 -0.18294
#
# Static dielectric constant tensor:
#      x y z
#    x 1.827230 0.000000 0.000000 
#    y 0.000000 1.801760 0.000000 
#    z 0.000000 0.000000 1.870510 
# 
# From -- ./inp_files/10738.got.cif
#   From: 2010.05.17/outbox.cif.g08.bks.cpg/sg55_6_cif.got.tgz:10738.got - 2010.06.03 13:27:54.
