data_PCOD9426574
_publ_section_title
;
Structure prediction by ZEFSAII (Michael W. Deem and Ramdas Pophale) SiO2 
 PCOD9426574
Probable space group: P B A M
;
_chemical_formula_sum "Si O2"
_cell_formula_units_Z 64
_cell_length_a 28.733995
_cell_length_b 13.198574
_cell_length_c 7.515221
_cell_angle_alpha 90.000000
_cell_angle_beta 90.000000
_cell_angle_gamma 90.000000
_cell_volume 2850.130725
_symmetry_space_group_name_H-M "P B A M"
_symmetry_group_IT_number 55
_symmetry_cell_setting 'orthorhombic'
loop_
_space_group_symop_operation_xyz
x,y,z
-x,-y,z
1/2+x,1/2-y,-z
1/2-x,1/2+y,-z
-x,-y,-z
x,y,-z
1/2-x,1/2+y,z
1/2+x,1/2-y,z
loop_
_atom_site_type_symbol
_atom_site_label
_atom_site_fract_x
_atom_site_fract_y
_atom_site_fract_z
Si Si1 0.426442 0.694315 0.714181
Si Si2 0.688626 0.643702 0.781039
Si Si3 0.163367 0.081637 0.210266
Si Si4 0.956173 0.436326 0.203125
Si Si5 0.118042 0.402287 0.710743
Si Si6 0.708753 0.207849 0.214094
Si Si7 0.520411 0.608007 0.714815
Si Si8 0.902279 0.247709 0.204145
O O1 0.426899 0.696244 0.500000
O O2 0.391349 0.604472 0.764275
O O3 0.404915 0.798512 0.779935
O O4 0.479092 0.682597 0.772792
O O5 0.678462 0.528283 0.720878
O O6 0.739445 0.681349 0.726123
O O7 0.647931 0.719944 0.719505
O O8 0.686980 0.643310 0.000000
O O9 0.189360 0.183169 0.281771
O O10 0.172824 0.079704 0.000000
O O11 0.910395 0.506974 0.204069
O O12 0.936426 0.332372 0.287322
O O13 0.000000 0.500000 0.281802
O O14 0.970854 0.412797 0.000000
O O15 0.110044 0.410925 0.500000
O O16 0.172541 0.381816 0.739497
O O17 0.709412 0.213916 0.000000
O O18 0.500000 0.500000 0.766577
O O19 0.525142 0.608383 0.500000
O O20 0.568652 0.643874 0.792990
O O21 0.894755 0.280432 0.000000
#
# Coordination Sequence:
#
# PCOD9426574 Si02
#       8
#     8   8   8   8   8   8   8   8
#     4   9  18  32  49  71 100 131 163 202 247 296
#     4   9  18  33  52  75 102 131 167 210 258 309
#     4   9  17  30  51  76  98 126 165 205 248 300
#     4  10  21  36  54  78 109 144 180 219 267 322
#     4  10  20  34  53  76 101 132 172 214 256 303
#     4   9  18  33  53  75 100 132 169 211 257 307
#     4  10  20  33  50  73 101 134 169 203 249 309
#     4  10  21  35  52  76 104 135 174 219 263 311
#
# _framework density 22.455112
#
# number of rings (size 3 to 8) (size 9 to 14) (size 15 to 20)
#    0.000    2.500    0.000    1.875    0.000    3.000 
#    0.000    5.000    0.000    3.000    0.000    0.000 
#    0.000    0.000    0.000    0.000    0.000    0.000 
#
# Total GULP energy -357182.497441 kJ/mol
# GULP energy per Si atom -5580.976523 kJ/mol
# Density = 2.240400 g / cm^3
# Si number density = 22.455112 Si / 1000 Ang^3
#
#
#
# Elastic Constant Matrix: (Units=GPa)
#
#
# Indices 1 2 3 4 5 6 
#
# 1 151.1568 46.5305 -3.2840 0.0000 0.0000 0.0000
# 2 46.5305 88.7285 2.7136 0.0000 0.0000 0.0000
# 3 -3.2840 2.7136 63.4648 0.0000 0.0000 0.0000
# 4 0.0000 0.0000 0.0000 -13.3015 0.0000 0.0000
# 5 0.0000 0.0000 0.0000 0.0000 29.5272 0.0000
# 6 0.0000 0.0000 0.0000 0.0000 0.0000 34.5398
#
#
#
# Elastic Compliance Matrix: (Units=1/GPa)
#
#
# Indices 1 2 3 4 5 6 
#
# 1 0.007911 -0.004167 0.000588 0.000000 0.000000 0.000000
# 2 -0.004167 0.013480 -0.000792 0.000000 0.000000 0.000000
# 3 0.000588 -0.000792 0.015821 0.000000 0.000000 0.000000
# 4 0.000000 0.000000 0.000000 -0.075180 0.000000 0.000000
# 5 0.000000 0.000000 0.000000 0.000000 0.033867 0.000000
# 6 0.000000 0.000000 0.000000 0.000000 0.000000 0.028952
#
#
# Mechanical properties :
#
#
# Convention : Reuss Voigt Hill
#
# Bulk Modulus (GPa) = 35.12530 43.91892 39.52211
# Shear Modulus (GPa) = 116.05477 27.31245 71.68361
#
# Velocity S-wave (km/s) = 7.19689 3.49135 5.65618
# Velocity P-wave (km/s) = 9.20525 5.98780 7.76500
#
# Compressibility (1/GPa) = 0.02846951
#
# Stress axis : x y z
#
# Youngs Moduli (GPa) = 126.40598 74.18626 63.20706
#
# Poissons Ratio (x) = 0.30911 -0.03713
# Poissons Ratio (y) = 0.52669 0.05006
# Poissons Ratio (z) = -0.07427 0.05875
#
# Static dielectric constant tensor:
#      x y z
#    x 1.813880 0.000000 0.000000 
#    y 0.000000 1.870640 0.000000 
#    z 0.000000 0.000000 1.852070 
# 
# From -- ./inp_files/4562.got.cif
#   From: 2010.05.17/outbox.cif.g08.bks.cpg/sg55_3_cif.got.tgz:4562.got - 2010.06.03 13:27:54.
