data_PCOD9426751
_publ_section_title
;
Structure prediction by ZEFSAII (Michael W. Deem and Ramdas Pophale) SiO2 
 PCOD9426751
Probable space group: P B A M
;
_chemical_formula_sum "Si O2"
_cell_formula_units_Z 58
_cell_length_a 10.588292
_cell_length_b 28.313314
_cell_length_c 9.632240
_cell_angle_alpha 90.000000
_cell_angle_beta 90.000000
_cell_angle_gamma 90.000000
_cell_volume 2887.645725
_symmetry_space_group_name_H-M "P B A M"
_symmetry_group_IT_number 55
_symmetry_cell_setting 'orthorhombic'
loop_
_space_group_symop_operation_xyz
x,y,z
-x,-y,z
1/2+x,1/2-y,-z
1/2-x,1/2+y,-z
-x,-y,-z
x,y,-z
1/2-x,1/2+y,z
1/2+x,1/2-y,z
loop_
_atom_site_type_symbol
_atom_site_label
_atom_site_fract_x
_atom_site_fract_y
_atom_site_fract_z
Si Si1 0.621811 0.057098 0.340411
Si Si2 0.500000 0.500000 0.000000
Si Si3 0.377553 0.380866 0.341830
Si Si4 0.258904 0.019182 0.151495
Si Si5 0.394946 0.606125 0.162777
Si Si6 0.747388 0.696612 0.161918
Si Si7 0.004298 0.635791 0.162929
Si Si8 0.758962 0.304267 0.833686
O O1 0.582261 0.050605 0.500000
O O2 0.526386 0.089279 0.251393
O O3 0.752221 0.087341 0.340684
O O4 0.661360 0.009212 0.262794
O O5 0.384065 0.499771 0.118819
O O6 0.411356 0.370475 0.500000
O O7 0.491371 0.405909 0.262522
O O8 0.345515 0.333833 0.255905
O O9 0.226853 0.073405 0.186463
O O10 0.323034 0.016423 0.000000
O O11 0.357438 0.660314 0.185859
O O12 0.431828 0.597266 0.000000
O O13 0.881124 0.669688 0.166670
O O14 0.757327 0.750570 0.212516
O O15 0.705587 0.695894 0.000000
O O16 0.118403 0.667922 0.218935
O O17 0.026463 0.623855 0.000000
O O18 0.775753 0.301196 0.000000
#
# Coordination Sequence:
#
# PCOD9426751 Si02
#       8
#     8   2   8   8   8   8   8   8
#     4  10  20  34  54  78 106 142 182 223 263 313
#     4   8  16  28  50  76 106 136 182 204 268 330
#     4  10  21  34  50  78 111 139 176 216 266 324
#     4   9  18  31  52  78 109 139 178 217 268 322
#     4  10  20  34  54  81 111 144 173 224 270 322
#     4   9  18  33  56  80 101 135 173 220 265 314
#     4   9  18  34  55  79 106 137 177 221 266 318
#     4   9  19  34  56  82 107 134 180 224 268 315
#
# _framework density 20.085567000000001
#
# number of rings (size 3 to 8) (size 9 to 14) (size 15 to 20)
#    0.414    2.207    0.000    1.655    1.931    1.655 
#    0.000    4.483    0.000    4.138    0.000    0.000 
#    0.000    0.000    0.000    0.000    0.000    0.000 
#
# Total GULP energy -322992.115839 kJ/mol
# GULP energy per Si atom -5568.829583 kJ/mol
# Density = 2.003985 g / cm^3
# Si number density = 20.085567 Si / 1000 Ang^3
#
#
#
# Elastic Constant Matrix: (Units=GPa)
#
#
# Indices 1 2 3 4 5 6 
#
# 1 47.7963 -0.7591 28.5092 0.0000 0.0000 0.0000
# 2 -0.7591 88.6758 44.1618 0.0000 0.0000 0.0000
# 3 28.5092 44.1618 80.3882 0.0000 0.0000 0.0000
# 4 0.0000 0.0000 0.0000 -1.4535 0.0000 0.0000
# 5 0.0000 0.0000 0.0000 0.0000 9.8765 0.0000
# 6 0.0000 0.0000 0.0000 0.0000 0.0000 8.8694
#
#
#
# Elastic Compliance Matrix: (Units=1/GPa)
#
#
# Indices 1 2 3 4 5 6 
#
# 1 0.029851 0.007610 -0.014767 0.000000 0.000000 0.000000
# 2 0.007610 0.017464 -0.012293 0.000000 0.000000 0.000000
# 3 -0.014767 -0.012293 0.024430 0.000000 0.000000 0.000000
# 4 0.000000 0.000000 0.000000 -0.688006 0.000000 0.000000
# 5 0.000000 0.000000 0.000000 0.000000 0.101250 0.000000
# 6 0.000000 0.000000 0.000000 0.000000 0.000000 0.112747
#
#
# Mechanical properties :
#
#
# Convention : Reuss Voigt Hill
#
# Bulk Modulus (GPa) = 30.44613 40.07602 35.26108
# Shear Modulus (GPa) = -14.18777 13.12172 -0.53303
#
# Velocity S-wave (km/s) = -2.66064 2.55873 -0.51571
# Velocity P-wave (km/s) = 2.39843 5.35961 4.15198
#
# Compressibility (1/GPa) = 0.03284490
#
# Stress axis : x y z
#
# Youngs Moduli (GPa) = 33.49966 57.26017 40.93371
#
# Poissons Ratio (x) = -0.43573 0.60446
# Poissons Ratio (y) = -0.25492 0.50319
# Poissons Ratio (z) = 0.49469 0.70389
#
# Static dielectric constant tensor:
#      x y z
#    x 1.727430 0.000000 0.000000 
#    y 0.000000 1.766800 0.000000 
#    z 0.000000 0.000000 1.651720 
# 
# From -- ./inp_files/4294.got.cif
#   From: 2010.05.17/outbox.cif.g08.bks.cpg/sg55_3_cif.got.tgz:4294.got - 2010.06.03 13:27:54.
