data_PCOD9426617
_publ_section_title
;
Structure prediction by ZEFSAII (Michael W. Deem and Ramdas Pophale) SiO2 
 PCOD9426617
Probable space group: P B A M
;
_chemical_formula_sum "Si O2"
_cell_formula_units_Z 64
_cell_length_a 14.955973
_cell_length_b 25.183169
_cell_length_c 7.500059
_cell_angle_alpha 90.000000
_cell_angle_beta 90.000000
_cell_angle_gamma 90.000000
_cell_volume 2824.813189
_symmetry_space_group_name_H-M "P B A M"
_symmetry_group_IT_number 55
_symmetry_cell_setting 'orthorhombic'
loop_
_space_group_symop_operation_xyz
x,y,z
-x,-y,z
1/2+x,1/2-y,-z
1/2-x,1/2+y,-z
-x,-y,-z
x,y,-z
1/2-x,1/2+y,z
1/2+x,1/2-y,z
loop_
_atom_site_type_symbol
_atom_site_label
_atom_site_fract_x
_atom_site_fract_y
_atom_site_fract_z
Si Si1 0.771659 0.543696 0.216448
Si Si2 0.576867 0.961049 0.291581
Si Si3 0.400103 0.160603 0.719372
Si Si4 0.778828 0.777920 0.702130
Si Si5 0.230592 0.342432 0.798882
Si Si6 0.559557 0.656541 0.798805
Si Si7 0.964125 0.746196 0.298106
Si Si8 0.566364 0.545282 0.781317
O O1 0.833199 0.495506 0.275676
O O2 0.807526 0.602254 0.276453
O O3 0.668852 0.536354 0.275029
O O4 0.772774 0.545801 0.000000
O O5 0.554261 0.953609 0.500000
O O6 0.591058 0.900830 0.222983
O O7 0.500000 0.000000 0.213659
O O8 0.399917 0.162852 0.500000
O O9 0.307710 0.190869 0.777624
O O10 0.486905 0.194716 0.780527
O O11 0.786473 0.798338 0.500000
O O12 0.767835 0.713987 0.703544
O O13 0.879007 0.777461 0.783330
O O14 0.335444 0.354525 0.811592
O O15 0.195159 0.333701 0.000000
O O16 0.540304 0.709455 0.694924
O O17 0.525568 0.601570 0.721562
O O18 0.527453 0.665391 0.000000
O O19 0.937903 0.731411 0.500000
O O20 0.500000 0.500000 0.723735
O O21 0.567226 0.547035 0.000000
#
# Coordination Sequence:
#
# PCOD9426617 Si02
#       8
#     8   8   8   8   8   8   8   8
#     4   9  19  35  54  78 107 137 174 226 275 314
#     4  10  22  38  57  77 104 149 194 230 268 320
#     4   9  19  37  53  75 111 139 173 227 269 310
#     4  10  20  33  55  79 102 138 176 216 270 325
#     4   9  18  33  52  75 105 134 168 219 271 315
#     4   9  17  31  51  75 104 135 170 212 257 310
#     4  10  20  33  52  77 103 137 175 212 266 329
#     4   8  15  30  53  78 105 141 176 208 258 325
#
# _framework density 22.656366999999999
#
# number of rings (size 3 to 8) (size 9 to 14) (size 15 to 20)
#    0.000    2.750    1.250    1.500    1.750    2.250 
#    0.000    3.125    0.000    0.750    0.000    0.000 
#    0.000    0.000    0.000    0.000    0.000    0.000 
#
# Total GULP energy -356294.602643 kJ/mol
# GULP energy per Si atom -5567.103166 kJ/mol
# Density = 2.260480 g / cm^3
# Si number density = 22.656367 Si / 1000 Ang^3
#
#
#
# Elastic Constant Matrix: (Units=GPa)
#
#
# Indices 1 2 3 4 5 6 
#
# 1 89.9107 48.2948 10.3659 0.0000 0.0000 0.0000
# 2 48.2948 171.1481 13.2124 0.0000 0.0000 0.0000
# 3 10.3659 13.2124 57.5344 0.0000 0.0000 0.0000
# 4 0.0000 0.0000 0.0000 8.9348 0.0000 0.0000
# 5 0.0000 0.0000 0.0000 0.0000 -7.1448 0.0000
# 6 0.0000 0.0000 0.0000 0.0000 0.0000 36.1083
#
#
#
# Elastic Compliance Matrix: (Units=1/GPa)
#
#
# Indices 1 2 3 4 5 6 
#
# 1 0.013244 -0.003617 -0.001556 0.000000 0.000000 0.000000
# 2 -0.003617 0.006936 -0.000941 0.000000 0.000000 0.000000
# 3 -0.001556 -0.000941 0.017877 0.000000 0.000000 0.000000
# 4 0.000000 0.000000 0.000000 0.111922 0.000000 0.000000
# 5 0.000000 0.000000 0.000000 0.000000 -0.139961 0.000000
# 6 0.000000 0.000000 0.000000 0.000000 0.000000 0.027694
#
#
# Mechanical properties :
#
#
# Convention : Reuss Voigt Hill
#
# Bulk Modulus (GPa) = 38.71454 51.37106 45.04280
# Shear Modulus (GPa) = 85.39567 24.02767 54.71167
#
# Velocity S-wave (km/s) = 6.14602 3.26011 4.91944
# Velocity P-wave (km/s) = 8.21520 6.07407 7.22439
#
# Compressibility (1/GPa) = 0.02583009
#
# Stress axis : x y z
#
# Youngs Moduli (GPa) = 75.50322 144.16968 55.93691
#
# Poissons Ratio (x) = 0.52150 0.08701
# Poissons Ratio (y) = 0.27311 0.05265
# Poissons Ratio (z) = 0.11745 0.13569
#
# Static dielectric constant tensor:
#      x y z
#    x 1.894220 0.000000 0.000000 
#    y 0.000000 1.921940 0.000000 
#    z 0.000000 0.000000 1.875330 
# 
# From -- ./inp_files/6505.got.cif
#   From: 2010.05.17/outbox.cif.g08.bks.cpg/sg55_4_cif.got.tgz:6505.got - 2010.06.03 13:27:54.
