data_PCOD9426725
_publ_section_title
;
Structure prediction by ZEFSAII (Michael W. Deem and Ramdas Pophale) SiO2 
 PCOD9426725
Probable space group: P B A M
;
_chemical_formula_sum "Si O2"
_cell_formula_units_Z 64
_cell_length_a 35.465532
_cell_length_b 11.140297
_cell_length_c 9.340646
_cell_angle_alpha 90.000000
_cell_angle_beta 90.000000
_cell_angle_gamma 90.000000
_cell_volume 3690.457100
_symmetry_space_group_name_H-M "P B A M"
_symmetry_group_IT_number 55
_symmetry_cell_setting 'orthorhombic'
loop_
_space_group_symop_operation_xyz
x,y,z
-x,-y,z
1/2+x,1/2-y,-z
1/2-x,1/2+y,-z
-x,-y,-z
x,y,-z
1/2-x,1/2+y,z
1/2+x,1/2-y,z
loop_
_atom_site_type_symbol
_atom_site_label
_atom_site_fract_x
_atom_site_fract_y
_atom_site_fract_z
Si Si1 0.566471 0.731853 0.672401
Si Si2 0.640382 0.876384 0.331998
Si Si3 0.272898 0.870814 0.172519
Si Si4 0.543371 0.508254 0.834488
Si Si5 0.148333 0.342707 0.667451
Si Si6 0.218963 0.646760 0.171797
Si Si7 0.421220 0.755174 0.165088
Si Si8 0.510697 0.138942 0.665139
O O1 0.566572 0.728973 0.500000
O O2 0.602925 0.807810 0.717647
O O3 0.566341 0.600810 0.739291
O O4 0.526553 0.790701 0.715757
O O5 0.646630 0.848075 0.500000
O O6 0.678017 0.846439 0.244687
O O7 0.634368 0.019223 0.322478
O O8 0.311758 0.840109 0.252446
O O9 0.243419 0.764793 0.211276
O O10 0.264361 0.012471 0.207643
O O11 0.277802 0.865746 0.000000
O O12 0.500000 0.500000 0.783891
O O13 0.562052 0.378433 0.830570
O O14 0.542341 0.550096 0.000000
O O15 0.152167 0.312436 0.500000
O O16 0.117232 0.264172 0.746910
O O17 0.214897 0.648726 0.000000
O O18 0.453237 0.835982 0.238556
O O19 0.414920 0.789768 0.000000
O O20 0.519074 0.174762 0.500000
O O21 0.500000 0.000000 0.664888
#
# Coordination Sequence:
#
# PCOD9426725 Si02
#       8
#     8   8   8   8   8   8   8   8
#     4  10  20  34  54  77 103 137 178 219 263 315
#     4   9  19  36  56  80 110 140 173 219 267 313
#     4   9  18  35  57  82 112 144 180 220 266 321
#     4  10  21  38  54  71 103 142 179 222 270 316
#     4  10  20  36  58  81 109 142 176 218 268 318
#     4   9  18  34  57  82 110 145 181 218 264 321
#     4  11  22  36  54  76 104 139 179 222 267 316
#     4  10  20  34  53  77 105 137 173 217 267 317
#
# _framework density 17.342027000000002
#
# number of rings (size 3 to 8) (size 9 to 14) (size 15 to 20)
#    0.000    2.250    1.250    1.500    0.000    5.000 
#    2.250    1.250    0.000    0.000    0.000    0.000 
#    0.000    0.000    0.000    0.000    0.000    0.000 
#
# Total GULP energy -356849.053263 kJ/mol
# GULP energy per Si atom -5575.766457 kJ/mol
# Density = 1.730256 g / cm^3
# Si number density = 17.342027 Si / 1000 Ang^3
#
#
#
# Elastic Constant Matrix: (Units=GPa)
#
#
# Indices 1 2 3 4 5 6 
#
# 1 59.1119 17.8933 22.0833 0.0000 0.0000 0.0000
# 2 17.8933 36.8046 11.7462 0.0000 0.0000 0.0000
# 3 22.0833 11.7462 28.0899 0.0000 0.0000 0.0000
# 4 0.0000 0.0000 0.0000 16.4941 0.0000 0.0000
# 5 0.0000 0.0000 0.0000 0.0000 30.9929 0.0000
# 6 0.0000 0.0000 0.0000 0.0000 0.0000 33.9263
#
#
#
# Elastic Compliance Matrix: (Units=1/GPa)
#
#
# Indices 1 2 3 4 5 6 
#
# 1 0.025381 -0.006891 -0.017072 0.000000 0.000000 0.000000
# 2 -0.006891 0.033226 -0.008477 0.000000 0.000000 0.000000
# 3 -0.017072 -0.008477 0.052566 0.000000 0.000000 0.000000
# 4 0.000000 0.000000 0.000000 0.060628 0.000000 0.000000
# 5 0.000000 0.000000 0.000000 0.000000 0.032265 0.000000
# 6 0.000000 0.000000 0.000000 0.000000 0.000000 0.029476
#
#
# Mechanical properties :
#
#
# Convention : Reuss Voigt Hill
#
# Bulk Modulus (GPa) = 21.60109 25.27243 23.43676
# Shear Modulus (GPa) = 15.93110 21.10157 18.51634
#
# Velocity S-wave (km/s) = 3.03420 3.49203 3.27114
# Velocity P-wave (km/s) = 4.97575 5.55551 5.27360
#
# Compressibility (1/GPa) = 0.04629397
#
# Stress axis : x y z
#
# Youngs Moduli (GPa) = 39.39990 30.09696 19.02370
#
# Poissons Ratio (x) = 0.20739 0.32477
# Poissons Ratio (y) = 0.27150 0.16125
# Poissons Ratio (z) = 0.67263 0.25512
#
# Static dielectric constant tensor:
#      x y z
#    x 1.562610 0.000000 0.000000 
#    y 0.000000 1.597670 0.000000 
#    z 0.000000 0.000000 1.591740 
# 
# From -- ./inp_files/10810.got.cif
#   From: 2010.05.17/outbox.cif.g08.bks.cpg/sg55_6_cif.got.tgz:10810.got - 2010.06.03 13:27:54.
