data_PCOD9426796
_publ_section_title
;
Structure prediction by ZEFSAII (Michael W. Deem and Ramdas Pophale) SiO2 
 PCOD9426796
Probable space group: P B A M
;
_chemical_formula_sum "Si O2"
_cell_formula_units_Z 64
_cell_length_a 14.468991
_cell_length_b 14.876506
_cell_length_c 18.156309
_cell_angle_alpha 90.000000
_cell_angle_beta 90.000000
_cell_angle_gamma 90.000000
_cell_volume 3908.109770
_symmetry_space_group_name_H-M "P B A M"
_symmetry_group_IT_number 55
_symmetry_cell_setting 'orthorhombic'
loop_
_space_group_symop_operation_xyz
x,y,z
-x,-y,z
1/2+x,1/2-y,-z
1/2-x,1/2+y,-z
-x,-y,-z
x,y,-z
1/2-x,1/2+y,z
1/2+x,1/2-y,z
loop_
_atom_site_type_symbol
_atom_site_label
_atom_site_fract_x
_atom_site_fract_y
_atom_site_fract_z
Si Si1 0.922143 0.578397 0.589561
Si Si2 0.733836 0.550930 0.680999
Si Si3 0.533804 0.265167 0.673403
Si Si4 0.347779 0.287252 0.769440
Si Si5 0.700997 0.360600 0.239357
Si Si6 0.624661 0.412547 0.917259
Si Si7 0.059620 0.910525 0.420638
Si Si8 0.405648 0.376182 0.081936
O O1 0.909397 0.593168 0.500000
O O2 0.826898 0.551066 0.631827
O O3 0.952840 0.668496 0.634396
O O4 0.000000 0.500000 0.596854
O O5 0.719656 0.634817 0.736721
O O6 0.716992 0.457620 0.723610
O O7 0.646724 0.567761 0.628732
O O8 0.445479 0.275663 0.727591
O O9 0.622664 0.304182 0.716616
O O10 0.507199 0.334412 0.609540
O O11 0.294535 0.195076 0.759144
O O12 0.368478 0.315191 0.852967
O O13 0.672386 0.371792 0.154125
O O14 0.628846 0.520924 0.910396
O O15 0.516790 0.384880 0.913668
O O16 0.658258 0.388574 0.000000
O O17 0.094981 0.882767 0.500000
O O18 0.000000 0.000000 0.424146
O O19 0.381049 0.344045 0.000000
#
# Coordination Sequence:
#
# PCOD9426796 Si02
#       8
#     8   8   8   8   8   8   8   8
#     4  11  24  44  62  78 114 158 191 232 288 348
#     4  11  22  37  57  86 111 140 192 237 282 341
#     4  11  22  38  57  84 111 144 192 234 282 342
#     4  11  22  34  58  84 110 153 190 237 284 337
#     4  12  21  35  58  85 113 148 190 238 286 337
#     4   9  18  32  56  83 112 147 185 230 285 342
#     4  10  20  34  55  82 111 139 176 232 292 334
#     4   9  17  32  54  83 113 147 186 231 285 341
#
# _framework density 16.376203
#
# number of rings (size 3 to 8) (size 9 to 14) (size 15 to 20)
#    0.000    1.500    5.000    2.250    0.000    0.500 
#    0.000    0.000    0.000    0.000    0.000    0.000 
#    0.000    8.000    0.000    0.000    0.000    0.000 
#
# Total GULP energy -356524.000471 kJ/mol
# GULP energy per Si atom -5570.687507 kJ/mol
# Density = 1.633893 g / cm^3
# Si number density = 16.376203 Si / 1000 Ang^3
#
#
#
# Elastic Constant Matrix: (Units=GPa)
#
#
# Indices 1 2 3 4 5 6 
#
# 1 55.7057 28.9904 20.7680 0.0000 0.0000 0.0000
# 2 28.9904 83.0308 47.4785 0.0000 0.0000 0.0000
# 3 20.7680 47.4785 109.8242 0.0000 0.0000 0.0000
# 4 0.0000 0.0000 0.0000 17.6991 0.0000 0.0000
# 5 0.0000 0.0000 0.0000 0.0000 25.7621 0.0000
# 6 0.0000 0.0000 0.0000 0.0000 0.0000 27.9424
#
#
#
# Elastic Compliance Matrix: (Units=1/GPa)
#
#
# Indices 1 2 3 4 5 6 
#
# 1 0.022040 -0.007057 -0.001117 0.000000 0.000000 0.000000
# 2 -0.007057 0.018258 -0.006559 0.000000 0.000000 0.000000
# 3 -0.001117 -0.006559 0.012152 0.000000 0.000000 0.000000
# 4 0.000000 0.000000 0.000000 0.056500 0.000000 0.000000
# 5 0.000000 0.000000 0.000000 0.000000 0.038817 0.000000
# 6 0.000000 0.000000 0.000000 0.000000 0.000000 0.035788
#
#
# Mechanical properties :
#
#
# Convention : Reuss Voigt Hill
#
# Bulk Modulus (GPa) = 43.50591 49.22605 46.36598
# Shear Modulus (GPa) = 22.65704 24.36900 23.51302
#
# Velocity S-wave (km/s) = 3.72362 3.86174 3.79331
# Velocity P-wave (km/s) = 6.71650 7.07169 6.89638
#
# Compressibility (1/GPa) = 0.02298539
#
# Stress axis : x y z
#
# Youngs Moduli (GPa) = 45.37126 54.77062 82.28988
#
# Poissons Ratio (x) = 0.38649 0.09194
# Poissons Ratio (y) = 0.32017 0.53972
# Poissons Ratio (z) = 0.05069 0.35923
#
# Static dielectric constant tensor:
#      x y z
#    x 1.521200 0.000000 0.000000 
#    y 0.000000 1.542190 0.000000 
#    z 0.000000 0.000000 1.570060 
# 
# From -- ./inp_files/21651.got.cif
#   From: 2010.05.17/outbox.cif.g08.bks.cpg/sg55_11_cif.got.tgz:21651.got - 2010.06.03 13:27:54.
