data_PCOD9426207
_publ_section_title
;
Structure prediction by ZEFSAII (Michael W. Deem and Ramdas Pophale) SiO2 
 PCOD9426207
Probable space group: P B A M
;
_chemical_formula_sum "Si O2"
_cell_formula_units_Z 48
_cell_length_a 8.629962
_cell_length_b 30.836755
_cell_length_c 7.794674
_cell_angle_alpha 90.000000
_cell_angle_beta 90.000000
_cell_angle_gamma 90.000000
_cell_volume 2074.318831
_symmetry_space_group_name_H-M "P B A M"
_symmetry_group_IT_number 55
_symmetry_cell_setting 'orthorhombic'
loop_
_space_group_symop_operation_xyz
x,y,z
-x,-y,z
1/2+x,1/2-y,-z
1/2-x,1/2+y,-z
-x,-y,-z
x,y,-z
1/2-x,1/2+y,z
1/2+x,1/2-y,z
loop_
_atom_site_type_symbol
_atom_site_label
_atom_site_fract_x
_atom_site_fract_y
_atom_site_fract_z
Si Si1 0.889203 0.438769 0.789700
Si Si2 0.589901 0.609820 0.305475
Si Si3 0.107205 0.728772 0.209102
Si Si4 0.727279 0.354082 0.801767
Si Si5 0.279522 0.811820 0.207701
Si Si6 0.770223 0.528729 0.206642
O O1 0.829834 0.392770 0.724224
O O2 0.777719 0.478662 0.737327
O O3 0.063875 0.450914 0.739840
O O4 0.887430 0.438101 0.000000
O O5 0.539817 0.613351 0.500000
O O6 0.448514 0.629955 0.200576
O O7 0.737353 0.640792 0.273721
O O8 0.635863 0.560620 0.265910
O O9 0.237242 0.693864 0.265105
O O10 0.150873 0.776914 0.266679
O O11 0.944031 0.708141 0.260726
O O12 0.104984 0.732400 0.000000
O O13 0.777026 0.351245 0.000000
O O14 0.280483 0.814524 0.000000
O O15 0.766302 0.528857 0.000000
#
# Coordination Sequence:
#
# PCOD9426207 Si02
#       6
#     8   8   8   8   8   8
#     4   8  16  32  60  89 107 129 174 225 273 323
#     4  12  25  37  49  75 111 150 188 221 259 311
#     4   9  18  33  61  91 109 130 172 221 270 322
#     4  10  19  35  57  82 109 140 176 220 266 315
#     4  10  19  36  60  85 109 137 173 220 270 321
#     4   9  17  35  60  84 107 136 174 223 273 322
#
# _framework density 23.140125999999999
#
# number of rings (size 3 to 8) (size 9 to 14) (size 15 to 20)
#    0.000    2.333    0.000    4.500    0.000    6.000 
#    0.000   12.500    0.000    0.000    0.000    0.000 
#    0.000    0.000    0.000    0.000    0.000    0.000 
#
# Total GULP energy -268110.947410 kJ/mol
# GULP energy per Si atom -5585.644738 kJ/mol
# Density = 2.308746 g / cm^3
# Si number density = 23.140126 Si / 1000 Ang^3
#
#
#
# Elastic Constant Matrix: (Units=GPa)
#
#
# Indices 1 2 3 4 5 6 
#
# 1 28.7569 -22.6569 -7.9891 0.0000 0.0000 0.0000
# 2 -22.6569 61.5761 5.8616 0.0000 0.0000 0.0000
# 3 -7.9891 5.8616 29.3119 0.0000 0.0000 0.0000
# 4 0.0000 0.0000 0.0000 -26.5883 0.0000 0.0000
# 5 0.0000 0.0000 0.0000 0.0000 -60.3302 0.0000
# 6 0.0000 0.0000 0.0000 0.0000 0.0000 36.6171
#
#
#
# Elastic Compliance Matrix: (Units=1/GPa)
#
#
# Indices 1 2 3 4 5 6 
#
# 1 0.051982 0.018123 0.010544 0.000000 0.000000 0.000000
# 2 0.018123 0.022874 0.000365 0.000000 0.000000 0.000000
# 3 0.010544 0.000365 0.036917 0.000000 0.000000 0.000000
# 4 0.000000 0.000000 0.000000 -0.037611 0.000000 0.000000
# 5 0.000000 0.000000 0.000000 0.000000 -0.016575 0.000000
# 6 0.000000 0.000000 0.000000 0.000000 0.000000 0.027310
#
#
# Mechanical properties :
#
#
# Convention : Reuss Voigt Hill
#
# Bulk Modulus (GPa) = 5.88797 7.78623 6.83710
# Shear Modulus (GPa) = 59.92072 -0.43165 29.74454
#
# Velocity S-wave (km/s) = 5.09421 -0.43237 3.58915
# Velocity P-wave (km/s) = 6.09518 1.76716 4.48743
#
# Compressibility (1/GPa) = 0.16983774
#
# Stress axis : x y z
#
# Youngs Moduli (GPa) = 19.23730 43.71836 27.08814
#
# Poissons Ratio (x) = -0.79232 -0.28562
# Poissons Ratio (y) = -0.34864 -0.00990
# Poissons Ratio (z) = -0.20284 -0.01598
#
# Static dielectric constant tensor:
#      x y z
#    x 1.878590 0.000000 0.000000 
#    y 0.000000 1.845160 0.000000 
#    z 0.000000 0.000000 1.873310 
# 
# From -- ./inp_files/2762.got.cif
#   From: 2010.05.17/outbox.cif.g08.bks.cpg/sg55_2_cif.got.tgz:2762.got - 2010.06.03 13:27:54.
