data_PCOD9426406
_publ_section_title
;
Structure prediction by ZEFSAII (Michael W. Deem and Ramdas Pophale) SiO2 
 PCOD9426406
Probable space group: P B A M
;
_chemical_formula_sum "Si O2"
_cell_formula_units_Z 64
_cell_length_a 20.314136
_cell_length_b 19.029857
_cell_length_c 8.487873
_cell_angle_alpha 90.000000
_cell_angle_beta 90.000000
_cell_angle_gamma 90.000000
_cell_volume 3281.200381
_symmetry_space_group_name_H-M "P B A M"
_symmetry_group_IT_number 55
_symmetry_cell_setting 'orthorhombic'
loop_
_space_group_symop_operation_xyz
x,y,z
-x,-y,z
1/2+x,1/2-y,-z
1/2-x,1/2+y,-z
-x,-y,-z
x,y,-z
1/2-x,1/2+y,z
1/2+x,1/2-y,z
loop_
_atom_site_type_symbol
_atom_site_label
_atom_site_fract_x
_atom_site_fract_y
_atom_site_fract_z
Si Si1 0.694177 0.517744 0.808963
Si Si2 0.927411 0.474320 0.190637
Si Si3 0.627816 0.827786 0.686631
Si Si4 0.772116 0.858440 0.809900
Si Si5 0.474134 0.284557 0.188453
Si Si6 0.675622 0.094495 0.808115
Si Si7 0.879456 0.744680 0.192560
Si Si8 0.948769 0.060003 0.688485
O O1 0.715726 0.439025 0.760841
O O2 0.751187 0.572130 0.759956
O O3 0.624136 0.537736 0.739496
O O4 0.689978 0.518692 0.000000
O O5 0.908303 0.398991 0.257839
O O6 0.874441 0.532906 0.239579
O O7 0.000000 0.500000 0.235946
O O8 0.925483 0.469034 0.000000
O O9 0.630911 0.826115 0.500000
O O10 0.701845 0.830609 0.752822
O O11 0.585209 0.762268 0.746362
O O12 0.831653 0.808057 0.757808
O O13 0.770906 0.858080 0.000000
O O14 0.545365 0.255964 0.243727
O O15 0.466592 0.365087 0.238229
O O16 0.472773 0.279558 0.000000
O O17 0.650429 0.170295 0.754652
O O18 0.675141 0.095686 0.000000
O O19 0.879894 0.744342 0.000000
O O20 0.952179 0.065690 0.500000
O O21 0.000000 0.000000 0.740701
#
# Coordination Sequence:
#
# PCOD9426406 Si02
#       8
#     8   8   8   8   8   8   8   8
#     4  10  20  36  61  91 122 159 208 262 305 360
#     4  10  19  36  63  88 117 158 205 253 298 353
#     4  12  25  39  57  88 130 168 202 246 308 376
#     4  10  20  38  63  90 121 159 210 261 307 364
#     4  11  23  42  67  92 120 160 212 263 310 367
#     4   9  17  32  55  90 123 149 195 256 307 349
#     4   9  19  35  61  92 118 149 200 263 316 361
#     4  11  25  43  63  90 128 166 202 254 318 378
#
# _framework density 19.505056
#
# number of rings (size 3 to 8) (size 9 to 14) (size 15 to 20)
#    0.000    1.750    1.250    3.375    1.750    4.750 
#    0.000    1.250    0.000    2.250    0.000    0.000 
#    0.000    0.000    0.000    0.000    0.000    0.000 
#
# Total GULP energy -357702.196272 kJ/mol
# GULP energy per Si atom -5589.096817 kJ/mol
# Density = 1.946066 g / cm^3
# Si number density = 19.505056 Si / 1000 Ang^3
#
#
#
# Elastic Constant Matrix: (Units=GPa)
#
#
# Indices 1 2 3 4 5 6 
#
# 1 119.3379 33.2871 2.4456 0.0000 0.0000 0.0000
# 2 33.2871 103.3487 1.4577 0.0000 0.0000 0.0000
# 3 2.4456 1.4577 10.7615 0.0000 0.0000 0.0000
# 4 0.0000 0.0000 0.0000 12.1157 0.0000 0.0000
# 5 0.0000 0.0000 0.0000 0.0000 3.7309 0.0000
# 6 0.0000 0.0000 0.0000 0.0000 0.0000 42.5694
#
#
#
# Elastic Compliance Matrix: (Units=1/GPa)
#
#
# Indices 1 2 3 4 5 6 
#
# 1 0.009238 -0.002951 -0.001700 0.000000 0.000000 0.000000
# 2 -0.002951 0.010637 -0.000770 0.000000 0.000000 0.000000
# 3 -0.001700 -0.000770 0.093414 0.000000 0.000000 0.000000
# 4 0.000000 0.000000 0.000000 0.082538 0.000000 0.000000
# 5 0.000000 0.000000 0.000000 0.000000 0.268033 0.000000
# 6 0.000000 0.000000 0.000000 0.000000 0.000000 0.023491
#
#
# Mechanical properties :
#
#
# Convention : Reuss Voigt Hill
#
# Bulk Modulus (GPa) = 9.76111 34.20322 21.98217
# Shear Modulus (GPa) = 9.39245 24.76703 17.07974
#
# Velocity S-wave (km/s) = 2.19678 3.56726 2.96236
# Velocity P-wave (km/s) = 3.38374 5.87714 4.79533
#
# Compressibility (1/GPa) = 0.10244733
#
# Stress axis : x y z
#
# Youngs Moduli (GPa) = 108.25306 94.00773 10.70499
#
# Poissons Ratio (x) = 0.27745 0.01819
# Poissons Ratio (y) = 0.31949 0.00824
# Poissons Ratio (z) = 0.18398 0.07240
#
# Static dielectric constant tensor:
#      x y z
#    x 1.662680 0.000000 0.000000 
#    y 0.000000 1.655430 0.000000 
#    z 0.000000 0.000000 1.667560 
# 
# From -- ./inp_files/9034.got.cif
#   From: 2010.05.17/outbox.cif.g08.bks.cpg/sg55_5_cif.got.tgz:9034.got - 2010.06.03 13:27:54.
