data_PCOD9426937
_publ_section_title
;
Structure prediction by ZEFSAII (Michael W. Deem and Ramdas Pophale) SiO2 
 PCOD9426937
Probable space group: P B A M
;
_chemical_formula_sum "Si O2"
_cell_formula_units_Z 56
_cell_length_a 20.396945
_cell_length_b 10.055504
_cell_length_c 16.017750
_cell_angle_alpha 90.000000
_cell_angle_beta 90.000000
_cell_angle_gamma 90.000000
_cell_volume 3285.265545
_symmetry_space_group_name_H-M "P B A M"
_symmetry_group_IT_number 55
_symmetry_cell_setting 'orthorhombic'
loop_
_space_group_symop_operation_xyz
x,y,z
-x,-y,z
1/2+x,1/2-y,-z
1/2-x,1/2+y,-z
-x,-y,-z
x,y,-z
1/2-x,1/2+y,z
1/2+x,1/2-y,z
loop_
_atom_site_type_symbol
_atom_site_label
_atom_site_fract_x
_atom_site_fract_y
_atom_site_fract_z
Si Si1 0.986987 0.343477 0.266161
Si Si2 0.266070 0.690610 0.699275
Si Si3 0.045381 0.872664 0.400916
Si Si4 0.199789 0.587608 0.000000
Si Si5 0.800170 0.072444 0.599532
Si Si6 0.377342 0.795038 0.182460
Si Si7 0.851927 0.392478 0.819299
Si Si8 0.174113 0.272929 0.000000
O O1 0.977117 0.254164 0.347821
O O2 0.920719 0.336009 0.212269
O O3 0.000000 0.500000 0.285048
O O4 0.048301 0.289455 0.213450
O O5 0.243726 0.816308 0.644642
O O6 0.279638 0.567795 0.638480
O O7 0.329845 0.715132 0.755995
O O8 0.206771 0.660775 0.762702
O O9 0.038112 0.848569 0.500000
O O10 0.122320 0.901606 0.384580
O O11 0.000000 0.000000 0.379698
O O12 0.162449 0.631414 0.916330
O O13 0.269135 0.662496 0.000000
O O14 0.202768 0.425385 0.000000
O O15 0.790304 0.074838 0.500000
O O16 0.355599 0.948643 0.191029
O O17 0.366579 0.758492 0.085656
#
# Coordination Sequence:
#
# PCOD9426937 Si02
#       8
#     8   8   8   4   8   8   8   4
#     4  10  21  38  58  84 114 153 196 236 286 343
#     4  12  20  37  60  84 115 150 194 236 289 342
#     4  10  21  39  58  83 116 152 193 238 295 351
#     4  10  20  35  57  85 117 149 190 238 287 343
#     4  11  24  38  58  85 117 151 191 245 291 342
#     4  10  21  36  59  86 116 149 189 240 286 341
#     4  10  20  36  58  85 114 151 193 235 283 342
#     4  10  20  35  55  87 117 147 190 236 291 341
#
# _framework density 17.045805999999999
#
# number of rings (size 3 to 8) (size 9 to 14) (size 15 to 20)
#    0.000    1.571    4.286    1.286    0.000    0.857 
#    0.000    3.571    0.000    0.000    0.000    3.000 
#    0.000    0.000    0.000    0.000    0.000    0.000 
#
# Total GULP energy -312530.688443 kJ/mol
# GULP energy per Si atom -5580.905151 kJ/mol
# Density = 1.700701 g / cm^3
# Si number density = 17.045806 Si / 1000 Ang^3
#
#
#
# Elastic Constant Matrix: (Units=GPa)
#
#
# Indices 1 2 3 4 5 6 
#
# 1 83.0353 30.1157 40.0970 0.0000 0.0000 0.0000
# 2 30.1157 54.5413 43.6616 0.0000 0.0000 0.0000
# 3 40.0970 43.6616 106.3724 0.0000 0.0000 0.0000
# 4 0.0000 0.0000 0.0000 13.6641 0.0000 0.0000
# 5 0.0000 0.0000 0.0000 0.0000 24.7725 0.0000
# 6 0.0000 0.0000 0.0000 0.0000 0.0000 25.8785
#
#
#
# Elastic Compliance Matrix: (Units=1/GPa)
#
#
# Indices 1 2 3 4 5 6 
#
# 1 0.015917 -0.005936 -0.003563 0.000000 0.000000 0.000000
# 2 -0.005936 0.029521 -0.009880 0.000000 0.000000 0.000000
# 3 -0.003563 -0.009880 0.014799 0.000000 0.000000 0.000000
# 4 0.000000 0.000000 0.000000 0.073185 0.000000 0.000000
# 5 0.000000 0.000000 0.000000 0.000000 0.040367 0.000000
# 6 0.000000 0.000000 0.000000 0.000000 0.000000 0.038642
#
#
# Mechanical properties :
#
#
# Convention : Reuss Voigt Hill
#
# Bulk Modulus (GPa) = 46.55669 52.41086 49.48377
# Shear Modulus (GPa) = 19.35363 21.53466 20.44415
#
# Velocity S-wave (km/s) = 3.37321 3.55821 3.46694
# Velocity P-wave (km/s) = 6.52253 6.90615 6.71708
#
# Compressibility (1/GPa) = 0.02147919
#
# Stress axis : x y z
#
# Youngs Moduli (GPa) = 62.82711 33.87368 67.57058
#
# Poissons Ratio (x) = 0.20108 0.24077
# Poissons Ratio (y) = 0.37295 0.66758
# Poissons Ratio (z) = 0.22387 0.33466
#
# Static dielectric constant tensor:
#      x y z
#    x 1.559610 0.000000 0.000000 
#    y 0.000000 1.561750 0.000000 
#    z 0.000000 0.000000 1.552770 
# 
# From -- ./inp_files/17684.got.cif
#   From: 2010.05.17/outbox.cif.g08.bks.cpg/sg55_9_cif.got.tgz:17684.got - 2010.06.03 13:27:54.
