data_PCOD9426947
_publ_section_title
;
Structure prediction by ZEFSAII (Michael W. Deem and Ramdas Pophale) SiO2 
 PCOD9426947
Probable space group: P B A M
;
_chemical_formula_sum "Si O2"
_cell_formula_units_Z 64
_cell_length_a 15.059440
_cell_length_b 22.139732
_cell_length_c 9.805408
_cell_angle_alpha 90.000000
_cell_angle_beta 90.000000
_cell_angle_gamma 90.000000
_cell_volume 3269.240355
_symmetry_space_group_name_H-M "P B A M"
_symmetry_group_IT_number 55
_symmetry_cell_setting 'orthorhombic'
loop_
_space_group_symop_operation_xyz
x,y,z
-x,-y,z
1/2+x,1/2-y,-z
1/2-x,1/2+y,-z
-x,-y,-z
x,y,-z
1/2-x,1/2+y,z
1/2+x,1/2-y,z
loop_
_atom_site_type_symbol
_atom_site_label
_atom_site_fract_x
_atom_site_fract_y
_atom_site_fract_z
Si Si1 0.053630 0.373770 0.652994
Si Si2 0.415157 0.456358 0.661861
Si Si3 0.403436 0.316015 0.338643
Si Si4 0.783742 0.967082 0.159792
Si Si5 0.281347 0.668824 0.156660
Si Si6 0.296454 0.773483 0.649118
Si Si7 0.099083 0.473947 0.150405
Si Si8 0.571717 0.799432 0.158923
O O1 0.020170 0.386487 0.500000
O O2 0.125807 0.321293 0.644847
O O3 0.102321 0.429607 0.722777
O O4 0.979440 0.350678 0.757262
O O5 0.500000 0.500000 0.685355
O O6 0.394270 0.458491 0.500000
O O7 0.429497 0.385177 0.694461
O O8 0.335787 0.484387 0.750600
O O9 0.424451 0.304752 0.500000
O O10 0.296611 0.307422 0.322135
O O11 0.441176 0.263756 0.240306
O O12 0.801717 0.898622 0.206008
O O13 0.677905 0.978113 0.164493
O O14 0.809484 0.972648 0.000000
O O15 0.320952 0.721868 0.245557
O O16 0.175565 0.682283 0.161490
O O17 0.309535 0.672967 0.000000
O O18 0.284767 0.744695 0.500000
O O19 0.000000 0.500000 0.150179
O O20 0.112556 0.444484 0.000000
O O21 0.544658 0.795569 0.000000
#
# Coordination Sequence:
#
# PCOD9426947 Si02
#       8
#     8   8   8   8   8   8   8   8
#     4  11  22  35  53  81 114 144 180 224 271 325
#     4  10  22  39  58  80 109 148 190 232 280 334
#     4   9  18  36  57  76 103 137 178 227 276 324
#     4  10  21  37  58  83 112 146 183 229 281 330
#     4   9  19  36  56  79 107 139 178 223 272 327
#     4   9  19  34  53  77 105 138 174 221 275 324
#     4  10  21  38  59  83 115 152 187 227 278 336
#     4  10  20  35  56  80 108 143 180 220 270 327
#
# _framework density 19.576412999999999
#
# number of rings (size 3 to 8) (size 9 to 14) (size 15 to 20)
#    0.000    2.250    0.000    2.250    0.000    7.500 
#    0.000    7.500    0.000    0.000    0.000    0.000 
#    0.000    0.000    0.000    0.000    0.000    0.000 
#
# Total GULP energy -357026.656251 kJ/mol
# GULP energy per Si atom -5578.541504 kJ/mol
# Density = 1.953186 g / cm^3
# Si number density = 19.576413 Si / 1000 Ang^3
#
#
#
# Elastic Constant Matrix: (Units=GPa)
#
#
# Indices 1 2 3 4 5 6 
#
# 1 22.4100 -16.2410 5.9170 0.0000 0.0000 0.0000
# 2 -16.2410 81.4426 37.9886 0.0000 0.0000 0.0000
# 3 5.9170 37.9886 75.5526 0.0000 0.0000 0.0000
# 4 0.0000 0.0000 0.0000 27.4634 0.0000 0.0000
# 5 0.0000 0.0000 0.0000 0.0000 18.8120 0.0000
# 6 0.0000 0.0000 0.0000 0.0000 0.0000 21.7105
#
#
#
# Elastic Compliance Matrix: (Units=1/GPa)
#
#
# Indices 1 2 3 4 5 6 
#
# 1 0.062409 0.019237 -0.014560 0.000000 0.000000 0.000000
# 2 0.019237 0.021970 -0.012553 0.000000 0.000000 0.000000
# 3 -0.014560 -0.012553 0.020688 0.000000 0.000000 0.000000
# 4 0.000000 0.000000 0.000000 0.036412 0.000000 0.000000
# 5 0.000000 0.000000 0.000000 0.000000 0.053158 0.000000
# 6 0.000000 0.000000 0.000000 0.000000 0.000000 0.046061
#
#
# Mechanical properties :
#
#
# Convention : Reuss Voigt Hill
#
# Bulk Modulus (GPa) = 11.19649 26.08159 18.63904
# Shear Modulus (GPa) = 17.46897 23.71323 20.59110
#
# Velocity S-wave (km/s) = 2.99046 3.48417 3.24671
# Velocity P-wave (km/s) = 4.20186 5.43487 4.85765
#
# Compressibility (1/GPa) = 0.08931367
#
# Stress axis : x y z
#
# Youngs Moduli (GPa) = 16.02341 45.51611 48.33697
#
# Poissons Ratio (x) = -0.87559 0.70379
# Poissons Ratio (y) = -0.30824 0.60679
# Poissons Ratio (z) = 0.23330 0.57138
#
# Static dielectric constant tensor:
#      x y z
#    x 1.690310 0.000000 0.000000 
#    y 0.000000 1.674730 0.000000 
#    z 0.000000 0.000000 1.696380 
# 
# From -- ./inp_files/8052.got.cif
#   From: 2010.05.17/outbox.cif.g08.bks.cpg/sg55_5_cif.got.tgz:8052.got - 2010.06.03 13:27:54.
