data_PCOD9426170
_publ_section_title
;
Structure prediction by ZEFSAII (Michael W. Deem and Ramdas Pophale) SiO2 
 PCOD9426170
Probable space group: P B A M
;
_chemical_formula_sum "Si O2"
_cell_formula_units_Z 58
_cell_length_a 17.624743
_cell_length_b 11.611700
_cell_length_c 16.208842
_cell_angle_alpha 90.000000
_cell_angle_beta 90.000000
_cell_angle_gamma 90.000000
_cell_volume 3317.191842
_symmetry_space_group_name_H-M "P B A M"
_symmetry_group_IT_number 55
_symmetry_cell_setting 'orthorhombic'
loop_
_space_group_symop_operation_xyz
x,y,z
-x,-y,z
1/2+x,1/2-y,-z
1/2-x,1/2+y,-z
-x,-y,-z
x,y,-z
1/2-x,1/2+y,z
1/2+x,1/2-y,z
loop_
_atom_site_type_symbol
_atom_site_label
_atom_site_fract_x
_atom_site_fract_y
_atom_site_fract_z
Si Si1 0.611446 0.041017 0.846397
Si Si2 0.320131 0.125808 0.292377
Si Si3 0.975218 0.740245 0.749878
Si Si4 0.131362 0.830210 0.192907
Si Si5 0.836311 0.906329 0.227318
Si Si6 0.454729 0.120069 0.405997
Si Si7 0.500000 0.000000 0.000000
Si Si8 0.230127 0.269159 0.095649
O O1 0.557308 0.127172 0.794759
O O2 0.683188 0.118892 0.874148
O O3 0.639840 0.942959 0.783632
O O4 0.566178 0.999972 0.926637
O O5 0.328299 0.259990 0.267679
O O6 0.232586 0.091582 0.292506
O O7 0.369395 0.101097 0.372803
O O8 0.907731 0.831747 0.743811
O O9 0.044239 0.791541 0.803841
O O10 0.007380 0.704564 0.660890
O O11 0.181533 0.791107 0.115078
O O12 0.139051 0.965781 0.204527
O O13 0.800719 0.837800 0.149152
O O14 0.456238 0.161717 0.500000
O O15 0.500000 0.000000 0.402169
O O16 0.216319 0.249873 0.000000
#
# Coordination Sequence:
#
# PCOD9426170 Si02
#       8
#     8   8   8   8   8   8   2   8
#     4  11  20  36  54  84 114 147 191 252 295 338
#     4  10  20  37  59  84 115 147 195 245 294 350
#     4  10  21  38  59  83 118 152 192 236 291 360
#     4  10  20  36  55  84 104 154 200 229 287 354
#     4  10  21  37  60  79 114 161 194 235 295 360
#     4  10  19  34  61  92 121 148 185 242 294 348
#     4  12  20  28  56  80 108 142 188 246 286 342
#     4  10  21  38  54  79 116 155 196 252 296 335
#
# _framework density 17.484669
#
# number of rings (size 3 to 8) (size 9 to 14) (size 15 to 20)
#    0.000    1.793    3.448    2.069    0.000    0.552 
#   11.172    0.690    0.000   14.069    0.000    0.000 
#    0.000    0.000    0.000    0.000    0.000    0.000 
#
# Total GULP energy -323076.781194 kJ/mol
# GULP energy per Si atom -5570.289331 kJ/mol
# Density = 1.744487 g / cm^3
# Si number density = 17.484669 Si / 1000 Ang^3
#
#
#
# Elastic Constant Matrix: (Units=GPa)
#
#
# Indices 1 2 3 4 5 6 
#
# 1 127.6202 36.5350 44.3433 0.0000 0.0000 0.0000
# 2 36.5350 94.0330 30.0063 0.0000 0.0000 0.0000
# 3 44.3433 30.0063 104.8292 0.0000 0.0000 0.0000
# 4 0.0000 0.0000 0.0000 8.3870 0.0000 0.0000
# 5 0.0000 0.0000 0.0000 0.0000 11.5142 0.0000
# 6 0.0000 0.0000 0.0000 0.0000 0.0000 16.8805
#
#
#
# Elastic Compliance Matrix: (Units=1/GPa)
#
#
# Indices 1 2 3 4 5 6 
#
# 1 0.009784 -0.002730 -0.003357 0.000000 0.000000 0.000000
# 2 -0.002730 0.012465 -0.002413 0.000000 0.000000 0.000000
# 3 -0.003357 -0.002413 0.011650 0.000000 0.000000 0.000000
# 4 0.000000 0.000000 0.000000 0.119232 0.000000 0.000000
# 5 0.000000 0.000000 0.000000 0.000000 0.086850 0.000000
# 6 0.000000 0.000000 0.000000 0.000000 0.000000 0.059240
#
#
# Mechanical properties :
#
#
# Convention : Reuss Voigt Hill
#
# Bulk Modulus (GPa) = 59.17712 60.91686 60.04699
# Shear Modulus (GPa) = 15.53496 21.72951 18.63224
#
# Velocity S-wave (km/s) = 2.98399 3.52913 3.26794
# Velocity P-wave (km/s) = 6.76690 7.17789 6.97542
#
# Compressibility (1/GPa) = 0.01689842
#
# Stress axis : x y z
#
# Youngs Moduli (GPa) = 102.20986 80.22230 85.83554
#
# Poissons Ratio (x) = 0.21901 0.28816
# Poissons Ratio (y) = 0.27904 0.20714
# Poissons Ratio (z) = 0.34313 0.19360
#
# Static dielectric constant tensor:
#      x y z
#    x 1.632870 0.000000 0.000000 
#    y 0.000000 1.600850 0.000000 
#    z 0.000000 0.000000 1.566790 
# 
# From -- ./inp_files/19460.got.cif
#   From: 2010.05.17/outbox.cif.g08.bks.cpg/sg55_10_cif.got.tgz:19460.got - 2010.06.03 13:27:54.
