data_PCOD9426516
_publ_section_title
;
Structure prediction by ZEFSAII (Michael W. Deem and Ramdas Pophale) SiO2 
 PCOD9426516
Probable space group: P B A M
;
_chemical_formula_sum "Si O2"
_cell_formula_units_Z 64
_cell_length_a 14.844967
_cell_length_b 28.880866
_cell_length_c 8.623141
_cell_angle_alpha 90.000000
_cell_angle_beta 90.000000
_cell_angle_gamma 90.000000
_cell_volume 3697.046692
_symmetry_space_group_name_H-M "P B A M"
_symmetry_group_IT_number 55
_symmetry_cell_setting 'orthorhombic'
loop_
_space_group_symop_operation_xyz
x,y,z
-x,-y,z
1/2+x,1/2-y,-z
1/2-x,1/2+y,-z
-x,-y,-z
x,y,-z
1/2-x,1/2+y,z
1/2+x,1/2-y,z
loop_
_atom_site_type_symbol
_atom_site_label
_atom_site_fract_x
_atom_site_fract_y
_atom_site_fract_z
Si Si1 0.110107 0.282329 0.183378
Si Si2 0.401851 0.319271 0.312305
Si Si3 0.107526 0.180894 0.686977
Si Si4 0.103559 0.717639 0.816115
Si Si5 0.714941 0.867264 0.684560
Si Si6 0.274996 0.866722 0.686439
Si Si7 0.407289 0.053043 0.816062
Si Si8 0.602747 0.049257 0.686495
O O1 0.132224 0.231411 0.247544
O O2 0.166376 0.322684 0.262634
O O3 0.003318 0.289738 0.210156
O O4 0.126519 0.283193 0.000000
O O5 0.400307 0.315616 0.500000
O O6 0.504766 0.329639 0.264989
O O7 0.376031 0.269308 0.243077
O O8 0.327406 0.356656 0.263481
O O9 0.109313 0.183954 0.500000
O O10 0.182483 0.143679 0.733452
O O11 0.159088 0.678848 0.726768
O O12 0.121093 0.714235 0.000000
O O13 0.712359 0.874859 0.500000
O O14 0.667716 0.910156 0.767611
O O15 0.275254 0.868648 0.500000
O O16 0.323527 0.913505 0.740789
O O17 0.503068 0.065480 0.737548
O O18 0.383904 0.001477 0.758171
O O19 0.419717 0.052861 0.000000
O O20 0.604669 0.045557 0.500000
#
# Coordination Sequence:
#
# PCOD9426516 Si02
#       8
#     8   8   8   8   8   8   8   8
#     4  10  20  31  46  70 103 135 165 200 241 289
#     4   9  18  34  51  70  98 132 167 205 244 286
#     4   9  19  34  51  69  96 132 169 206 244 283
#     4  10  20  32  46  71 103 135 167 202 244 291
#     4  11  21  33  51  74  97 129 169 206 244 290
#     4  10  20  32  51  75  98 127 165 202 242 290
#     4  11  22  36  54  77 103 130 158 196 245 297
#     4  10  20  36  56  78 103 130 159 197 242 294
#
# _framework density 17.311115999999998
#
# number of rings (size 3 to 8) (size 9 to 14) (size 15 to 20)
#    0.000    2.000    0.000    4.875    0.000    9.000 
#    0.000    0.000    0.000    0.750    0.000    5.250 
#    0.000    0.000    0.000    0.000    0.000    0.000 
#
# Total GULP energy -357361.175281 kJ/mol
# GULP energy per Si atom -5583.768364 kJ/mol
# Density = 1.727171 g / cm^3
# Si number density = 17.311116 Si / 1000 Ang^3
#
#
#
# Elastic Constant Matrix: (Units=GPa)
#
#
# Indices 1 2 3 4 5 6 
#
# 1 78.3444 63.0027 14.3358 0.0000 0.0000 0.0000
# 2 63.0027 75.8096 9.2274 0.0000 0.0000 0.0000
# 3 14.3358 9.2274 24.0386 0.0000 0.0000 0.0000
# 4 0.0000 0.0000 0.0000-2326.1532 0.0000 0.0000
# 5 0.0000 0.0000 0.0000 0.0000 10.7161 0.0000
# 6 0.0000 0.0000 0.0000 0.0000 0.0000 33.6648
#
#
#
# Elastic Compliance Matrix: (Units=1/GPa)
#
#
# Indices 1 2 3 4 5 6 
#
# 1 0.041588 -0.033090 -0.012100 0.000000 0.000000 0.000000
# 2 -0.033090 0.040165 0.004316 0.000000 0.000000 0.000000
# 3 -0.012100 0.004316 0.047159 0.000000 0.000000 0.000000
# 4 0.000000 0.000000 0.000000 -0.000430 0.000000 0.000000
# 5 0.000000 0.000000 0.000000 0.000000 0.093318 0.000000
# 6 0.000000 0.000000 0.000000 0.000000 0.000000 0.029705
#
#
# Mechanical properties :
#
#
# Convention : Reuss Voigt Hill
#
# Bulk Modulus (GPa) = 21.20226 39.03605 30.11915
# Shear Modulus (GPa) = 14.32769 -450.24601 -217.95916
#
# Velocity S-wave (km/s) = 2.88003 -16.14482 -11.23300
# Velocity P-wave (km/s) = 4.83050 18.02614 12.28023
#
# Compressibility (1/GPa) = 0.04716478
#
# Stress axis : x y z
#
# Youngs Moduli (GPa) = 24.04531 24.89713 21.20478
#
# Poissons Ratio (x) = 0.82384 0.25658
# Poissons Ratio (y) = 0.79565 -0.09152
# Poissons Ratio (z) = 0.29095 -0.10745
#
# Static dielectric constant tensor:
#      x y z
#    x 1.615690 0.000000 0.000000 
#    y 0.000000 1.556770 0.000000 
#    z 0.000000 0.000000 1.577120 
# 
# From -- ./inp_files/6914.got.cif
#   From: 2010.05.17/outbox.cif.g08.bks.cpg/sg55_4_cif.got.tgz:6914.got - 2010.06.03 13:27:54.
