data_PCOD9426140
_publ_section_title
;
Structure prediction by ZEFSAII (Michael W. Deem and Ramdas Pophale) SiO2 
 PCOD9426140
Probable space group: P B A M
;
_chemical_formula_sum "Si O2"
_cell_formula_units_Z 48
_cell_length_a 15.404056
_cell_length_b 19.370988
_cell_length_c 7.474750
_cell_angle_alpha 90.000000
_cell_angle_beta 90.000000
_cell_angle_gamma 90.000000
_cell_volume 2230.403987
_symmetry_space_group_name_H-M "P B A M"
_symmetry_group_IT_number 55
_symmetry_cell_setting 'orthorhombic'
loop_
_space_group_symop_operation_xyz
x,y,z
-x,-y,z
1/2+x,1/2-y,-z
1/2-x,1/2+y,-z
-x,-y,-z
x,y,-z
1/2-x,1/2+y,z
1/2+x,1/2-y,z
loop_
_atom_site_type_symbol
_atom_site_label
_atom_site_fract_x
_atom_site_fract_y
_atom_site_fract_z
Si Si1 0.366920 0.679182 0.281623
Si Si2 0.737150 0.585729 0.290553
Si Si3 0.698111 0.740264 0.281016
Si Si4 0.509208 0.790922 0.716697
Si Si5 0.903994 0.976108 0.719062
Si Si6 0.564130 0.058460 0.792271
O O1 0.368321 0.678672 0.500000
O O2 0.273835 0.707901 0.225461
O O3 0.439395 0.734054 0.224622
O O4 0.385796 0.601833 0.222040
O O5 0.715854 0.590987 0.500000
O O6 0.720643 0.662792 0.218258
O O7 0.670655 0.528687 0.218231
O O8 0.837878 0.564399 0.279532
O O9 0.698360 0.739284 0.500000
O O10 0.604302 0.767191 0.224382
O O11 0.508552 0.791824 0.500000
O O12 0.480901 0.866988 0.774850
O O13 0.902699 0.975454 0.500000
O O14 0.000000 0.000000 0.772447
O O15 0.500000 0.000000 0.713970
O O16 0.575788 0.041441 0.000000
#
# Coordination Sequence:
#
# PCOD9426140 Si02
#       6
#     8   8   8   8   8   8
#     4   9  16  28  46  77 111 133 165 217 266 310
#     4  10  19  35  59  85 111 145 186 222 269 334
#     4   9  17  29  50  82 109 132 171 225 272 313
#     4  10  19  34  59  82 107 140 177 223 275 330
#     4   9  17  28  48  81 116 143 170 214 273 329
#     4  11  25  41  54  74 110 150 188 233 279 320
#
# _framework density 21.520764
#
# number of rings (size 3 to 8) (size 9 to 14) (size 15 to 20)
#    0.000    2.333    1.667    1.500    2.333    5.333 
#    0.000    0.833    0.000    1.500    0.000    0.000 
#    0.000    0.000    0.000    0.000    0.000    0.000 
#
# Total GULP energy -268187.144886 kJ/mol
# GULP energy per Si atom -5587.232185 kJ/mol
# Density = 2.147178 g / cm^3
# Si number density = 21.520764 Si / 1000 Ang^3
#
#
#
# Elastic Constant Matrix: (Units=GPa)
#
#
# Indices 1 2 3 4 5 6 
#
# 1 197.2076 102.2560 -10.3469 0.0000 0.0000 0.0000
# 2 102.2560 183.3498 -5.9958 0.0000 0.0000 0.0000
# 3 -10.3469 -5.9958 54.8843 0.0000 0.0000 0.0000
# 4 0.0000 0.0000 0.0000 9.6292 0.0000 0.0000
# 5 0.0000 0.0000 0.0000 0.0000 17.1915 0.0000
# 6 0.0000 0.0000 0.0000 0.0000 0.0000 46.0542
#
#
#
# Elastic Compliance Matrix: (Units=1/GPa)
#
#
# Indices 1 2 3 4 5 6 
#
# 1 0.007180 -0.003974 0.000919 0.000000 0.000000 0.000000
# 2 -0.003974 0.007673 0.000089 0.000000 0.000000 0.000000
# 3 0.000919 0.000089 0.018403 0.000000 0.000000 0.000000
# 4 0.000000 0.000000 0.000000 0.103851 0.000000 0.000000
# 5 0.000000 0.000000 0.000000 0.000000 0.058168 0.000000
# 6 0.000000 0.000000 0.000000 0.000000 0.000000 0.021714
#
#
# Mechanical properties :
#
#
# Convention : Reuss Voigt Hill
#
# Bulk Modulus (GPa) = 36.59663 67.47424 52.03544
# Shear Modulus (GPa) = 21.54903 37.87687 29.71295
#
# Velocity S-wave (km/s) = 3.16779 4.19980 3.71976
# Velocity P-wave (km/s) = 5.51562 7.41208 6.53303
#
# Compressibility (1/GPa) = 0.02732492
#
# Stress axis : x y z
#
# Youngs Moduli (GPa) = 139.28176 130.32083 54.33839
#
# Poissons Ratio (x) = 0.51791 -0.04996
# Poissons Ratio (y) = 0.55352 -0.00484
# Poissons Ratio (z) = -0.12805 -0.01161
#
# Static dielectric constant tensor:
#      x y z
#    x 1.703270 0.000000 0.000000 
#    y 0.000000 1.736450 0.000000 
#    z 0.000000 0.000000 1.812920 
# 
# From -- ./inp_files/5569.got.cif
#   From: 2010.05.17/outbox.cif.g08.bks.cpg/sg55_3_cif.got.tgz:5569.got - 2010.06.03 13:27:54.
