data_PCOD9426794
_publ_section_title
;
Structure prediction by ZEFSAII (Michael W. Deem and Ramdas Pophale) SiO2 
 PCOD9426794
Probable space group: P B A M
;
_chemical_formula_sum "Si O2"
_cell_formula_units_Z 40
_cell_length_a 7.692359
_cell_length_b 28.260443
_cell_length_c 8.091348
_cell_angle_alpha 90.000000
_cell_angle_beta 90.000000
_cell_angle_gamma 90.000000
_cell_volume 1758.973878
_symmetry_space_group_name_H-M "P B A M"
_symmetry_group_IT_number 55
_symmetry_cell_setting 'orthorhombic'
loop_
_space_group_symop_operation_xyz
x,y,z
-x,-y,z
1/2+x,1/2-y,-z
1/2-x,1/2+y,-z
-x,-y,-z
x,y,-z
1/2-x,1/2+y,z
1/2+x,1/2-y,z
loop_
_atom_site_type_symbol
_atom_site_label
_atom_site_fract_x
_atom_site_fract_y
_atom_site_fract_z
Si Si1 0.722090 0.029853 0.500000
Si Si2 0.119437 0.070510 0.500000
Si Si3 0.536619 0.376180 0.819883
Si Si4 0.125522 0.219043 0.691900
Si Si5 0.516982 0.180980 0.308477
Si Si6 0.355103 0.916099 0.819399
O O1 0.629662 0.049017 0.664530
O O2 0.919625 0.051501 0.500000
O O3 0.754106 0.974023 0.500000
O O4 0.138121 0.101723 0.335335
O O5 0.516691 0.320275 0.788063
O O6 0.347778 0.400242 0.820934
O O7 0.618115 0.384167 0.000000
O O8 0.065046 0.220344 0.500000
O O9 0.120122 0.272744 0.753179
O O10 0.319734 0.198973 0.695749
O O11 0.568416 0.171441 0.500000
O O12 0.544394 0.132848 0.211485
O O13 0.397952 0.936130 0.000000
#
# Coordination Sequence:
#
# PCOD9426794 Si02
#       6
#     4   4   8   8   8   8
#     4   9  18  34  56  81 110 141 176 225 276 319
#     4   9  18  34  56  81 110 141 176 225 276 319
#     4  10  20  34  55  82 111 144 181 221 268 321
#     4  10  20  34  55  81 110 146 184 222 267 319
#     4  10  20  34  55  81 110 146 184 222 267 319
#     4  10  20  34  55  82 111 144 181 221 268 321
#
# _framework density 22.74053
#
# number of rings (size 3 to 8) (size 9 to 14) (size 15 to 20)
#    0.000    2.200    2.000    1.200    0.000    4.000 
#    0.000    4.000    0.000    2.400    0.000    2.800 
#    0.000    0.000    0.000    0.000    0.000    0.000 
#
# Total GULP energy -223627.719866 kJ/mol
# GULP energy per Si atom -5590.692997 kJ/mol
# Density = 2.268877 g / cm^3
# Si number density = 22.740530 Si / 1000 Ang^3
#
#
#
# Elastic Constant Matrix: (Units=GPa)
#
#
# Indices 1 2 3 4 5 6 
#
# 1 16.3348 48.7283 45.8306 0.0000 0.0000 0.0000
# 2 48.7283 60.7481 26.6114 0.0000 0.0000 0.0000
# 3 45.8306 26.6114 135.2136 0.0000 0.0000 0.0000
# 4 0.0000 0.0000 0.0000 -6.4175 0.0000 0.0000
# 5 0.0000 0.0000 0.0000 0.0000 8.3926 0.0000
# 6 0.0000 0.0000 0.0000 0.0000 0.0000 28.6804
#
#
#
# Elastic Compliance Matrix: (Units=1/GPa)
#
#
# Indices 1 2 3 4 5 6 
#
# 1 -0.036227 0.025914 0.007179 0.000000 0.000000 0.000000
# 2 0.025914 -0.000522 -0.008681 0.000000 0.000000 0.000000
# 3 0.007179 -0.008681 0.006671 0.000000 0.000000 0.000000
# 4 0.000000 0.000000 0.000000 -0.155823 0.000000 0.000000
# 5 0.000000 0.000000 0.000000 0.000000 0.119153 0.000000
# 6 0.000000 0.000000 0.000000 0.000000 0.000000 0.034867
#
#
# Mechanical properties :
#
#
# Convention : Reuss Voigt Hill
#
# Bulk Modulus (GPa) = 53.34457 50.51526 51.92991
# Shear Modulus (GPa) = -67.15302 12.20616 -27.47343
#
# Velocity S-wave (km/s) = -5.44006 2.31932 -3.47958
# Velocity P-wave (km/s) = 3.99376 5.42534 2.59655
#
# Compressibility (1/GPa) = 0.01874605
#
# Stress axis : x y z
#
# Youngs Moduli (GPa) = -27.60400 -1914.11841 149.90535
#
# Poissons Ratio (x) = 49.60237 -1.07615
# Poissons Ratio (y) = 0.71533 1.30128
# Poissons Ratio (z) = 0.19817 -16.61591
#
# Static dielectric constant tensor:
#      x y z
#    x 1.874340 0.000000 0.000000 
#    y 0.000000 1.807680 0.000000 
#    z 0.000000 0.000000 1.854310 
# 
# From -- ./inp_files/2527.got.cif
#   From: 2010.05.17/outbox.cif.g08.bks.cpg/sg55_2_cif.got.tgz:2527.got - 2010.06.03 13:27:54.
