data_PCOD9426890
_publ_section_title
;
Structure prediction by ZEFSAII (Michael W. Deem and Ramdas Pophale) SiO2 
 PCOD9426890
Probable space group: P B A M
;
_chemical_formula_sum "Si O2"
_cell_formula_units_Z 56
_cell_length_a 13.884119
_cell_length_b 24.239757
_cell_length_c 7.586411
_cell_angle_alpha 90.000000
_cell_angle_beta 90.000000
_cell_angle_gamma 90.000000
_cell_volume 2553.188951
_symmetry_space_group_name_H-M "P B A M"
_symmetry_group_IT_number 55
_symmetry_cell_setting 'orthorhombic'
loop_
_space_group_symop_operation_xyz
x,y,z
-x,-y,z
1/2+x,1/2-y,-z
1/2-x,1/2+y,-z
-x,-y,-z
x,y,-z
1/2-x,1/2+y,z
1/2+x,1/2-y,z
loop_
_atom_site_type_symbol
_atom_site_label
_atom_site_fract_x
_atom_site_fract_y
_atom_site_fract_z
Si Si1 0.999270 0.829380 0.713672
Si Si2 0.309017 0.737175 0.205285
Si Si3 0.410048 0.033294 0.207283
Si Si4 0.714062 0.871224 0.784029
Si Si5 0.407234 0.561475 0.703090
Si Si6 0.293222 0.341636 0.706787
Si Si7 0.216872 0.965822 0.284818
O O1 0.992847 0.829883 0.500000
O O2 0.914702 0.788733 0.771953
O O3 0.978399 0.892206 0.777872
O O4 0.106775 0.815108 0.772674
O O5 0.233545 0.691197 0.276051
O O6 0.291885 0.797961 0.276821
O O7 0.289789 0.741923 0.000000
O O8 0.379275 0.094106 0.274089
O O9 0.500000 0.000000 0.285683
O O10 0.314299 0.996345 0.226528
O O11 0.430558 0.041094 0.000000
O O12 0.805767 0.905383 0.713736
O O13 0.718596 0.872555 0.000000
O O14 0.436254 0.553478 0.500000
O O15 0.376325 0.501727 0.775494
O O16 0.308499 0.350692 0.500000
O O17 0.280003 0.403031 0.779305
O O18 0.215265 0.967758 0.500000
#
# Coordination Sequence:
#
# PCOD9426890 Si02
#       7
#     8   8   8   8   8   8   8
#     4   9  18  34  56  78 102 136 176 217 264 319
#     4  10  20  35  54  74 101 138 180 226 262 307
#     4   9  17  31  51  74 102 135 171 212 260 315
#     4   8  15  29  48  69  94 127 166 209 254 296
#     4   8  14  27  50  76  99 126 162 201 248 305
#     4  10  21  36  53  76 110 143 173 217 269 318
#     4   9  18  32  50  75 107 136 166 212 263 311
#
# _framework density 21.933357000000001
#
# number of rings (size 3 to 8) (size 9 to 14) (size 15 to 20)
#    0.000    3.000    0.000    0.429    0.000    2.571 
#    2.571    2.857    0.000    0.000    0.000   11.000 
#    0.000    0.000    0.000    0.000    0.000    0.000 
#
# Total GULP energy -312013.866676 kJ/mol
# GULP energy per Si atom -5571.676191 kJ/mol
# Density = 2.188344 g / cm^3
# Si number density = 21.933357 Si / 1000 Ang^3
#
#
#
# Elastic Constant Matrix: (Units=GPa)
#
#
# Indices 1 2 3 4 5 6 
#
# 1 40.4474 4.4735 -13.9408 0.0000 0.0000 0.0000
# 2 4.4735 104.3308 -12.0749 0.0000 0.0000 0.0000
# 3 -13.9408 -12.0749 46.0075 0.0000 0.0000 0.0000
# 4 0.0000 0.0000 0.0000 6.5944 0.0000 0.0000
# 5 0.0000 0.0000 0.0000 0.0000 20.8110 0.0000
# 6 0.0000 0.0000 0.0000 0.0000 0.0000 29.3747
#
#
#
# Elastic Compliance Matrix: (Units=1/GPa)
#
#
# Indices 1 2 3 4 5 6 
#
# 1 0.027612 -0.000222 0.008308 0.000000 0.000000 0.000000
# 2 -0.000222 0.009887 0.002527 0.000000 0.000000 0.000000
# 3 0.008308 0.002527 0.024916 0.000000 0.000000 0.000000
# 4 0.000000 0.000000 0.000000 0.151644 0.000000 0.000000
# 5 0.000000 0.000000 0.000000 0.000000 0.048051 0.000000
# 6 0.000000 0.000000 0.000000 0.000000 0.000000 0.034043
#
#
# Mechanical properties :
#
#
# Convention : Reuss Voigt Hill
#
# Bulk Modulus (GPa) = 11.95572 16.41126 14.18349
# Shear Modulus (GPa) = 16.51214 25.51121 21.01167
#
# Velocity S-wave (km/s) = 2.74676 3.41416 3.09848
# Velocity P-wave (km/s) = 3.93984 4.80006 4.39106
#
# Compressibility (1/GPa) = 0.08364194
#
# Stress axis : x y z
#
# Youngs Moduli (GPa) = 36.21657 101.14341 40.13416
#
# Poissons Ratio (x) = 0.02249 -0.33345
# Poissons Ratio (y) = 0.00805 -0.10144
# Poissons Ratio (z) = -0.30090 -0.25564
#
# Static dielectric constant tensor:
#      x y z
#    x 1.795920 0.000000 0.000000 
#    y 0.000000 1.859650 0.000000 
#    z 0.000000 0.000000 1.859810 
# 
# From -- ./inp_files/6063.got.cif
#   From: 2010.05.17/outbox.cif.g08.bks.cpg/sg55_4_cif.got.tgz:6063.got - 2010.06.03 13:27:54.
