data_PCOD9426176
_publ_section_title
;
Structure prediction by ZEFSAII (Michael W. Deem and Ramdas Pophale) SiO2 
 PCOD9426176
Probable space group: P B A M
;
_chemical_formula_sum "Si O2"
_cell_formula_units_Z 64
_cell_length_a 19.666465
_cell_length_b 23.695664
_cell_length_c 8.648936
_cell_angle_alpha 90.000000
_cell_angle_beta 90.000000
_cell_angle_gamma 90.000000
_cell_volume 4030.490204
_symmetry_space_group_name_H-M "P B A M"
_symmetry_group_IT_number 55
_symmetry_cell_setting 'orthorhombic'
loop_
_space_group_symop_operation_xyz
x,y,z
-x,-y,z
1/2+x,1/2-y,-z
1/2-x,1/2+y,-z
-x,-y,-z
x,y,-z
1/2-x,1/2+y,z
1/2+x,1/2-y,z
loop_
_atom_site_type_symbol
_atom_site_label
_atom_site_fract_x
_atom_site_fract_y
_atom_site_fract_z
Si Si1 0.492995 0.378014 0.814628
Si Si2 0.851061 0.061078 0.814969
Si Si3 0.157930 0.733345 0.312688
Si Si4 0.493602 0.251365 0.685763
Si Si5 0.242055 0.844619 0.685467
Si Si6 0.710656 0.328796 0.686737
Si Si7 0.866341 0.719781 0.183880
Si Si8 0.874240 0.937462 0.314562
O O1 0.421134 0.406525 0.772879
O O2 0.498917 0.316612 0.737836
O O3 0.554562 0.417110 0.757614
O O4 0.496350 0.371922 0.000000
O O5 0.789087 0.098228 0.751362
O O6 0.854078 0.998705 0.745771
O O7 0.847860 0.058041 0.000000
O O8 0.155876 0.733589 0.500000
O O9 0.080386 0.729617 0.260048
O O10 0.191772 0.793036 0.265874
O O11 0.211875 0.685335 0.266384
O O12 0.497109 0.249141 0.500000
O O13 0.556885 0.217781 0.755472
O O14 0.243067 0.846136 0.500000
O O15 0.316014 0.827246 0.746950
O O16 0.706322 0.322790 0.500000
O O17 0.664231 0.279771 0.758962
O O18 0.681268 0.389661 0.727789
O O19 0.864653 0.717706 0.000000
O O20 0.880678 0.938329 0.500000
#
# Coordination Sequence:
#
# PCOD9426176 Si02
#       8
#     8   8   8   8   8   8   8   8
#     4  11  22  34  47  69 103 138 172 213 252 293
#     4  11  23  36  50  71 103 137 173 214 257 300
#     4   8  16  30  51  73  96 124 161 208 251 293
#     4  11  19  31  51  75 100 134 169 203 248 304
#     4  10  19  35  54  73  97 130 172 212 250 299
#     4   9  18  34  51  72  97 129 170 213 251 296
#     4  11  21  32  49  74 103 133 163 205 257 302
#     4  11  22  34  52  72  98 137 180 214 248 299
#
# _framework density 15.878963000000001
#
# number of rings (size 3 to 8) (size 9 to 14) (size 15 to 20)
#    0.000    1.750    2.500    4.125    0.000    3.500 
#    0.000    0.625    0.000    0.000    0.000    0.875 
#    0.000    7.000    0.000    0.000    0.000    0.000 
#
# Total GULP energy -357262.374142 kJ/mol
# GULP energy per Si atom -5582.224596 kJ/mol
# Density = 1.584282 g / cm^3
# Si number density = 15.878963 Si / 1000 Ang^3
#
#
#
# Elastic Constant Matrix: (Units=GPa)
#
#
# Indices 1 2 3 4 5 6 
#
# 1 99.0449 23.9135 20.1001 0.0000 0.0000 0.0000
# 2 23.9135 49.9831 18.1035 0.0000 0.0000 0.0000
# 3 20.1001 18.1035 40.4020 0.0000 0.0000 0.0000
# 4 0.0000 0.0000 0.0000 10.8533 0.0000 0.0000
# 5 0.0000 0.0000 0.0000 0.0000 17.8162 0.0000
# 6 0.0000 0.0000 0.0000 0.0000 0.0000 19.8390
#
#
#
# Elastic Compliance Matrix: (Units=1/GPa)
#
#
# Indices 1 2 3 4 5 6 
#
# 1 0.011942 -0.004252 -0.004036 0.000000 0.000000 0.000000
# 2 -0.004252 0.025396 -0.009265 0.000000 0.000000 0.000000
# 3 -0.004036 -0.009265 0.030911 0.000000 0.000000 0.000000
# 4 0.000000 0.000000 0.000000 0.092138 0.000000 0.000000
# 5 0.000000 0.000000 0.000000 0.000000 0.056129 0.000000
# 6 0.000000 0.000000 0.000000 0.000000 0.000000 0.050406
#
#
# Mechanical properties :
#
#
# Convention : Reuss Voigt Hill
#
# Bulk Modulus (GPa) = 30.17098 34.85157 32.51128
# Shear Modulus (GPa) = 15.97068 18.18923 17.07995
#
# Velocity S-wave (km/s) = 3.17484 3.38818 3.28324
# Velocity P-wave (km/s) = 5.69924 6.10756 5.90693
#
# Compressibility (1/GPa) = 0.03314443
#
# Stress axis : x y z
#
# Youngs Moduli (GPa) = 83.73791 39.37564 32.35138
#
# Poissons Ratio (x) = 0.16741 0.13057
# Poissons Ratio (y) = 0.35602 0.29972
# Poissons Ratio (z) = 0.33798 0.36480
#
# Static dielectric constant tensor:
#      x y z
#    x 1.545090 0.000000 0.000000 
#    y 0.000000 1.502420 0.000000 
#    z 0.000000 0.000000 1.532530 
# 
# From -- ./inp_files/9114.got.cif
#   From: 2010.05.17/outbox.cif.g08.bks.cpg/sg55_5_cif.got.tgz:9114.got - 2010.06.03 13:27:54.
