data_PCOD9426583
_publ_section_title
;
Structure prediction by ZEFSAII (Michael W. Deem and Ramdas Pophale) SiO2 
 PCOD9426583
Probable space group: P B A M
;
_chemical_formula_sum "Si O2"
_cell_formula_units_Z 64
_cell_length_a 14.753404
_cell_length_b 28.404951
_cell_length_c 8.830589
_cell_angle_alpha 90.000000
_cell_angle_beta 90.000000
_cell_angle_gamma 90.000000
_cell_volume 3700.632439
_symmetry_space_group_name_H-M "P B A M"
_symmetry_group_IT_number 55
_symmetry_cell_setting 'orthorhombic'
loop_
_space_group_symop_operation_xyz
x,y,z
-x,-y,z
1/2+x,1/2-y,-z
1/2-x,1/2+y,-z
-x,-y,-z
x,y,-z
1/2-x,1/2+y,z
1/2+x,1/2-y,z
loop_
_atom_site_type_symbol
_atom_site_label
_atom_site_fract_x
_atom_site_fract_y
_atom_site_fract_z
Si Si1 0.729179 0.635879 0.819498
Si Si2 0.403812 0.552236 0.680442
Si Si3 0.389874 0.281688 0.321856
Si Si4 0.605370 0.283426 0.322220
Si Si5 0.899699 0.320436 0.180864
Si Si6 0.785112 0.867359 0.820994
Si Si7 0.597737 0.550555 0.818197
Si Si8 0.405125 0.825544 0.319016
O O1 0.667891 0.679349 0.763669
O O2 0.675192 0.588220 0.781474
O O3 0.826200 0.641115 0.740731
O O4 0.740097 0.638186 0.000000
O O5 0.411288 0.549507 0.500000
O O6 0.329522 0.589970 0.730209
O O7 0.501335 0.566684 0.749819
O O8 0.383672 0.500737 0.748678
O O9 0.367133 0.282304 0.500000
O O10 0.497430 0.291578 0.306287
O O11 0.374864 0.229639 0.256035
O O12 0.628572 0.289811 0.500000
O O13 0.660764 0.320007 0.223170
O O14 0.621274 0.228797 0.281189
O O15 0.819865 0.357178 0.214604
O O16 0.997499 0.334738 0.244681
O O17 0.904684 0.314257 0.000000
O O18 0.794335 0.876190 0.000000
O O19 0.589350 0.546955 0.000000
O O20 0.413754 0.827729 0.500000
#
# Coordination Sequence:
#
# PCOD9426583 Si02
#       8
#     8   8   8   8   8   8   8   8
#     4  11  22  34  53  79 105 138 177 215 259 311
#     4  11  22  36  57  82 108 137 169 210 258 310
#     4  10  20  33  50  75 109 144 178 217 260 306
#     4   9  19  33  49  74 106 140 176 214 257 305
#     4  10  21  36  53  74 104 141 181 222 261 307
#     4  11  22  34  52  77 104 138 176 215 260 308
#     4  10  21  38  58  80 109 139 168 208 257 311
#     4  10  21  36  54  75 104 141 177 219 265 308
#
# _framework density 17.294339999999998
#
# number of rings (size 3 to 8) (size 9 to 14) (size 15 to 20)
#    0.000    1.750    0.000    6.375    0.000   11.000 
#    0.000    0.000    0.000    0.750    0.000    5.250 
#    0.000    0.000    0.000    0.000    0.000    0.000 
#
# Total GULP energy -357650.347652 kJ/mol
# GULP energy per Si atom -5588.286682 kJ/mol
# Density = 1.725498 g / cm^3
# Si number density = 17.294340 Si / 1000 Ang^3
#
#
#
# Elastic Constant Matrix: (Units=GPa)
#
#
# Indices 1 2 3 4 5 6 
#
# 1 77.0786 61.7013 39.9936 0.0000 0.0000 0.0000
# 2 61.7013 65.3887 37.5282 0.0000 0.0000 0.0000
# 3 39.9936 37.5282 64.3976 0.0000 0.0000 0.0000
# 4 0.0000 0.0000 0.0000 1.7384 0.0000 0.0000
# 5 0.0000 0.0000 0.0000 0.0000 5.3594 0.0000
# 6 0.0000 0.0000 0.0000 0.0000 0.0000 28.4937
#
#
#
# Elastic Compliance Matrix: (Units=1/GPa)
#
#
# Indices 1 2 3 4 5 6 
#
# 1 0.054446 -0.048035 -0.005820 0.000000 0.000000 0.000000
# 2 -0.048035 0.065357 -0.008256 0.000000 0.000000 0.000000
# 3 -0.005820 -0.008256 0.023954 0.000000 0.000000 0.000000
# 4 0.000000 0.000000 0.000000 0.575242 0.000000 0.000000
# 5 0.000000 0.000000 0.000000 0.000000 0.186589 0.000000
# 6 0.000000 0.000000 0.000000 0.000000 0.000000 0.035095
#
#
# Mechanical properties :
#
#
# Convention : Reuss Voigt Hill
#
# Bulk Modulus (GPa) = 51.18940 53.92345 52.55643
# Shear Modulus (GPa) = 4.66671 11.62776 8.14724
#
# Velocity S-wave (km/s) = 1.64446 2.59577 2.17282
# Velocity P-wave (km/s) = 5.76792 6.34284 6.06220
#
# Compressibility (1/GPa) = 0.01953529
#
# Stress axis : x y z
#
# Youngs Moduli (GPa) = 18.36697 15.30050 41.74608
#
# Poissons Ratio (x) = 0.73496 0.24298
# Poissons Ratio (y) = 0.88225 0.34465
# Poissons Ratio (z) = 0.10690 0.12632
#
# Static dielectric constant tensor:
#      x y z
#    x 1.587790 0.000000 0.000000 
#    y 0.000000 1.564800 0.000000 
#    z 0.000000 0.000000 1.575290 
# 
# From -- ./inp_files/6931.got.cif
#   From: 2010.05.17/outbox.cif.g08.bks.cpg/sg55_4_cif.got.tgz:6931.got - 2010.06.03 13:27:54.
