data_PCOD9426291
_publ_section_title
;
Structure prediction by ZEFSAII (Michael W. Deem and Ramdas Pophale) SiO2 
 PCOD9426291
Probable space group: P B A M
;
_chemical_formula_sum "Si O2"
_cell_formula_units_Z 48
_cell_length_a 15.226167
_cell_length_b 19.289340
_cell_length_c 7.700653
_cell_angle_alpha 90.000000
_cell_angle_beta 90.000000
_cell_angle_gamma 90.000000
_cell_volume 2261.702672
_symmetry_space_group_name_H-M "P B A M"
_symmetry_group_IT_number 55
_symmetry_cell_setting 'orthorhombic'
loop_
_space_group_symop_operation_xyz
x,y,z
-x,-y,z
1/2+x,1/2-y,-z
1/2-x,1/2+y,-z
-x,-y,-z
x,y,-z
1/2-x,1/2+y,z
1/2+x,1/2-y,z
loop_
_atom_site_type_symbol
_atom_site_label
_atom_site_fract_x
_atom_site_fract_y
_atom_site_fract_z
Si Si1 0.003119 0.779506 0.213036
Si Si2 0.189997 0.262090 0.790236
Si Si3 0.754174 0.084219 0.297661
Si Si4 0.597162 0.980689 0.791245
Si Si5 0.451253 0.432707 0.797800
Si Si6 0.347934 0.170900 0.212359
O O1 0.908867 0.750904 0.269606
O O2 0.021451 0.857612 0.275385
O O3 0.079118 0.726665 0.266437
O O4 0.004484 0.780340 0.000000
O O5 0.229962 0.335970 0.738880
O O6 0.254143 0.200554 0.732169
O O7 0.188457 0.261672 0.000000
O O8 0.769844 0.075359 0.500000
O O9 0.670910 0.037748 0.246075
O O10 0.845672 0.062925 0.209062
O O11 0.500000 0.000000 0.725220
O O12 0.628446 0.905710 0.726224
O O13 0.590093 0.975568 0.000000
O O14 0.500000 0.500000 0.721348
O O15 0.478209 0.430005 0.000000
O O16 0.347856 0.169418 0.000000
#
# Coordination Sequence:
#
# PCOD9426291 Si02
#       6
#     8   8   8   8   8   8
#     4   9  17  32  58  91 115 139 184 246 302 342
#     4  10  19  35  61  86 113 147 196 252 294 347
#     4  12  25  40  58  85 126 168 198 235 297 366
#     4  10  21  38  63  91 118 152 200 254 302 349
#     4  10  21  38  64  91 116 153 204 256 301 348
#     4   9  17  31  56  88 114 140 185 247 302 343
#
# _framework density 21.222950000000001
#
# number of rings (size 3 to 8) (size 9 to 14) (size 15 to 20)
#    0.000    2.000    1.667    2.500    2.333    3.333 
#    0.000    1.667    0.000    0.000    0.000    0.000 
#    0.000    0.000    0.000    0.000    0.000    0.000 
#
# Total GULP energy -268179.696198 kJ/mol
# GULP energy per Si atom -5587.077004 kJ/mol
# Density = 2.117465 g / cm^3
# Si number density = 21.222950 Si / 1000 Ang^3
#
#
#
# Elastic Constant Matrix: (Units=GPa)
#
#
# Indices 1 2 3 4 5 6 
#
# 1 81.1861 16.0321 -15.0398 0.0000 0.0000 0.0000
# 2 16.0321 109.1770 -7.3636 0.0000 0.0000 0.0000
# 3 -15.0398 -7.3636 30.6624 0.0000 0.0000 0.0000
# 4 0.0000 0.0000 0.0000 -52.0185 0.0000 0.0000
# 5 0.0000 0.0000 0.0000 0.0000 91.0679 0.0000
# 6 0.0000 0.0000 0.0000 0.0000 0.0000 40.5531
#
#
#
# Elastic Compliance Matrix: (Units=1/GPa)
#
#
# Indices 1 2 3 4 5 6 
#
# 1 0.013817 -0.001598 0.006394 0.000000 0.000000 0.000000
# 2 -0.001598 0.009495 0.001497 0.000000 0.000000 0.000000
# 3 0.006394 0.001497 0.036109 0.000000 0.000000 0.000000
# 4 0.000000 0.000000 0.000000 -0.019224 0.000000 0.000000
# 5 0.000000 0.000000 0.000000 0.000000 0.010981 0.000000
# 6 0.000000 0.000000 0.000000 0.000000 0.000000 0.024659
#
#
# Mechanical properties :
#
#
# Convention : Reuss Voigt Hill
#
# Bulk Modulus (GPa) = 13.88777 23.14255 18.51516
# Shear Modulus (GPa) = 57.30390 31.08029 44.19209
#
# Velocity S-wave (km/s) = 5.20188 3.83099 4.56815
# Velocity P-wave (km/s) = 6.52973 5.52239 6.04707
#
# Compressibility (1/GPa) = 0.07200580
#
# Stress axis : x y z
#
# Youngs Moduli (GPa) = 72.37297 105.31861 27.69415
#
# Poissons Ratio (x) = 0.16828 -0.17707
# Poissons Ratio (y) = 0.11564 -0.04145
# Poissons Ratio (z) = -0.46273 -0.15761
#
# Static dielectric constant tensor:
#      x y z
#    x 1.726650 0.000000 0.000000 
#    y 0.000000 1.740880 0.000000 
#    z 0.000000 0.000000 1.792660 
# 
# From -- ./inp_files/5660.got.cif
#   From: 2010.05.17/outbox.cif.g08.bks.cpg/sg55_3_cif.got.tgz:5660.got - 2010.06.03 13:27:54.
