data_PCOD9426179
_publ_section_title
;
Structure prediction by ZEFSAII (Michael W. Deem and Ramdas Pophale) SiO2 
 PCOD9426179
Probable space group: P B A M
;
_chemical_formula_sum "Si O2"
_cell_formula_units_Z 56
_cell_length_a 13.830384
_cell_length_b 24.869209
_cell_length_c 7.871622
_cell_angle_alpha 90.000000
_cell_angle_beta 90.000000
_cell_angle_gamma 90.000000
_cell_volume 2707.449978
_symmetry_space_group_name_H-M "P B A M"
_symmetry_group_IT_number 55
_symmetry_cell_setting 'orthorhombic'
loop_
_space_group_symop_operation_xyz
x,y,z
-x,-y,z
1/2+x,1/2-y,-z
1/2-x,1/2+y,-z
-x,-y,-z
x,y,-z
1/2-x,1/2+y,z
1/2+x,1/2-y,z
loop_
_atom_site_type_symbol
_atom_site_label
_atom_site_fract_x
_atom_site_fract_y
_atom_site_fract_z
Si Si1 0.386713 0.872138 0.295535
Si Si2 0.306968 0.431375 0.301166
Si Si3 0.720492 0.449540 0.199115
Si Si4 0.080375 0.831760 0.198580
Si Si5 0.135708 0.163036 0.209259
Si Si6 0.943381 0.445215 0.705840
Si Si7 0.268081 0.770777 0.796018
O O1 0.389207 0.874091 0.500000
O O2 0.299090 0.911595 0.239350
O O3 0.488821 0.895804 0.236338
O O4 0.353846 0.812963 0.242476
O O5 0.312646 0.418562 0.500000
O O6 0.315202 0.494739 0.278272
O O7 0.385278 0.393602 0.212472
O O8 0.671485 0.395301 0.266518
O O9 0.835704 0.444898 0.224104
O O10 0.699243 0.453216 0.000000
O O11 0.168225 0.796248 0.272714
O O12 0.973284 0.825581 0.269352
O O13 0.073794 0.817688 0.000000
O O14 0.204954 0.211556 0.264713
O O15 0.135952 0.162482 0.000000
O O16 0.935784 0.444503 0.500000
O O17 0.000000 0.500000 0.750931
O O18 0.259846 0.768676 0.000000
#
# Coordination Sequence:
#
# PCOD9426179 Si02
#       7
#     8   8   8   8   8   8   8
#     4   9  18  33  54  77 105 142 177 216 270 323
#     4  10  19  35  55  77 107 142 179 222 272 322
#     4  11  22  34  52  80 111 143 184 228 269 323
#     4   9  18  35  58  79 103 140 180 218 264 323
#     4   9  20  37  54  78 113 144 171 221 283 320
#     4  10  19  35  54  76 110 149 176 211 276 332
#     4   9  18  34  57  80 102 137 184 222 260 318
#
# _framework density 20.683668000000001
#
# number of rings (size 3 to 8) (size 9 to 14) (size 15 to 20)
#    0.000    2.429    1.429    0.857    0.000    3.143 
#    0.000    9.286    0.000    3.429    0.000    0.000 
#    0.000    0.000    0.000    0.000    0.000    0.000 
#
# Total GULP energy -312547.554020 kJ/mol
# GULP energy per Si atom -5581.206322 kJ/mol
# Density = 2.063659 g / cm^3
# Si number density = 20.683668 Si / 1000 Ang^3
#
#
#
# Elastic Constant Matrix: (Units=GPa)
#
#
# Indices 1 2 3 4 5 6 
#
# 1 84.0279 35.4528 -4.3909 0.0000 0.0000 0.0000
# 2 35.4528 111.7531 -8.0187 0.0000 0.0000 0.0000
# 3 -4.3909 -8.0187 19.5482 0.0000 0.0000 0.0000
# 4 0.0000 0.0000 0.0000 -16.3759 0.0000 0.0000
# 5 0.0000 0.0000 0.0000 0.0000 5.9394 0.0000
# 6 0.0000 0.0000 0.0000 0.0000 0.0000 18.7436
#
#
#
# Elastic Compliance Matrix: (Units=1/GPa)
#
#
# Indices 1 2 3 4 5 6 
#
# 1 0.013774 -0.004273 0.001341 0.000000 0.000000 0.000000
# 2 -0.004273 0.010546 0.003366 0.000000 0.000000 0.000000
# 3 0.001341 0.003366 0.052837 0.000000 0.000000 0.000000
# 4 0.000000 0.000000 0.000000 -0.061065 0.000000 0.000000
# 5 0.000000 0.000000 0.000000 0.000000 0.168367 0.000000
# 6 0.000000 0.000000 0.000000 0.000000 0.000000 0.053352
#
#
# Mechanical properties :
#
#
# Convention : Reuss Voigt Hill
#
# Bulk Modulus (GPa) = 12.81666 29.04619 20.93143
# Shear Modulus (GPa) = 19.01495 14.48049 16.74772
#
# Velocity S-wave (km/s) = 3.03532 2.64880 2.84862
# Velocity P-wave (km/s) = 4.30049 4.84029 4.57835
#
# Compressibility (1/GPa) = 0.07802347
#
# Stress axis : x y z
#
# Youngs Moduli (GPa) = 72.60099 94.82695 18.92600
#
# Poissons Ratio (x) = 0.40524 -0.02538
# Poissons Ratio (y) = 0.31026 -0.06370
# Poissons Ratio (z) = -0.09735 -0.31917
#
# Static dielectric constant tensor:
#      x y z
#    x 1.731420 0.000000 0.000000 
#    y 0.000000 1.728460 0.000000 
#    z 0.000000 0.000000 1.751670 
# 
# From -- ./inp_files/6087.got.cif
#   From: 2010.05.17/outbox.cif.g08.bks.cpg/sg55_4_cif.got.tgz:6087.got - 2010.06.03 13:27:54.
