data_PCOD9426934
_publ_section_title
;
Structure prediction by ZEFSAII (Michael W. Deem and Ramdas Pophale) SiO2 
 PCOD9426934
Probable space group: P B A M
;
_chemical_formula_sum "Si O2"
_cell_formula_units_Z 56
_cell_length_a 13.403783
_cell_length_b 24.154091
_cell_length_c 9.078769
_cell_angle_alpha 90.000000
_cell_angle_beta 90.000000
_cell_angle_gamma 90.000000
_cell_volume 2939.307701
_symmetry_space_group_name_H-M "P B A M"
_symmetry_group_IT_number 55
_symmetry_cell_setting 'orthorhombic'
loop_
_space_group_symop_operation_xyz
x,y,z
-x,-y,z
1/2+x,1/2-y,-z
1/2-x,1/2+y,-z
-x,-y,-z
x,y,-z
1/2-x,1/2+y,z
1/2+x,1/2-y,z
loop_
_atom_site_type_symbol
_atom_site_label
_atom_site_fract_x
_atom_site_fract_y
_atom_site_fract_z
Si Si1 0.647158 0.165332 0.674081
Si Si2 0.584564 0.829554 0.673851
Si Si3 0.764219 0.769428 0.824723
Si Si4 0.614405 0.365862 0.673378
Si Si5 0.281492 0.944192 0.174128
Si Si6 0.455635 0.439960 0.824612
Si Si7 0.690408 0.941777 0.672189
O O1 0.667795 0.167267 0.500000
O O2 0.531387 0.181043 0.696778
O O3 0.714515 0.209118 0.760130
O O4 0.665807 0.104396 0.736491
O O5 0.609027 0.821658 0.500000
O O6 0.657818 0.791916 0.768709
O O7 0.610992 0.893672 0.706765
O O8 0.845860 0.811861 0.757388
O O9 0.769178 0.769700 0.000000
O O10 0.604649 0.353816 0.500000
O O11 0.514700 0.392324 0.739074
O O12 0.702256 0.411746 0.691108
O O13 0.162384 0.939884 0.201899
O O14 0.315990 0.004299 0.228754
O O15 0.298236 0.937858 0.000000
O O16 0.500000 0.500000 0.781699
O O17 0.473015 0.433246 0.000000
O O18 0.680409 0.957074 0.500000
#
# Coordination Sequence:
#
# PCOD9426934 Si02
#       7
#     8   8   8   8   8   8   8
#     4  11  24  43  64  86 119 157 198 247 295 347
#     4   9  21  42  66  89 114 153 199 243 290 348
#     4  11  23  40  64  90 119 153 195 245 298 356
#     4  10  20  35  59  88 118 157 204 246 291 352
#     4  11  23  37  56  85 123 159 197 245 299 355
#     4  10  20  35  55  84 123 161 198 244 299 353
#     4   9  18  35  58  85 115 149 195 241 290 351
#
# _framework density 19.052105999999998
#
# number of rings (size 3 to 8) (size 9 to 14) (size 15 to 20)
#    0.000    1.857    1.429    3.429    0.000    6.571 
#    0.000    2.857    0.000    0.000    0.000    0.000 
#    0.000    0.000    0.000    0.000    0.000    0.000 
#
# Total GULP energy -312964.462905 kJ/mol
# GULP energy per Si atom -5588.651123 kJ/mol
# Density = 1.900874 g / cm^3
# Si number density = 19.052106 Si / 1000 Ang^3
#
#
#
# Elastic Constant Matrix: (Units=GPa)
#
#
# Indices 1 2 3 4 5 6 
#
# 1 40.2351 15.0420 42.4238 0.0000 0.0000 0.0000
# 2 15.0420 67.3269 47.4009 0.0000 0.0000 0.0000
# 3 42.4238 47.4009 93.4870 0.0000 0.0000 0.0000
# 4 0.0000 0.0000 0.0000 15.1091 0.0000 0.0000
# 5 0.0000 0.0000 0.0000 0.0000 25.1488 0.0000
# 6 0.0000 0.0000 0.0000 0.0000 0.0000 17.7777
#
#
#
# Elastic Compliance Matrix: (Units=1/GPa)
#
#
# Indices 1 2 3 4 5 6 
#
# 1 0.049957 0.007464 -0.026455 0.000000 0.000000 0.000000
# 2 0.007464 0.024214 -0.015664 0.000000 0.000000 0.000000
# 3 -0.026455 -0.015664 0.030644 0.000000 0.000000 0.000000
# 4 0.000000 0.000000 0.000000 0.066185 0.000000 0.000000
# 5 0.000000 0.000000 0.000000 0.000000 0.039763 0.000000
# 6 0.000000 0.000000 0.000000 0.000000 0.000000 0.056250
#
#
# Mechanical properties :
#
#
# Convention : Reuss Voigt Hill
#
# Bulk Modulus (GPa) = 28.16517 45.64250 36.90383
# Shear Modulus (GPa) = 14.36128 18.01929 16.19028
#
# Velocity S-wave (km/s) = 2.74850 3.07871 2.91828
# Velocity P-wave (km/s) = 4.98875 6.05364 5.54681
#
# Compressibility (1/GPa) = 0.03550485
#
# Stress axis : x y z
#
# Youngs Moduli (GPa) = 20.01705 41.29926 32.63294
#
# Poissons Ratio (x) = -0.30825 0.86330
# Poissons Ratio (y) = -0.14941 0.51117
# Poissons Ratio (z) = 0.52955 0.64692
#
# Static dielectric constant tensor:
#      x y z
#    x 1.652900 0.000000 0.000000 
#    y 0.000000 1.642500 0.000000 
#    z 0.000000 0.000000 1.633310 
# 
# From -- ./inp_files/6195.got.cif
#   From: 2010.05.17/outbox.cif.g08.bks.cpg/sg55_4_cif.got.tgz:6195.got - 2010.06.03 13:27:54.
