data_PCOD9426442
_publ_section_title
;
Structure prediction by ZEFSAII (Michael W. Deem and Ramdas Pophale) SiO2 
 PCOD9426442
Probable space group: P B A M
;
_chemical_formula_sum "Si O2"
_cell_formula_units_Z 48
_cell_length_a 31.591874
_cell_length_b 9.084314
_cell_length_c 8.290701
_cell_angle_alpha 90.000000
_cell_angle_beta 90.000000
_cell_angle_gamma 90.000000
_cell_volume 2379.352452
_symmetry_space_group_name_H-M "P B A M"
_symmetry_group_IT_number 55
_symmetry_cell_setting 'orthorhombic'
loop_
_space_group_symop_operation_xyz
x,y,z
-x,-y,z
1/2+x,1/2-y,-z
1/2-x,1/2+y,-z
-x,-y,-z
x,y,-z
1/2-x,1/2+y,z
1/2+x,1/2-y,z
loop_
_atom_site_type_symbol
_atom_site_label
_atom_site_fract_x
_atom_site_fract_y
_atom_site_fract_z
Si Si1 0.792160 0.919248 0.696581
Si Si2 0.880253 0.427851 0.188022
Si Si3 0.039527 0.401676 0.689688
Si Si4 0.374954 0.401747 0.690807
Si Si5 0.455851 0.572849 0.809704
Si Si6 0.794414 0.578785 0.304168
O O1 0.792473 0.918773 0.500000
O O2 0.833312 0.010679 0.748431
O O3 0.748751 0.997793 0.746744
O O4 0.794057 0.749333 0.747521
O O5 0.917639 0.507057 0.285215
O O6 0.879907 0.254436 0.223451
O O7 0.835368 0.496148 0.238253
O O8 0.887986 0.454484 0.000000
O O9 0.033358 0.370988 0.500000
O O10 0.042295 0.246614 0.779175
O O11 0.000000 0.500000 0.746794
O O12 0.370056 0.373464 0.500000
O O13 0.416115 0.500940 0.720446
O O14 0.500000 0.500000 0.755496
O O15 0.450944 0.543086 0.000000
O O16 0.796108 0.575034 0.500000
#
# Coordination Sequence:
#
# PCOD9426442 Si02
#       6
#     8   8   8   8   8   8
#     4   9  19  35  61  91 117 151 197 250 300 352
#     4  12  25  40  59  87 122 159 199 248 308 362
#     4  11  24  42  65  91 118 155 205 253 295 349
#     4  11  22  39  63  90 120 158 205 251 296 353
#     4  11  24  41  62  91 127 162 195 239 299 360
#     4  10  19  37  62  88 118 154 199 246 298 360
#
# _framework density 20.173555
#
# number of rings (size 3 to 8) (size 9 to 14) (size 15 to 20)
#    0.000    1.333    0.000    6.000    0.000    9.333 
#    0.000    5.000    0.000    0.000    0.000    0.000 
#    0.000    0.000    0.000    0.000    0.000    0.000 
#
# Total GULP energy -268552.631523 kJ/mol
# GULP energy per Si atom -5594.846490 kJ/mol
# Density = 2.012764 g / cm^3
# Si number density = 20.173555 Si / 1000 Ang^3
#
#
#
# Elastic Constant Matrix: (Units=GPa)
#
#
# Indices 1 2 3 4 5 6 
#
# 1 139.2112 48.0983 -13.4107 0.0000 0.0000 0.0000
# 2 48.0983 126.6172 -14.5812 0.0000 0.0000 0.0000
# 3 -13.4107 -14.5812 18.6698 0.0000 0.0000 0.0000
# 4 0.0000 0.0000 0.0000 24.3727 0.0000 0.0000
# 5 0.0000 0.0000 0.0000 0.0000 -4.9709 0.0000
# 6 0.0000 0.0000 0.0000 0.0000 0.0000 43.1772
#
#
#
# Elastic Compliance Matrix: (Units=1/GPa)
#
#
# Indices 1 2 3 4 5 6 
#
# 1 0.008526 -0.002784 0.003950 0.000000 0.000000 0.000000
# 2 -0.002784 0.009587 0.005488 0.000000 0.000000 0.000000
# 3 0.003950 0.005488 0.060686 0.000000 0.000000 0.000000
# 4 0.000000 0.000000 0.000000 0.041029 0.000000 0.000000
# 5 0.000000 0.000000 0.000000 0.000000 -0.201171 0.000000
# 6 0.000000 0.000000 0.000000 0.000000 0.000000 0.023160
#
#
# Mechanical properties :
#
#
# Convention : Reuss Voigt Hill
#
# Bulk Modulus (GPa) = 10.85690 36.07901 23.46796
# Shear Modulus (GPa) = -122.58339 30.14193 -46.22073
#
# Velocity S-wave (km/s) = -7.80361 3.86959 -4.79179
# Velocity P-wave (km/s) = 8.70641 6.15533 4.35394
#
# Compressibility (1/GPa) = 0.09210731
#
# Stress axis : x y z
#
# Youngs Moduli (GPa) = 117.29308 104.30448 16.47830
#
# Poissons Ratio (x) = 0.29036 -0.06509
# Poissons Ratio (y) = 0.32652 -0.09044
# Poissons Ratio (z) = -0.46329 -0.57244
#
# Static dielectric constant tensor:
#      x y z
#    x 1.675500 0.000000 0.000000 
#    y 0.000000 1.665240 0.000000 
#    z 0.000000 0.000000 1.692680 
# 
# From -- ./inp_files/10490.got.cif
#   From: 2010.05.17/outbox.cif.g08.bks.cpg/sg55_6_cif.got.tgz:10490.got - 2010.06.03 13:27:54.
