data_PCOD9426267
_publ_section_title
;
Structure prediction by ZEFSAII (Michael W. Deem and Ramdas Pophale) SiO2 
 PCOD9426267
Probable space group: P B A M
;
_chemical_formula_sum "Si O2"
_cell_formula_units_Z 64
_cell_length_a 23.763035
_cell_length_b 15.979201
_cell_length_c 7.752356
_cell_angle_alpha 90.000000
_cell_angle_beta 90.000000
_cell_angle_gamma 90.000000
_cell_volume 2943.680530
_symmetry_space_group_name_H-M "P B A M"
_symmetry_group_IT_number 55
_symmetry_cell_setting 'orthorhombic'
loop_
_space_group_symop_operation_xyz
x,y,z
-x,-y,z
1/2+x,1/2-y,-z
1/2-x,1/2+y,-z
-x,-y,-z
x,y,-z
1/2-x,1/2+y,z
1/2+x,1/2-y,z
loop_
_atom_site_type_symbol
_atom_site_label
_atom_site_fract_x
_atom_site_fract_y
_atom_site_fract_z
Si Si1 0.050441 0.705884 0.791871
Si Si2 0.192764 0.126093 0.797258
Si Si3 0.236081 0.477306 0.197999
Si Si4 0.428846 0.574794 0.698896
Si Si5 0.946103 0.109527 0.198628
Si Si6 0.932873 0.630217 0.208109
Si Si7 0.190243 0.308022 0.787681
Si Si8 0.883325 0.459226 0.298954
O O1 0.067382 0.798460 0.729765
O O2 0.092511 0.630970 0.748223
O O3 0.988601 0.677066 0.728589
O O4 0.047160 0.712730 0.000000
O O5 0.126164 0.115148 0.779540
O O6 0.208613 0.216920 0.726911
O O7 0.223255 0.045514 0.718757
O O8 0.207769 0.127448 0.000000
O O9 0.228312 0.385007 0.273926
O O10 0.173411 0.516412 0.199116
O O11 0.254921 0.464734 0.000000
O O12 0.434055 0.599356 0.500000
O O13 0.424244 0.473844 0.709613
O O14 0.485967 0.601330 0.793449
O O15 0.927327 0.103789 0.000000
O O16 0.874306 0.672905 0.264222
O O17 0.928122 0.533034 0.260936
O O18 0.934090 0.632250 0.000000
O O19 0.190383 0.308900 0.000000
O O20 0.869529 0.461754 0.500000
#
# Coordination Sequence:
#
# PCOD9426267 Si02
#       8
#     8   8   8   8   8   8   8   8
#     4  10  20  34  55  81 106 141 185 227 268 318
#     4  10  19  35  60  83 104 139 189 235 272 320
#     4   9  19  37  57  77 105 141 185 236 278 315
#     4  11  22  36  55  81 116 146 172 217 279 333
#     4  10  20  37  59  81 108 143 187 226 262 317
#     4   9  17  32  54  77 105 138 179 226 270 317
#     4   8  15  31  55  81 104 131 175 231 280 316
#     4  11  22  34  50  74 111 148 179 220 275 336
#
# _framework density 21.741489999999999
#
# number of rings (size 3 to 8) (size 9 to 14) (size 15 to 20)
#    0.000    2.250    0.000    5.250    0.000    5.500 
#    2.250    5.000    0.000    0.000    0.000    0.000 
#    0.000    0.000    0.000    0.000    0.000    0.000 
#
# Total GULP energy -357370.941818 kJ/mol
# GULP energy per Si atom -5583.920966 kJ/mol
# Density = 2.169201 g / cm^3
# Si number density = 21.741490 Si / 1000 Ang^3
#
#
#
# Elastic Constant Matrix: (Units=GPa)
#
#
# Indices 1 2 3 4 5 6 
#
# 1 16.5838 24.1827 -10.0670 0.0000 0.0000 0.0000
# 2 24.1827 152.4693 -7.1191 0.0000 0.0000 0.0000
# 3 -10.0670 -7.1191 41.4284 0.0000 0.0000 0.0000
# 4 0.0000 0.0000 0.0000 -43.7786 0.0000 0.0000
# 5 0.0000 0.0000 0.0000 0.0000 -35.9671 0.0000
# 6 0.0000 0.0000 0.0000 0.0000 0.0000 15.8103
#
#
#
# Elastic Compliance Matrix: (Units=1/GPa)
#
#
# Indices 1 2 3 4 5 6 
#
# 1 0.092555 -0.013740 0.020129 0.000000 0.000000 0.000000
# 2 -0.013740 0.008651 -0.001852 0.000000 0.000000 0.000000
# 3 0.020129 -0.001852 0.028711 0.000000 0.000000 0.000000
# 4 0.000000 0.000000 0.000000 -0.022842 0.000000 0.000000
# 5 0.000000 0.000000 0.000000 0.000000 -0.027803 0.000000
# 6 0.000000 0.000000 0.000000 0.000000 0.000000 0.063250
#
#
# Mechanical properties :
#
#
# Convention : Reuss Voigt Hill
#
# Bulk Modulus (GPa) = 7.19465 24.94165 16.06815
# Shear Modulus (GPa) = 27.81206 0.77856 14.29531
#
# Velocity S-wave (km/s) = 3.58049 0.59906 2.56698
# Velocity P-wave (km/s) = 4.51770 3.46054 4.02399
#
# Compressibility (1/GPa) = 0.13899224
#
# Stress axis : x y z
#
# Youngs Moduli (GPa) = 10.80441 115.58716 34.82966
#
# Poissons Ratio (x) = 1.58817 -0.70110
# Poissons Ratio (y) = 0.14845 0.06451
# Poissons Ratio (z) = -0.21749 0.21408
#
# Static dielectric constant tensor:
#      x y z
#    x 1.760940 0.000000 0.000000 
#    y 0.000000 1.827330 0.000000 
#    z 0.000000 0.000000 1.794940 
# 
# From -- ./inp_files/9694.got.cif
#   From: 2010.05.17/outbox.cif.g08.bks.cpg/sg55_5_cif.got.tgz:9694.got - 2010.06.03 13:27:54.
