data_PCOD9426902
_publ_section_title
;
Structure prediction by ZEFSAII (Michael W. Deem and Ramdas Pophale) SiO2 
 PCOD9426902
Probable space group: P B A M
;
_chemical_formula_sum "Si O2"
_cell_formula_units_Z 64
_cell_length_a 15.634198
_cell_length_b 23.488654
_cell_length_c 8.644220
_cell_angle_alpha 90.000000
_cell_angle_beta 90.000000
_cell_angle_gamma 90.000000
_cell_volume 3174.384645
_symmetry_space_group_name_H-M "P B A M"
_symmetry_group_IT_number 55
_symmetry_cell_setting 'orthorhombic'
loop_
_space_group_symop_operation_xyz
x,y,z
-x,-y,z
1/2+x,1/2-y,-z
1/2-x,1/2+y,-z
-x,-y,-z
x,y,-z
1/2-x,1/2+y,z
1/2+x,1/2-y,z
loop_
_atom_site_type_symbol
_atom_site_label
_atom_site_fract_x
_atom_site_fract_y
_atom_site_fract_z
Si Si1 0.106864 0.447695 0.681436
Si Si2 0.130244 0.684749 0.316118
Si Si3 0.043084 0.897898 0.316087
Si Si4 0.429960 0.070194 0.181221
Si Si5 0.019970 0.229712 0.315071
Si Si6 0.694546 0.301965 0.816284
Si Si7 0.134018 0.071002 0.813960
Si Si8 0.287031 0.451881 0.184167
O O1 0.093837 0.438422 0.500000
O O2 0.097802 0.514713 0.722996
O O3 0.201413 0.430446 0.733493
O O4 0.029160 0.419126 0.774927
O O5 0.128047 0.675150 0.500000
O O6 0.123599 0.625091 0.227675
O O7 0.218618 0.714594 0.269122
O O8 0.048716 0.722764 0.272168
O O9 0.054025 0.903978 0.500000
O O10 0.128527 0.917549 0.231235
O O11 0.020417 0.832210 0.280110
O O12 0.959616 0.932656 0.261252
O O13 0.421058 0.057415 0.000000
O O14 0.033786 0.232132 0.500000
O O15 0.111148 0.233300 0.232308
O O16 0.673155 0.367736 0.770961
O O17 0.706683 0.299782 0.000000
O O18 0.192545 0.017541 0.770500
O O19 0.124049 0.070178 0.000000
O O20 0.274230 0.450233 0.000000
#
# Coordination Sequence:
#
# PCOD9426902 Si02
#       8
#     8   8   8   8   8   8   8   8
#     4  11  22  38  59  85 117 153 191 231 281 344
#     4  11  22  39  63  88 114 153 200 244 293 351
#     4  10  20  35  54  78 110 148 192 239 288 341
#     4  11  22  39  61  86 117 149 185 236 291 342
#     4   9  21  41  60  81 114 155 195 243 297 347
#     4  10  20  36  60  88 115 147 190 245 300 350
#     4   9  19  34  53  78 111 148 186 231 287 344
#     4  11  21  34  53  81 116 154 191 230 285 346
#
# _framework density 20.161387000000001
#
# number of rings (size 3 to 8) (size 9 to 14) (size 15 to 20)
#    0.000    1.750    0.000    5.625    0.000    5.500 
#    2.250    0.000    0.000    0.000    0.000    0.000 
#    0.000    0.000    0.000    0.000    0.000    0.000 
#
# Total GULP energy -357788.526585 kJ/mol
# GULP energy per Si atom -5590.445728 kJ/mol
# Density = 2.011550 g / cm^3
# Si number density = 20.161387 Si / 1000 Ang^3
#
#
#
# Elastic Constant Matrix: (Units=GPa)
#
#
# Indices 1 2 3 4 5 6 
#
# 1 110.2017 4.9454 9.1784 0.0000 0.0000 0.0000
# 2 4.9454 15.5041 3.3168 0.0000 0.0000 0.0000
# 3 9.1784 3.3168 26.6909 0.0000 0.0000 0.0000
# 4 0.0000 0.0000 0.0000 18.8086 0.0000 0.0000
# 5 0.0000 0.0000 0.0000 0.0000 35.5568 0.0000
# 6 0.0000 0.0000 0.0000 0.0000 0.0000 22.3831
#
#
#
# Elastic Compliance Matrix: (Units=1/GPa)
#
#
# Indices 1 2 3 4 5 6 
#
# 1 0.009426 -0.002376 -0.002946 0.000000 0.000000 0.000000
# 2 -0.002376 0.066860 -0.007491 0.000000 0.000000 0.000000
# 3 -0.002946 -0.007491 0.039410 0.000000 0.000000 0.000000
# 4 0.000000 0.000000 0.000000 0.053167 0.000000 0.000000
# 5 0.000000 0.000000 0.000000 0.000000 0.028124 0.000000
# 6 0.000000 0.000000 0.000000 0.000000 0.000000 0.044677
#
#
# Mechanical properties :
#
#
# Convention : Reuss Voigt Hill
#
# Bulk Modulus (GPa) = 11.10269 20.80864 15.95566
# Shear Modulus (GPa) = 16.81722 24.34676 20.58199
#
# Velocity S-wave (km/s) = 2.89126 3.47881 3.19856
# Velocity P-wave (km/s) = 4.08225 5.14584 4.64459
#
# Compressibility (1/GPa) = 0.09006830
#
# Stress axis : x y z
#
# Youngs Moduli (GPa) = 106.08621 14.95668 25.37431
#
# Poissons Ratio (x) = 0.03554 0.07476
# Poissons Ratio (y) = 0.25211 0.19008
# Poissons Ratio (z) = 0.31255 0.11204
#
# Static dielectric constant tensor:
#      x y z
#    x 1.718490 0.000000 0.000000 
#    y 0.000000 1.715240 0.000000 
#    z 0.000000 0.000000 1.672950 
# 
# From -- ./inp_files/6680.got.cif
#   From: 2010.05.17/outbox.cif.g08.bks.cpg/sg55_4_cif.got.tgz:6680.got - 2010.06.03 13:27:54.
