data_PCOD9426476
_publ_section_title
;
Structure prediction by ZEFSAII (Michael W. Deem and Ramdas Pophale) SiO2 
 PCOD9426476
Probable space group: P B A M
;
_chemical_formula_sum "Si O2"
_cell_formula_units_Z 60
_cell_length_a 12.632787
_cell_length_b 16.519971
_cell_length_c 13.623532
_cell_angle_alpha 90.000000
_cell_angle_beta 90.000000
_cell_angle_gamma 90.000000
_cell_volume 2843.139509
_symmetry_space_group_name_H-M "P B A M"
_symmetry_group_IT_number 55
_symmetry_cell_setting 'orthorhombic'
loop_
_space_group_symop_operation_xyz
x,y,z
-x,-y,z
1/2+x,1/2-y,-z
1/2-x,1/2+y,-z
-x,-y,-z
x,y,-z
1/2-x,1/2+y,z
1/2+x,1/2-y,z
loop_
_atom_site_type_symbol
_atom_site_label
_atom_site_fract_x
_atom_site_fract_y
_atom_site_fract_z
Si Si1 0.000000 0.000000 0.254064
Si Si2 0.804515 0.402567 0.786234
Si Si3 0.171773 0.906384 0.115005
Si Si4 0.602580 0.340106 0.303588
Si Si5 0.609877 0.032896 0.891122
Si Si6 0.722434 0.196392 0.610011
Si Si7 0.625189 0.019419 0.611735
Si Si8 0.396324 0.263876 0.226587
O O1 0.048817 0.072125 0.320348
O O2 0.906624 0.039343 0.184652
O O3 0.692863 0.360404 0.774902
O O4 0.820257 0.451562 0.885008
O O5 0.819610 0.464291 0.694638
O O6 0.888210 0.331413 0.781052
O O7 0.134166 0.814686 0.131154
O O8 0.297088 0.907985 0.145646
O O9 0.164679 0.929008 0.000000
O O10 0.656737 0.280626 0.382069
O O11 0.512823 0.286685 0.256171
O O12 0.500000 0.000000 0.843209
O O13 0.580744 0.060052 0.000000
O O14 0.766552 0.189880 0.500000
O O15 0.653073 0.114630 0.625999
O O16 0.815877 0.204710 0.688871
O O17 0.660025 0.998402 0.500000
O O18 0.500000 0.000000 0.616224
#
# Coordination Sequence:
#
# PCOD9426476 Si02
#       8
#     4   8   8   8   8   8   8   8
#     4  10  19  38  63  90 126 162 213 266 319 380
#     4  11  21  37  60  86 119 157 203 253 310 371
#     4  10  20  37  61  88 121 165 212 260 320 383
#     4  10  22  38  61  89 122 163 205 258 315 381
#     4  10  21  36  57  85 118 157 203 253 307 371
#     4  10  22  40  60  85 122 162 204 254 316 384
#     4  10  21  37  60  85 109 148 203 251 297 365
#     4  10  23  38  59  86 124 160 202 258 316 375
#
# _framework density 21.103431
#
# number of rings (size 3 to 8) (size 9 to 14) (size 15 to 20)
#    0.000    1.867    1.333    2.200    1.867    5.333 
#    0.000    0.333    0.000    0.800    0.000    0.000 
#    0.000    0.000    0.000    0.000    0.000    0.000 
#
# Total GULP energy -334040.637236 kJ/mol
# GULP energy per Si atom -5567.343954 kJ/mol
# Density = 2.105540 g / cm^3
# Si number density = 21.103431 Si / 1000 Ang^3
#
#
#
# Elastic Constant Matrix: (Units=GPa)
#
#
# Indices 1 2 3 4 5 6 
#
# 1 71.6703 -8.5471 10.4306 0.0000 0.0000 0.0000
# 2 -8.5471 90.5790 20.2564 0.0000 0.0000 0.0000
# 3 10.4306 20.2564 82.6762 0.0000 0.0000 0.0000
# 4 0.0000 0.0000 0.0000 24.4933 0.0000 0.0000
# 5 0.0000 0.0000 0.0000 0.0000 5.2974 0.0000
# 6 0.0000 0.0000 0.0000 0.0000 0.0000 26.6491
#
#
#
# Elastic Compliance Matrix: (Units=1/GPa)
#
#
# Indices 1 2 3 4 5 6 
#
# 1 0.014511 0.001882 -0.002292 0.000000 0.000000 0.000000
# 2 0.001882 0.011924 -0.003159 0.000000 0.000000 0.000000
# 3 -0.002292 -0.003159 0.013158 0.000000 0.000000 0.000000
# 4 0.000000 0.000000 0.000000 0.040828 0.000000 0.000000
# 5 0.000000 0.000000 0.000000 0.000000 0.188771 0.000000
# 6 0.000000 0.000000 0.000000 0.000000 0.000000 0.037525
#
#
# Mechanical properties :
#
#
# Convention : Reuss Voigt Hill
#
# Bulk Modulus (GPa) = 30.81145 32.13392 31.47268
# Shear Modulus (GPa) = 15.40010 26.14034 20.77022
#
# Velocity S-wave (km/s) = 2.70431 3.52330 3.14062
# Velocity P-wave (km/s) = 4.93791 5.64017 5.30068
#
# Compressibility (1/GPa) = 0.03245547
#
# Stress axis : x y z
#
# Youngs Moduli (GPa) = 68.91458 83.86386 75.99672
#
# Poissons Ratio (x) = -0.15781 0.17416
# Poissons Ratio (y) = -0.12968 0.24007
# Poissons Ratio (z) = 0.15793 0.26492
#
# Static dielectric constant tensor:
#      x y z
#    x 1.797340 0.000000 0.000000 
#    y 0.000000 1.797610 0.000000 
#    z 0.000000 0.000000 1.760950 
# 
# From -- ./inp_files/18535.got.cif
#   From: 2010.05.17/outbox.cif.g08.bks.cpg/sg55_10_cif.got.tgz:18535.got - 2010.06.03 13:27:54.
