data_PCOD9426495
_publ_section_title
;
Structure prediction by ZEFSAII (Michael W. Deem and Ramdas Pophale) SiO2 
 PCOD9426495
Probable space group: P B A M
;
_chemical_formula_sum "Si O2"
_cell_formula_units_Z 52
_cell_length_a 5.323854
_cell_length_b 28.553817
_cell_length_c 17.738258
_cell_angle_alpha 90.000000
_cell_angle_beta 90.000000
_cell_angle_gamma 90.000000
_cell_volume 2696.505287
_symmetry_space_group_name_H-M "P B A M"
_symmetry_group_IT_number 55
_symmetry_cell_setting 'orthorhombic'
loop_
_space_group_symop_operation_xyz
x,y,z
-x,-y,z
1/2+x,1/2-y,-z
1/2-x,1/2+y,-z
-x,-y,-z
x,y,-z
1/2-x,1/2+y,z
1/2+x,1/2-y,z
loop_
_atom_site_type_symbol
_atom_site_label
_atom_site_fract_x
_atom_site_fract_y
_atom_site_fract_z
Si Si1 0.700706 0.136016 0.418420
Si Si2 0.089654 0.052807 0.587327
Si Si3 0.168096 0.615834 0.708460
Si Si4 0.498695 0.827642 0.839033
Si Si5 0.514985 0.216394 0.000000
Si Si6 0.986536 0.804906 0.761191
Si Si7 0.488374 0.727132 0.601390
O O1 0.569057 0.136873 0.500000
O O2 0.849465 0.087329 0.411114
O O3 0.513517 0.143854 0.348909
O O4 0.906913 0.176738 0.419954
O O5 0.190879 0.055336 0.500000
O O6 0.266718 0.070773 0.656492
O O7 0.000000 0.000000 0.599754
O O8 0.424586 0.644162 0.723324
O O9 0.044294 0.622682 0.792555
O O10 0.742509 0.798472 0.812575
O O11 0.240137 0.808564 0.806289
O O12 0.487331 0.818350 0.927719
O O13 0.266402 0.250403 0.000000
O O14 0.990497 0.770460 0.691715
O O15 0.208476 0.737978 0.576684
#
# Coordination Sequence:
#
# PCOD9426495 Si02
#       7
#     8   8   8   8   4   8   8
#     4  11  22  39  57  82 123 164 210 268 321 373
#     4  10  21  37  62  96 130 167 214 273 340 399
#     4  10  19  39  62  84 122 165 213 251 323 384
#     4  10  21  38  60  82 121 164 204 244 313 374
#     4  12  26  40  58  94 133 163 211 274 322 375
#     4  10  20  38  59  85 115 161 213 252 302 364
#     4  12  23  36  55  81 111 156 213 256 299 352
#
# _framework density 19.284220000000001
#
# number of rings (size 3 to 8) (size 9 to 14) (size 15 to 20)
#    0.923    0.462    3.077    3.231    0.000    4.923 
#    0.000    2.308    0.000    0.000    0.000    0.538 
#    0.000    2.769    0.000    0.154    0.000    0.000 
#
# Total GULP energy -289603.313143 kJ/mol
# GULP energy per Si atom -5569.294484 kJ/mol
# Density = 1.924033 g / cm^3
# Si number density = 19.284220 Si / 1000 Ang^3
#
#
#
# Elastic Constant Matrix: (Units=GPa)
#
#
# Indices 1 2 3 4 5 6 
#
# 1 94.3337 10.8036 30.9904 0.0000 0.0000 0.0000
# 2 10.8036 92.6952 21.2592 0.0000 0.0000 0.0000
# 3 30.9904 21.2592 173.6314 0.0000 0.0000 0.0000
# 4 0.0000 0.0000 0.0000 23.1115 0.0000 0.0000
# 5 0.0000 0.0000 0.0000 0.0000 103.1189 0.0000
# 6 0.0000 0.0000 0.0000 0.0000 0.0000 13.1501
#
#
#
# Elastic Compliance Matrix: (Units=1/GPa)
#
#
# Indices 1 2 3 4 5 6 
#
# 1 0.011331 -0.000882 -0.001914 0.000000 0.000000 0.000000
# 2 -0.000882 0.011168 -0.001210 0.000000 0.000000 0.000000
# 3 -0.001914 -0.001210 0.006249 0.000000 0.000000 0.000000
# 4 0.000000 0.000000 0.000000 0.043269 0.000000 0.000000
# 5 0.000000 0.000000 0.000000 0.000000 0.009698 0.000000
# 6 0.000000 0.000000 0.000000 0.000000 0.000000 0.076045
#
#
# Mechanical properties :
#
#
# Convention : Reuss Voigt Hill
#
# Bulk Modulus (GPa) = 48.22525 54.08519 51.15522
# Shear Modulus (GPa) = 28.95474 47.71658 38.33566
#
# Velocity S-wave (km/s) = 3.87909 4.97972 4.46346
# Velocity P-wave (km/s) = 6.71752 7.82117 7.29026
#
# Compressibility (1/GPa) = 0.02073602
#
# Stress axis : x y z
#
# Youngs Moduli (GPa) = 88.25711 89.53906 160.02110
#
# Poissons Ratio (x) = 0.07893 0.30634
# Poissons Ratio (y) = 0.07780 0.19364
# Poissons Ratio (z) = 0.16896 0.10835
#
# Static dielectric constant tensor:
#      x y z
#    x 1.724420 0.000000 0.000000 
#    y 0.000000 1.693820 0.000000 
#    z 0.000000 0.000000 1.815820 
# 
# From -- ./inp_files/20489.got.cif
#   From: 2010.05.17/outbox.cif.g08.bks.cpg/sg55_11_cif.got.tgz:20489.got - 2010.06.03 13:27:54.
