data_PCOD9426668
_publ_section_title
;
Structure prediction by ZEFSAII (Michael W. Deem and Ramdas Pophale) SiO2 
 PCOD9426668
Probable space group: P B A M
;
_chemical_formula_sum "Si O2"
_cell_formula_units_Z 64
_cell_length_a 24.163809
_cell_length_b 15.734624
_cell_length_c 7.535642
_cell_angle_alpha 90.000000
_cell_angle_beta 90.000000
_cell_angle_gamma 90.000000
_cell_volume 2865.114757
_symmetry_space_group_name_H-M "P B A M"
_symmetry_group_IT_number 55
_symmetry_cell_setting 'orthorhombic'
loop_
_space_group_symop_operation_xyz
x,y,z
-x,-y,z
1/2+x,1/2-y,-z
1/2-x,1/2+y,-z
-x,-y,-z
x,y,-z
1/2-x,1/2+y,z
1/2+x,1/2-y,z
loop_
_atom_site_type_symbol
_atom_site_label
_atom_site_fract_x
_atom_site_fract_y
_atom_site_fract_z
Si Si1 0.051046 0.939659 0.218268
Si Si2 0.308876 0.690183 0.706406
Si Si3 0.829882 0.997680 0.798359
Si Si4 0.624587 0.146260 0.785953
Si Si5 0.688022 0.801737 0.706396
Si Si6 0.931234 0.248560 0.795042
Si Si7 0.502033 0.096849 0.783178
Si Si8 0.706740 0.998227 0.784085
O O1 0.047702 0.841385 0.278272
O O2 0.111677 0.972413 0.278643
O O3 0.051045 0.941297 0.000000
O O4 0.000000 0.000000 0.273458
O O5 0.300501 0.667344 0.500000
O O6 0.328745 0.604794 0.799545
O O7 0.351794 0.765177 0.721907
O O8 0.249079 0.721140 0.776935
O O9 0.769267 0.018746 0.720174
O O10 0.829007 0.030763 0.000000
O O11 0.561713 0.132633 0.733970
O O12 0.663638 0.069227 0.725700
O O13 0.626457 0.146210 0.000000
O O14 0.685232 0.779193 0.500000
O O15 0.635035 0.757419 0.790354
O O16 0.687569 0.904247 0.727203
O O17 0.956459 0.335752 0.718990
O O18 0.948967 0.246987 0.000000
O O19 0.500000 0.000000 0.719931
O O20 0.497709 0.092243 0.000000
O O21 0.708304 0.996067 0.000000
#
# Coordination Sequence:
#
# PCOD9426668 Si02
#       8
#     8   8   8   8   8   8   8   8
#     4   9  19  33  54  83 111 140 184 238 287 331
#     4  10  22  37  53  78 111 147 182 221 272 334
#     4   9  18  34  56  79 106 139 181 231 278 325
#     4  10  20  33  57  86 112 141 180 226 275 330
#     4  10  21  37  55  78 111 148 184 222 274 333
#     4  10  20  34  58  84 110 145 186 234 279 327
#     4   9  18  33  54  84 115 144 179 221 273 331
#     4   9  18  33  55  84 110 138 179 229 277 327
#
# _framework density 22.337675000000001
#
# number of rings (size 3 to 8) (size 9 to 14) (size 15 to 20)
#    0.000    2.500    0.000    1.500    3.500    4.000 
#    0.000    1.250    0.000    2.250    0.000    0.000 
#    0.000    0.000    0.000    0.000    0.000    0.000 
#
# Total GULP energy -357336.621627 kJ/mol
# GULP energy per Si atom -5583.384713 kJ/mol
# Density = 2.228683 g / cm^3
# Si number density = 22.337675 Si / 1000 Ang^3
#
#
#
# Elastic Constant Matrix: (Units=GPa)
#
#
# Indices 1 2 3 4 5 6 
#
# 1 98.0638 53.8386 5.0243 0.0000 0.0000 0.0000
# 2 53.8386 91.1154 0.3133 0.0000 0.0000 0.0000
# 3 5.0243 0.3133 53.2993 0.0000 0.0000 0.0000
# 4 0.0000 0.0000 0.0000 3283.1911 0.0000 0.0000
# 5 0.0000 0.0000 0.0000 0.0000 17.4859 0.0000
# 6 0.0000 0.0000 0.0000 0.0000 0.0000 35.3086
#
#
#
# Elastic Compliance Matrix: (Units=1/GPa)
#
#
# Indices 1 2 3 4 5 6 
#
# 1 0.015195 -0.008974 -0.001380 0.000000 0.000000 0.000000
# 2 -0.008974 0.016275 0.000750 0.000000 0.000000 0.000000
# 3 -0.001380 0.000750 0.018888 0.000000 0.000000 0.000000
# 4 0.000000 0.000000 0.000000 0.000305 0.000000 0.000000
# 5 0.000000 0.000000 0.000000 0.000000 0.057189 0.000000
# 6 0.000000 0.000000 0.000000 0.000000 0.000000 0.028322
#
#
# Mechanical properties :
#
#
# Convention : Reuss Voigt Hill
#
# Bulk Modulus (GPa) = 32.10137 40.09233 36.09685
# Shear Modulus (GPa) = 30.16366 679.41725 354.79046
#
# Velocity S-wave (km/s) = 3.67870 17.45903 12.61647
# Velocity P-wave (km/s) = 5.69613 20.60124 15.11385
#
# Compressibility (1/GPa) = 0.03115132
#
# Stress axis : x y z
#
# Youngs Moduli (GPa) = 65.81199 61.44438 52.94474
#
# Poissons Ratio (x) = 0.55138 0.07304
# Poissons Ratio (y) = 0.59057 -0.03972
# Poissons Ratio (z) = 0.09079 -0.04610
#
# Static dielectric constant tensor:
#      x y z
#    x 1.803430 0.000000 0.000000 
#    y 0.000000 1.774580 0.000000 
#    z 0.000000 0.000000 1.865150 
# 
# From -- ./inp_files/9638.got.cif
#   From: 2010.05.17/outbox.cif.g08.bks.cpg/sg55_5_cif.got.tgz:9638.got - 2010.06.03 13:27:54.
