data_PCOD9426808
_publ_section_title
;
Structure prediction by ZEFSAII (Michael W. Deem and Ramdas Pophale) SiO2 
 PCOD9426808
Probable space group: P B A M
;
_chemical_formula_sum "Si O2"
_cell_formula_units_Z 64
_cell_length_a 19.587042
_cell_length_b 18.065034
_cell_length_c 7.746652
_cell_angle_alpha 90.000000
_cell_angle_beta 90.000000
_cell_angle_gamma 90.000000
_cell_volume 2741.079834
_symmetry_space_group_name_H-M "P B A M"
_symmetry_group_IT_number 55
_symmetry_cell_setting 'orthorhombic'
loop_
_space_group_symop_operation_xyz
x,y,z
-x,-y,z
1/2+x,1/2-y,-z
1/2-x,1/2+y,-z
-x,-y,-z
x,y,-z
1/2-x,1/2+y,z
1/2+x,1/2-y,z
loop_
_atom_site_type_symbol
_atom_site_label
_atom_site_fract_x
_atom_site_fract_y
_atom_site_fract_z
Si Si1 0.821741 0.633071 0.302217
Si Si2 0.320161 0.568886 0.198641
Si Si3 0.579722 0.000179 0.712406
Si Si4 0.106192 0.219882 0.199829
Si Si5 0.697828 0.724308 0.711828
Si Si6 0.453449 0.293591 0.696040
Si Si7 0.685679 0.884529 0.696781
Si Si8 0.067381 0.967723 0.302958
O O1 0.808576 0.610438 0.500000
O O2 0.873116 0.570248 0.230305
O O3 0.861766 0.711449 0.300204
O O4 0.748395 0.659599 0.224977
O O5 0.366207 0.639234 0.258839
O O6 0.249753 0.560630 0.298617
O O7 0.365554 0.496228 0.213400
O O8 0.302114 0.580944 0.000000
O O9 0.579384 0.001169 0.500000
O O10 0.500000 0.000000 0.765459
O O11 0.620346 0.926374 0.772316
O O12 0.024418 0.223062 0.214143
O O13 0.125243 0.228909 0.000000
O O14 0.697577 0.716200 0.500000
O O15 0.619405 0.728439 0.771880
O O16 0.719183 0.807776 0.762040
O O17 0.458747 0.264070 0.500000
O O18 0.443936 0.381456 0.688709
O O19 0.666424 0.867932 0.500000
O O20 0.071749 0.996749 0.500000
O O21 0.000000 0.000000 0.216511
#
# Coordination Sequence:
#
# PCOD9426808 Si02
#       8
#     8   8   8   8   8   8   8   8
#     4  10  20  37  61  86 116 150 193 244 296 351
#     4  11  23  37  55  80 115 155 193 232 281 344
#     4   9  20  36  60  92 119 149 192 245 300 349
#     4  11  23  38  56  82 116 155 197 238 288 346
#     4   9  19  34  57  89 113 142 190 244 295 340
#     4  10  21  36  58  86 116 148 191 241 293 349
#     4  10  20  37  61  85 111 144 191 242 289 344
#     4  10  20  34  55  84 116 149 187 231 281 339
#
# _framework density 23.348464
#
# number of rings (size 3 to 8) (size 9 to 14) (size 15 to 20)
#    0.000    2.000    2.500    0.750    3.500    1.750 
#    0.000    1.875    0.000    0.750    0.000    0.000 
#    0.000    0.000    0.000    0.000    0.000    0.000 
#
# Total GULP energy -356924.006836 kJ/mol
# GULP energy per Si atom -5576.937607 kJ/mol
# Density = 2.329532 g / cm^3
# Si number density = 23.348464 Si / 1000 Ang^3
#
#
#
# Elastic Constant Matrix: (Units=GPa)
#
#
# Indices 1 2 3 4 5 6 
#
# 1 134.8009 13.9246 1.2963 0.0000 0.0000 0.0000
# 2 13.9246 40.6928 4.2258 0.0000 0.0000 0.0000
# 3 1.2963 4.2258 45.5844 0.0000 0.0000 0.0000
# 4 0.0000 0.0000 0.0000 3.5024 0.0000 0.0000
# 5 0.0000 0.0000 0.0000 0.0000 -71.2787 0.0000
# 6 0.0000 0.0000 0.0000 0.0000 0.0000 43.9170
#
#
#
# Elastic Compliance Matrix: (Units=1/GPa)
#
#
# Indices 1 2 3 4 5 6 
#
# 1 0.007690 -0.002634 0.000025 0.000000 0.000000 0.000000
# 2 -0.002634 0.025716 -0.002309 0.000000 0.000000 0.000000
# 3 0.000025 -0.002309 0.022151 0.000000 0.000000 0.000000
# 4 0.000000 0.000000 0.000000 0.285516 0.000000 0.000000
# 5 0.000000 0.000000 0.000000 0.000000 -0.014029 0.000000
# 6 0.000000 0.000000 0.000000 0.000000 0.000000 0.022770
#
#
# Mechanical properties :
#
#
# Convention : Reuss Voigt Hill
#
# Bulk Modulus (GPa) = 21.87171 28.88572 25.37871
# Shear Modulus (GPa) = 13.33728 8.67023 11.00376
#
# Velocity S-wave (km/s) = 2.39263 1.92911 2.17326
# Velocity P-wave (km/s) = 4.12562 4.16658 4.14615
#
# Compressibility (1/GPa) = 0.04572116
#
# Stress axis : x y z
#
# Youngs Moduli (GPa) = 130.03554 38.88698 45.14538
#
# Poissons Ratio (x) = 0.10243 -0.00115
# Poissons Ratio (y) = 0.34253 0.10424
# Poissons Ratio (z) = -0.00332 0.08979
#
# Static dielectric constant tensor:
#      x y z
#    x 1.759060 0.000000 0.000000 
#    y 0.000000 1.672010 0.000000 
#    z 0.000000 0.000000 1.911270 
# 
# From -- ./inp_files/8096.got.cif
#   From: 2010.05.17/outbox.cif.g08.bks.cpg/sg55_5_cif.got.tgz:8096.got - 2010.06.03 13:27:54.
