data_PCOD9426155
_publ_section_title
;
Structure prediction by ZEFSAII (Michael W. Deem and Ramdas Pophale) SiO2 
 PCOD9426155
Probable space group: P B A M
;
_chemical_formula_sum "Si O2"
_cell_formula_units_Z 48
_cell_length_a 11.341939
_cell_length_b 17.388926
_cell_length_c 9.933878
_cell_angle_alpha 90.000000
_cell_angle_beta 90.000000
_cell_angle_gamma 90.000000
_cell_volume 1959.200525
_symmetry_space_group_name_H-M "P B A M"
_symmetry_group_IT_number 55
_symmetry_cell_setting 'orthorhombic'
loop_
_space_group_symop_operation_xyz
x,y,z
-x,-y,z
1/2+x,1/2-y,-z
1/2-x,1/2+y,-z
-x,-y,-z
x,y,-z
1/2-x,1/2+y,z
1/2+x,1/2-y,z
loop_
_atom_site_type_symbol
_atom_site_label
_atom_site_fract_x
_atom_site_fract_y
_atom_site_fract_z
Si Si1 0.708987 0.724443 0.642399
Si Si2 0.139386 0.158906 0.239224
Si Si3 0.024088 0.714159 0.152082
Si Si4 0.409877 0.905885 0.654827
Si Si5 0.065527 0.919494 0.854885
Si Si6 0.703942 0.984901 0.151710
O O1 0.641390 0.722363 0.500000
O O2 0.792786 0.799424 0.642795
O O3 0.628682 0.739018 0.773453
O O4 0.794047 0.650615 0.648200
O O5 0.093341 0.232502 0.154038
O O6 0.013637 0.117351 0.262555
O O7 0.225807 0.095131 0.175243
O O8 0.996683 0.641137 0.246256
O O9 0.053386 0.692800 0.000000
O O10 0.450031 0.912947 0.500000
O O11 0.375968 0.986473 0.725257
O O12 0.198541 0.946387 0.845965
O O13 0.049590 0.877723 0.000000
O O14 0.000000 0.000000 0.869360
O O15 0.652858 0.984678 0.000000
#
# Coordination Sequence:
#
# PCOD9426155 Si02
#       6
#     8   8   8   8   8   8
#     4  10  23  41  59  82 117 160 199 237 286 346
#     4  10  20  35  59  89 119 149 189 239 295 348
#     4  11  22  37  61  88 113 148 196 246 293 343
#     4  10  22  39  57  81 119 159 192 232 287 350
#     4   8  14  26  47  79 115 143 169 215 276 327
#     4  10  19  34  59  90 122 152 189 240 293 344
#
# _framework density 24.499790000000001
#
# number of rings (size 3 to 8) (size 9 to 14) (size 15 to 20)
#    0.000    2.167    0.000    4.500    0.000    7.333 
#    0.000    1.667    0.000    9.000    0.000    0.000 
#    0.000    0.000    0.000    0.000    0.000    0.000 
#
# Total GULP energy -267543.387871 kJ/mol
# GULP energy per Si atom -5573.820581 kJ/mol
# Density = 2.444403 g / cm^3
# Si number density = 24.499790 Si / 1000 Ang^3
#
#
#
# Elastic Constant Matrix: (Units=GPa)
#
#
# Indices 1 2 3 4 5 6 
#
# 1 75.1827 23.9386 54.1768 0.0000 0.0000 0.0000
# 2 23.9386 112.6395 44.9757 0.0000 0.0000 0.0000
# 3 54.1768 44.9757 190.5220 0.0000 0.0000 0.0000
# 4 0.0000 0.0000 0.0000 3.5124 0.0000 0.0000
# 5 0.0000 0.0000 0.0000 0.0000 32.4805 0.0000
# 6 0.0000 0.0000 0.0000 0.0000 0.0000 52.6753
#
#
#
# Elastic Compliance Matrix: (Units=1/GPa)
#
#
# Indices 1 2 3 4 5 6 
#
# 1 0.017077 -0.001866 -0.004415 0.000000 0.000000 0.000000
# 2 -0.001866 0.010006 -0.001831 0.000000 0.000000 0.000000
# 3 -0.004415 -0.001831 0.006937 0.000000 0.000000 0.000000
# 4 0.000000 0.000000 0.000000 0.284703 0.000000 0.000000
# 5 0.000000 0.000000 0.000000 0.000000 0.030788 0.000000
# 6 0.000000 0.000000 0.000000 0.000000 0.000000 0.018984
#
#
# Mechanical properties :
#
#
# Convention : Reuss Voigt Hill
#
# Bulk Modulus (GPa) = 56.20094 69.39183 62.79638
# Shear Modulus (GPa) = 12.79914 34.75050 23.77482
#
# Velocity S-wave (km/s) = 2.28813 3.77025 3.11852
# Velocity P-wave (km/s) = 5.47447 6.88026 6.21723
#
# Compressibility (1/GPa) = 0.01779330
#
# Stress axis : x y z
#
# Youngs Moduli (GPa) = 58.55851 99.94272 144.16224
#
# Poissons Ratio (x) = 0.18652 0.63654
# Poissons Ratio (y) = 0.10928 0.26401
# Poissons Ratio (z) = 0.25856 0.18303
#
# Static dielectric constant tensor:
#      x y z
#    x 1.997740 0.000000 0.000000 
#    y 0.000000 2.029150 0.000000 
#    z 0.000000 0.000000 1.955010 
# 
# From -- ./inp_files/5837.got.cif
#   From: 2010.05.17/outbox.cif.g08.bks.cpg/sg55_3_cif.got.tgz:5837.got - 2010.06.03 13:27:54.
