data_PCOD9426280
_publ_section_title
;
Structure prediction by ZEFSAII (Michael W. Deem and Ramdas Pophale) SiO2 
 PCOD9426280
Probable space group: P B A M
;
_chemical_formula_sum "Si O2"
_cell_formula_units_Z 56
_cell_length_a 15.157134
_cell_length_b 21.255464
_cell_length_c 7.516561
_cell_angle_alpha 90.000000
_cell_angle_beta 90.000000
_cell_angle_gamma 90.000000
_cell_volume 2421.624860
_symmetry_space_group_name_H-M "P B A M"
_symmetry_group_IT_number 55
_symmetry_cell_setting 'orthorhombic'
loop_
_space_group_symop_operation_xyz
x,y,z
-x,-y,z
1/2+x,1/2-y,-z
1/2-x,1/2+y,-z
-x,-y,-z
x,y,-z
1/2-x,1/2+y,z
1/2+x,1/2-y,z
loop_
_atom_site_type_symbol
_atom_site_label
_atom_site_fract_x
_atom_site_fract_y
_atom_site_fract_z
Si Si1 0.219638 0.494794 0.704691
Si Si2 0.895826 0.765353 0.783524
Si Si3 0.583419 0.901979 0.794643
Si Si4 0.608816 0.118989 0.784977
Si Si5 0.201476 0.712430 0.782057
Si Si6 0.090909 0.973017 0.709662
Si Si7 0.579784 0.673427 0.784669
O O1 0.222052 0.514821 0.500000
O O2 0.144083 0.536911 0.791127
O O3 0.188231 0.422721 0.713490
O O4 0.317398 0.500165 0.784233
O O5 0.893404 0.691920 0.733474
O O6 0.802721 0.794426 0.725047
O O7 0.984996 0.799393 0.723607
O O8 0.898052 0.766947 0.000000
O O9 0.484992 0.909728 0.722700
O O10 0.639254 0.844075 0.718106
O O11 0.567705 0.884128 0.000000
O O12 0.617322 0.115812 0.000000
O O13 0.156796 0.778387 0.729431
O O14 0.202553 0.711256 0.000000
O O15 0.091840 0.988784 0.500000
O O16 0.092098 0.897864 0.726061
O O17 0.000000 0.000000 0.786355
O O18 0.579619 0.673445 0.000000
#
# Coordination Sequence:
#
# PCOD9426280 Si02
#       7
#     8   8   8   8   8   8   8
#     4  11  24  39  56  79 110 149 194 237 277 326
#     4   9  17  30  54  85 115 142 173 222 277 327
#     4  10  20  35  57  84 115 149 185 225 281 341
#     4  10  19  36  59  86 117 149 182 222 282 344
#     4   9  17  31  53  84 118 145 174 224 281 330
#     4  10  24  44  59  75 111 156 191 231 286 337
#     4  10  19  35  60  89 112 138 184 233 275 327
#
# _framework density 23.124970000000001
#
# number of rings (size 3 to 8) (size 9 to 14) (size 15 to 20)
#    0.000    2.143    1.429    1.714    2.000    4.857 
#    0.000    1.429    0.000    1.714    0.000    0.000 
#    0.000    0.000    0.000    0.000    0.000    0.000 
#
# Total GULP energy -312992.681044 kJ/mol
# GULP energy per Si atom -5589.155019 kJ/mol
# Density = 2.307234 g / cm^3
# Si number density = 23.124970 Si / 1000 Ang^3
#
#
#
# Elastic Constant Matrix: (Units=GPa)
#
#
# Indices 1 2 3 4 5 6 
#
# 1 131.5344 -3.7481 2.6205 0.0000 0.0000 0.0000
# 2 -3.7481 40.1044 -12.8274 0.0000 0.0000 0.0000
# 3 2.6205 -12.8274 59.1059 0.0000 0.0000 0.0000
# 4 0.0000 0.0000 0.0000 42.7311 0.0000 0.0000
# 5 0.0000 0.0000 0.0000 0.0000 -27.6434 0.0000
# 6 0.0000 0.0000 0.0000 0.0000 0.0000 26.5848
#
#
#
# Elastic Compliance Matrix: (Units=1/GPa)
#
#
# Indices 1 2 3 4 5 6 
#
# 1 0.007625 0.000650 -0.000197 0.000000 0.000000 0.000000
# 2 0.000650 0.026850 0.005798 0.000000 0.000000 0.000000
# 3 -0.000197 0.005798 0.018186 0.000000 0.000000 0.000000
# 4 0.000000 0.000000 0.000000 0.023402 0.000000 0.000000
# 5 0.000000 0.000000 0.000000 0.000000 -0.036175 0.000000
# 6 0.000000 0.000000 0.000000 0.000000 0.000000 0.037615
#
#
# Mechanical properties :
#
#
# Convention : Reuss Voigt Hill
#
# Bulk Modulus (GPa) = 15.34618 22.53719 18.94168
# Shear Modulus (GPa) = 57.65479 24.64780 41.15130
#
# Velocity S-wave (km/s) = 4.99860 3.26828 4.22301
# Velocity P-wave (km/s) = 6.32180 4.89992 5.65572
#
# Compressibility (1/GPa) = 0.06516279
#
# Stress axis : x y z
#
# Youngs Moduli (GPa) = 131.14733 37.24364 54.98764
#
# Poissons Ratio (x) = -0.02419 0.01084
# Poissons Ratio (y) = -0.08519 -0.31884
# Poissons Ratio (z) = 0.02585 -0.21595
#
# Static dielectric constant tensor:
#      x y z
#    x 1.871850 0.000000 0.000000 
#    y 0.000000 1.813460 0.000000 
#    z 0.000000 0.000000 1.906110 
# 
# From -- ./inp_files/6101.got.cif
#   From: 2010.05.17/outbox.cif.g08.bks.cpg/sg55_4_cif.got.tgz:6101.got - 2010.06.03 13:27:54.
