data_PCOD9426761
_publ_section_title
;
Structure prediction by ZEFSAII (Michael W. Deem and Ramdas Pophale) SiO2 
 PCOD9426761
Probable space group: P B A M
;
_chemical_formula_sum "Si O2"
_cell_formula_units_Z 48
_cell_length_a 15.490404
_cell_length_b 19.694287
_cell_length_c 7.675349
_cell_angle_alpha 90.000000
_cell_angle_beta 90.000000
_cell_angle_gamma 90.000000
_cell_volume 2341.537617
_symmetry_space_group_name_H-M "P B A M"
_symmetry_group_IT_number 55
_symmetry_cell_setting 'orthorhombic'
loop_
_space_group_symop_operation_xyz
x,y,z
-x,-y,z
1/2+x,1/2-y,-z
1/2-x,1/2+y,-z
-x,-y,-z
x,y,-z
1/2-x,1/2+y,z
1/2+x,1/2-y,z
loop_
_atom_site_type_symbol
_atom_site_label
_atom_site_fract_x
_atom_site_fract_y
_atom_site_fract_z
Si Si1 0.634846 0.166660 0.201113
Si Si2 0.665838 0.668917 0.289694
Si Si3 0.142764 0.176949 0.709896
Si Si4 0.482656 0.073834 0.700106
Si Si5 0.160719 0.676996 0.713445
Si Si6 0.491771 0.422450 0.713634
O O1 0.735865 0.154258 0.237541
O O2 0.619255 0.245899 0.242356
O O3 0.569978 0.117735 0.301095
O O4 0.617222 0.154541 0.000000
O O5 0.664240 0.669665 0.500000
O O6 0.641542 0.745416 0.231769
O O7 0.596279 0.614175 0.229673
O O8 0.143713 0.174337 0.500000
O O9 0.240749 0.162620 0.767960
O O10 0.072422 0.123290 0.771614
O O11 0.455020 0.060872 0.500000
O O12 0.407915 0.121883 0.777022
O O13 0.500000 0.000000 0.780912
O O14 0.158131 0.677239 0.500000
O O15 0.500000 0.500000 0.770116
O O16 0.491872 0.422330 0.500000
#
# Coordination Sequence:
#
# PCOD9426761 Si02
#       6
#     8   8   8   8   8   8
#     4  11  22  35  52  74 101 135 177 219 256 298
#     4   9  17  32  54  76 101 134 171 211 254 302
#     4   9  17  33  55  76 102 134 170 213 258 307
#     4  10  20  34  54  80 107 135 168 208 259 316
#     4   8  15  29  51  77 100 128 167 208 250 297
#     4   9  17  29  52  85 111 132 165 212 261 307
#
# _framework density 20.49935
#
# number of rings (size 3 to 8) (size 9 to 14) (size 15 to 20)
#    0.000    2.667    0.000    3.500    0.000    4.333 
#    0.000   12.500    0.000    6.000    0.000    0.000 
#    0.000    0.000    0.000    0.000    0.000    0.000 
#
# Total GULP energy -267917.400779 kJ/mol
# GULP energy per Si atom -5581.612516 kJ/mol
# Density = 2.045269 g / cm^3
# Si number density = 20.499350 Si / 1000 Ang^3
#
#
#
# Elastic Constant Matrix: (Units=GPa)
#
#
# Indices 1 2 3 4 5 6 
#
# 1 108.1767 101.9148 -2.4408 0.0000 0.0000 0.0000
# 2 101.9148 151.6903 -0.4656 0.0000 0.0000 0.0000
# 3 -2.4408 -0.4656 39.5417 0.0000 0.0000 0.0000
# 4 0.0000 0.0000 0.0000 9.4559 0.0000 0.0000
# 5 0.0000 0.0000 0.0000 0.0000 -35.7097 0.0000
# 6 0.0000 0.0000 0.0000 0.0000 0.0000 -11.4857
#
#
#
# Elastic Compliance Matrix: (Units=1/GPa)
#
#
# Indices 1 2 3 4 5 6 
#
# 1 0.025259 -0.016966 0.001359 0.000000 0.000000 0.000000
# 2 -0.016966 0.017989 -0.000835 0.000000 0.000000 0.000000
# 3 0.001359 -0.000835 0.025364 0.000000 0.000000 0.000000
# 4 0.000000 0.000000 0.000000 0.105754 0.000000 0.000000
# 5 0.000000 0.000000 0.000000 0.000000 -0.028004 0.000000
# 6 0.000000 0.000000 0.000000 0.000000 0.000000 -0.087065
#
#
# Mechanical properties :
#
#
# Convention : Reuss Voigt Hill
#
# Bulk Modulus (GPa) = 27.99017 55.26950 41.62983
# Shear Modulus (GPa) = 48.03449 5.81212 26.92330
#
# Velocity S-wave (km/s) = 4.84593 1.68565 3.62798
# Velocity P-wave (km/s) = 6.70780 5.55056 6.15643
#
# Compressibility (1/GPa) = 0.03572683
#
# Stress axis : x y z
#
# Youngs Moduli (GPa) = 39.58955 55.58970 39.42623
#
# Poissons Ratio (x) = 0.94316 -0.05360
# Poissons Ratio (y) = 0.67170 0.03294
# Poissons Ratio (z) = -0.05382 0.04644
#
# Static dielectric constant tensor:
#      x y z
#    x 1.712620 0.000000 0.000000 
#    y 0.000000 1.708230 0.000000 
#    z 0.000000 0.000000 1.757620 
# 
# From -- ./inp_files/5669.got.cif
#   From: 2010.05.17/outbox.cif.g08.bks.cpg/sg55_3_cif.got.tgz:5669.got - 2010.06.03 13:27:54.
