data_PCOD9426715
_publ_section_title
;
Structure prediction by ZEFSAII (Michael W. Deem and Ramdas Pophale) SiO2 
 PCOD9426715
Probable space group: P B A M
;
_chemical_formula_sum "Si O2"
_cell_formula_units_Z 52
_cell_length_a 9.433112
_cell_length_b 19.449580
_cell_length_c 14.180817
_cell_angle_alpha 90.000000
_cell_angle_beta 90.000000
_cell_angle_gamma 90.000000
_cell_volume 2601.755438
_symmetry_space_group_name_H-M "P B A M"
_symmetry_group_IT_number 55
_symmetry_cell_setting 'orthorhombic'
loop_
_space_group_symop_operation_xyz
x,y,z
-x,-y,z
1/2+x,1/2-y,-z
1/2-x,1/2+y,-z
-x,-y,-z
x,y,-z
1/2-x,1/2+y,z
1/2+x,1/2-y,z
loop_
_atom_site_type_symbol
_atom_site_label
_atom_site_fract_x
_atom_site_fract_y
_atom_site_fract_z
Si Si1 0.968759 0.790519 0.201174
Si Si2 0.500000 0.500000 0.143443
Si Si3 0.488347 0.154244 0.604220
Si Si4 0.803203 0.124990 0.895642
Si Si5 0.986769 0.625120 0.806058
Si Si6 0.824906 0.784626 0.394909
Si Si7 0.212968 0.100552 0.110166
O O1 0.121271 0.821927 0.175233
O O2 0.975697 0.708681 0.192496
O O3 0.910590 0.811719 0.304439
O O4 0.859368 0.825410 0.128177
O O5 0.408833 0.439288 0.097334
O O6 0.371877 0.548253 0.179472
O O7 0.479580 0.122509 0.500000
O O8 0.499081 0.107074 0.695723
O O9 0.624436 0.205139 0.604759
O O10 0.342746 0.199734 0.616227
O O11 0.655535 0.099748 0.854391
O O12 0.785130 0.155348 0.000000
O O13 0.124530 0.603072 0.862326
O O14 0.864641 0.811067 0.500000
O O15 0.195967 0.081031 0.000000
#
# Coordination Sequence:
#
# PCOD9426715 Si02
#       7
#     8   4   8   8   8   8   8
#     4  10  20  34  52  82 119 150 175 213 274 340
#     4  10  23  44  60  74  99 142 195 244 278 312
#     4   9  18  32  50  78 115 150 182 219 267 321
#     4  11  23  38  57  78 110 149 186 230 273 324
#     4  11  22  33  53  89 115 143 180 222 277 335
#     4   9  17  30  50  76 110 151 185 219 262 317
#     4  11  21  36  57  78 108 146 186 227 275 326
#
# _framework density 19.986505000000001
#
# number of rings (size 3 to 8) (size 9 to 14) (size 15 to 20)
#    0.000    1.846    1.538    4.154    6.462    4.308 
#    0.000    1.538    0.000    0.000    0.000   20.462 
#    0.000    0.000    0.000    0.000    0.000    0.000 
#
# Total GULP energy -289493.240726 kJ/mol
# GULP energy per Si atom -5567.177706 kJ/mol
# Density = 1.994101 g / cm^3
# Si number density = 19.986505 Si / 1000 Ang^3
#
#
#
# Elastic Constant Matrix: (Units=GPa)
#
#
# Indices 1 2 3 4 5 6 
#
# 1 130.6897 3.3390 24.8909 0.0000 0.0000 0.0000
# 2 3.3390 34.6394 7.6406 0.0000 0.0000 0.0000
# 3 24.8909 7.6406 84.3855 0.0000 0.0000 0.0000
# 4 0.0000 0.0000 0.0000 -1.6447 0.0000 0.0000
# 5 0.0000 0.0000 0.0000 0.0000 29.9294 0.0000
# 6 0.0000 0.0000 0.0000 0.0000 0.0000 2.6070
#
#
#
# Elastic Compliance Matrix: (Units=1/GPa)
#
#
# Indices 1 2 3 4 5 6 
#
# 1 0.008109 -0.000259 -0.002369 0.000000 0.000000 0.000000
# 2 -0.000259 0.029465 -0.002591 0.000000 0.000000 0.000000
# 3 -0.002369 -0.002591 0.012784 0.000000 0.000000 0.000000
# 4 0.000000 0.000000 0.000000 -0.608004 0.000000 0.000000
# 5 0.000000 0.000000 0.000000 0.000000 0.033412 0.000000
# 6 0.000000 0.000000 0.000000 0.000000 0.000000 0.383584
#
#
# Mechanical properties :
#
#
# Convention : Reuss Voigt Hill
#
# Bulk Modulus (GPa) = 25.05003 35.71728 30.38366
# Shear Modulus (GPa) = -42.76997 20.43461 -11.16768
#
# Velocity S-wave (km/s) = -4.63097 3.20100 -2.36638
# Velocity P-wave (km/s) = 4.00423 5.61884 2.78725
#
# Compressibility (1/GPa) = 0.03992011
#
# Stress axis : x y z
#
# Youngs Moduli (GPa) = 123.31308 33.93801 78.22488
#
# Poissons Ratio (x) = 0.00880 0.18528
# Poissons Ratio (y) = 0.03197 0.20271
# Poissons Ratio (z) = 0.29207 0.08795
#
# Static dielectric constant tensor:
#      x y z
#    x 1.729000 0.000000 0.000000 
#    y 0.000000 1.719510 0.000000 
#    z 0.000000 0.000000 1.754130 
# 
# From -- ./inp_files/17561.got.cif
#   From: 2010.05.17/outbox.cif.g08.bks.cpg/sg55_9_cif.got.tgz:17561.got - 2010.06.03 13:27:54.
