data_PCOD9426946
_publ_section_title
;
Structure prediction by ZEFSAII (Michael W. Deem and Ramdas Pophale) SiO2 
 PCOD9426946
Probable space group: P B A M
;
_chemical_formula_sum "Si O2"
_cell_formula_units_Z 48
_cell_length_a 19.444987
_cell_length_b 15.647872
_cell_length_c 8.468594
_cell_angle_alpha 90.000000
_cell_angle_beta 90.000000
_cell_angle_gamma 90.000000
_cell_volume 2576.761687
_symmetry_space_group_name_H-M "P B A M"
_symmetry_group_IT_number 55
_symmetry_cell_setting 'orthorhombic'
loop_
_space_group_symop_operation_xyz
x,y,z
-x,-y,z
1/2+x,1/2-y,-z
1/2-x,1/2+y,-z
-x,-y,-z
x,y,-z
1/2-x,1/2+y,z
1/2+x,1/2-y,z
loop_
_atom_site_type_symbol
_atom_site_label
_atom_site_fract_x
_atom_site_fract_y
_atom_site_fract_z
Si Si1 0.070953 0.147938 0.689177
Si Si2 0.425128 0.149460 0.191971
Si Si3 0.172788 0.997540 0.311382
Si Si4 0.082480 0.336685 0.808801
Si Si5 0.327382 0.996532 0.190917
Si Si6 0.082501 0.843856 0.189098
O O1 0.065213 0.143943 0.500000
O O2 0.124645 0.076110 0.743302
O O3 0.094107 0.242645 0.740047
O O4 0.995253 0.133189 0.760600
O O5 0.504826 0.135361 0.236500
O O6 0.373896 0.076006 0.247656
O O7 0.405611 0.245641 0.241468
O O8 0.423607 0.148300 0.000000
O O9 0.175934 0.000946 0.500000
O O10 0.249335 0.003378 0.245006
O O11 0.135930 0.910235 0.260082
O O12 0.136838 0.407972 0.758151
O O13 0.083845 0.330326 0.000000
O O14 0.328996 0.997256 0.000000
O O15 0.086919 0.846448 0.000000
#
# Coordination Sequence:
#
# PCOD9426946 Si02
#       6
#     8   8   8   8   8   8
#     4  10  21  37  56  78 107 144 180 218 268 321
#     4   8  16  33  57  83 107 132 170 221 270 314
#     4  11  24  38  51  74 111 148 179 215 265 322
#     4   9  18  34  58  84 106 135 179 226 267 312
#     4  10  20  35  56  80 108 142 178 218 266 318
#     4  10  20  36  60  85 105 133 178 227 270 314
#
# _framework density 18.628031
#
# number of rings (size 3 to 8) (size 9 to 14) (size 15 to 20)
#    0.000    2.333    0.000    3.500    0.000    8.667 
#    0.000    9.167    0.000    5.000    0.000    0.000 
#    0.000    0.000    0.000    0.000    0.000    0.000 
#
# Total GULP energy -267969.478924 kJ/mol
# GULP energy per Si atom -5582.697478 kJ/mol
# Density = 1.858563 g / cm^3
# Si number density = 18.628031 Si / 1000 Ang^3
#
#
#
# Elastic Constant Matrix: (Units=GPa)
#
#
# Indices 1 2 3 4 5 6 
#
# 1 64.2106 40.2151 -1.0606 0.0000 0.0000 0.0000
# 2 40.2151 60.8141 4.5363 0.0000 0.0000 0.0000
# 3 -1.0606 4.5363 7.2137 0.0000 0.0000 0.0000
# 4 0.0000 0.0000 0.0000 -25.9471 0.0000 0.0000
# 5 0.0000 0.0000 0.0000 0.0000 160.8060 0.0000
# 6 0.0000 0.0000 0.0000 0.0000 0.0000 -12.1658
#
#
#
# Elastic Compliance Matrix: (Units=1/GPa)
#
#
# Indices 1 2 3 4 5 6 
#
# 1 0.028394 -0.020027 0.016769 0.000000 0.000000 0.000000
# 2 -0.020027 0.031378 -0.022677 0.000000 0.000000 0.000000
# 3 0.016769 -0.022677 0.155351 0.000000 0.000000 0.000000
# 4 0.000000 0.000000 0.000000 -0.038540 0.000000 0.000000
# 5 0.000000 0.000000 0.000000 0.000000 0.006219 0.000000
# 6 0.000000 0.000000 0.000000 0.000000 0.000000 -0.082198
#
#
# Mechanical properties :
#
#
# Convention : Reuss Voigt Hill
#
# Bulk Modulus (GPa) = 6.12547 24.40223 15.26385
# Shear Modulus (GPa) = 24.16717 30.44179 27.30448
#
# Velocity S-wave (km/s) = 3.60579 4.04690 3.83270
# Velocity P-wave (km/s) = 4.54214 5.91310 5.27237
#
# Compressibility (1/GPa) = 0.16325284
#
# Stress axis : x y z
#
# Youngs Moduli (GPa) = 35.21922 31.86899 6.43703
#
# Poissons Ratio (x) = 0.63824 -0.10794
# Poissons Ratio (y) = 0.70533 0.14597
# Poissons Ratio (z) = -0.59058 0.72269
#
# Static dielectric constant tensor:
#      x y z
#    x 1.608840 0.000000 0.000000 
#    y 0.000000 1.641610 0.000000 
#    z 0.000000 0.000000 1.639910 
# 
# From -- ./inp_files/5561.got.cif
#   From: 2010.05.17/outbox.cif.g08.bks.cpg/sg55_3_cif.got.tgz:5561.got - 2010.06.03 13:27:54.
