data_PCOD9426036
_publ_section_title
;
Structure prediction by ZEFSAII (Michael W. Deem and Ramdas Pophale) SiO2 
 PCOD9426036
Probable space group: P B A M
;
_chemical_formula_sum "Si O2"
_cell_formula_units_Z 64
_cell_length_a 20.613129
_cell_length_b 20.513123
_cell_length_c 8.776689
_cell_angle_alpha 90.000000
_cell_angle_beta 90.000000
_cell_angle_gamma 90.000000
_cell_volume 3711.132110
_symmetry_space_group_name_H-M "P B A M"
_symmetry_group_IT_number 55
_symmetry_cell_setting 'orthorhombic'
loop_
_space_group_symop_operation_xyz
x,y,z
-x,-y,z
1/2+x,1/2-y,-z
1/2-x,1/2+y,-z
-x,-y,-z
x,y,-z
1/2-x,1/2+y,z
1/2+x,1/2-y,z
loop_
_atom_site_type_symbol
_atom_site_label
_atom_site_fract_x
_atom_site_fract_y
_atom_site_fract_z
Si Si1 0.321930 0.429024 0.683306
Si Si2 0.176946 0.071507 0.182528
Si Si3 0.423228 0.825735 0.316694
Si Si4 0.927600 0.324701 0.683654
Si Si5 0.923369 0.826223 0.316493
Si Si6 0.825970 0.425716 0.182727
Si Si7 0.819501 0.575580 0.182451
Si Si8 0.428127 0.323839 0.314615
O O1 0.320936 0.430544 0.500000
O O2 0.337641 0.500943 0.745692
O O3 0.250656 0.410979 0.744332
O O4 0.375399 0.376482 0.734813
O O5 0.126970 0.125358 0.239721
O O6 0.251267 0.088777 0.226381
O O7 0.174995 0.065830 0.000000
O O8 0.418577 0.832541 0.500000
O O9 0.497914 0.839750 0.272137
O O10 0.410175 0.749731 0.280458
O O11 0.372819 0.873679 0.238519
O O12 0.925520 0.325315 0.500000
O O13 0.876697 0.376234 0.745790
O O14 0.913194 0.250325 0.734058
O O15 0.919460 0.833167 0.500000
O O16 0.997936 0.839986 0.269770
O O17 0.838186 0.501215 0.225882
O O18 0.830486 0.421248 0.000000
O O19 0.813163 0.577499 0.000000
O O20 0.427873 0.323331 0.500000
#
# Coordination Sequence:
#
# PCOD9426036 Si02
#       8
#     8   8   8   8   8   8   8   8
#     4  10  19  34  56  77 100 134 174 213 255 304
#     4  10  21  36  51  74 108 138 169 210 255 303
#     4   9  19  35  54  77 103 131 168 212 254 301
#     4   9  18  34  55  77 101 129 166 213 256 298
#     4   9  18  35  56  76 101 134 171 209 251 302
#     4   9  20  36  50  69 101 137 168 203 250 304
#     4  10  21  36  52  73 105 139 170 209 256 305
#     4   8  17  34  54  77 103 130 165 211 258 301
#
# _framework density 17.245411000000001
#
# number of rings (size 3 to 8) (size 9 to 14) (size 15 to 20)
#    0.000    2.750    0.000    3.375    0.000    6.000 
#    0.000   13.125    0.000    0.000    0.000    0.000 
#    0.000    0.000    0.000    0.000    0.000    0.000 
#
# Total GULP energy -356921.997231 kJ/mol
# GULP energy per Si atom -5576.906207 kJ/mol
# Density = 1.720616 g / cm^3
# Si number density = 17.245411 Si / 1000 Ang^3
#
#
#
# Elastic Constant Matrix: (Units=GPa)
#
#
# Indices 1 2 3 4 5 6 
#
# 1 155.7518 137.0075 51.1748 0.0000 0.0000 0.0000
# 2 137.0075 140.8959 50.6748 0.0000 0.0000 0.0000
# 3 51.1748 50.6748 35.5088 0.0000 0.0000 0.0000
# 4 0.0000 0.0000 0.0000 -11.8392 0.0000 0.0000
# 5 0.0000 0.0000 0.0000 0.0000 -2.8407 0.0000
# 6 0.0000 0.0000 0.0000 0.0000 0.0000 43.2000
#
#
#
# Elastic Compliance Matrix: (Units=1/GPa)
#
#
# Indices 1 2 3 4 5 6 
#
# 1 0.044809 -0.041802 -0.004922 0.000000 0.000000 0.000000
# 2 -0.041802 0.053579 -0.016218 0.000000 0.000000 0.000000
# 3 -0.004922 -0.016218 0.058401 0.000000 0.000000 0.000000
# 4 0.000000 0.000000 0.000000 -0.084465 0.000000 0.000000
# 5 0.000000 0.000000 0.000000 0.000000 -0.352030 0.000000
# 6 0.000000 0.000000 0.000000 0.000000 0.000000 0.023148
#
#
# Mechanical properties :
#
#
# Convention : Reuss Voigt Hill
#
# Bulk Modulus (GPa) = 32.35829 89.98563 61.17196
# Shear Modulus (GPa) = -41.53839 11.92397 -14.80721
#
# Velocity S-wave (km/s) = -4.91314 2.63236 -2.93340
# Velocity P-wave (km/s) = 3.65802 7.84422 4.90667
#
# Compressibility (1/GPa) = 0.03090398
#
# Stress axis : x y z
#
# Youngs Moduli (GPa) = 22.31676 18.66392 17.12300
#
# Poissons Ratio (x) = 0.78020 0.08428
# Poissons Ratio (y) = 0.93290 0.27771
# Poissons Ratio (z) = 0.10985 0.30270
#
# Static dielectric constant tensor:
#      x y z
#    x 1.567460 0.000000 0.000000 
#    y 0.000000 1.566140 0.000000 
#    z 0.000000 0.000000 1.580110 
# 
# From -- ./inp_files/7983.got.cif
#   From: 2010.05.17/outbox.cif.g08.bks.cpg/sg55_4_cif.got.tgz:7983.got - 2010.06.03 13:27:54.
