data_PCOD9426536
_publ_section_title
;
Structure prediction by ZEFSAII (Michael W. Deem and Ramdas Pophale) SiO2 
 PCOD9426536
Probable space group: P B A M
;
_chemical_formula_sum "Si O2"
_cell_formula_units_Z 48
_cell_length_a 22.316866
_cell_length_b 9.354259
_cell_length_c 8.624614
_cell_angle_alpha 90.000000
_cell_angle_beta 90.000000
_cell_angle_gamma 90.000000
_cell_volume 1800.454967
_symmetry_space_group_name_H-M "P B A M"
_symmetry_group_IT_number 55
_symmetry_cell_setting 'orthorhombic'
loop_
_space_group_symop_operation_xyz
x,y,z
-x,-y,z
1/2+x,1/2-y,-z
1/2-x,1/2+y,-z
-x,-y,-z
x,y,-z
1/2-x,1/2+y,z
1/2+x,1/2-y,z
loop_
_atom_site_type_symbol
_atom_site_label
_atom_site_fract_x
_atom_site_fract_y
_atom_site_fract_z
Si Si1 0.253059 0.159840 0.000000
Si Si2 0.553846 0.390616 0.816435
Si Si3 0.670108 0.092789 0.000000
Si Si4 0.465570 0.186577 0.682318
Si Si5 0.861264 0.105255 0.315694
Si Si6 0.879522 0.570206 0.674038
Si Si7 0.268628 0.153806 0.329068
O O1 0.233901 0.325801 0.000000
O O2 0.232847 0.114990 0.173405
O O3 0.317817 0.078985 0.000000
O O4 0.500000 0.500000 0.770692
O O5 0.526654 0.241856 0.757290
O O6 0.613992 0.455103 0.745182
O O7 0.559143 0.391034 0.000000
O O8 0.637155 0.137198 0.841411
O O9 0.471494 0.216109 0.500000
O O10 0.411190 0.283695 0.748609
O O11 0.438073 0.029258 0.692839
O O12 0.867043 0.098742 0.500000
O O13 0.798537 0.190107 0.296535
O O14 0.882395 0.639516 0.500000
O O15 0.823201 0.458296 0.658952
O O16 0.239117 0.155842 0.500000
#
# Coordination Sequence:
#
# PCOD9426536 Si02
#       7
#     4   8   4   8   8   8   8
#     4  10  20  32  48  67  87 111 141 178 220 262
#     4   9  15  17  23  43  69  99 135 170 199 232
#     4  10  20  32  48  67  87 111 141 178 220 262
#     4   8  13  21  31  44  67 101 137 169 200 237
#     4   8  13  21  31  44  67 101 137 169 200 237
#     4   8  15  27  42  59  80 109 143 176 211 254
#     4   8  15  27  42  59  80 109 143 176 211 254
#
# _framework density 26.659929000000002
#
# number of rings (size 3 to 8) (size 9 to 14) (size 15 to 20)
#    0.000    3.500    0.000    2.500    2.333    2.667 
#    0.000    0.000    0.000    0.000    0.000    0.000 
#    0.000    0.000    0.000    3.000    0.000   16.000 
#
# Total GULP energy -267670.866789 kJ/mol
# GULP energy per Si atom -5576.476391 kJ/mol
# Density = 2.659925 g / cm^3
# Si number density = 26.659929 Si / 1000 Ang^3
#
#
#
# Elastic Constant Matrix: (Units=GPa)
#
#
# Indices 1 2 3 4 5 6 
#
# 1 98.9070 45.1731 46.4084 0.0000 0.0000 0.0000
# 2 45.1731 83.0395 25.6214 0.0000 0.0000 0.0000
# 3 46.4084 25.6214 175.1966 0.0000 0.0000 0.0000
# 4 0.0000 0.0000 0.0000 15.8885 0.0000 0.0000
# 5 0.0000 0.0000 0.0000 0.0000 -0.3973 0.0000
# 6 0.0000 0.0000 0.0000 0.0000 0.0000 38.7840
#
#
#
# Elastic Compliance Matrix: (Units=1/GPa)
#
#
# Indices 1 2 3 4 5 6 
#
# 1 0.014699 -0.007116 -0.002853 0.000000 0.000000 0.000000
# 2 -0.007116 0.016056 -0.000463 0.000000 0.000000 0.000000
# 3 -0.002853 -0.000463 0.006531 0.000000 0.000000 0.000000
# 4 0.000000 0.000000 0.000000 0.062939 0.000000 0.000000
# 5 0.000000 0.000000 0.000000 0.000000 -2.517171 0.000000
# 6 0.000000 0.000000 0.000000 0.000000 0.000000 0.025784
#
#
# Mechanical properties :
#
#
# Convention : Reuss Voigt Hill
#
# Bulk Modulus (GPa) = 60.89183 65.72766 63.30975
# Shear Modulus (GPa) = -2.11432 26.85104 12.36836
#
# Velocity S-wave (km/s) = -0.89151 3.17703 2.15624
# Velocity P-wave (km/s) = 4.67227 6.17784 5.47703
#
# Compressibility (1/GPa) = 0.01642256
#
# Stress axis : x y z
#
# Youngs Moduli (GPa) = 68.03065 62.28022 153.10737
#
# Poissons Ratio (x) = 0.44319 0.43682
# Poissons Ratio (y) = 0.48411 0.07092
# Poissons Ratio (z) = 0.19410 0.02885
#
# Static dielectric constant tensor:
#      x y z
#    x 2.098690 0.000000 0.000000 
#    y 0.000000 2.189400 0.000000 
#    z 0.000000 0.000000 2.008800 
# 
# From -- ./inp_files/10086.got.cif
#   From: 2010.05.17/outbox.cif.g08.bks.cpg/sg55_6_cif.got.tgz:10086.got - 2010.06.03 13:27:54.
