data_PCOD9426924
_publ_section_title
;
Structure prediction by ZEFSAII (Michael W. Deem and Ramdas Pophale) SiO2 
 PCOD9426924
Probable space group: P B A M
;
_chemical_formula_sum "Si O2"
_cell_formula_units_Z 48
_cell_length_a 11.631451
_cell_length_b 22.526044
_cell_length_c 9.204250
_cell_angle_alpha 90.000000
_cell_angle_beta 90.000000
_cell_angle_gamma 90.000000
_cell_volume 2411.610853
_symmetry_space_group_name_H-M "P B A M"
_symmetry_group_IT_number 55
_symmetry_cell_setting 'orthorhombic'
loop_
_space_group_symop_operation_xyz
x,y,z
-x,-y,z
1/2+x,1/2-y,-z
1/2-x,1/2+y,-z
-x,-y,-z
x,y,-z
1/2-x,1/2+y,z
1/2+x,1/2-y,z
loop_
_atom_site_type_symbol
_atom_site_label
_atom_site_fract_x
_atom_site_fract_y
_atom_site_fract_z
Si Si1 0.107407 0.433602 0.167123
Si Si2 0.893125 0.698336 0.832332
Si Si3 0.812088 0.017906 0.330888
Si Si4 0.079480 0.633325 0.672335
Si Si5 0.027383 0.097611 0.330181
Si Si6 0.194614 0.175821 0.171583
O O1 0.163311 0.366940 0.173584
O O2 0.199699 0.477340 0.234221
O O3 0.990700 0.421943 0.257381
O O4 0.081888 0.446334 0.000000
O O5 0.813389 0.753800 0.798202
O O6 0.000533 0.689173 0.724561
O O7 0.934353 0.706004 0.000000
O O8 0.778813 0.023201 0.500000
O O9 0.902618 0.070522 0.297810
O O10 0.884123 0.957625 0.314592
O O11 0.085044 0.627879 0.500000
O O12 0.203420 0.644320 0.741059
O O13 0.029928 0.115781 0.500000
O O14 0.074611 0.148183 0.225934
O O15 0.210997 0.166783 0.000000
#
# Coordination Sequence:
#
# PCOD9426924 Si02
#       6
#     8   8   8   8   8   8
#     4   9  18  35  56  79 107 142 181 221 268 323
#     4   8  19  36  52  75 107 144 177 215 270 322
#     4   9  18  36  58  79 111 145 181 230 274 319
#     4  10  20  35  55  79 108 140 180 225 268 320
#     4   9  20  36  54  81 112 145 182 225 276 322
#     4  11  21  36  56  80 114 147 179 222 274 326
#
# _framework density 19.90371
#
# number of rings (size 3 to 8) (size 9 to 14) (size 15 to 20)
#    1.000    1.667    0.000    3.000    0.000    4.000 
#    0.000    7.500    0.000    5.000    0.000    0.000 
#    0.000    0.000    0.000    0.000    0.000    0.000 
#
# Total GULP energy -267480.673944 kJ/mol
# GULP energy per Si atom -5572.514041 kJ/mol
# Density = 1.985841 g / cm^3
# Si number density = 19.903710 Si / 1000 Ang^3
#
#
#
# Elastic Constant Matrix: (Units=GPa)
#
#
# Indices 1 2 3 4 5 6 
#
# 1 69.9779 26.7357 52.9463 0.0000 0.0000 0.0000
# 2 26.7357 28.1882 23.5985 0.0000 0.0000 0.0000
# 3 52.9463 23.5985 95.7840 0.0000 0.0000 0.0000
# 4 0.0000 0.0000 0.0000 6.9186 0.0000 0.0000
# 5 0.0000 0.0000 0.0000 0.0000 23.6450 0.0000
# 6 0.0000 0.0000 0.0000 0.0000 0.0000 25.5377
#
#
#
# Elastic Compliance Matrix: (Units=1/GPa)
#
#
# Indices 1 2 3 4 5 6 
#
# 1 0.030928 -0.018925 -0.012433 0.000000 0.000000 0.000000
# 2 -0.018925 0.056275 -0.003403 0.000000 0.000000 0.000000
# 3 -0.012433 -0.003403 0.018151 0.000000 0.000000 0.000000
# 4 0.000000 0.000000 0.000000 0.144538 0.000000 0.000000
# 5 0.000000 0.000000 0.000000 0.000000 0.042292 0.000000
# 6 0.000000 0.000000 0.000000 0.000000 0.000000 0.039158
#
#
# Mechanical properties :
#
#
# Convention : Reuss Voigt Hill
#
# Bulk Modulus (GPa) = 27.90919 44.50124 36.20521
# Shear Modulus (GPa) = 12.11211 17.26490 14.68850
#
# Velocity S-wave (km/s) = 2.46953 2.94840 2.71952
# Velocity P-wave (km/s) = 4.70998 5.83074 5.30007
#
# Compressibility (1/GPa) = 0.03583050
#
# Stress axis : x y z
#
# Youngs Moduli (GPa) = 32.33299 17.76984 55.09225
#
# Poissons Ratio (x) = 0.33630 0.68498
# Poissons Ratio (y) = 0.61192 0.18749
# Poissons Ratio (z) = 0.40201 0.06047
#
# Static dielectric constant tensor:
#      x y z
#    x 1.684510 0.000000 0.000000 
#    y 0.000000 1.756790 0.000000 
#    z 0.000000 0.000000 1.669070 
# 
# From -- ./inp_files/4167.got.cif
#   From: 2010.05.17/outbox.cif.g08.bks.cpg/sg55_3_cif.got.tgz:4167.got - 2010.06.03 13:27:54.
