data_PCOD9426953
_publ_section_title
;
Structure prediction by ZEFSAII (Michael W. Deem and Ramdas Pophale) SiO2 
 PCOD9426953
Probable space group: P B A M
;
_chemical_formula_sum "Si O2"
_cell_formula_units_Z 56
_cell_length_a 13.971463
_cell_length_b 24.017380
_cell_length_c 9.036833
_cell_angle_alpha 90.000000
_cell_angle_beta 90.000000
_cell_angle_gamma 90.000000
_cell_volume 3032.381030
_symmetry_space_group_name_H-M "P B A M"
_symmetry_group_IT_number 55
_symmetry_cell_setting 'orthorhombic'
loop_
_space_group_symop_operation_xyz
x,y,z
-x,-y,z
1/2+x,1/2-y,-z
1/2-x,1/2+y,-z
-x,-y,-z
x,y,-z
1/2-x,1/2+y,z
1/2+x,1/2-y,z
loop_
_atom_site_type_symbol
_atom_site_label
_atom_site_fract_x
_atom_site_fract_y
_atom_site_fract_z
Si Si1 0.894808 0.060167 0.830843
Si Si2 0.982231 0.162228 0.676681
Si Si3 0.802841 0.838232 0.321910
Si Si4 0.778489 0.957985 0.821652
Si Si5 0.394887 0.975050 0.675522
Si Si6 0.707350 0.725522 0.678717
Si Si7 0.190997 0.373931 0.829729
O O1 0.962151 0.100569 0.738586
O O2 0.791569 0.091687 0.829576
O O3 0.868160 0.998143 0.778485
O O4 0.929183 0.057899 0.000000
O O5 0.975812 0.159498 0.500000
O O6 0.897069 0.203211 0.726891
O O7 0.088934 0.180768 0.714915
O O8 0.797051 0.846766 0.500000
O O9 0.786291 0.896229 0.240565
O O10 0.730602 0.788861 0.280644
O O11 0.683683 0.986295 0.754661
O O12 0.774270 0.958965 0.000000
O O13 0.375240 0.973111 0.500000
O O14 0.382400 0.913526 0.743642
O O15 0.500000 0.000000 0.698650
O O16 0.713396 0.721407 0.500000
O O17 0.784444 0.683546 0.749066
O O18 0.162969 0.365785 0.000000
#
# Coordination Sequence:
#
# PCOD9426953 Si02
#       7
#     8   8   8   8   8   8   8
#     4   8  16  31  51  75 102 134 168 210 264 323
#     4   9  18  33  54  77 100 136 181 224 273 323
#     4  10  21  36  53  77 110 144 183 231 277 324
#     4  10  21  36  54  78 111 145 176 221 279 328
#     4  10  20  35  56  82 110 143 183 224 270 326
#     4   9  18  35  55  74 103 143 185 231 273 320
#     4   9  17  31  53  78 105 138 177 222 270 319
#
# _framework density 18.467338000000002
#
# number of rings (size 3 to 8) (size 9 to 14) (size 15 to 20)
#    0.000    2.714    0.000    2.143    0.000    6.857 
#    2.571    2.857    0.000    0.000    0.000    0.000 
#    0.000    0.000    0.000    0.000    0.000    0.000 
#
# Total GULP energy -312295.523276 kJ/mol
# GULP energy per Si atom -5576.705773 kJ/mol
# Density = 1.842531 g / cm^3
# Si number density = 18.467338 Si / 1000 Ang^3
#
#
#
# Elastic Constant Matrix: (Units=GPa)
#
#
# Indices 1 2 3 4 5 6 
#
# 1 56.9480 31.3645 22.9797 0.0000 0.0000 0.0000
# 2 31.3645 120.2378 25.5707 0.0000 0.0000 0.0000
# 3 22.9797 25.5707 29.5845 0.0000 0.0000 0.0000
# 4 0.0000 0.0000 0.0000 20.5444 0.0000 0.0000
# 5 0.0000 0.0000 0.0000 0.0000 11.0572 0.0000
# 6 0.0000 0.0000 0.0000 0.0000 0.0000 26.0336
#
#
#
# Elastic Compliance Matrix: (Units=1/GPa)
#
#
# Indices 1 2 3 4 5 6 
#
# 1 0.026490 -0.003105 -0.017892 0.000000 0.000000 0.000000
# 2 -0.003105 0.010554 -0.006710 0.000000 0.000000 0.000000
# 3 -0.017892 -0.006710 0.053499 0.000000 0.000000 0.000000
# 4 0.000000 0.000000 0.000000 0.048675 0.000000 0.000000
# 5 0.000000 0.000000 0.000000 0.000000 0.090439 0.000000
# 6 0.000000 0.000000 0.000000 0.000000 0.000000 0.038412
#
#
# Mechanical properties :
#
#
# Convention : Reuss Voigt Hill
#
# Bulk Modulus (GPa) = 28.46736 40.73334 34.60035
# Shear Modulus (GPa) = 14.91677 19.98406 17.45042
#
# Velocity S-wave (km/s) = 2.84516 3.29314 3.07731
# Velocity P-wave (km/s) = 5.12266 6.04686 5.60385
#
# Compressibility (1/GPa) = 0.03512795
#
# Stress axis : x y z
#
# Youngs Moduli (GPa) = 37.75036 94.75239 18.69184
#
# Poissons Ratio (x) = 0.29419 0.33444
# Poissons Ratio (y) = 0.11721 0.12543
# Poissons Ratio (z) = 0.67544 0.63582
#
# Static dielectric constant tensor:
#      x y z
#    x 1.650850 0.000000 0.000000 
#    y 0.000000 1.633610 0.000000 
#    z 0.000000 0.000000 1.619670 
# 
# From -- ./inp_files/6024.got.cif
#   From: 2010.05.17/outbox.cif.g08.bks.cpg/sg55_4_cif.got.tgz:6024.got - 2010.06.03 13:27:54.
