data_PCOD9426413
_publ_section_title
;
Structure prediction by ZEFSAII (Michael W. Deem and Ramdas Pophale) SiO2 
 PCOD9426413
Probable space group: P B A M
;
_chemical_formula_sum "Si O2"
_cell_formula_units_Z 54
_cell_length_a 27.920200
_cell_length_b 5.459780
_cell_length_c 14.314191
_cell_angle_alpha 90.000000
_cell_angle_beta 90.000000
_cell_angle_gamma 90.000000
_cell_volume 2182.028788
_symmetry_space_group_name_H-M "P B A M"
_symmetry_group_IT_number 55
_symmetry_cell_setting 'orthorhombic'
loop_
_space_group_symop_operation_xyz
x,y,z
-x,-y,z
1/2+x,1/2-y,-z
1/2-x,1/2+y,-z
-x,-y,-z
x,y,-z
1/2-x,1/2+y,z
1/2+x,1/2-y,z
loop_
_atom_site_type_symbol
_atom_site_label
_atom_site_fract_x
_atom_site_fract_y
_atom_site_fract_z
Si Si1 0.871945 0.660995 0.291990
Si Si2 0.625612 0.921908 0.897022
Si Si3 0.781009 0.799365 0.000000
Si Si4 0.026784 0.752360 0.138726
Si Si5 0.000000 0.000000 0.500000
Si Si6 0.185517 0.984349 0.189100
Si Si7 0.043598 0.664117 0.642934
Si Si8 0.734551 0.025196 0.655819
O O1 0.888670 0.598136 0.186909
O O2 0.854358 0.939433 0.268582
O O3 0.911362 0.523888 0.355107
O O4 0.821298 0.541707 0.321167
O O5 0.580147 0.742046 0.900668
O O6 0.669924 0.764342 0.860223
O O7 0.632859 0.021525 0.000000
O O8 0.807623 0.832823 0.899080
O O9 0.753345 0.541663 0.000000
O O10 0.032050 0.738083 0.251046
O O11 0.000000 0.500000 0.110049
O O12 0.000000 0.000000 0.113196
O O13 0.039018 0.906193 0.580969
O O14 0.233923 0.970552 0.248443
O O15 0.000000 0.500000 0.604852
O O16 0.749136 0.774694 0.607436
#
# Coordination Sequence:
#
# PCOD9426413 Si02
#       8
#     8   8   4   8   2   8   8   8
#     4  10  23  40  60  90 133 178 225 284 342 410
#     4  11  24  37  56  86 124 180 241 293 345 396
#     4  12  26  38  58  86 129 183 236 306 364 398
#     4  10  23  44  65  88 127 174 225 285 342 403
#     4  12  22  44  76 110 138 160 206 260 354 432
#     4  11  23  35  58  87 131 179 237 295 354 401
#     4  10  23  42  70 104 136 170 208 270 348 426
#     4  10  19  37  57  86 123 171 229 275 329 390
#
# _framework density 24.747610999999999
#
# number of rings (size 3 to 8) (size 9 to 14) (size 15 to 20)
#    0.000    1.481    2.963    2.000    9.333    0.593 
#    0.000    0.000    0.000    0.000    0.000    4.148 
#    0.000    0.000    0.000    0.000    0.000    0.000 
#
# Total GULP energy -300939.545553 kJ/mol
# GULP energy per Si atom -5572.954547 kJ/mol
# Density = 2.469128 g / cm^3
# Si number density = 24.747611 Si / 1000 Ang^3
#
#
#
# Elastic Constant Matrix: (Units=GPa)
#
#
# Indices 1 2 3 4 5 6 
#
# 1 90.8343 6.2302 15.6689 0.0000 0.0000 0.0000
# 2 6.2302 110.4971 7.1080 0.0000 0.0000 0.0000
# 3 15.6689 7.1080 114.4198 0.0000 0.0000 0.0000
# 4 0.0000 0.0000 0.0000 4.2914 0.0000 0.0000
# 5 0.0000 0.0000 0.0000 0.0000 1.7080 0.0000
# 6 0.0000 0.0000 0.0000 0.0000 0.0000 34.1156
#
#
#
# Elastic Compliance Matrix: (Units=1/GPa)
#
#
# Indices 1 2 3 4 5 6 
#
# 1 0.011307 -0.000540 -0.001515 0.000000 0.000000 0.000000
# 2 -0.000540 0.009112 -0.000492 0.000000 0.000000 0.000000
# 3 -0.001515 -0.000492 0.008978 0.000000 0.000000 0.000000
# 4 0.000000 0.000000 0.000000 0.233025 0.000000 0.000000
# 5 0.000000 0.000000 0.000000 0.000000 0.585483 0.000000
# 6 0.000000 0.000000 0.000000 0.000000 0.000000 0.029312
#
#
# Mechanical properties :
#
#
# Convention : Reuss Voigt Hill
#
# Bulk Modulus (GPa) = 41.14703 41.52949 41.33826
# Shear Modulus (GPa) = 5.61537 27.13926 16.37732
#
# Velocity S-wave (km/s) = 1.50797 3.31515 2.57529
# Velocity P-wave (km/s) = 4.43788 5.60993 5.05796
#
# Compressibility (1/GPa) = 0.02430309
#
# Stress axis : x y z
#
# Youngs Moduli (GPa) = 88.43744 109.74395 111.38621
#
# Poissons Ratio (x) = 0.05927 0.16874
# Poissons Ratio (y) = 0.04776 0.05481
# Poissons Ratio (z) = 0.13398 0.05401
#
# Static dielectric constant tensor:
#      x y z
#    x 2.091640 0.000000 0.000000 
#    y 0.000000 2.584190 0.000000 
#    z 0.000000 0.000000 1.945500 
# 
# From -- ./inp_files/20173.got.cif
#   From: 2010.05.17/outbox.cif.g08.bks.cpg/sg55_11_cif.got.tgz:20173.got - 2010.06.03 13:27:54.
