data_PCOD9426768
_publ_section_title
;
Structure prediction by ZEFSAII (Michael W. Deem and Ramdas Pophale) SiO2 
 PCOD9426768
Probable space group: P B A M
;
_chemical_formula_sum "Si O2"
_cell_formula_units_Z 56
_cell_length_a 5.066903
_cell_length_b 32.936808
_cell_length_c 16.562728
_cell_angle_alpha 90.000000
_cell_angle_beta 90.000000
_cell_angle_gamma 90.000000
_cell_volume 2764.114112
_symmetry_space_group_name_H-M "P B A M"
_symmetry_group_IT_number 55
_symmetry_cell_setting 'orthorhombic'
loop_
_space_group_symop_operation_xyz
x,y,z
-x,-y,z
1/2+x,1/2-y,-z
1/2-x,1/2+y,-z
-x,-y,-z
x,y,-z
1/2-x,1/2+y,z
1/2+x,1/2-y,z
loop_
_atom_site_type_symbol
_atom_site_label
_atom_site_fract_x
_atom_site_fract_y
_atom_site_fract_z
Si Si1 0.907379 0.895766 0.174503
Si Si2 0.885471 0.639119 0.904969
Si Si3 0.251385 0.027636 0.271176
Si Si4 0.435434 0.362451 0.348035
Si Si5 0.245509 0.775662 0.596871
Si Si6 0.079260 0.591183 0.407310
Si Si7 0.837011 0.226696 0.901653
O O1 0.649054 0.873520 0.140882
O O2 0.829451 0.941002 0.201031
O O3 0.149592 0.892247 0.112929
O O4 0.006427 0.873786 0.255865
O O5 0.771579 0.682877 0.878121
O O6 0.943833 0.641664 0.000000
O O7 0.334483 0.055246 0.347539
O O8 0.500000 0.000000 0.248747
O O9 0.000000 0.000000 0.291002
O O10 0.341067 0.316705 0.359996
O O11 0.702590 0.373384 0.395955
O O12 0.202377 0.391412 0.380257
O O13 0.230959 0.783000 0.500000
O O14 0.536726 0.759844 0.616241
O O15 0.071053 0.578294 0.500000
O O16 0.128456 0.239050 0.874981
O O17 0.843633 0.226669 0.000000
#
# Coordination Sequence:
#
# PCOD9426768 Si02
#       7
#     8   8   8   8   8   8   8
#     4  11  23  41  63  87 117 155 196 240 299 368
#     4  11  22  39  64  90 117 154 202 251 294 347
#     4  11  23  41  64  89 120 157 190 231 294 361
#     4  11  22  39  58  84 123 161 203 245 293 351
#     4  10  20  34  54  80 114 160 209 253 289 323
#     4  11  22  37  62  92 120 155 196 240 288 344
#     4   9  17  31  52  81 116 149 184 230 285 342
#
# _framework density 20.259658000000002
#
# number of rings (size 3 to 8) (size 9 to 14) (size 15 to 20)
#    0.000    1.429    0.000    7.714    0.000    4.000 
#    0.000    4.286    0.000    8.571    0.000    0.000 
#    0.000    0.000    0.000    0.000    0.000    0.000 
#
# Total GULP energy -313214.570371 kJ/mol
# GULP energy per Si atom -5593.117328 kJ/mol
# Density = 2.021355 g / cm^3
# Si number density = 20.259658 Si / 1000 Ang^3
#
#
#
# Elastic Constant Matrix: (Units=GPa)
#
#
# Indices 1 2 3 4 5 6 
#
# 1 84.6637 -6.8060 2.1921 0.0000 0.0000 0.0000
# 2 -6.8060 57.8824 13.8309 0.0000 0.0000 0.0000
# 3 2.1921 13.8309 24.4584 0.0000 0.0000 0.0000
# 4 0.0000 0.0000 0.0000 -2.6007 0.0000 0.0000
# 5 0.0000 0.0000 0.0000 0.0000 -42.0086 0.0000
# 6 0.0000 0.0000 0.0000 0.0000 0.0000 29.0030
#
#
#
# Elastic Compliance Matrix: (Units=1/GPa)
#
#
# Indices 1 2 3 4 5 6 
#
# 1 0.012023 0.001932 -0.002170 0.000000 0.000000 0.000000
# 2 0.001932 0.020286 -0.011645 0.000000 0.000000 0.000000
# 3 -0.002170 -0.011645 0.047665 0.000000 0.000000 0.000000
# 4 0.000000 0.000000 0.000000 -0.384519 0.000000 0.000000
# 5 0.000000 0.000000 0.000000 0.000000 -0.023805 0.000000
# 6 0.000000 0.000000 0.000000 0.000000 0.000000 0.034479
#
#
# Mechanical properties :
#
#
# Convention : Reuss Voigt Hill
#
# Bulk Modulus (GPa) = 17.79080 20.60429 19.19754
# Shear Modulus (GPa) = -19.89110 7.39793 -6.24659
#
# Velocity S-wave (km/s) = -3.13678 1.91298 -1.75783
# Velocity P-wave (km/s) = 2.07816 3.88220 2.31870
#
# Compressibility (1/GPa) = 0.05620884
#
# Stress axis : x y z
#
# Youngs Moduli (GPa) = 83.17421 49.29492 20.97974
#
# Poissons Ratio (x) = -0.09525 0.04553
# Poissons Ratio (y) = -0.16072 0.24430
# Poissons Ratio (z) = 0.18051 0.57402
#
# Static dielectric constant tensor:
#      x y z
#    x 1.698590 0.000000 0.000000 
#    y 0.000000 1.716010 0.000000 
#    z 0.000000 0.000000 1.717640 
# 
# From -- ./inp_files/16762.got.cif
#   From: 2010.05.17/outbox.cif.g08.bks.cpg/sg55_9_cif.got.tgz:16762.got - 2010.06.03 13:27:54.
