data_PCOD9426839
_publ_section_title
;
Structure prediction by ZEFSAII (Michael W. Deem and Ramdas Pophale) SiO2 
 PCOD9426839
Probable space group: P B A M
;
_chemical_formula_sum "Si O2"
_cell_formula_units_Z 64
_cell_length_a 25.268609
_cell_length_b 14.314937
_cell_length_c 7.861316
_cell_angle_alpha 90.000000
_cell_angle_beta 90.000000
_cell_angle_gamma 90.000000
_cell_volume 2843.583792
_symmetry_space_group_name_H-M "P B A M"
_symmetry_group_IT_number 55
_symmetry_cell_setting 'orthorhombic'
loop_
_space_group_symop_operation_xyz
x,y,z
-x,-y,z
1/2+x,1/2-y,-z
1/2-x,1/2+y,-z
-x,-y,-z
x,y,-z
1/2-x,1/2+y,z
1/2+x,1/2-y,z
loop_
_atom_site_type_symbol
_atom_site_label
_atom_site_fract_x
_atom_site_fract_y
_atom_site_fract_z
Si Si1 0.296004 0.808091 0.701843
Si Si2 0.410287 0.747415 0.300769
Si Si3 0.671677 0.995794 0.793107
Si Si4 0.945035 0.955400 0.196312
Si Si5 0.442895 0.016312 0.802865
Si Si6 0.311813 0.216139 0.197832
Si Si7 0.399268 0.364268 0.301617
Si Si8 0.976605 0.293236 0.293399
O O1 0.294120 0.790546 0.500000
O O2 0.353148 0.773789 0.771601
O O3 0.247612 0.753326 0.783171
O O4 0.292155 0.919240 0.733474
O O5 0.408398 0.771023 0.500000
O O6 0.424174 0.637983 0.284528
O O7 0.462785 0.799386 0.232316
O O8 0.611974 0.019528 0.729778
O O9 0.684711 0.890532 0.735313
O O10 0.671280 0.995912 0.000000
O O11 0.901406 0.037557 0.207012
O O12 0.954713 0.930781 0.000000
O O13 0.000000 0.000000 0.266258
O O14 0.440478 0.128380 0.790656
O O15 0.500000 0.000000 0.717890
O O16 0.445723 0.987544 0.000000
O O17 0.350634 0.293138 0.279007
O O18 0.326498 0.212431 0.000000
O O19 0.403671 0.386590 0.500000
O O20 0.451115 0.305512 0.248233
O O21 0.974337 0.301751 0.500000
#
# Coordination Sequence:
#
# PCOD9426839 Si02
#       8
#     8   8   8   8   8   8   8   8
#     4  11  25  43  66  94 125 163 211 261 309 365
#     4  10  22  41  61  88 127 169 211 260 316 373
#     4  10  22  41  64  91 124 164 204 250 312 369
#     4  11  23  37  59  92 128 169 214 260 314 376
#     4  10  20  34  56  88 124 161 201 247 304 370
#     4  11  24  44  68  91 124 164 208 259 310 369
#     4  11  22  38  63  91 122 161 206 256 311 370
#     4  10  20  34  57  87 120 159 201 250 309 368
#
# _framework density 22.506810999999999
#
# number of rings (size 3 to 8) (size 9 to 14) (size 15 to 20)
#    0.000    1.500    2.500    2.250    0.000    5.250 
#    0.000    2.500    0.000    0.000    0.000    0.000 
#    0.000    0.000    0.000    0.000    0.000    0.000 
#
# Total GULP energy -357594.975284 kJ/mol
# GULP energy per Si atom -5587.421489 kJ/mol
# Density = 2.245558 g / cm^3
# Si number density = 22.506811 Si / 1000 Ang^3
#
#
#
# Elastic Constant Matrix: (Units=GPa)
#
#
# Indices 1 2 3 4 5 6 
#
# 1 110.3820 31.6973 -2.5377 0.0000 0.0000 0.0000
# 2 31.6973 96.6899 -5.7767 0.0000 0.0000 0.0000
# 3 -2.5377 -5.7767 39.6860 0.0000 0.0000 0.0000
# 4 0.0000 0.0000 0.0000 29.9308 0.0000 0.0000
# 5 0.0000 0.0000 0.0000 0.0000 13.2190 0.0000
# 6 0.0000 0.0000 0.0000 0.0000 0.0000 36.2138
#
#
#
# Elastic Compliance Matrix: (Units=1/GPa)
#
#
# Indices 1 2 3 4 5 6 
#
# 1 0.010002 -0.003269 0.000164 0.000000 0.000000 0.000000
# 2 -0.003269 0.011502 0.001465 0.000000 0.000000 0.000000
# 3 0.000164 0.001465 0.025422 0.000000 0.000000 0.000000
# 4 0.000000 0.000000 0.000000 0.033410 0.000000 0.000000
# 5 0.000000 0.000000 0.000000 0.000000 0.075648 0.000000
# 6 0.000000 0.000000 0.000000 0.000000 0.000000 0.027614
#
#
# Mechanical properties :
#
#
# Convention : Reuss Voigt Hill
#
# Bulk Modulus (GPa) = 22.91237 32.61374 27.76305
# Shear Modulus (GPa) = 24.82296 30.76439 27.79367
#
# Velocity S-wave (km/s) = 3.32461 3.70116 3.51793
# Velocity P-wave (km/s) = 4.99396 5.72598 5.37245
#
# Compressibility (1/GPa) = 0.04364455
#
# Stress axis : x y z
#
# Youngs Moduli (GPa) = 99.98036 86.94464 39.33675
#
# Poissons Ratio (x) = 0.28423 -0.00644
# Poissons Ratio (y) = 0.32685 -0.05763
# Poissons Ratio (z) = -0.01637 -0.12738
#
# Static dielectric constant tensor:
#      x y z
#    x 1.858910 0.000000 0.000000 
#    y 0.000000 1.866660 0.000000 
#    z 0.000000 0.000000 1.801340 
# 
# From -- ./inp_files/9666.got.cif
#   From: 2010.05.17/outbox.cif.g08.bks.cpg/sg55_5_cif.got.tgz:9666.got - 2010.06.03 13:27:54.
