data_PCOD9426836
_publ_section_title
;
Structure prediction by ZEFSAII (Michael W. Deem and Ramdas Pophale) SiO2 
 PCOD9426836
Probable space group: P B A M
;
_chemical_formula_sum "Si O2"
_cell_formula_units_Z 64
_cell_length_a 23.528115
_cell_length_b 15.911772
_cell_length_c 8.696530
_cell_angle_alpha 90.000000
_cell_angle_beta 90.000000
_cell_angle_gamma 90.000000
_cell_volume 3255.754735
_symmetry_space_group_name_H-M "P B A M"
_symmetry_group_IT_number 55
_symmetry_cell_setting 'orthorhombic'
loop_
_space_group_symop_operation_xyz
x,y,z
-x,-y,z
1/2+x,1/2-y,-z
1/2-x,1/2+y,-z
-x,-y,-z
x,y,-z
1/2-x,1/2+y,z
1/2+x,1/2-y,z
loop_
_atom_site_type_symbol
_atom_site_label
_atom_site_fract_x
_atom_site_fract_y
_atom_site_fract_z
Si Si1 0.684298 0.308834 0.815832
Si Si2 0.628694 0.137470 0.178290
Si Si3 0.814370 0.312243 0.817409
Si Si4 0.796243 0.494851 0.682601
Si Si5 0.497320 0.094509 0.178547
Si Si6 0.331496 0.509535 0.683871
Si Si7 0.928106 0.251726 0.316767
Si Si8 0.451176 0.433876 0.688046
O O1 0.645672 0.230628 0.773613
O O2 0.749782 0.286503 0.779249
O O3 0.666318 0.392885 0.729842
O O4 0.681283 0.323773 0.000000
O O5 0.661072 0.068867 0.277640
O O6 0.561642 0.126312 0.184021
O O7 0.646957 0.126265 0.000000
O O8 0.816778 0.409426 0.763976
O O9 0.862821 0.257809 0.737226
O O10 0.822355 0.307726 0.000000
O O11 0.794385 0.479214 0.500000
O O12 0.731858 0.517622 0.736299
O O13 0.458281 0.164068 0.256706
O O14 0.500000 0.000000 0.244623
O O15 0.478423 0.087048 0.000000
O O16 0.332130 0.500623 0.500000
O O17 0.388364 0.463756 0.740535
O O18 0.929664 0.252211 0.500000
O O19 0.956938 0.163902 0.264017
O O20 0.500000 0.500000 0.738014
O O21 0.452001 0.435091 0.500000
#
# Coordination Sequence:
#
# PCOD9426836 Si02
#       8
#     8   8   8   8   8   8   8   8
#     4   9  20  36  55  82 113 148 189 235 283 342
#     4  10  21  36  56  82 115 152 190 232 285 349
#     4  10  20  37  58  80 114 154 188 230 292 350
#     4  10  20  34  56  88 117 146 187 238 287 342
#     4  10  22  40  60  82 114 157 195 232 291 354
#     4   9  19  36  58  82 112 150 190 233 287 341
#     4  11  23  37  61  91 118 150 197 249 287 341
#     4   9  20  38  58  82 116 156 195 238 293 348
#
# _framework density 19.657501
#
# number of rings (size 3 to 8) (size 9 to 14) (size 15 to 20)
#    0.000    2.250    0.000    1.875    3.500    3.250 
#    0.000    1.250    0.000    1.875    0.000    0.000 
#    0.000    0.000    0.000    0.000    0.000    0.000 
#
# Total GULP energy -357186.689805 kJ/mol
# GULP energy per Si atom -5581.042028 kJ/mol
# Density = 1.961276 g / cm^3
# Si number density = 19.657501 Si / 1000 Ang^3
#
#
#
# Elastic Constant Matrix: (Units=GPa)
#
#
# Indices 1 2 3 4 5 6 
#
# 1 55.5343 39.0574 12.8044 0.0000 0.0000 0.0000
# 2 39.0574 74.8606 13.6988 0.0000 0.0000 0.0000
# 3 12.8044 13.6988 17.5112 0.0000 0.0000 0.0000
# 4 0.0000 0.0000 0.0000 21.3455 0.0000 0.0000
# 5 0.0000 0.0000 0.0000 0.0000 13.9505 0.0000
# 6 0.0000 0.0000 0.0000 0.0000 0.0000 25.6328
#
#
#
# Elastic Compliance Matrix: (Units=1/GPa)
#
#
# Indices 1 2 3 4 5 6 
#
# 1 0.030281 -0.013710 -0.011417 0.000000 0.000000 0.000000
# 2 -0.013710 0.021797 -0.007027 0.000000 0.000000 0.000000
# 3 -0.011417 -0.007027 0.070952 0.000000 0.000000 0.000000
# 4 0.000000 0.000000 0.000000 0.046848 0.000000 0.000000
# 5 0.000000 0.000000 0.000000 0.000000 0.071682 0.000000
# 6 0.000000 0.000000 0.000000 0.000000 0.000000 0.039013
#
#
# Mechanical properties :
#
#
# Convention : Reuss Voigt Hill
#
# Bulk Modulus (GPa) = 17.02919 31.00303 24.01611
# Shear Modulus (GPa) = 13.71916 17.67546 15.69731
#
# Velocity S-wave (km/s) = 2.64466 3.00187 2.82891
# Velocity P-wave (km/s) = 4.24352 5.27454 4.78687
#
# Compressibility (1/GPa) = 0.05872268
#
# Stress axis : x y z
#
# Youngs Moduli (GPa) = 33.02372 45.87851 14.09409
#
# Poissons Ratio (x) = 0.62897 0.16092
# Poissons Ratio (y) = 0.45274 0.09903
# Poissons Ratio (z) = 0.37704 0.32237
#
# Static dielectric constant tensor:
#      x y z
#    x 1.691530 0.000000 0.000000 
#    y 0.000000 1.732890 0.000000 
#    z 0.000000 0.000000 1.681620 
# 
# From -- ./inp_files/9750.got.cif
#   From: 2010.05.17/outbox.cif.g08.bks.cpg/sg55_5_cif.got.tgz:9750.got - 2010.06.03 13:27:54.
