data_PCOD9426038
_publ_section_title
;
Structure prediction by ZEFSAII (Michael W. Deem and Ramdas Pophale) SiO2 
 PCOD9426038
Probable space group: P B A M
;
_chemical_formula_sum "Si O2"
_cell_formula_units_Z 64
_cell_length_a 34.265306
_cell_length_b 11.955965
_cell_length_c 8.614110
_cell_angle_alpha 90.000000
_cell_angle_beta 90.000000
_cell_angle_gamma 90.000000
_cell_volume 3528.983785
_symmetry_space_group_name_H-M "P B A M"
_symmetry_group_IT_number 55
_symmetry_cell_setting 'orthorhombic'
loop_
_space_group_symop_operation_xyz
x,y,z
-x,-y,z
1/2+x,1/2-y,-z
1/2-x,1/2+y,-z
-x,-y,-z
x,y,-z
1/2-x,1/2+y,z
1/2+x,1/2-y,z
loop_
_atom_site_type_symbol
_atom_site_label
_atom_site_fract_x
_atom_site_fract_y
_atom_site_fract_z
Si Si1 0.785648 0.605944 0.687867
Si Si2 0.905750 0.689308 0.314242
Si Si3 0.944317 0.086702 0.187342
Si Si4 0.861988 0.470048 0.311273
Si Si5 0.330726 0.686048 0.184574
Si Si6 0.969983 0.840148 0.187003
Si Si7 0.369788 0.283139 0.312592
Si Si8 0.302254 0.450305 0.312403
O O1 0.713598 0.116233 0.500000
O O2 0.819166 0.516674 0.732077
O O3 0.798855 0.723803 0.758424
O O4 0.742419 0.570174 0.735508
O O5 0.905328 0.690726 0.500000
O O6 0.893012 0.564795 0.261906
O O7 0.871701 0.771451 0.254061
O O8 0.946600 0.736079 0.254243
O O9 0.906783 0.147137 0.254622
O O10 0.984741 0.147921 0.232857
O O11 0.949106 0.956803 0.234961
O O12 0.942211 0.087836 0.000000
O O13 0.862758 0.467350 0.500000
O O14 0.869849 0.344879 0.255596
O O15 0.319296 0.564156 0.244016
O O16 0.333525 0.686664 0.000000
O O17 0.968622 0.835793 0.000000
O O18 0.370838 0.280891 0.500000
O O19 0.330350 0.347969 0.266915
O O20 0.302745 0.458827 0.500000
#
# Coordination Sequence:
#
# PCOD9426038 Si02
#       8
#     8   8   8   8   8   8   8   8
#     4   9  19  36  58  78 101 135 182 230 268 313
#     4  10  19  34  56  79 103 137 182 222 263 314
#     4   9  19  35  53  77 109 143 172 210 269 327
#     4   8  17  34  53  74 104 138 171 217 269 315
#     4  11  22  35  52  76 111 142 172 217 268 324
#     4   9  18  34  56  79 106 138 175 217 267 322
#     4  10  20  34  53  79 106 136 177 220 265 318
#     4  10  21  34  56  82 103 135 181 228 269 316
#
# _framework density 18.135532000000001
#
# number of rings (size 3 to 8) (size 9 to 14) (size 15 to 20)
#    0.000    2.500    0.000    3.750    1.750    4.000 
#    0.000    5.000    0.000    3.750    0.000    0.000 
#    0.000    0.000    0.000    0.000    0.000    0.000 
#
# Total GULP energy -357111.471436 kJ/mol
# GULP energy per Si atom -5579.866741 kJ/mol
# Density = 1.809425 g / cm^3
# Si number density = 18.135532 Si / 1000 Ang^3
#
#
#
# Elastic Constant Matrix: (Units=GPa)
#
#
# Indices 1 2 3 4 5 6 
#
# 1 78.8786 36.0811 11.6743 0.0000 0.0000 0.0000
# 2 36.0811 75.1688 11.2073 0.0000 0.0000 0.0000
# 3 11.6743 11.2073 14.3984 0.0000 0.0000 0.0000
# 4 0.0000 0.0000 0.0000 10.0157 0.0000 0.0000
# 5 0.0000 0.0000 0.0000 0.0000 -49.5385 0.0000
# 6 0.0000 0.0000 0.0000 0.0000 0.0000 14.7427
#
#
#
# Elastic Compliance Matrix: (Units=1/GPa)
#
#
# Indices 1 2 3 4 5 6 
#
# 1 0.017110 -0.006951 -0.008462 0.000000 0.000000 0.000000
# 2 -0.006951 0.017874 -0.008277 0.000000 0.000000 0.000000
# 3 -0.008462 -0.008277 0.082756 0.000000 0.000000 0.000000
# 4 0.000000 0.000000 0.000000 0.099843 0.000000 0.000000
# 5 0.000000 0.000000 0.000000 0.000000 -0.020186 0.000000
# 6 0.000000 0.000000 0.000000 0.000000 0.000000 0.067830
#
#
# Mechanical properties :
#
#
# Convention : Reuss Voigt Hill
#
# Bulk Modulus (GPa) = 14.21267 31.81903 23.01585
# Shear Modulus (GPa) = 14.87834 2.34287 8.61060
#
# Velocity S-wave (km/s) = 2.86736 1.13784 2.18134
# Velocity P-wave (km/s) = 4.33778 4.39425 4.36611
#
# Compressibility (1/GPa) = 0.07035977
#
# Stress axis : x y z
#
# Youngs Moduli (GPa) = 58.44629 55.94761 12.08374
#
# Poissons Ratio (x) = 0.38889 0.10226
# Poissons Ratio (y) = 0.40626 0.10001
# Poissons Ratio (z) = 0.49459 0.46305
#
# Static dielectric constant tensor:
#      x y z
#    x 1.614430 0.000000 0.000000 
#    y 0.000000 1.611830 0.000000 
#    z 0.000000 0.000000 1.614460 
# 
# From -- ./inp_files/10849.got.cif
#   From: 2010.05.17/outbox.cif.g08.bks.cpg/sg55_6_cif.got.tgz:10849.got - 2010.06.03 13:27:54.
