data_PCOD9426556
_publ_section_title
;
Structure prediction by ZEFSAII (Michael W. Deem and Ramdas Pophale) SiO2 
 PCOD9426556
Probable space group: P B A M
;
_chemical_formula_sum "Si O2"
_cell_formula_units_Z 40
_cell_length_a 9.221049
_cell_length_b 30.342053
_cell_length_c 7.620591
_cell_angle_alpha 90.000000
_cell_angle_beta 90.000000
_cell_angle_gamma 90.000000
_cell_volume 2132.131301
_symmetry_space_group_name_H-M "P B A M"
_symmetry_group_IT_number 55
_symmetry_cell_setting 'orthorhombic'
loop_
_space_group_symop_operation_xyz
x,y,z
-x,-y,z
1/2+x,1/2-y,-z
1/2-x,1/2+y,-z
-x,-y,-z
x,y,-z
1/2-x,1/2+y,z
1/2+x,1/2-y,z
loop_
_atom_site_type_symbol
_atom_site_label
_atom_site_fract_x
_atom_site_fract_y
_atom_site_fract_z
Si Si1 0.921970 0.795591 0.000000
Si Si2 0.409457 0.956921 0.787506
Si Si3 0.388762 0.121621 0.201921
Si Si4 0.436697 0.634482 0.299264
Si Si5 0.573282 0.544028 0.294393
Si Si6 0.425551 0.202189 0.000000
O O1 0.962475 0.824588 0.170324
O O2 0.993317 0.747874 0.000000
O O3 0.747614 0.790989 0.000000
O O4 0.497590 0.913634 0.728497
O O5 0.245722 0.958558 0.721864
O O6 0.500000 0.000000 0.735333
O O7 0.401712 0.955888 0.000000
O O8 0.236255 0.125009 0.297885
O O9 0.350830 0.107431 0.000000
O O10 0.455931 0.170109 0.166920
O O11 0.483212 0.642990 0.500000
O O12 0.514354 0.590596 0.225886
O O13 0.500000 0.500000 0.217603
O O14 0.531995 0.545141 0.500000
#
# Coordination Sequence:
#
# PCOD9426556 Si02
#       6
#     4   8   8   8   8   4
#     4  10  20  38  57  80 109 140 179 226 270 324
#     4  10  20  32  52  82 109 139 181 223 263 319
#     4   8  17  35  54  79 106 141 180 216 271 325
#     4  10  20  36  58  81 108 144 183 223 268 320
#     4  10  22  36  50  76 110 146 183 219 268 322
#     4   8  18  34  57  76 103 146 171 212 282 322
#
# _framework density 18.760570000000001
#
# number of rings (size 3 to 8) (size 9 to 14) (size 15 to 20)
#    0.600    2.000    1.000    1.200    1.400    3.200 
#    0.000    4.000    0.000    0.000    0.000    0.000 
#    0.000    0.000    0.000    0.000    0.000    0.000 
#
# Total GULP energy -222885.686729 kJ/mol
# GULP energy per Si atom -5572.142168 kJ/mol
# Density = 1.871787 g / cm^3
# Si number density = 18.760570 Si / 1000 Ang^3
#
#
#
# Elastic Constant Matrix: (Units=GPa)
#
#
# Indices 1 2 3 4 5 6 
#
# 1 71.6118 82.1256 0.6186 0.0000 0.0000 0.0000
# 2 82.1256 197.3124 24.7033 0.0000 0.0000 0.0000
# 3 0.6186 24.7033 55.1019 0.0000 0.0000 0.0000
# 4 0.0000 0.0000 0.0000 19.7641 0.0000 0.0000
# 5 0.0000 0.0000 0.0000 0.0000 17.5070 0.0000
# 6 0.0000 0.0000 0.0000 0.0000 0.0000 43.9531
#
#
#
# Elastic Compliance Matrix: (Units=1/GPa)
#
#
# Indices 1 2 3 4 5 6 
#
# 1 0.028063 -0.012333 0.005214 0.000000 0.000000 0.000000
# 2 -0.012333 0.010790 -0.004699 0.000000 0.000000 0.000000
# 3 0.005214 -0.004699 0.020196 0.000000 0.000000 0.000000
# 4 0.000000 0.000000 0.000000 0.050597 0.000000 0.000000
# 5 0.000000 0.000000 0.000000 0.000000 0.057120 0.000000
# 6 0.000000 0.000000 0.000000 0.000000 0.000000 0.022752
#
#
# Mechanical properties :
#
#
# Convention : Reuss Voigt Hill
#
# Bulk Modulus (GPa) = 28.23794 59.88015 44.05904
# Shear Modulus (GPa) = 22.22639 30.68341 26.45490
#
# Velocity S-wave (km/s) = 3.44574 4.04855 3.75925
# Velocity P-wave (km/s) = 5.56015 7.33769 6.50988
#
# Compressibility (1/GPa) = 0.03541335
#
# Stress axis : x y z
#
# Youngs Moduli (GPa) = 35.63388 92.68036 49.51423
#
# Poissons Ratio (x) = 1.14305 -0.25818
# Poissons Ratio (y) = 0.43948 0.23266
# Poissons Ratio (z) = -0.18580 0.43549
#
# Static dielectric constant tensor:
#      x y z
#    x 1.609310 0.000000 0.000000 
#    y 0.000000 1.662650 0.000000 
#    z 0.000000 0.000000 1.671990 
# 
# From -- ./inp_files/2635.got.cif
#   From: 2010.05.17/outbox.cif.g08.bks.cpg/sg55_2_cif.got.tgz:2635.got - 2010.06.03 13:27:54.
