data_PCOD9426561
_publ_section_title
;
Structure prediction by ZEFSAII (Michael W. Deem and Ramdas Pophale) SiO2 
 PCOD9426561
Probable space group: P B A M
;
_chemical_formula_sum "Si O2"
_cell_formula_units_Z 58
_cell_length_a 24.863575
_cell_length_b 15.197391
_cell_length_c 8.088840
_cell_angle_alpha 90.000000
_cell_angle_beta 90.000000
_cell_angle_gamma 90.000000
_cell_volume 3056.460981
_symmetry_space_group_name_H-M "P B A M"
_symmetry_group_IT_number 55
_symmetry_cell_setting 'orthorhombic'
loop_
_space_group_symop_operation_xyz
x,y,z
-x,-y,z
1/2+x,1/2-y,-z
1/2-x,1/2+y,-z
-x,-y,-z
x,y,-z
1/2-x,1/2+y,z
1/2+x,1/2-y,z
loop_
_atom_site_type_symbol
_atom_site_label
_atom_site_fract_x
_atom_site_fract_y
_atom_site_fract_z
Si Si1 0.828272 0.093741 0.199585
Si Si2 0.329311 0.607717 0.194198
Si Si3 0.206393 0.417139 0.805400
Si Si4 0.617770 0.218884 0.306678
Si Si5 0.791617 0.389011 0.305856
Si Si6 0.500000 0.000000 0.500000
Si Si7 0.113366 0.735471 0.696947
Si Si8 0.499107 0.817860 0.315648
O O1 0.766171 0.113053 0.248454
O O2 0.867850 0.165351 0.273913
O O3 0.839215 0.992805 0.248928
O O4 0.831440 0.098640 0.000000
O O5 0.362956 0.681331 0.287429
O O6 0.265664 0.624568 0.219147
O O7 0.341465 0.614305 0.000000
O O8 0.162101 0.343563 0.775644
O O9 0.193125 0.508576 0.715402
O O10 0.210239 0.437513 0.000000
O O11 0.616310 0.193106 0.500000
O O12 0.558068 0.204160 0.235801
O O13 0.783751 0.370006 0.500000
O O14 0.839114 0.327689 0.238287
O O15 0.502042 0.921283 0.358662
O O16 0.110512 0.716723 0.500000
O O17 0.054406 0.713583 0.765787
O O18 0.497064 0.773356 0.500000
#
# Coordination Sequence:
#
# PCOD9426561 Si02
#       8
#     8   8   8   8   8   2   8   8
#     4   9  20  37  54  74 104 145 180 215 269 330
#     4  10  21  38  55  75 111 150 180 220 281 336
#     4  10  21  35  53  79 113 149 181 218 279 337
#     4  11  21  34  56  82 106 139 187 233 268 320
#     4  10  20  32  55  85 111 140 184 228 271 329
#     4   8  16  36  60  72 112 152 172 212 278 330
#     4  10  20  34  55  81 107 136 179 226 276 320
#     4   8  19  33  55  79 107 140 177 214 272 323
#
# _framework density 18.976195000000001
#
# number of rings (size 3 to 8) (size 9 to 14) (size 15 to 20)
#    0.414    1.931    0.000    3.310    1.931    6.621 
#    0.000    2.069    0.000    4.966    0.000    0.000 
#    0.000    0.000    0.000    0.000    0.000    0.000 
#
# Total GULP energy -322897.650115 kJ/mol
# GULP energy per Si atom -5567.200864 kJ/mol
# Density = 1.893300 g / cm^3
# Si number density = 18.976195 Si / 1000 Ang^3
#
#
#
# Elastic Constant Matrix: (Units=GPa)
#
#
# Indices 1 2 3 4 5 6 
#
# 1 109.0840 78.4656 -4.4652 0.0000 0.0000 0.0000
# 2 78.4656 89.6755 -6.9905 0.0000 0.0000 0.0000
# 3 -4.4652 -6.9905 15.8476 0.0000 0.0000 0.0000
# 4 0.0000 0.0000 0.0000 -54.7358 0.0000 0.0000
# 5 0.0000 0.0000 0.0000 0.0000 -53.2451 0.0000
# 6 0.0000 0.0000 0.0000 0.0000 0.0000 1.6128
#
#
#
# Elastic Compliance Matrix: (Units=1/GPa)
#
#
# Indices 1 2 3 4 5 6 
#
# 1 0.024845 -0.021949 -0.002681 0.000000 0.000000 0.000000
# 2 -0.021949 0.030938 0.007463 0.000000 0.000000 0.000000
# 3 -0.002681 0.007463 0.065638 0.000000 0.000000 0.000000
# 4 0.000000 0.000000 0.000000 -0.018270 0.000000 0.000000
# 5 0.000000 0.000000 0.000000 0.000000 -0.018781 0.000000
# 6 0.000000 0.000000 0.000000 0.000000 0.000000 0.620024
#
#
# Mechanical properties :
#
#
# Convention : Reuss Voigt Hill
#
# Bulk Modulus (GPa) = 11.48281 38.73632 25.10957
# Shear Modulus (GPa) = 6.51247 -11.43380 -2.46067
#
# Velocity S-wave (km/s) = 1.85455 -2.45732 -1.13997
# Velocity P-wave (km/s) = 3.26345 3.52224 3.39531
#
# Compressibility (1/GPa) = 0.08708668
#
# Stress axis : x y z
#
# Youngs Moduli (GPa) = 40.24875 32.32263 15.23518
#
# Poissons Ratio (x) = 0.70944 0.04085
# Poissons Ratio (y) = 0.88341 -0.11370
# Poissons Ratio (z) = 0.10792 -0.24122
#
# Static dielectric constant tensor:
#      x y z
#    x 1.689620 0.000000 0.000000 
#    y 0.000000 1.630550 0.000000 
#    z 0.000000 0.000000 1.678480 
# 
# From -- ./inp_files/9604.got.cif
#   From: 2010.05.17/outbox.cif.g08.bks.cpg/sg55_5_cif.got.tgz:9604.got - 2010.06.03 13:27:54.
