data_PCOD9426801
_publ_section_title
;
Structure prediction by ZEFSAII (Michael W. Deem and Ramdas Pophale) SiO2 
 PCOD9426801
Probable space group: P B A M
;
_chemical_formula_sum "Si O2"
_cell_formula_units_Z 56
_cell_length_a 8.086748
_cell_length_b 14.424334
_cell_length_c 20.678362
_cell_angle_alpha 90.000000
_cell_angle_beta 90.000000
_cell_angle_gamma 90.000000
_cell_volume 2412.047265
_symmetry_space_group_name_H-M "P B A M"
_symmetry_group_IT_number 55
_symmetry_cell_setting 'orthorhombic'
loop_
_space_group_symop_operation_xyz
x,y,z
-x,-y,z
1/2+x,1/2-y,-z
1/2-x,1/2+y,-z
-x,-y,-z
x,y,-z
1/2-x,1/2+y,z
1/2+x,1/2-y,z
loop_
_atom_site_type_symbol
_atom_site_label
_atom_site_fract_x
_atom_site_fract_y
_atom_site_fract_z
Si Si1 0.685292 0.514601 0.641570
Si Si2 0.101123 0.312442 0.643534
Si Si3 0.191565 0.124249 0.132738
Si Si4 0.679348 0.050886 0.926279
Si Si5 0.994587 0.269656 0.923793
Si Si6 0.766551 0.346859 0.427829
Si Si7 0.404668 0.087056 0.748770
O O1 0.500000 0.500000 0.664618
O O2 0.743032 0.619487 0.634181
O O3 0.710773 0.453144 0.577815
O O4 0.810037 0.467150 0.692032
O O5 0.163461 0.210807 0.625608
O O6 0.957345 0.338016 0.592700
O O7 0.023093 0.337935 0.713713
O O8 0.321154 0.178983 0.086746
O O9 0.023153 0.178078 0.118588
O O10 0.273061 0.131555 0.203198
O O11 0.201878 0.016689 0.113267
O O12 0.630015 0.152821 0.902387
O O13 0.500000 0.000000 0.929768
O O14 0.741506 0.059402 0.000000
O O15 0.013681 0.250601 0.000000
O O16 0.739251 0.310686 0.500000
O O17 0.500000 0.000000 0.782581
#
# Coordination Sequence:
#
# PCOD9426801 Si02
#       7
#     8   8   8   8   8   8   8
#     4  10  22  41  62  86 120 159 195 247 312 360
#     4  10  22  39  59  86 124 160 199 253 301 347
#     4  11  20  35  57  81 110 147 192 238 285 346
#     4   8  15  30  51  73 102 141 180 220 272 334
#     4  10  20  34  55  83 112 145 187 235 291 348
#     4  11  22  37  61  91 121 160 207 246 293 357
#     4   9  20  39  60  84 116 157 202 242 290 356
#
# _framework density 23.216792999999999
#
# number of rings (size 3 to 8) (size 9 to 14) (size 15 to 20)
#    0.000    2.143    0.000    6.000    0.000    4.286 
#    0.000    6.429    0.000    2.571    0.000    0.000 
#    0.000    0.000    0.000    0.000    0.000    0.000 
#
# Total GULP energy -312830.529674 kJ/mol
# GULP energy per Si atom -5586.259458 kJ/mol
# Density = 2.316395 g / cm^3
# Si number density = 23.216793 Si / 1000 Ang^3
#
#
#
# Elastic Constant Matrix: (Units=GPa)
#
#
# Indices 1 2 3 4 5 6 
#
# 1 61.8206 -3.0038 -7.3056 0.0000 0.0000 0.0000
# 2 -3.0038 62.9299 8.6409 0.0000 0.0000 0.0000
# 3 -7.3056 8.6409 67.4232 0.0000 0.0000 0.0000
# 4 0.0000 0.0000 0.0000 18.0108 0.0000 0.0000
# 5 0.0000 0.0000 0.0000 0.0000 6.6569 0.0000
# 6 0.0000 0.0000 0.0000 0.0000 0.0000 36.7227
#
#
#
# Elastic Compliance Matrix: (Units=1/GPa)
#
#
# Indices 1 2 3 4 5 6 
#
# 1 0.016404 0.000549 0.001707 0.000000 0.000000 0.000000
# 2 0.000549 0.016194 -0.002016 0.000000 0.000000 0.000000
# 3 0.001707 -0.002016 0.015275 0.000000 0.000000 0.000000
# 4 0.000000 0.000000 0.000000 0.055522 0.000000 0.000000
# 5 0.000000 0.000000 0.000000 0.000000 0.150219 0.000000
# 6 0.000000 0.000000 0.000000 0.000000 0.000000 0.027231
#
#
# Mechanical properties :
#
#
# Convention : Reuss Voigt Hill
#
# Bulk Modulus (GPa) = 20.68138 20.98184 20.83161
# Shear Modulus (GPa) = 16.86434 25.20089 21.03262
#
# Velocity S-wave (km/s) = 2.69808 3.29821 3.01312
# Velocity P-wave (km/s) = 4.31665 4.85399 4.59318
#
# Compressibility (1/GPa) = 0.04835267
#
# Stress axis : x y z
#
# Youngs Moduli (GPa) = 60.95983 61.75243 65.46633
#
# Poissons Ratio (x) = -0.03388 -0.11176
# Poissons Ratio (y) = -0.03344 0.13198
# Poissons Ratio (z) = -0.10407 0.12449
#
# Static dielectric constant tensor:
#      x y z
#    x 1.927880 0.000000 0.000000 
#    y 0.000000 1.907370 0.000000 
#    z 0.000000 0.000000 1.859370 
# 
# From -- ./inp_files/22637.got.cif
#   From: 2010.05.17/outbox.cif.g08.bks.cpg/sg55_12_cif.got.tgz:22637.got - 2010.06.03 13:27:54.
