data_PCOD9426884
_publ_section_title
;
Structure prediction by ZEFSAII (Michael W. Deem and Ramdas Pophale) SiO2 
 PCOD9426884
Probable space group: P B A M
;
_chemical_formula_sum "Si O2"
_cell_formula_units_Z 40
_cell_length_a 28.629329
_cell_length_b 7.092801
_cell_length_c 8.172402
_cell_angle_alpha 90.000000
_cell_angle_beta 90.000000
_cell_angle_gamma 90.000000
_cell_volume 1659.505385
_symmetry_space_group_name_H-M "P B A M"
_symmetry_group_IT_number 55
_symmetry_cell_setting 'orthorhombic'
loop_
_space_group_symop_operation_xyz
x,y,z
-x,-y,z
1/2+x,1/2-y,-z
1/2-x,1/2+y,-z
-x,-y,-z
x,y,-z
1/2-x,1/2+y,z
1/2+x,1/2-y,z
loop_
_atom_site_type_symbol
_atom_site_label
_atom_site_fract_x
_atom_site_fract_y
_atom_site_fract_z
Si Si1 0.836456 0.733109 0.318710
Si Si2 0.943073 0.852260 0.694184
Si Si3 0.867167 0.310858 0.323268
Si Si4 0.319809 0.258589 0.000000
Si Si5 0.213343 0.325315 0.000000
Si Si6 0.962975 0.272715 0.811309
O O1 0.822217 0.802043 0.500000
O O2 0.889729 0.792915 0.282317
O O3 0.839171 0.505694 0.330356
O O4 0.803533 0.776267 0.165853
O O5 0.950462 0.879770 0.500000
O O6 0.983374 0.710636 0.756183
O O7 0.951788 0.049516 0.785668
O O8 0.863030 0.213843 0.500000
O O9 0.921471 0.361173 0.294602
O O10 0.848444 0.200669 0.165407
O O11 0.268683 0.345383 0.000000
O O12 0.310728 0.031602 0.000000
O O13 0.957677 0.325652 0.000000
#
# Coordination Sequence:
#
# PCOD9426884 Si02
#       6
#     8   8   8   4   4   8
#     4   9  21  38  59  83 109 146 185 224 273 326
#     4  10  20  35  53  80 114 151 189 224 271 320
#     4  10  20  39  59  80 113 145 182 228 270 324
#     4  10  22  40  55  88 103 145 178 225 279 334
#     4  10  22  38  61  78 117 135 180 229 279 326
#     4  11  21  33  52  83 115 149 189 224 270 322
#
# _framework density 24.103569
#
# number of rings (size 3 to 8) (size 9 to 14) (size 15 to 20)
#    0.000    2.000    1.000    3.600    2.800    3.200 
#    0.000    4.000    0.000    0.000    0.000    0.000 
#    0.000    0.000    0.000    0.000    0.000    0.000 
#
# Total GULP energy -223725.624909 kJ/mol
# GULP energy per Si atom -5593.140623 kJ/mol
# Density = 2.404871 g / cm^3
# Si number density = 24.103569 Si / 1000 Ang^3
#
#
#
# Elastic Constant Matrix: (Units=GPa)
#
#
# Indices 1 2 3 4 5 6 
#
# 1 123.1046 -0.3175 91.7492 0.0000 0.0000 0.0000
# 2 -0.3175 44.0164 16.8861 0.0000 0.0000 0.0000
# 3 91.7492 16.8861 213.8593 0.0000 0.0000 0.0000
# 4 0.0000 0.0000 0.0000 -1.0310 0.0000 0.0000
# 5 0.0000 0.0000 0.0000 0.0000 -6.3109 0.0000
# 6 0.0000 0.0000 0.0000 0.0000 0.0000 31.1730
#
#
#
# Elastic Compliance Matrix: (Units=1/GPa)
#
#
# Indices 1 2 3 4 5 6 
#
# 1 0.012135 0.002150 -0.005376 0.000000 0.000000 0.000000
# 2 0.002150 0.023809 -0.002802 0.000000 0.000000 0.000000
# 3 -0.005376 -0.002802 0.007204 0.000000 0.000000 0.000000
# 4 0.000000 0.000000 0.000000 -0.969927 0.000000 0.000000
# 5 0.000000 0.000000 0.000000 0.000000 -0.158455 0.000000
# 6 0.000000 0.000000 0.000000 0.000000 0.000000 0.032079
#
#
# Mechanical properties :
#
#
# Convention : Reuss Voigt Hill
#
# Bulk Modulus (GPa) = 32.16297 66.40177 49.28237
# Shear Modulus (GPa) = -4.85091 22.94371 9.04640
#
# Velocity S-wave (km/s) = -1.42018 3.08860 1.93940
# Velocity P-wave (km/s) = 3.26855 6.35040 5.05030
#
# Compressibility (1/GPa) = 0.03109166
#
# Stress axis : x y z
#
# Youngs Moduli (GPa) = 82.40295 42.00024 138.81806
#
# Poissons Ratio (x) = -0.09030 0.74630
# Poissons Ratio (y) = -0.17717 0.38902
# Poissons Ratio (z) = 0.44301 0.11770
#
# Static dielectric constant tensor:
#      x y z
#    x 1.875380 0.000000 0.000000 
#    y 0.000000 2.009060 0.000000 
#    z 0.000000 0.000000 1.907110 
# 
# From -- ./inp_files/9327.got.cif
#   From: 2010.05.17/outbox.cif.g08.bks.cpg/sg55_5_cif.got.tgz:9327.got - 2010.06.03 13:27:54.
