data_PCOD9426819
_publ_section_title
;
Structure prediction by ZEFSAII (Michael W. Deem and Ramdas Pophale) SiO2 
 PCOD9426819
Probable space group: P B A M
;
_chemical_formula_sum "Si O2"
_cell_formula_units_Z 58
_cell_length_a 10.394636
_cell_length_b 35.203351
_cell_length_c 7.893241
_cell_angle_alpha 90.000000
_cell_angle_beta 90.000000
_cell_angle_gamma 90.000000
_cell_volume 2888.342261
_symmetry_space_group_name_H-M "P B A M"
_symmetry_group_IT_number 55
_symmetry_cell_setting 'orthorhombic'
loop_
_space_group_symop_operation_xyz
x,y,z
-x,-y,z
1/2+x,1/2-y,-z
1/2-x,1/2+y,-z
-x,-y,-z
x,y,-z
1/2-x,1/2+y,z
1/2+x,1/2-y,z
loop_
_atom_site_type_symbol
_atom_site_label
_atom_site_fract_x
_atom_site_fract_y
_atom_site_fract_z
Si Si1 0.415048 0.556162 0.194442
Si Si2 0.657073 0.363574 0.805031
Si Si3 0.554549 0.864330 0.297572
Si Si4 0.458979 0.946952 0.699866
Si Si5 0.691086 0.280772 0.801164
Si Si6 0.000000 0.500000 0.000000
Si Si7 0.326392 0.477431 0.306536
Si Si8 0.516742 0.780051 0.699011
O O1 0.403170 0.598193 0.271386
O O2 0.335341 0.522718 0.283111
O O3 0.561839 0.541779 0.198083
O O4 0.370589 0.557814 0.000000
O O5 0.810058 0.369868 0.794664
O O6 0.640814 0.321379 0.729384
O O7 0.611179 0.361802 0.000000
O O8 0.581391 0.860992 0.500000
O O9 0.470732 0.901856 0.274878
O O10 0.498212 0.823746 0.242346
O O11 0.493512 0.954819 0.500000
O O12 0.313034 0.960889 0.729140
O O13 0.534075 0.968858 0.847303
O O14 0.582579 0.249050 0.781225
O O15 0.831540 0.271219 0.725993
O O16 0.715798 0.286930 0.000000
O O17 0.359509 0.468697 0.500000
O O18 0.489818 0.778504 0.500000
#
# Coordination Sequence:
#
# PCOD9426819 Si02
#       8
#     8   8   8   8   8   2   8   8
#     4  10  20  34  56  79 106 144 191 237 280 344
#     4   9  20  35  56  84 114 143 188 236 285 349
#     4   9  20  38  58  82 116 150 187 241 293 345
#     4  10  24  41  57  87 120 151 198 248 292 354
#     4  10  20  38  60  88 121 154 192 246 302 362
#     4  12  26  36  64  84 116 156 194 236 298 346
#     4  10  21  37  54  75 111 149 188 235 290 342
#     4  10  20  38  63  88 118 158 200 244 304 369
#
# _framework density 20.080722999999999
#
# number of rings (size 3 to 8) (size 9 to 14) (size 15 to 20)
#    0.000    2.207    0.000    2.690    4.828    2.207 
#    2.483    0.000    0.000    0.000    0.000    0.000 
#    0.000    0.000    0.000    0.000    0.000    0.000 
#
# Total GULP energy -322928.344634 kJ/mol
# GULP energy per Si atom -5567.730080 kJ/mol
# Density = 2.003502 g / cm^3
# Si number density = 20.080723 Si / 1000 Ang^3
#
#
#
# Elastic Constant Matrix: (Units=GPa)
#
#
# Indices 1 2 3 4 5 6 
#
# 1 48.2097 56.3196 21.3438 0.0000 0.0000 0.0000
# 2 56.3196 155.8741 19.1955 0.0000 0.0000 0.0000
# 3 21.3438 19.1955 40.3620 0.0000 0.0000 0.0000
# 4 0.0000 0.0000 0.0000 22.6249 0.0000 0.0000
# 5 0.0000 0.0000 0.0000 0.0000 18.1902 0.0000
# 6 0.0000 0.0000 0.0000 0.0000 0.0000 34.3868
#
#
#
# Elastic Compliance Matrix: (Units=1/GPa)
#
#
# Indices 1 2 3 4 5 6 
#
# 1 0.044648 -0.014047 -0.016930 0.000000 0.000000 0.000000
# 2 -0.014047 0.011234 0.002086 0.000000 0.000000 0.000000
# 3 -0.016930 0.002086 0.032737 0.000000 0.000000 0.000000
# 4 0.000000 0.000000 0.000000 0.044199 0.000000 0.000000
# 5 0.000000 0.000000 0.000000 0.000000 0.054975 0.000000
# 6 0.000000 0.000000 0.000000 0.000000 0.000000 0.029081
#
#
# Mechanical properties :
#
#
# Convention : Reuss Voigt Hill
#
# Bulk Modulus (GPa) = 32.42962 48.68485 40.55723
# Shear Modulus (GPa) = 17.54786 24.87952 21.21369
#
# Velocity S-wave (km/s) = 2.95933 3.52373 3.25379
# Velocity P-wave (km/s) = 5.27840 6.39161 5.86150
#
# Compressibility (1/GPa) = 0.03083601
#
# Stress axis : x y z
#
# Youngs Moduli (GPa) = 22.39730 89.01492 30.54689
#
# Poissons Ratio (x) = 1.25041 0.51715
# Poissons Ratio (y) = 0.31462 -0.06371
# Poissons Ratio (z) = 0.37918 -0.18564
#
# Static dielectric constant tensor:
#      x y z
#    x 1.719980 0.000000 0.000000 
#    y 0.000000 1.761160 0.000000 
#    z 0.000000 0.000000 1.735710 
# 
# From -- ./inp_files/4448.got.cif
#   From: 2010.05.17/outbox.cif.g08.bks.cpg/sg55_3_cif.got.tgz:4448.got - 2010.06.03 13:27:54.
