data_PCOD9426459
_publ_section_title
;
Structure prediction by ZEFSAII (Michael W. Deem and Ramdas Pophale) SiO2 
 PCOD9426459
Probable space group: P B A M
;
_chemical_formula_sum "Si O2"
_cell_formula_units_Z 40
_cell_length_a 18.391047
_cell_length_b 12.848257
_cell_length_c 7.801282
_cell_angle_alpha 90.000000
_cell_angle_beta 90.000000
_cell_angle_gamma 90.000000
_cell_volume 1843.387535
_symmetry_space_group_name_H-M "P B A M"
_symmetry_group_IT_number 55
_symmetry_cell_setting 'orthorhombic'
loop_
_space_group_symop_operation_xyz
x,y,z
-x,-y,z
1/2+x,1/2-y,-z
1/2-x,1/2+y,-z
-x,-y,-z
x,y,-z
1/2-x,1/2+y,z
1/2+x,1/2-y,z
loop_
_atom_site_type_symbol
_atom_site_label
_atom_site_fract_x
_atom_site_fract_y
_atom_site_fract_z
Si Si1 0.874899 0.188926 0.696659
Si Si2 0.702719 0.890843 0.710114
Si Si3 0.031333 0.231254 0.803641
Si Si4 0.422880 0.952164 0.293240
Si Si5 0.864931 0.955139 0.708178
O O1 0.850243 0.175314 0.500000
O O2 0.823679 0.277913 0.772788
O O3 0.956899 0.232077 0.697453
O O4 0.875956 0.073155 0.771536
O O5 0.700317 0.889545 0.500000
O O6 0.784493 0.918155 0.758598
O O7 0.644464 0.977729 0.766181
O O8 0.079258 0.332036 0.759970
O O9 0.075524 0.126018 0.772159
O O10 0.008727 0.237444 0.000000
O O11 0.423032 0.955414 0.500000
O O12 0.500000 0.000000 0.233659
O O13 0.870237 0.954038 0.500000
#
# Coordination Sequence:
#
# PCOD9426459 Si02
#       5
#     8   8   8   8   8
#     4  10  20  39  63  89 118 152 199 249 295 347
#     4   9  19  36  62  94 118 145 191 251 307 349
#     4  12  25  39  58  86 123 163 200 240 291 355
#     4  10  19  37  65  90 115 150 196 250 297 344
#     4  10  22  38  63  91 118 153 198 251 299 350
#
# _framework density 21.699182
#
# number of rings (size 3 to 8) (size 9 to 14) (size 15 to 20)
#    0.000    1.800    2.000    2.400    2.800    3.600 
#    0.000    2.000    0.000    0.000    0.000    0.000 
#    0.000    0.000    0.000    0.000    0.000    0.000 
#
# Total GULP energy -223566.118354 kJ/mol
# GULP energy per Si atom -5589.152959 kJ/mol
# Density = 2.164979 g / cm^3
# Si number density = 21.699182 Si / 1000 Ang^3
#
#
#
# Elastic Constant Matrix: (Units=GPa)
#
#
# Indices 1 2 3 4 5 6 
#
# 1 34.0195 -9.6127 -7.0501 0.0000 0.0000 0.0000
# 2 -9.6127 121.4854 -2.4573 0.0000 0.0000 0.0000
# 3 -7.0501 -2.4573 37.0533 0.0000 0.0000 0.0000
# 4 0.0000 0.0000 0.0000 -29.1153 0.0000 0.0000
# 5 0.0000 0.0000 0.0000 0.0000 -26.4451 0.0000
# 6 0.0000 0.0000 0.0000 0.0000 0.0000 27.0409
#
#
#
# Elastic Compliance Matrix: (Units=1/GPa)
#
#
# Indices 1 2 3 4 5 6 
#
# 1 0.031407 0.002609 0.006149 0.000000 0.000000 0.000000
# 2 0.002609 0.008459 0.001058 0.000000 0.000000 0.000000
# 3 0.006149 0.001058 0.028228 0.000000 0.000000 0.000000
# 4 0.000000 0.000000 0.000000 -0.034346 0.000000 0.000000
# 5 0.000000 0.000000 0.000000 0.000000 -0.037814 0.000000
# 6 0.000000 0.000000 0.000000 0.000000 0.000000 0.036981
#
#
# Mechanical properties :
#
#
# Convention : Reuss Voigt Hill
#
# Bulk Modulus (GPa) = 11.39919 17.14642 14.27281
# Shear Modulus (GPa) = 117.57742 8.40797 62.99270
#
# Velocity S-wave (km/s) = 7.36904 1.97058 5.39379
# Velocity P-wave (km/s) = 8.81297 3.61893 6.73666
#
# Compressibility (1/GPa) = 0.08772550
#
# Stress axis : x y z
#
# Youngs Moduli (GPa) = 31.84054 118.21293 35.42553
#
# Poissons Ratio (x) = -0.30847 -0.21782
# Poissons Ratio (y) = -0.08309 -0.03746
# Poissons Ratio (z) = -0.19578 -0.12501
#
# Static dielectric constant tensor:
#      x y z
#    x 1.735110 0.000000 0.000000 
#    y 0.000000 1.782780 0.000000 
#    z 0.000000 0.000000 1.804830 
# 
# From -- ./inp_files/3590.got.cif
#   From: 2010.05.17/outbox.cif.g08.bks.cpg/sg55_2_cif.got.tgz:3590.got - 2010.06.03 13:27:54.
