data_PCOD9426830
_publ_section_title
;
Structure prediction by ZEFSAII (Michael W. Deem and Ramdas Pophale) SiO2 
 PCOD9426830
Probable space group: P B A M
;
_chemical_formula_sum "Si O2"
_cell_formula_units_Z 44
_cell_length_a 15.154814
_cell_length_b 7.742400
_cell_length_c 16.950128
_cell_angle_alpha 90.000000
_cell_angle_beta 90.000000
_cell_angle_gamma 90.000000
_cell_volume 1988.837030
_symmetry_space_group_name_H-M "P B A M"
_symmetry_group_IT_number 55
_symmetry_cell_setting 'orthorhombic'
loop_
_space_group_symop_operation_xyz
x,y,z
-x,-y,z
1/2+x,1/2-y,-z
1/2-x,1/2+y,-z
-x,-y,-z
x,y,-z
1/2-x,1/2+y,z
1/2+x,1/2-y,z
loop_
_atom_site_type_symbol
_atom_site_label
_atom_site_fract_x
_atom_site_fract_y
_atom_site_fract_z
Si Si1 0.117241 0.336750 0.084158
Si Si2 0.418593 0.363350 0.586735
Si Si3 0.819587 0.207906 0.254142
Si Si4 0.877614 0.601854 0.749940
Si Si5 0.500000 0.000000 0.380369
Si Si6 0.815543 0.053485 0.085735
O O1 0.072510 0.359935 0.168300
O O2 0.208708 0.445188 0.088342
O O3 0.149483 0.139702 0.082832
O O4 0.073288 0.371289 0.000000
O O5 0.500000 0.500000 0.594199
O O6 0.377133 0.403582 0.500000
O O7 0.359467 0.376909 0.666365
O O8 0.446132 0.158542 0.581446
O O9 0.713171 0.206127 0.255462
O O10 0.850290 0.403191 0.251718
O O11 0.846335 0.129944 0.168976
O O12 0.937846 0.617981 0.674760
O O13 0.839446 0.136615 0.000000
#
# Coordination Sequence:
#
# PCOD9426830 Si02
#       6
#     8   8   8   8   4   8
#     4   9  16  26  45  74 110 149 191 237 283 336
#     4  10  23  42  64  88 113 150 191 236 298 353
#     4  10  20  34  57  85 113 149 196 239 285 344
#     4  10  20  34  56  86 112 154 194 236 293 339
#     4  10  23  40  63  86 122 156 189 234 298 352
#     4   9  16  26  46  78 111 147 188 236 286 333
#
# _framework density 22.123481000000002
#
# number of rings (size 3 to 8) (size 9 to 14) (size 15 to 20)
#    0.000    2.364    0.000    4.636    5.091    2.182 
#    0.000    5.000    0.000    1.636    0.000    0.000 
#    0.000    0.000    0.000    0.000    0.000    0.000 
#
# Total GULP energy -245124.071500 kJ/mol
# GULP energy per Si atom -5571.001625 kJ/mol
# Density = 2.207313 g / cm^3
# Si number density = 22.123481 Si / 1000 Ang^3
#
#
#
# Elastic Constant Matrix: (Units=GPa)
#
#
# Indices 1 2 3 4 5 6 
#
# 1 23.4360 -0.4770 29.4582 0.0000 0.0000 0.0000
# 2 -0.4770 34.8652 6.4546 0.0000 0.0000 0.0000
# 3 29.4582 6.4546 201.5298 0.0000 0.0000 0.0000
# 4 0.0000 0.0000 0.0000 -462.6273 0.0000 0.0000
# 5 0.0000 0.0000 0.0000 0.0000 -70.9984 0.0000
# 6 0.0000 0.0000 0.0000 0.0000 0.0000 19.6365
#
#
#
# Elastic Compliance Matrix: (Units=1/GPa)
#
#
# Indices 1 2 3 4 5 6 
#
# 1 0.052433 0.002149 -0.007733 0.000000 0.000000 0.000000
# 2 0.002149 0.028941 -0.001241 0.000000 0.000000 0.000000
# 3 -0.007733 -0.001241 0.006132 0.000000 0.000000 0.000000
# 4 0.000000 0.000000 0.000000 -0.002162 0.000000 0.000000
# 5 0.000000 0.000000 0.000000 0.000000 -0.014085 0.000000
# 6 0.000000 0.000000 0.000000 0.000000 0.000000 0.050925
#
#
# Mechanical properties :
#
#
# Convention : Reuss Voigt Hill
#
# Bulk Modulus (GPa) = 13.53983 36.74473 25.14228
# Shear Modulus (GPa) = 31.16144 -87.83814 -28.33835
#
# Velocity S-wave (km/s) = 3.75710 -6.30791 -3.58287
# Velocity P-wave (km/s) = 4.99545 6.03391 2.39307
#
# Compressibility (1/GPa) = 0.07385615
#
# Stress axis : x y z
#
# Youngs Moduli (GPa) = 19.07184 34.55303 163.07443
#
# Poissons Ratio (x) = -0.07426 1.26108
# Poissons Ratio (y) = -0.04099 0.20238
# Poissons Ratio (z) = 0.14749 0.04288
#
# Static dielectric constant tensor:
#      x y z
#    x 1.773800 0.000000 0.000000 
#    y 0.000000 1.805800 0.000000 
#    z 0.000000 0.000000 1.915210 
# 
# From -- ./inp_files/19640.got.cif
#   From: 2010.05.17/outbox.cif.g08.bks.cpg/sg55_10_cif.got.tgz:19640.got - 2010.06.03 13:27:54.
