data_PCOD9426262
_publ_section_title
;
Structure prediction by ZEFSAII (Michael W. Deem and Ramdas Pophale) SiO2 
 PCOD9426262
Probable space group: P B A M
;
_chemical_formula_sum "Si O2"
_cell_formula_units_Z 48
_cell_length_a 14.843446
_cell_length_b 20.709684
_cell_length_c 8.453422
_cell_angle_alpha 90.000000
_cell_angle_beta 90.000000
_cell_angle_gamma 90.000000
_cell_volume 2598.607927
_symmetry_space_group_name_H-M "P B A M"
_symmetry_group_IT_number 55
_symmetry_cell_setting 'orthorhombic'
loop_
_space_group_symop_operation_xyz
x,y,z
-x,-y,z
1/2+x,1/2-y,-z
1/2-x,1/2+y,-z
-x,-y,-z
x,y,-z
1/2-x,1/2+y,z
1/2+x,1/2-y,z
loop_
_atom_site_type_symbol
_atom_site_label
_atom_site_fract_x
_atom_site_fract_y
_atom_site_fract_z
Si Si1 0.520501 0.625443 0.689128
Si Si2 0.978113 0.271276 0.808940
Si Si3 0.291457 0.438840 0.689239
Si Si4 0.834925 0.670707 0.808589
Si Si5 0.335124 0.577004 0.189237
Si Si6 0.276826 0.202223 0.192765
O O1 0.522163 0.628722 0.500000
O O2 0.509126 0.697421 0.756329
O O3 0.615366 0.595437 0.743897
O O4 0.435569 0.583096 0.742170
O O5 0.880367 0.295426 0.753869
O O6 0.063082 0.314020 0.757293
O O7 0.977983 0.271616 0.000000
O O8 0.293864 0.442952 0.500000
O O9 0.209472 0.393704 0.742082
O O10 0.290152 0.510348 0.759275
O O11 0.774216 0.732311 0.759099
O O12 0.832957 0.667740 0.000000
O O13 0.277662 0.639086 0.244748
O O14 0.341076 0.579801 0.000000
O O15 0.276880 0.201618 0.000000
#
# Coordination Sequence:
#
# PCOD9426262 Si02
#       6
#     8   8   8   8   8   8
#     4  11  22  35  54  83 118 148 180 227 284 338
#     4  10  19  35  59  86 114 142 183 234 278 326
#     4  11  24  39  54  81 118 153 186 229 282 338
#     4  10  19  35  60  85 109 145 188 230 274 329
#     4  11  22  38  59  84 112 150 191 232 281 333
#     4   9  18  34  58  86 112 139 185 236 276 325
#
# _framework density 18.471428
#
# number of rings (size 3 to 8) (size 9 to 14) (size 15 to 20)
#    0.000    1.667    3.333    2.000    0.000    4.667 
#    0.000    2.500    0.000    5.000    0.000    0.000 
#    0.000    0.000    0.000    0.000    0.000    0.000 
#
# Total GULP energy -268141.319655 kJ/mol
# GULP energy per Si atom -5586.277493 kJ/mol
# Density = 1.842939 g / cm^3
# Si number density = 18.471428 Si / 1000 Ang^3
#
#
#
# Elastic Constant Matrix: (Units=GPa)
#
#
# Indices 1 2 3 4 5 6 
#
# 1 80.0761 -5.8443 9.2300 0.0000 0.0000 0.0000
# 2 -5.8443 43.8330 -5.0578 0.0000 0.0000 0.0000
# 3 9.2300 -5.0578 4.6369 0.0000 0.0000 0.0000
# 4 0.0000 0.0000 0.0000 -3.1102 0.0000 0.0000
# 5 0.0000 0.0000 0.0000 0.0000 16.0288 0.0000
# 6 0.0000 0.0000 0.0000 0.0000 0.0000 26.2104
#
#
#
# Elastic Compliance Matrix: (Units=1/GPa)
#
#
# Indices 1 2 3 4 5 6 
#
# 1 0.016330 -0.001800 -0.034469 0.000000 0.000000 0.000000
# 2 -0.001800 0.026297 0.032268 0.000000 0.000000 0.000000
# 3 -0.034469 0.032268 0.319475 0.000000 0.000000 0.000000
# 4 0.000000 0.000000 0.000000 -0.321523 0.000000 0.000000
# 5 0.000000 0.000000 0.000000 0.000000 0.062388 0.000000
# 6 0.000000 0.000000 0.000000 0.000000 0.000000 0.038153
#
#
# Mechanical properties :
#
#
# Convention : Reuss Voigt Hill
#
# Bulk Modulus (GPa) = 2.82407 13.91131 8.36769
# Shear Modulus (GPa) = 18.71564 16.50701 17.61132
#
# Velocity S-wave (km/s) = 3.18657 2.99264 3.09113
# Velocity P-wave (km/s) = 3.88216 4.41461 4.15692
#
# Compressibility (1/GPa) = 0.35409899
#
# Stress axis : x y z
#
# Youngs Moduli (GPa) = 61.23744 38.02689 3.13013
#
# Poissons Ratio (x) = 0.06845 0.10789
# Poissons Ratio (y) = 0.11023 -0.10100
# Poissons Ratio (z) = 2.11082 -1.22705
#
# Static dielectric constant tensor:
#      x y z
#    x 1.641940 0.000000 0.000000 
#    y 0.000000 1.605610 0.000000 
#    z 0.000000 0.000000 1.630150 
# 
# From -- ./inp_files/5551.got.cif
#   From: 2010.05.17/outbox.cif.g08.bks.cpg/sg55_3_cif.got.tgz:5551.got - 2010.06.03 13:27:54.
