data_PCOD9426191
_publ_section_title
;
Structure prediction by ZEFSAII (Michael W. Deem and Ramdas Pophale) SiO2 
 PCOD9426191
Probable space group: P B A M
;
_chemical_formula_sum "Si O2"
_cell_formula_units_Z 64
_cell_length_a 28.807233
_cell_length_b 13.189524
_cell_length_c 7.904591
_cell_angle_alpha 90.000000
_cell_angle_beta 90.000000
_cell_angle_gamma 90.000000
_cell_volume 3003.378527
_symmetry_space_group_name_H-M "P B A M"
_symmetry_group_IT_number 55
_symmetry_cell_setting 'orthorhombic'
loop_
_space_group_symop_operation_xyz
x,y,z
-x,-y,z
1/2+x,1/2-y,-z
1/2-x,1/2+y,-z
-x,-y,-z
x,y,-z
1/2-x,1/2+y,z
1/2+x,1/2-y,z
loop_
_atom_site_type_symbol
_atom_site_label
_atom_site_fract_x
_atom_site_fract_y
_atom_site_fract_z
Si Si1 0.380858 0.963424 0.199496
Si Si2 0.562341 0.412098 0.305709
Si Si3 0.193993 0.941488 0.300210
Si Si4 0.663217 0.353049 0.803829
Si Si5 0.708680 0.143507 0.795086
Si Si6 0.408542 0.374703 0.707278
Si Si7 0.941133 0.344950 0.297713
Si Si8 0.541099 0.193804 0.294376
O O1 0.329429 0.938420 0.266390
O O2 0.413992 0.867024 0.234922
O O3 0.406375 0.063825 0.262356
O O4 0.376606 0.974211 0.000000
O O5 0.546375 0.419735 0.500000
O O6 0.616903 0.381341 0.298273
O O7 0.562201 0.526337 0.233567
O O8 0.538843 0.310811 0.233455
O O9 0.190243 0.959508 0.500000
O O10 0.239713 0.877482 0.265709
O O11 0.145338 0.891106 0.244938
O O12 0.196463 0.050115 0.210272
O O13 0.688634 0.252553 0.742798
O O14 0.649308 0.338548 0.000000
O O15 0.709528 0.142324 0.000000
O O16 0.410841 0.376614 0.500000
O O17 0.425065 0.265093 0.766550
O O18 0.943619 0.336031 0.500000
O O19 0.994022 0.362427 0.240021
O O20 0.543469 0.196024 0.500000
#
# Coordination Sequence:
#
# PCOD9426191 Si02
#       8
#     8   8   8   8   8   8   8   8
#     4  11  23  39  56  78 111 148 191 236 281 336
#     4   9  17  32  56  83 109 141 186 233 276 327
#     4  10  21  36  57  85 112 142 183 230 283 339
#     4  10  19  35  56  78 109 146 182 226 279 332
#     4  10  22  38  56  80 107 143 188 232 281 335
#     4   8  17  35  55  79 113 146 179 224 278 335
#     4  10  21  37  56  81 116 153 186 227 284 341
#     4  10  20  34  57  86 112 144 189 236 282 335
#
# _framework density 21.309334
#
# number of rings (size 3 to 8) (size 9 to 14) (size 15 to 20)
#    0.000    2.250    1.250    2.250    0.000    5.500 
#    0.000    8.125    0.000    0.000    0.000    5.250 
#    0.000    0.000    0.000    0.000    0.000    0.000 
#
# Total GULP energy -357239.177223 kJ/mol
# GULP energy per Si atom -5581.862144 kJ/mol
# Density = 2.126083 g / cm^3
# Si number density = 21.309334 Si / 1000 Ang^3
#
#
#
# Elastic Constant Matrix: (Units=GPa)
#
#
# Indices 1 2 3 4 5 6 
#
# 1 50.9734 7.6822 -1.8988 0.0000 0.0000 0.0000
# 2 7.6822 84.5924 -8.0548 0.0000 0.0000 0.0000
# 3 -1.8988 -8.0548 17.2339 0.0000 0.0000 0.0000
# 4 0.0000 0.0000 0.0000 -29.2639 0.0000 0.0000
# 5 0.0000 0.0000 0.0000 0.0000 90.1304 0.0000
# 6 0.0000 0.0000 0.0000 0.0000 0.0000 28.9415
#
#
#
# Elastic Compliance Matrix: (Units=1/GPa)
#
#
# Indices 1 2 3 4 5 6 
#
# 1 0.019923 -0.001675 0.001412 0.000000 0.000000 0.000000
# 2 -0.001675 0.012513 0.005664 0.000000 0.000000 0.000000
# 3 0.001412 0.005664 0.060828 0.000000 0.000000 0.000000
# 4 0.000000 0.000000 0.000000 -0.034172 0.000000 0.000000
# 5 0.000000 0.000000 0.000000 0.000000 0.011095 0.000000
# 6 0.000000 0.000000 0.000000 0.000000 0.000000 0.034553
#
#
# Mechanical properties :
#
#
# Convention : Reuss Voigt Hill
#
# Bulk Modulus (GPa) = 9.60926 16.47299 13.04113
# Shear Modulus (GPa) = 38.87244 28.29967 33.58605
#
# Velocity S-wave (km/s) = 4.27570 3.64818 3.97434
# Velocity P-wave (km/s) = 5.37537 5.04904 5.21476
#
# Compressibility (1/GPa) = 0.10406623
#
# Stress axis : x y z
#
# Youngs Moduli (GPa) = 50.19300 79.91827 16.43982
#
# Poissons Ratio (x) = 0.13385 -0.02322
# Poissons Ratio (y) = 0.08406 -0.09311
# Poissons Ratio (z) = -0.07089 -0.45263
#
# Static dielectric constant tensor:
#      x y z
#    x 1.764510 0.000000 0.000000 
#    y 0.000000 1.787770 0.000000 
#    z 0.000000 0.000000 1.778410 
# 
# From -- ./inp_files/10791.got.cif
#   From: 2010.05.17/outbox.cif.g08.bks.cpg/sg55_6_cif.got.tgz:10791.got - 2010.06.03 13:27:54.
