data_PCOD9426154
_publ_section_title
;
Structure prediction by ZEFSAII (Michael W. Deem and Ramdas Pophale) SiO2 
 PCOD9426154
Probable space group: P B A M
;
_chemical_formula_sum "Si O2"
_cell_formula_units_Z 64
_cell_length_a 24.249345
_cell_length_b 15.782637
_cell_length_c 8.819537
_cell_angle_alpha 90.000000
_cell_angle_beta 90.000000
_cell_angle_gamma 90.000000
_cell_volume 3375.400938
_symmetry_space_group_name_H-M "P B A M"
_symmetry_group_IT_number 55
_symmetry_cell_setting 'orthorhombic'
loop_
_space_group_symop_operation_xyz
x,y,z
-x,-y,z
1/2+x,1/2-y,-z
1/2-x,1/2+y,-z
-x,-y,-z
x,y,-z
1/2-x,1/2+y,z
1/2+x,1/2-y,z
loop_
_atom_site_type_symbol
_atom_site_label
_atom_site_fract_x
_atom_site_fract_y
_atom_site_fract_z
Si Si1 0.695327 0.746715 0.182630
Si Si2 0.384420 0.592271 0.318216
Si Si3 0.624023 0.909385 0.817430
Si Si4 0.000562 0.353829 0.180682
Si Si5 0.501613 0.668379 0.318803
Si Si6 0.176210 0.253470 0.818419
Si Si7 0.888104 0.586731 0.319708
Si Si8 0.621866 0.598676 0.317248
O O1 0.664082 0.832898 0.230236
O O2 0.759424 0.746466 0.224935
O O3 0.663789 0.666225 0.249566
O O4 0.691671 0.743023 0.000000
O O5 0.376093 0.599028 0.500000
O O6 0.449421 0.608260 0.290617
O O7 0.351398 0.666745 0.237477
O O8 0.368172 0.497989 0.268488
O O9 0.561019 0.883847 0.779331
O O10 0.636599 0.998887 0.741216
O O11 0.627382 0.918205 0.000000
O O12 0.006108 0.256386 0.231605
O O13 0.049095 0.405602 0.260438
O O14 0.007266 0.361500 0.000000
O O15 0.502704 0.686214 0.500000
O O16 0.559637 0.626513 0.276190
O O17 0.144639 0.332792 0.745534
O O18 0.171851 0.259633 0.000000
O O19 0.887391 0.589271 0.500000
O O20 0.625199 0.600727 0.500000
#
# Coordination Sequence:
#
# PCOD9426154 Si02
#       8
#     8   8   8   8   8   8   8   8
#     4  10  23  43  63  85 116 157 203 250 298 349
#     4  10  21  38  60  89 124 159 194 238 294 353
#     4  10  22  41  63  89 122 157 196 245 300 354
#     4  11  21  36  62  91 123 157 194 242 297 355
#     4  10  19  34  59  89 124 160 192 233 293 356
#     4  11  24  42  63  85 115 157 204 251 299 349
#     4  12  25  40  61  90 123 157 198 245 297 360
#     4  10  21  37  61  92 125 158 194 238 295 358
#
# _framework density 18.960709000000001
#
# number of rings (size 3 to 8) (size 9 to 14) (size 15 to 20)
#    0.000    1.500    2.500    2.625    0.000    7.000 
#    0.000    3.750    0.000    2.250    0.000    0.000 
#    0.000    0.000    0.000    0.000    0.000    0.000 
#
# Total GULP energy -357766.401255 kJ/mol
# GULP energy per Si atom -5590.100020 kJ/mol
# Density = 1.891755 g / cm^3
# Si number density = 18.960709 Si / 1000 Ang^3
#
#
#
# Elastic Constant Matrix: (Units=GPa)
#
#
# Indices 1 2 3 4 5 6 
#
# 1 111.1595 34.6538 34.8384 0.0000 0.0000 0.0000
# 2 34.6538 113.5156 27.2030 0.0000 0.0000 0.0000
# 3 34.8384 27.2030 31.1149 0.0000 0.0000 0.0000
# 4 0.0000 0.0000 0.0000 36.0868 0.0000 0.0000
# 5 0.0000 0.0000 0.0000 0.0000 15.8856 0.0000
# 6 0.0000 0.0000 0.0000 0.0000 0.0000 0.2699
#
#
#
# Elastic Compliance Matrix: (Units=1/GPa)
#
#
# Indices 1 2 3 4 5 6 
#
# 1 0.013897 -0.000650 -0.014992 0.000000 0.000000 0.000000
# 2 -0.000650 0.011175 -0.009042 0.000000 0.000000 0.000000
# 3 -0.014992 -0.009042 0.056831 0.000000 0.000000 0.000000
# 4 0.000000 0.000000 0.000000 0.027711 0.000000 0.000000
# 5 0.000000 0.000000 0.000000 0.000000 0.062950 0.000000
# 6 0.000000 0.000000 0.000000 0.000000 0.000000 3.704393
#
#
# Mechanical properties :
#
#
# Convention : Reuss Voigt Hill
#
# Bulk Modulus (GPa) = 30.73694 49.90893 40.32293
# Shear Modulus (GPa) = 1.26995 21.05479 11.16237
#
# Velocity S-wave (km/s) = 0.81929 3.33595 2.42897
# Velocity P-wave (km/s) = 4.14017 6.42008 5.40178
#
# Compressibility (1/GPa) = 0.03253414
#
# Stress axis : x y z
#
# Youngs Moduli (GPa) = 71.95573 89.48874 17.59607
#
# Poissons Ratio (x) = 0.05815 0.26381
# Poissons Ratio (y) = 0.04675 0.15911
# Poissons Ratio (z) = 1.07879 0.80917
#
# Static dielectric constant tensor:
#      x y z
#    x 1.643590 0.000000 0.000000 
#    y 0.000000 1.637010 0.000000 
#    z 0.000000 0.000000 1.637750 
# 
# From -- ./inp_files/9662.got.cif
#   From: 2010.05.17/outbox.cif.g08.bks.cpg/sg55_5_cif.got.tgz:9662.got - 2010.06.03 13:27:54.
