data_PCOD9426365
_publ_section_title
;
Structure prediction by ZEFSAII (Michael W. Deem and Ramdas Pophale) SiO2 
 PCOD9426365
Probable space group: P B A M
;
_chemical_formula_sum "Si O2"
_cell_formula_units_Z 64
_cell_length_a 14.749570
_cell_length_b 25.270274
_cell_length_c 8.435733
_cell_angle_alpha 90.000000
_cell_angle_beta 90.000000
_cell_angle_gamma 90.000000
_cell_volume 3144.214279
_symmetry_space_group_name_H-M "P B A M"
_symmetry_group_IT_number 55
_symmetry_cell_setting 'orthorhombic'
loop_
_space_group_symop_operation_xyz
x,y,z
-x,-y,z
1/2+x,1/2-y,-z
1/2-x,1/2+y,-z
-x,-y,-z
x,y,-z
1/2-x,1/2+y,z
1/2+x,1/2-y,z
loop_
_atom_site_type_symbol
_atom_site_label
_atom_site_fract_x
_atom_site_fract_y
_atom_site_fract_z
Si Si1 0.743995 0.155602 0.812267
Si Si2 0.790556 0.443302 0.187102
Si Si3 0.877473 0.875645 0.191787
Si Si4 0.053992 0.722418 0.187979
Si Si5 0.733678 0.272827 0.808277
Si Si6 0.444162 0.334890 0.684949
Si Si7 0.470093 0.110013 0.688068
Si Si8 0.646783 0.053257 0.313309
O O1 0.709397 0.213450 0.756248
O O2 0.700975 0.107144 0.719173
O O3 0.852311 0.156694 0.784005
O O4 0.725511 0.150000 0.000000
O O5 0.691293 0.422659 0.235629
O O6 0.808695 0.504344 0.223665
O O7 0.870298 0.410120 0.269381
O O8 0.798544 0.432728 0.000000
O O9 0.826830 0.821607 0.244765
O O10 0.976454 0.874880 0.266848
O O11 0.886728 0.874531 0.000000
O O12 0.021757 0.775417 0.274077
O O13 0.010653 0.666652 0.233136
O O14 0.160867 0.717528 0.230959
O O15 0.045506 0.731012 0.000000
O O16 0.728886 0.272141 0.000000
O O17 0.422688 0.338551 0.500000
O O18 0.478434 0.116292 0.500000
O O19 0.544151 0.066553 0.739051
O O20 0.645771 0.040507 0.500000
#
# Coordination Sequence:
#
# PCOD9426365 Si02
#       8
#     8   8   8   8   8   8   8   8
#     4  10  21  40  64  89 117 158 207 253 301 357
#     4  11  23  41  65  90 119 159 211 256 295 356
#     4  10  20  38  61  89 120 156 203 251 297 353
#     4  10  19  36  59  86 120 160 202 245 291 351
#     4   8  16  33  57  85 115 149 192 244 295 343
#     4  11  23  38  58  90 127 161 196 244 308 369
#     4  11  23  38  58  89 127 163 197 244 307 365
#     4  11  25  42  60  86 124 163 201 253 311 363
#
# _framework density 20.354846999999999
#
# number of rings (size 3 to 8) (size 9 to 14) (size 15 to 20)
#    0.000    1.750    1.250    4.125    1.750    4.500 
#    0.000    1.250    0.000    3.750    0.000    0.000 
#    0.000    0.000    0.000    0.000    0.000    0.000 
#
# Total GULP energy -357673.288316 kJ/mol
# GULP energy per Si atom -5588.645130 kJ/mol
# Density = 2.030852 g / cm^3
# Si number density = 20.354847 Si / 1000 Ang^3
#
#
#
# Elastic Constant Matrix: (Units=GPa)
#
#
# Indices 1 2 3 4 5 6 
#
# 1 16.5461 -3.3754 -5.5800 0.0000 0.0000 0.0000
# 2 -3.3754 51.1221 -7.1944 0.0000 0.0000 0.0000
# 3 -5.5800 -7.1944 25.9355 0.0000 0.0000 0.0000
# 4 0.0000 0.0000 0.0000 23.3859 0.0000 0.0000
# 5 0.0000 0.0000 0.0000 0.0000 26.9189 0.0000
# 6 0.0000 0.0000 0.0000 0.0000 0.0000 30.2030
#
#
#
# Elastic Compliance Matrix: (Units=1/GPa)
#
#
# Indices 1 2 3 4 5 6 
#
# 1 0.067330 0.006748 0.016358 0.000000 0.000000 0.000000
# 2 0.006748 0.021032 0.007286 0.000000 0.000000 0.000000
# 3 0.016358 0.007286 0.044098 0.000000 0.000000 0.000000
# 4 0.000000 0.000000 0.000000 0.042761 0.000000 0.000000
# 5 0.000000 0.000000 0.000000 0.000000 0.037149 0.000000
# 6 0.000000 0.000000 0.000000 0.000000 0.000000 0.033109
#
#
# Mechanical properties :
#
#
# Convention : Reuss Voigt Hill
#
# Bulk Modulus (GPa) = 5.17486 6.81158 5.99322
# Shear Modulus (GPa) = 20.07147 23.41847 21.74497
#
# Velocity S-wave (km/s) = 3.14359 3.39560 3.27202
# Velocity P-wave (km/s) = 3.96536 4.32748 4.15037
#
# Compressibility (1/GPa) = 0.19324184
#
# Stress axis : x y z
#
# Youngs Moduli (GPa) = 14.85220 47.54696 22.67698
#
# Poissons Ratio (x) = -0.32082 -0.37095
# Poissons Ratio (y) = -0.10022 -0.16522
# Poissons Ratio (z) = -0.24295 -0.34642
#
# Static dielectric constant tensor:
#      x y z
#    x 1.744900 0.000000 0.000000 
#    y 0.000000 1.722330 0.000000 
#    z 0.000000 0.000000 1.690870 
# 
# From -- ./inp_files/6660.got.cif
#   From: 2010.05.17/outbox.cif.g08.bks.cpg/sg55_4_cif.got.tgz:6660.got - 2010.06.03 13:27:54.
