data_PCOD9426080
_publ_section_title
;
Structure prediction by ZEFSAII (Michael W. Deem and Ramdas Pophale) SiO2 
 PCOD9426080
Probable space group: P B A M
;
_chemical_formula_sum "Si O2"
_cell_formula_units_Z 52
_cell_length_a 15.516084
_cell_length_b 20.166159
_cell_length_c 7.573849
_cell_angle_alpha 90.000000
_cell_angle_beta 90.000000
_cell_angle_gamma 90.000000
_cell_volume 2369.855966
_symmetry_space_group_name_H-M "P B A M"
_symmetry_group_IT_number 55
_symmetry_cell_setting 'orthorhombic'
loop_
_space_group_symop_operation_xyz
x,y,z
-x,-y,z
1/2+x,1/2-y,-z
1/2-x,1/2+y,-z
-x,-y,-z
x,y,-z
1/2-x,1/2+y,z
1/2+x,1/2-y,z
loop_
_atom_site_type_symbol
_atom_site_label
_atom_site_fract_x
_atom_site_fract_y
_atom_site_fract_z
Si Si1 0.272260 0.567999 0.709781
Si Si2 0.910793 0.372713 0.713725
Si Si3 0.902252 0.821601 0.209344
Si Si4 0.172677 0.444317 0.207181
Si Si5 0.582708 0.721505 0.791998
Si Si6 0.223012 0.296075 0.784216
Si Si7 0.000000 0.500000 0.251495
O O1 0.272809 0.564960 0.500000
O O2 0.188412 0.611872 0.762757
O O3 0.356100 0.608014 0.767059
O O4 0.253896 0.493791 0.776543
O O5 0.921219 0.379986 0.500000
O O6 0.935723 0.299335 0.768306
O O7 0.968928 0.427417 0.809267
O O8 0.838943 0.763318 0.278979
O O9 0.999283 0.816344 0.281623
O O10 0.909151 0.809197 0.000000
O O11 0.189705 0.369299 0.261126
O O12 0.094811 0.477200 0.315681
O O13 0.146827 0.446249 0.000000
O O14 0.678663 0.710478 0.718680
O O15 0.589202 0.705584 0.000000
O O16 0.224577 0.292535 0.000000
#
# Coordination Sequence:
#
# PCOD9426080 Si02
#       7
#     8   8   8   8   8   8   4
#     4  10  21  36  53  77 109 145 182 222 272 329
#     4  10  20  34  52  76 111 148 179 218 274 336
#     4  10  19  34  57  81 105 140 183 226 275 330
#     4  10  20  35  56  80 110 146 184 231 284 336
#     4  10  20  34  56  82 108 140 183 231 279 330
#     4   9  18  34  54  81 112 138 175 231 281 327
#     4  10  20  32  52  84 114 142 188 230 280 340
#
# _framework density 21.942263000000001
#
# number of rings (size 3 to 8) (size 9 to 14) (size 15 to 20)
#    0.000    2.154    1.538    1.846    0.000    5.538 
#    0.000    2.308    0.000    4.615    0.000    0.000 
#    0.000    0.000    0.000    0.000    0.000    0.000 
#
# Total GULP energy -289853.630633 kJ/mol
# GULP energy per Si atom -5574.108281 kJ/mol
# Density = 2.189232 g / cm^3
# Si number density = 21.942263 Si / 1000 Ang^3
#
#
#
# Elastic Constant Matrix: (Units=GPa)
#
#
# Indices 1 2 3 4 5 6 
#
# 1 95.1652 20.5720 17.8006 0.0000 0.0000 0.0000
# 2 20.5720 76.6701 -7.4562 0.0000 0.0000 0.0000
# 3 17.8006 -7.4562 61.8209 0.0000 0.0000 0.0000
# 4 0.0000 0.0000 0.0000********** 0.0000 0.0000
# 5 0.0000 0.0000 0.0000 0.0000 -8.4720 0.0000
# 6 0.0000 0.0000 0.0000 0.0000 0.0000 36.0534
#
#
#
# Elastic Compliance Matrix: (Units=1/GPa)
#
#
# Indices 1 2 3 4 5 6 
#
# 1 0.012015 -0.003603 -0.003894 0.000000 0.000000 0.000000
# 2 -0.003603 0.014278 0.002759 0.000000 0.000000 0.000000
# 3 -0.003894 0.002759 0.017630 0.000000 0.000000 0.000000
# 4 0.000000 0.000000 0.000000 0.000005 0.000000 0.000000
# 5 0.000000 0.000000 0.000000 0.000000 -0.118036 0.000000
# 6 0.000000 0.000000 0.000000 0.000000 0.000000 0.027737
#
#
# Mechanical properties :
#
#
# Convention : Reuss Voigt Hill
#
# Bulk Modulus (GPa) = 29.02909 32.83211 30.93060
# Shear Modulus (GPa) = -196.74535 39795.08655 19799.17060
#
# Velocity S-wave (km/s) = -9.47943 134.81708 95.09413
# Velocity P-wave (km/s) = 10.32252 155.72151 109.86955
#
# Compressibility (1/GPa) = 0.03444820
#
# Stress axis : x y z
#
# Youngs Moduli (GPa) = 83.22769 70.03836 56.72198
#
# Poissons Ratio (x) = 0.25232 0.22088
# Poissons Ratio (y) = 0.29984 -0.15652
# Poissons Ratio (z) = 0.32410 -0.19326
#
# Static dielectric constant tensor:
#      x y z
#    x 1.832600 0.000000 0.000000 
#    y 0.000000 1.769100 0.000000 
#    z 0.000000 0.000000 1.944070 
# 
# From -- ./inp_files/5898.got.cif
#   From: 2010.05.17/outbox.cif.g08.bks.cpg/sg55_3_cif.got.tgz:5898.got - 2010.06.03 13:27:54.
