data_PCOD9426345
_publ_section_title
;
Structure prediction by ZEFSAII (Michael W. Deem and Ramdas Pophale) SiO2 
 PCOD9426345
Probable space group: P B A M
;
_chemical_formula_sum "Si O2"
_cell_formula_units_Z 64
_cell_length_a 15.352545
_cell_length_b 24.408495
_cell_length_c 8.071183
_cell_angle_alpha 90.000000
_cell_angle_beta 90.000000
_cell_angle_gamma 90.000000
_cell_volume 3024.534728
_symmetry_space_group_name_H-M "P B A M"
_symmetry_group_IT_number 55
_symmetry_cell_setting 'orthorhombic'
loop_
_space_group_symop_operation_xyz
x,y,z
-x,-y,z
1/2+x,1/2-y,-z
1/2-x,1/2+y,-z
-x,-y,-z
x,y,-z
1/2-x,1/2+y,z
1/2+x,1/2-y,z
loop_
_atom_site_type_symbol
_atom_site_label
_atom_site_fract_x
_atom_site_fract_y
_atom_site_fract_z
Si Si1 0.512991 0.364982 0.298834
Si Si2 0.763935 0.257164 0.191493
Si Si3 0.318664 0.358426 0.306560
Si Si4 0.566362 0.246765 0.695550
Si Si5 0.420154 0.164508 0.198509
Si Si6 0.738850 0.035250 0.191761
Si Si7 0.094405 0.027347 0.698065
Si Si8 0.580198 0.961378 0.202679
O O1 0.519666 0.364453 0.500000
O O2 0.414005 0.381372 0.261269
O O3 0.528900 0.304068 0.236326
O O4 0.581882 0.410156 0.243580
O O5 0.803346 0.196388 0.205143
O O6 0.669753 0.250996 0.276190
O O7 0.836308 0.299961 0.260168
O O8 0.747899 0.271388 0.000000
O O9 0.320285 0.343065 0.500000
O O10 0.249141 0.406228 0.279073
O O11 0.550354 0.245010 0.500000
O O12 0.510233 0.196695 0.766770
O O13 0.422628 0.101741 0.260246
O O14 0.410775 0.162604 0.000000
O O15 0.829861 0.003881 0.209758
O O16 0.666005 0.993986 0.257417
O O17 0.719415 0.046752 0.000000
O O18 0.113377 0.025300 0.500000
O O19 0.000000 0.000000 0.719644
O O20 0.500000 0.000000 0.252155
O O21 0.580440 0.959191 0.000000
#
# Coordination Sequence:
#
# PCOD9426345 Si02
#       8
#     8   8   8   8   8   8   8   8
#     4   9  19  36  58  84 118 160 203 242 298 369
#     4  11  24  40  61  93 127 161 204 257 315 374
#     4  11  21  40  64  87 122 161 203 255 309 373
#     4  11  23  40  63  91 122 162 206 253 315 377
#     4  10  22  42  66  92 124 163 209 261 312 367
#     4  11  23  37  59  93 123 157 206 256 305 365
#     4  10  19  36  58  82 118 165 202 237 297 366
#     4   9  21  42  64  85 119 166 209 252 310 367
#
# _framework density 21.160278999999999
#
# number of rings (size 3 to 8) (size 9 to 14) (size 15 to 20)
#    0.000    1.750    2.500    1.500    3.500    0.750 
#    0.000    1.875    0.000    1.875    0.000    0.000 
#    0.000    0.000    0.000    0.000    0.000    0.000 
#
# Total GULP energy -357288.070239 kJ/mol
# GULP energy per Si atom -5582.626097 kJ/mol
# Density = 2.111212 g / cm^3
# Si number density = 21.160279 Si / 1000 Ang^3
#
#
#
# Elastic Constant Matrix: (Units=GPa)
#
#
# Indices 1 2 3 4 5 6 
#
# 1 98.5582 50.6467 -0.8770 0.0000 0.0000 0.0000
# 2 50.6467 146.2230 -1.8310 0.0000 0.0000 0.0000
# 3 -0.8770 -1.8310 15.1236 0.0000 0.0000 0.0000
# 4 0.0000 0.0000 0.0000 1.4450 0.0000 0.0000
# 5 0.0000 0.0000 0.0000 0.0000 15.2002 0.0000
# 6 0.0000 0.0000 0.0000 0.0000 0.0000 28.8597
#
#
#
# Elastic Compliance Matrix: (Units=1/GPa)
#
#
# Indices 1 2 3 4 5 6 
#
# 1 0.012344 -0.004273 0.000198 0.000000 0.000000 0.000000
# 2 -0.004273 0.008328 0.000761 0.000000 0.000000 0.000000
# 3 0.000198 0.000761 0.066226 0.000000 0.000000 0.000000
# 4 0.000000 0.000000 0.000000 0.692033 0.000000 0.000000
# 5 0.000000 0.000000 0.000000 0.000000 0.065788 0.000000
# 6 0.000000 0.000000 0.000000 0.000000 0.000000 0.034650
#
#
# Mechanical properties :
#
#
# Convention : Reuss Voigt Hill
#
# Bulk Modulus (GPa) = 12.45800 39.53137 25.99468
# Shear Modulus (GPa) = 5.47793 23.23205 14.35499
#
# Velocity S-wave (km/s) = 1.61071 3.31706 2.60742
# Velocity P-wave (km/s) = 3.05932 5.77867 4.62344
#
# Compressibility (1/GPa) = 0.08026973
#
# Stress axis : x y z
#
# Youngs Moduli (GPa) = 81.01194 120.07082 15.09992
#
# Poissons Ratio (x) = 0.51306 -0.00300
# Poissons Ratio (y) = 0.34616 -0.01148
# Poissons Ratio (z) = -0.01608 -0.09132
#
# Static dielectric constant tensor:
#      x y z
#    x 1.785930 0.000000 0.000000 
#    y 0.000000 1.776690 0.000000 
#    z 0.000000 0.000000 1.754910 
# 
# From -- ./inp_files/6484.got.cif
#   From: 2010.05.17/outbox.cif.g08.bks.cpg/sg55_4_cif.got.tgz:6484.got - 2010.06.03 13:27:54.
