data_PCOD9426220
_publ_section_title
;
Structure prediction by ZEFSAII (Michael W. Deem and Ramdas Pophale) SiO2 
 PCOD9426220
Probable space group: P B A M
;
_chemical_formula_sum "Si O2"
_cell_formula_units_Z 32
_cell_length_a 18.022428
_cell_length_b 12.582607
_cell_length_c 8.022075
_cell_angle_alpha 90.000000
_cell_angle_beta 90.000000
_cell_angle_gamma 90.000000
_cell_volume 1819.158958
_symmetry_space_group_name_H-M "P B A M"
_symmetry_group_IT_number 55
_symmetry_cell_setting 'orthorhombic'
loop_
_space_group_symop_operation_xyz
x,y,z
-x,-y,z
1/2+x,1/2-y,-z
1/2-x,1/2+y,-z
-x,-y,-z
x,y,-z
1/2-x,1/2+y,z
1/2+x,1/2-y,z
loop_
_atom_site_type_symbol
_atom_site_label
_atom_site_fract_x
_atom_site_fract_y
_atom_site_fract_z
Si Si1 0.527726 0.878491 0.193180
Si Si2 0.692930 0.366952 0.500000
Si Si3 0.900676 0.798210 0.816578
Si Si4 0.364135 0.172259 0.500000
Si Si5 0.000000 0.000000 0.239404
Si Si6 0.888946 0.086997 0.500000
O O1 0.459545 0.796045 0.219596
O O2 0.589050 0.858727 0.335178
O O3 0.500000 0.000000 0.206591
O O4 0.553252 0.861959 0.000000
O O5 0.656692 0.312767 0.335329
O O6 0.781112 0.370606 0.500000
O O7 0.665691 0.488385 0.500000
O O8 0.946702 0.908842 0.832129
O O9 0.866814 0.777085 0.000000
O O10 0.354086 0.298962 0.500000
O O11 0.943744 0.071405 0.345592
#
# Coordination Sequence:
#
# PCOD9426220 Si02
#       6
#     8   4   8   4   4   4
#     4  10  22  38  59  85 109 144 198 241 271 327
#     4  10  24  35  52  84 122 148 179 229 283 343
#     4  10  19  35  58  82 108 145 186 235 285 324
#     4  12  21  38  59  79 116 157 186 220 291 343
#     4   9  15  32  58  83 107 128 185 243 278 307
#     4   9  18  33  54  83 112 138 182 236 267 330
#
# _framework density 17.590546
#
# number of rings (size 3 to 8) (size 9 to 14) (size 15 to 20)
#    0.000    2.000    2.500    2.250    0.000    3.000 
#    0.000    0.000    0.000    0.000    0.000    0.000 
#    0.000    0.000    0.000    0.000    0.000    0.000 
#
# Total GULP energy -178143.476680 kJ/mol
# GULP energy per Si atom -5566.983646 kJ/mol
# Density = 1.755051 g / cm^3
# Si number density = 17.590546 Si / 1000 Ang^3
#
#
#
# Elastic Constant Matrix: (Units=GPa)
#
#
# Indices 1 2 3 4 5 6 
#
# 1 87.4308 14.0931 79.2889 0.0000 0.0000 0.0000
# 2 14.0931 59.2256 31.3585 0.0000 0.0000 0.0000
# 3 79.2889 31.3585 148.9649 0.0000 0.0000 0.0000
# 4 0.0000 0.0000 0.0000 5.9364 0.0000 0.0000
# 5 0.0000 0.0000 0.0000 0.0000 16.1745 0.0000
# 6 0.0000 0.0000 0.0000 0.0000 0.0000 17.0222
#
#
#
# Elastic Compliance Matrix: (Units=1/GPa)
#
#
# Indices 1 2 3 4 5 6 
#
# 1 0.022173 0.001095 -0.012032 0.000000 0.000000 0.000000
# 2 0.001095 0.019057 -0.004594 0.000000 0.000000 0.000000
# 3 -0.012032 -0.004594 0.014085 0.000000 0.000000 0.000000
# 4 0.000000 0.000000 0.000000 0.168453 0.000000 0.000000
# 5 0.000000 0.000000 0.000000 0.000000 0.061826 0.000000
# 6 0.000000 0.000000 0.000000 0.000000 0.000000 0.058747
#
#
# Mechanical properties :
#
#
# Convention : Reuss Voigt Hill
#
# Bulk Modulus (GPa) = 41.23664 60.56693 50.90178
# Shear Modulus (GPa) = 13.03826 19.21868 16.12847
#
# Velocity S-wave (km/s) = 2.72547 3.30897 3.03129
# Velocity P-wave (km/s) = 5.77907 7.00752 6.42273
#
# Compressibility (1/GPa) = 0.02425028
#
# Stress axis : x y z
#
# Youngs Moduli (GPa) = 45.09971 52.47512 70.99964
#
# Poissons Ratio (x) = -0.05744 0.85430
# Poissons Ratio (y) = -0.04937 0.32619
# Poissons Ratio (z) = 0.54266 0.24108
#
# Static dielectric constant tensor:
#      x y z
#    x 1.564340 0.000000 0.000000 
#    y 0.000000 1.592070 0.000000 
#    z 0.000000 0.000000 1.650400 
# 
# From -- ./inp_files/3559.got.cif
#   From: 2010.05.17/outbox.cif.g08.bks.cpg/sg55_2_cif.got.tgz:3559.got - 2010.06.03 13:27:54.
