data_PCOD9426592
_publ_section_title
;
Structure prediction by ZEFSAII (Michael W. Deem and Ramdas Pophale) SiO2 
 PCOD9426592
Probable space group: P B A M
;
_chemical_formula_sum "Si O2"
_cell_formula_units_Z 64
_cell_length_a 23.158862
_cell_length_b 16.487248
_cell_length_c 9.504386
_cell_angle_alpha 90.000000
_cell_angle_beta 90.000000
_cell_angle_gamma 90.000000
_cell_volume 3629.020750
_symmetry_space_group_name_H-M "P B A M"
_symmetry_group_IT_number 55
_symmetry_cell_setting 'orthorhombic'
loop_
_space_group_symop_operation_xyz
x,y,z
-x,-y,z
1/2+x,1/2-y,-z
1/2-x,1/2+y,-z
-x,-y,-z
x,y,-z
1/2-x,1/2+y,z
1/2+x,1/2-y,z
loop_
_atom_site_type_symbol
_atom_site_label
_atom_site_fract_x
_atom_site_fract_y
_atom_site_fract_z
Si Si1 0.291073 0.913458 0.342286
Si Si2 0.832063 0.037900 0.333125
Si Si3 0.028829 0.588001 0.829848
Si Si4 0.217397 0.115524 0.833246
Si Si5 0.514229 0.247193 0.666446
Si Si6 0.660468 0.940597 0.832196
Si Si7 0.151139 0.239917 0.343493
Si Si8 0.962292 0.078991 0.670992
O O1 0.294811 0.949547 0.500000
O O2 0.222662 0.902103 0.314267
O O3 0.325399 0.830665 0.341974
O O4 0.320186 0.974967 0.235372
O O5 0.836419 0.019402 0.500000
O O6 0.895230 0.067633 0.288616
O O7 0.811950 0.959672 0.246877
O O8 0.096476 0.584398 0.788263
O O9 0.000000 0.500000 0.795384
O O10 0.002118 0.666327 0.752629
O O11 0.024048 0.597535 0.000000
O O12 0.285697 0.118004 0.797652
O O13 0.184144 0.192500 0.776513
O O14 0.212087 0.105252 0.000000
O O15 0.500217 0.235213 0.500000
O O16 0.582794 0.260755 0.676425
O O17 0.485077 0.332091 0.715447
O O18 0.658511 0.949391 0.000000
O O19 0.163519 0.204882 0.500000
O O20 0.965653 0.079410 0.500000
O O21 0.000000 0.000000 0.717039
#
# Coordination Sequence:
#
# PCOD9426592 Si02
#       8
#     8   8   8   8   8   8   8   8
#     4   9  18  31  50  75  98 125 164 210 256 303
#     4   9  17  32  52  72  97 129 166 208 256 308
#     4  10  21  37  56  77 106 145 180 213 262 319
#     4  10  20  33  51  75 101 132 171 212 256 309
#     4  10  21  35  54  81 107 136 178 222 262 312
#     4   9  19  35  52  73 102 134 170 210 255 309
#     4  10  20  34  51  74 104 133 167 213 262 309
#     4   9  17  31  52  75 101 135 170 206 255 312
#
# _framework density 17.635611000000001
#
# number of rings (size 3 to 8) (size 9 to 14) (size 15 to 20)
#    0.000    2.500    0.000    1.875    0.000    5.250 
#    0.000    1.875    0.000    1.500    0.000    0.000 
#    0.000    0.000    0.000    0.000    0.000    0.000 
#
# Total GULP energy -356534.907071 kJ/mol
# GULP energy per Si atom -5570.857923 kJ/mol
# Density = 1.759547 g / cm^3
# Si number density = 17.635611 Si / 1000 Ang^3
#
#
#
# Elastic Constant Matrix: (Units=GPa)
#
#
# Indices 1 2 3 4 5 6 
#
# 1 82.8067 22.0754 31.0461 0.0000 0.0000 0.0000
# 2 22.0754 63.5155 22.7605 0.0000 0.0000 0.0000
# 3 31.0461 22.7605 23.9267 0.0000 0.0000 0.0000
# 4 0.0000 0.0000 0.0000 38.5537 0.0000 0.0000
# 5 0.0000 0.0000 0.0000 0.0000 19.0955 0.0000
# 6 0.0000 0.0000 0.0000 0.0000 0.0000 22.8562
#
#
#
# Elastic Compliance Matrix: (Units=1/GPa)
#
#
# Indices 1 2 3 4 5 6 
#
# 1 0.024275 0.004324 -0.035612 0.000000 0.000000 0.000000
# 2 0.004324 0.024657 -0.029066 0.000000 0.000000 0.000000
# 3 -0.035612 -0.029066 0.115652 0.000000 0.000000 0.000000
# 4 0.000000 0.000000 0.000000 0.025938 0.000000 0.000000
# 5 0.000000 0.000000 0.000000 0.000000 0.052368 0.000000
# 6 0.000000 0.000000 0.000000 0.000000 0.000000 0.043752
#
#
# Mechanical properties :
#
#
# Convention : Reuss Voigt Hill
#
# Bulk Modulus (GPa) = 22.79118 35.77923 29.28521
# Shear Modulus (GPa) = 11.84906 22.39221 17.12063
#
# Velocity S-wave (km/s) = 2.59488 3.56717 3.11914
# Velocity P-wave (km/s) = 4.68288 6.10724 5.44186
#
# Compressibility (1/GPa) = 0.04387662
#
# Stress axis : x y z
#
# Youngs Moduli (GPa) = 41.19435 40.55649 8.64666
#
# Poissons Ratio (x) = -0.17538 0.30792
# Poissons Ratio (y) = -0.17814 0.25132
# Poissons Ratio (z) = 1.46700 1.17882
#
# Static dielectric constant tensor:
#      x y z
#    x 1.617680 0.000000 0.000000 
#    y 0.000000 1.588000 0.000000 
#    z 0.000000 0.000000 1.604510 
# 
# From -- ./inp_files/9011.got.cif
#   From: 2010.05.17/outbox.cif.g08.bks.cpg/sg55_5_cif.got.tgz:9011.got - 2010.06.03 13:27:54.
