data_PCOD9426490
_publ_section_title
;
Structure prediction by ZEFSAII (Michael W. Deem and Ramdas Pophale) SiO2 
 PCOD9426490
Probable space group: P B A M
;
_chemical_formula_sum "Si O2"
_cell_formula_units_Z 58
_cell_length_a 28.467326
_cell_length_b 11.944726
_cell_length_c 7.830415
_cell_angle_alpha 90.000000
_cell_angle_beta 90.000000
_cell_angle_gamma 90.000000
_cell_volume 2662.610537
_symmetry_space_group_name_H-M "P B A M"
_symmetry_group_IT_number 55
_symmetry_cell_setting 'orthorhombic'
loop_
_space_group_symop_operation_xyz
x,y,z
-x,-y,z
1/2+x,1/2-y,-z
1/2-x,1/2+y,-z
-x,-y,-z
x,y,-z
1/2-x,1/2+y,z
1/2+x,1/2-y,z
loop_
_atom_site_type_symbol
_atom_site_label
_atom_site_fract_x
_atom_site_fract_y
_atom_site_fract_z
Si Si1 0.076372 0.319876 0.703867
Si Si2 0.403794 0.380207 0.303830
Si Si3 0.338105 0.956194 0.201347
Si Si4 0.328597 0.209535 0.801795
Si Si5 0.142101 0.109824 0.292592
Si Si6 0.505271 0.337125 0.188261
Si Si7 0.726503 0.249233 0.300666
Si Si8 0.000000 0.000000 0.500000
O O1 0.073345 0.326965 0.500000
O O2 0.107607 0.422823 0.767224
O O3 0.107642 0.211063 0.753816
O O4 0.026201 0.286560 0.779768
O O5 0.422364 0.402561 0.500000
O O6 0.364765 0.284933 0.301916
O O7 0.378413 0.491612 0.236345
O O8 0.449061 0.341758 0.201272
O O9 0.304958 0.862529 0.285649
O O10 0.328021 0.081591 0.260992
O O11 0.328573 0.950608 0.000000
O O12 0.276144 0.257659 0.790158
O O13 0.343781 0.209658 0.000000
O O14 0.144285 0.105134 0.500000
O O15 0.193656 0.149035 0.234164
O O16 0.520436 0.415590 0.346200
O O17 0.520172 0.375798 0.000000
O O18 0.736239 0.268709 0.500000
#
# Coordination Sequence:
#
# PCOD9426490 Si02
#       8
#     8   8   8   8   8   8   8   2
#     4  10  19  38  66  93 127 163 211 266 315 389
#     4  11  22  40  63  91 131 170 213 267 320 392
#     4  10  22  41  63  90 125 163 211 266 321 386
#     4  11  25  42  60  88 127 167 212 265 324 387
#     4   8  18  34  58  89 122 156 199 258 318 373
#     4  12  24  39  63  95 135 177 218 268 330 389
#     4  10  21  39  63  91 119 158 211 264 321 388
#     4  12  22  40  60  98 134 172 226 260 320 384
#
# _framework density 21.783131999999998
#
# number of rings (size 3 to 8) (size 9 to 14) (size 15 to 20)
#    0.000    1.655    1.379    3.931    3.862    2.207 
#    0.000    7.586    0.000    4.138    0.000    0.000 
#    0.000    0.000    0.000    0.000    0.000    0.000 
#
# Total GULP energy -323706.234642 kJ/mol
# GULP energy per Si atom -5581.141977 kJ/mol
# Density = 2.173355 g / cm^3
# Si number density = 21.783132 Si / 1000 Ang^3
#
#
#
# Elastic Constant Matrix: (Units=GPa)
#
#
# Indices 1 2 3 4 5 6 
#
# 1 81.7771 22.7706 13.6722 0.0000 0.0000 0.0000
# 2 22.7706 64.6884 3.5749 0.0000 0.0000 0.0000
# 3 13.6722 3.5749 92.7241 0.0000 0.0000 0.0000
# 4 0.0000 0.0000 0.0000 12.0514 0.0000 0.0000
# 5 0.0000 0.0000 0.0000 0.0000 27.3936 0.0000
# 6 0.0000 0.0000 0.0000 0.0000 0.0000 20.5228
#
#
#
# Elastic Compliance Matrix: (Units=1/GPa)
#
#
# Indices 1 2 3 4 5 6 
#
# 1 0.013870 -0.004780 -0.001861 0.000000 0.000000 0.000000
# 2 -0.004780 0.017139 0.000044 0.000000 0.000000 0.000000
# 3 -0.001861 0.000044 0.011057 0.000000 0.000000 0.000000
# 4 0.000000 0.000000 0.000000 0.082978 0.000000 0.000000
# 5 0.000000 0.000000 0.000000 0.000000 0.036505 0.000000
# 6 0.000000 0.000000 0.000000 0.000000 0.000000 0.048726
#
#
# Mechanical properties :
#
#
# Convention : Reuss Voigt Hill
#
# Bulk Modulus (GPa) = 34.63393 35.46944 35.05169
# Shear Modulus (GPa) = 21.45064 25.27167 23.36116
#
# Velocity S-wave (km/s) = 3.14145 3.40979 3.27837
# Velocity P-wave (km/s) = 5.39372 5.64097 5.51873
#
# Compressibility (1/GPa) = 0.02887342
#
# Stress axis : x y z
#
# Youngs Moduli (GPa) = 72.09621 58.34734 90.43738
#
# Poissons Ratio (x) = 0.27888 0.16830
# Poissons Ratio (y) = 0.34459 -0.00398
# Poissons Ratio (z) = 0.13416 -0.00257
#
# Static dielectric constant tensor:
#      x y z
#    x 1.681960 0.000000 0.000000 
#    y 0.000000 1.731820 0.000000 
#    z 0.000000 0.000000 1.799740 
# 
# From -- ./inp_files/10702.got.cif
#   From: 2010.05.17/outbox.cif.g08.bks.cpg/sg55_6_cif.got.tgz:10702.got - 2010.06.03 13:27:54.
