data_PCOD9426420
_publ_section_title
;
Structure prediction by ZEFSAII (Michael W. Deem and Ramdas Pophale) SiO2 
 PCOD9426420
Probable space group: P B A M
;
_chemical_formula_sum "Si O2"
_cell_formula_units_Z 48
_cell_length_a 16.571740
_cell_length_b 9.667557
_cell_length_c 15.343841
_cell_angle_alpha 90.000000
_cell_angle_beta 90.000000
_cell_angle_gamma 90.000000
_cell_volume 2458.209777
_symmetry_space_group_name_H-M "P B A M"
_symmetry_group_IT_number 55
_symmetry_cell_setting 'orthorhombic'
loop_
_space_group_symop_operation_xyz
x,y,z
-x,-y,z
1/2+x,1/2-y,-z
1/2-x,1/2+y,-z
-x,-y,-z
x,y,-z
1/2-x,1/2+y,z
1/2+x,1/2-y,z
loop_
_atom_site_type_symbol
_atom_site_label
_atom_site_fract_x
_atom_site_fract_y
_atom_site_fract_z
Si Si1 0.904595 0.781873 0.788451
Si Si2 0.804496 0.929609 0.347509
Si Si3 0.835802 0.233864 0.404711
Si Si4 0.795866 0.527303 0.178579
Si Si5 0.416455 0.205563 0.780292
Si Si6 0.130367 0.963318 0.901252
O O1 0.881484 0.857987 0.698065
O O2 0.831219 0.680152 0.811623
O O3 0.987310 0.698950 0.781628
O O4 0.909697 0.898567 0.862564
O O5 0.749406 0.815146 0.394446
O O6 0.824656 0.068117 0.399793
O O7 0.751725 0.985909 0.266252
O O8 0.870017 0.270432 0.500000
O O9 0.886922 0.277188 0.319649
O O10 0.869792 0.421075 0.174842
O O11 0.727469 0.517234 0.105490
O O12 0.390980 0.340623 0.835000
O O13 0.106251 0.935049 0.000000
#
# Coordination Sequence:
#
# PCOD9426420 Si02
#       6
#     8   8   8   8   8   8
#     4  11  21  38  61  88 122 156 193 242 305 352
#     4  10  19  37  60  85 116 157 198 246 286 346
#     4  11  21  37  60  89 120 159 206 245 289 349
#     4  10  20  39  62  83 115 158 201 236 288 350
#     4  11  23  38  61  88 126 155 192 248 301 352
#     4  11  23  40  64  89 117 155 200 246 295 355
#
# _framework density 19.526406000000001
#
# number of rings (size 3 to 8) (size 9 to 14) (size 15 to 20)
#    0.000    1.333    5.000    3.500    0.000    4.000 
#    0.000    2.500    0.000    5.000    0.000    0.000 
#    0.000    0.000    0.000    0.000    0.000    0.000 
#
# Total GULP energy -267970.192454 kJ/mol
# GULP energy per Si atom -5582.712343 kJ/mol
# Density = 1.948196 g / cm^3
# Si number density = 19.526406 Si / 1000 Ang^3
#
#
#
# Elastic Constant Matrix: (Units=GPa)
#
#
# Indices 1 2 3 4 5 6 
#
# 1 58.7008 -12.7236 3.8457 0.0000 0.0000 0.0000
# 2 -12.7236 47.0741 -8.3683 0.0000 0.0000 0.0000
# 3 3.8457 -8.3683 94.5939 0.0000 0.0000 0.0000
# 4 0.0000 0.0000 0.0000 5.6123 0.0000 0.0000
# 5 0.0000 0.0000 0.0000 0.0000 6.8598 0.0000
# 6 0.0000 0.0000 0.0000 0.0000 0.0000 29.5580
#
#
#
# Elastic Compliance Matrix: (Units=1/GPa)
#
#
# Indices 1 2 3 4 5 6 
#
# 1 0.018105 0.004839 -0.000308 0.000000 0.000000 0.000000
# 2 0.004839 0.022876 0.001827 0.000000 0.000000 0.000000
# 3 -0.000308 0.001827 0.010746 0.000000 0.000000 0.000000
# 4 0.000000 0.000000 0.000000 0.178179 0.000000 0.000000
# 5 0.000000 0.000000 0.000000 0.000000 0.145777 0.000000
# 6 0.000000 0.000000 0.000000 0.000000 0.000000 0.033832
#
#
# Mechanical properties :
#
#
# Convention : Reuss Voigt Hill
#
# Bulk Modulus (GPa) = 15.51797 18.43070 16.97434
# Shear Modulus (GPa) = 11.95374 22.91371 17.43372
#
# Velocity S-wave (km/s) = 2.47692 3.42932 2.99126
# Velocity P-wave (km/s) = 4.01803 5.01394 4.54336
#
# Compressibility (1/GPa) = 0.06444140
#
# Stress axis : x y z
#
# Youngs Moduli (GPa) = 55.23480 43.71444 93.06091
#
# Poissons Ratio (x) = -0.21152 0.02866
# Poissons Ratio (y) = -0.26727 -0.17002
# Poissons Ratio (z) = 0.01701 -0.07987
#
# Static dielectric constant tensor:
#      x y z
#    x 1.707520 0.000000 0.000000 
#    y 0.000000 1.696210 0.000000 
#    z 0.000000 0.000000 1.683390 
# 
# From -- ./inp_files/17312.got.cif
#   From: 2010.05.17/outbox.cif.g08.bks.cpg/sg55_9_cif.got.tgz:17312.got - 2010.06.03 13:27:54.
