data_PCOD9426854
_publ_section_title
;
Structure prediction by ZEFSAII (Michael W. Deem and Ramdas Pophale) SiO2 
 PCOD9426854
Probable space group: P B A M
;
_chemical_formula_sum "Si O2"
_cell_formula_units_Z 64
_cell_length_a 17.900230
_cell_length_b 8.156643
_cell_length_c 20.494934
_cell_angle_alpha 90.000000
_cell_angle_beta 90.000000
_cell_angle_gamma 90.000000
_cell_volume 2992.378942
_symmetry_space_group_name_H-M "P B A M"
_symmetry_group_IT_number 55
_symmetry_cell_setting 'orthorhombic'
loop_
_space_group_symop_operation_xyz
x,y,z
-x,-y,z
1/2+x,1/2-y,-z
1/2-x,1/2+y,-z
-x,-y,-z
x,y,-z
1/2-x,1/2+y,z
1/2+x,1/2-y,z
loop_
_atom_site_type_symbol
_atom_site_label
_atom_site_fract_x
_atom_site_fract_y
_atom_site_fract_z
Si Si1 0.660134 0.179489 0.425239
Si Si2 0.833008 0.084140 0.786298
Si Si3 0.835409 0.075883 0.070135
Si Si4 0.659854 0.980351 0.787238
Si Si5 0.050417 0.354932 0.683561
Si Si6 0.564816 0.605470 0.674383
Si Si7 0.173406 0.713209 0.575128
Si Si8 0.161582 0.529014 0.930448
O O1 0.644689 0.229395 0.500000
O O2 0.598217 0.227750 0.373500
O O3 0.741297 0.246944 0.406507
O O4 0.663345 0.981840 0.422525
O O5 0.861660 0.025051 0.857606
O O6 0.838573 0.282556 0.781884
O O7 0.882618 0.017739 0.727156
O O8 0.745959 0.037269 0.779707
O O9 0.748255 0.025407 0.069471
O O10 0.840163 0.273329 0.069787
O O11 0.867380 0.016603 0.000000
O O12 0.607323 0.066163 0.734704
O O13 0.632030 0.026343 0.860334
O O14 0.000000 0.500000 0.653217
O O15 0.987999 0.235349 0.712850
O O16 0.500000 0.500000 0.641450
O O17 0.617198 0.695987 0.623009
O O18 0.163309 0.767848 0.500000
O O19 0.128574 0.471702 0.000000
#
# Coordination Sequence:
#
# PCOD9426854 Si02
#       8
#     8   8   8   8   8   8   8   8
#     4  10  22  40  65  89 114 146 183 225 273 329
#     4  10  20  36  56  83 110 145 188 229 277 332
#     4   8  14  26  48  76 105 135 174 226 275 320
#     4  10  20  34  58  81 110 147 186 230 277 332
#     4  12  23  40  57  80 113 151 185 224 274 325
#     4  12  27  40  56  82 115 151 188 233 275 326
#     4  10  22  42  64  89 115 144 183 226 273 329
#     4   8  14  26  46  76 106 134 175 226 274 321
#
# _framework density 21.387664999999998
#
# number of rings (size 3 to 8) (size 9 to 14) (size 15 to 20)
#    0.000    2.000    2.500    0.750    3.500    1.000 
#    0.000    0.000    0.000    1.500    0.000    0.000 
#    0.000    0.000    0.000    0.000    0.000    0.000 
#
# Total GULP energy -357000.612272 kJ/mol
# GULP energy per Si atom -5578.134567 kJ/mol
# Density = 2.133899 g / cm^3
# Si number density = 21.387665 Si / 1000 Ang^3
#
#
#
# Elastic Constant Matrix: (Units=GPa)
#
#
# Indices 1 2 3 4 5 6 
#
# 1 91.5707 16.9063 76.7225 0.0000 0.0000 0.0000
# 2 16.9063 17.5058 16.2232 0.0000 0.0000 0.0000
# 3 76.7225 16.2232 110.8815 0.0000 0.0000 0.0000
# 4 0.0000 0.0000 0.0000 13.2411 0.0000 0.0000
# 5 0.0000 0.0000 0.0000 0.0000 -16.2376 0.0000
# 6 0.0000 0.0000 0.0000 0.0000 0.0000 30.2955
#
#
#
# Elastic Compliance Matrix: (Units=1/GPa)
#
#
# Indices 1 2 3 4 5 6 
#
# 1 0.027509 -0.010328 -0.017524 0.000000 0.000000 0.000000
# 2 -0.010328 0.069961 -0.003090 0.000000 0.000000 0.000000
# 3 -0.017524 -0.003090 0.021596 0.000000 0.000000 0.000000
# 4 0.000000 0.000000 0.000000 0.075523 0.000000 0.000000
# 5 0.000000 0.000000 0.000000 0.000000 -0.061585 0.000000
# 6 0.000000 0.000000 0.000000 0.000000 0.000000 0.033008
#
#
# Mechanical properties :
#
#
# Convention : Reuss Voigt Hill
#
# Bulk Modulus (GPa) = 17.48739 48.85132 33.16936
# Shear Modulus (GPa) = 20.24651 12.80020 16.52335
#
# Velocity S-wave (km/s) = 3.08010 2.44905 2.78252
# Velocity P-wave (km/s) = 4.56546 5.55766 5.08582
#
# Compressibility (1/GPa) = 0.05718405
#
# Stress axis : x y z
#
# Youngs Moduli (GPa) = 36.35117 14.29360 46.30501
#
# Poissons Ratio (x) = 0.14762 0.81143
# Poissons Ratio (y) = 0.37542 0.14309
# Poissons Ratio (z) = 0.63700 0.04417
#
# Static dielectric constant tensor:
#      x y z
#    x 1.757470 0.000000 0.000000 
#    y 0.000000 1.824830 0.000000 
#    z 0.000000 0.000000 1.836290 
# 
# From -- ./inp_files/23074.got.cif
#   From: 2010.05.17/outbox.cif.g08.bks.cpg/sg55_12_cif.got.tgz:23074.got - 2010.06.03 13:27:54.
