data_PCOD9426827
_publ_section_title
;
Structure prediction by ZEFSAII (Michael W. Deem and Ramdas Pophale) SiO2 
 PCOD9426827
Probable space group: P B A M
;
_chemical_formula_sum "Si O2"
_cell_formula_units_Z 64
_cell_length_a 8.170142
_cell_length_b 23.670379
_cell_length_c 14.318009
_cell_angle_alpha 90.000000
_cell_angle_beta 90.000000
_cell_angle_gamma 90.000000
_cell_volume 2768.964881
_symmetry_space_group_name_H-M "P B A M"
_symmetry_group_IT_number 55
_symmetry_cell_setting 'orthorhombic'
loop_
_space_group_symop_operation_xyz
x,y,z
-x,-y,z
1/2+x,1/2-y,-z
1/2-x,1/2+y,-z
-x,-y,-z
x,y,-z
1/2-x,1/2+y,z
1/2+x,1/2-y,z
loop_
_atom_site_type_symbol
_atom_site_label
_atom_site_fract_x
_atom_site_fract_y
_atom_site_fract_z
Si Si1 0.002483 0.874738 0.802110
Si Si2 0.019046 0.612280 0.395663
Si Si3 0.181640 0.970533 0.892713
Si Si4 0.324668 0.730990 0.188998
Si Si5 0.997623 0.331008 0.110465
Si Si6 0.137555 0.860452 0.602000
Si Si7 0.212349 0.729161 0.396950
Si Si8 0.149250 0.566530 0.793635
O O1 0.138800 0.907893 0.859416
O O2 0.975222 0.810709 0.834439
O O3 0.042163 0.879598 0.692666
O O4 0.824667 0.903336 0.811482
O O5 0.060905 0.591766 0.500000
O O6 0.087188 0.676748 0.388704
O O7 0.096050 0.575287 0.313326
O O8 0.823828 0.617844 0.388513
O O9 0.310587 0.003644 0.828039
O O10 0.234750 0.973553 0.000000
O O11 0.000000 0.000000 0.887194
O O12 0.166320 0.703212 0.141682
O O13 0.361509 0.794472 0.159394
O O14 0.310523 0.726902 0.300870
O O15 0.974506 0.394640 0.146923
O O16 0.015328 0.330044 0.000000
O O17 0.074268 0.878907 0.500000
O O18 0.141699 0.792296 0.602608
O O19 0.292984 0.722736 0.500000
#
# Coordination Sequence:
#
# PCOD9426827 Si02
#       8
#     8   8   8   8   8   8   8   8
#     4  10  21  35  57  86 115 149 190 246 296 343
#     4  10  20  36  57  84 117 155 193 233 287 352
#     4   9  19  38  63  87 110 145 198 252 299 348
#     4  11  22  37  54  87 119 152 191 238 297 359
#     4  11  22  36  56  82 117 154 191 238 293 353
#     4  10  22  35  54  84 121 160 195 230 285 352
#     4  10  20  34  56  84 118 157 196 236 283 349
#     4  10  20  37  61  86 113 148 200 246 292 345
#
# _framework density 23.113329
#
# number of rings (size 3 to 8) (size 9 to 14) (size 15 to 20)
#    0.000    1.875    2.500    2.250    1.750    4.500 
#    0.000    1.250    0.000    6.000    0.000    0.000 
#    0.000    0.000    0.000    0.000    0.000    0.000 
#
# Total GULP energy -357986.319765 kJ/mol
# GULP energy per Si atom -5593.536246 kJ/mol
# Density = 2.306072 g / cm^3
# Si number density = 23.113329 Si / 1000 Ang^3
#
#
#
# Elastic Constant Matrix: (Units=GPa)
#
#
# Indices 1 2 3 4 5 6 
#
# 1 55.9663 7.9264 1.8622 0.0000 0.0000 0.0000
# 2 7.9264 67.3631 7.8602 0.0000 0.0000 0.0000
# 3 1.8622 7.8602 83.3631 0.0000 0.0000 0.0000
# 4 0.0000 0.0000 0.0000 16.6177 0.0000 0.0000
# 5 0.0000 0.0000 0.0000 0.0000 25.5496 0.0000
# 6 0.0000 0.0000 0.0000 0.0000 0.0000 25.0715
#
#
#
# Elastic Compliance Matrix: (Units=1/GPa)
#
#
# Indices 1 2 3 4 5 6 
#
# 1 0.018174 -0.002114 -0.000207 0.000000 0.000000 0.000000
# 2 -0.002114 0.015256 -0.001391 0.000000 0.000000 0.000000
# 3 -0.000207 -0.001391 0.012132 0.000000 0.000000 0.000000
# 4 0.000000 0.000000 0.000000 0.060177 0.000000 0.000000
# 5 0.000000 0.000000 0.000000 0.000000 0.039140 0.000000
# 6 0.000000 0.000000 0.000000 0.000000 0.000000 0.039886
#
#
# Mechanical properties :
#
#
# Convention : Reuss Voigt Hill
#
# Bulk Modulus (GPa) = 26.22107 26.88780 26.55443
# Shear Modulus (GPa) = 24.40203 26.05067 25.22635
#
# Velocity S-wave (km/s) = 3.25276 3.36085 3.30725
# Velocity P-wave (km/s) = 5.04742 5.16901 5.10858
#
# Compressibility (1/GPa) = 0.03813727
#
# Stress axis : x y z
#
# Youngs Moduli (GPa) = 55.02299 65.54775 82.42999
#
# Poissons Ratio (x) = 0.13859 0.01703
# Poissons Ratio (y) = 0.11634 0.11468
# Poissons Ratio (z) = 0.01137 0.09119
#
# Static dielectric constant tensor:
#      x y z
#    x 1.907260 0.000000 0.000000 
#    y 0.000000 1.865180 0.000000 
#    z 0.000000 0.000000 1.820770 
# 
# From -- ./inp_files/17813.got.cif
#   From: 2010.05.17/outbox.cif.g08.bks.cpg/sg55_9_cif.got.tgz:17813.got - 2010.06.03 13:27:54.
