data_PCOD9426552
_publ_section_title
;
Structure prediction by ZEFSAII (Michael W. Deem and Ramdas Pophale) SiO2 
 PCOD9426552
Probable space group: P B A M
;
_chemical_formula_sum "Si O2"
_cell_formula_units_Z 64
_cell_length_a 20.250462
_cell_length_b 18.781415
_cell_length_c 7.425376
_cell_angle_alpha 90.000000
_cell_angle_beta 90.000000
_cell_angle_gamma 90.000000
_cell_volume 2824.110561
_symmetry_space_group_name_H-M "P B A M"
_symmetry_group_IT_number 55
_symmetry_cell_setting 'orthorhombic'
loop_
_space_group_symop_operation_xyz
x,y,z
-x,-y,z
1/2+x,1/2-y,-z
1/2-x,1/2+y,-z
-x,-y,-z
x,y,-z
1/2-x,1/2+y,z
1/2+x,1/2-y,z
loop_
_atom_site_type_symbol
_atom_site_label
_atom_site_fract_x
_atom_site_fract_y
_atom_site_fract_z
Si Si1 0.756553 0.022416 0.291373
Si Si2 0.247323 0.644739 0.220231
Si Si3 0.612704 0.008742 0.286672
Si Si4 0.900002 0.042874 0.280409
Si Si5 0.961152 0.647577 0.217573
Si Si6 0.630399 0.266236 0.793578
Si Si7 0.533756 0.392245 0.717807
Si Si8 0.397277 0.153687 0.203402
O O1 0.755275 0.044343 0.500000
O O2 0.760956 0.936152 0.280874
O O3 0.683564 0.038489 0.217451
O O4 0.825152 0.052291 0.214273
O O5 0.305051 0.696471 0.284744
O O6 0.174664 0.668856 0.282905
O O7 0.246968 0.642300 0.000000
O O8 0.619292 0.994728 0.500000
O O9 0.556338 0.066487 0.259283
O O10 0.600480 0.932659 0.198271
O O11 0.898325 0.043556 0.500000
O O12 0.957583 0.097421 0.225797
O O13 0.927037 0.964367 0.230392
O O14 0.901791 0.696209 0.288456
O O15 0.032444 0.672929 0.287597
O O16 0.963706 0.654164 0.000000
O O17 0.572426 0.324977 0.791221
O O18 0.647709 0.249233 0.000000
O O19 0.535327 0.388311 0.500000
O O20 0.396257 0.182206 0.000000
#
# Coordination Sequence:
#
# PCOD9426552 Si02
#       8
#     8   8   8   8   8   8   8   8
#     4   9  16  29  49  72  99 126 154 193 241 288
#     4   9  17  30  49  72  94 120 159 202 236 275
#     4  10  20  32  51  78 101 121 155 209 257 285
#     4   8  14  26  46  71  97 126 162 195 231 284
#     4  10  21  36  51  68  97 135 165 193 239 299
#     4  10  20  33  48  70 100 129 162 204 243 282
#     4   9  16  28  48  70  93 128 167 197 231 285
#     4   9  18  34  55  73  92 126 167 199 238 294
#
# _framework density 22.662004
#
# number of rings (size 3 to 8) (size 9 to 14) (size 15 to 20)
#    0.000    2.750    1.250    1.500    0.000    3.000 
#    0.000    3.125    0.000    1.500    0.000    0.000 
#    0.000    0.000    0.000    0.000    0.000    0.000 
#
# Total GULP energy -357081.532743 kJ/mol
# GULP energy per Si atom -5579.398949 kJ/mol
# Density = 2.261042 g / cm^3
# Si number density = 22.662004 Si / 1000 Ang^3
#
#
#
# Elastic Constant Matrix: (Units=GPa)
#
#
# Indices 1 2 3 4 5 6 
#
# 1 150.1376 10.7873 -2.8898 0.0000 0.0000 0.0000
# 2 10.7873 30.1358 -8.7343 0.0000 0.0000 0.0000
# 3 -2.8898 -8.7343 79.9292 0.0000 0.0000 0.0000
# 4 0.0000 0.0000 0.0000 9.4653 0.0000 0.0000
# 5 0.0000 0.0000 0.0000 0.0000 10.4660 0.0000
# 6 0.0000 0.0000 0.0000 0.0000 0.0000 28.0833
#
#
#
# Elastic Compliance Matrix: (Units=1/GPa)
#
#
# Indices 1 2 3 4 5 6 
#
# 1 0.006836 -0.002453 -0.000021 0.000000 0.000000 0.000000
# 2 -0.002453 0.035149 0.003752 0.000000 0.000000 0.000000
# 3 -0.000021 0.003752 0.012920 0.000000 0.000000 0.000000
# 4 0.000000 0.000000 0.000000 0.105649 0.000000 0.000000
# 5 0.000000 0.000000 0.000000 0.000000 0.095548 0.000000
# 6 0.000000 0.000000 0.000000 0.000000 0.000000 0.035608
#
#
# Mechanical properties :
#
#
# Convention : Reuss Voigt Hill
#
# Bulk Modulus (GPa) = 17.40287 28.72542 23.06414
# Shear Modulus (GPa) = 16.21754 27.00555 21.61155
#
# Velocity S-wave (km/s) = 2.67802 3.45580 3.09147
# Velocity P-wave (km/s) = 4.15432 5.35037 4.78983
#
# Compressibility (1/GPa) = 0.05746179
#
# Stress axis : x y z
#
# Youngs Moduli (GPa) = 146.27547 28.45047 77.39729
#
# Poissons Ratio (x) = 0.06979 0.00162
# Poissons Ratio (y) = 0.35884 -0.29041
# Poissons Ratio (z) = 0.00306 -0.10675
#
# Static dielectric constant tensor:
#      x y z
#    x 1.898400 0.000000 0.000000 
#    y 0.000000 1.782360 0.000000 
#    z 0.000000 0.000000 1.860700 
# 
# From -- ./inp_files/8976.got.cif
#   From: 2010.05.17/outbox.cif.g08.bks.cpg/sg55_5_cif.got.tgz:8976.got - 2010.06.03 13:27:54.
