data_PCOD9426870
_publ_section_title
;
Structure prediction by ZEFSAII (Michael W. Deem and Ramdas Pophale) SiO2 
 PCOD9426870
Probable space group: P B A M
;
_chemical_formula_sum "Si O2"
_cell_formula_units_Z 58
_cell_length_a 18.511821
_cell_length_b 11.829295
_cell_length_c 14.756384
_cell_angle_alpha 90.000000
_cell_angle_beta 90.000000
_cell_angle_gamma 90.000000
_cell_volume 3231.379406
_symmetry_space_group_name_H-M "P B A M"
_symmetry_group_IT_number 55
_symmetry_cell_setting 'orthorhombic'
loop_
_space_group_symop_operation_xyz
x,y,z
-x,-y,z
1/2+x,1/2-y,-z
1/2-x,1/2+y,-z
-x,-y,-z
x,y,-z
1/2-x,1/2+y,z
1/2+x,1/2-y,z
loop_
_atom_site_type_symbol
_atom_site_label
_atom_site_fract_x
_atom_site_fract_y
_atom_site_fract_z
Si Si1 0.830595 0.995274 0.771211
Si Si2 0.453145 0.831353 0.658895
Si Si3 0.198305 0.223198 0.106135
Si Si4 0.833571 0.569123 0.769853
Si Si5 0.500000 0.000000 0.500000
Si Si6 0.636674 0.697956 0.898797
Si Si7 0.928012 0.925082 0.395823
Si Si8 0.452922 0.101088 0.165871
O O1 0.748334 0.033444 0.753572
O O2 0.867829 0.098516 0.825411
O O3 0.826501 0.884617 0.835575
O O4 0.871101 0.968398 0.678233
O O5 0.372929 0.875282 0.683949
O O6 0.449096 0.701799 0.631504
O O7 0.500059 0.854375 0.749333
O O8 0.485629 0.904902 0.579037
O O9 0.165829 0.336716 0.150652
O O10 0.285243 0.240822 0.112462
O O11 0.180071 0.211756 0.000000
O O12 0.881466 0.462047 0.797792
O O13 0.574518 0.791604 0.889410
O O14 0.636372 0.648505 0.000000
O O15 0.901261 0.928020 0.500000
O O16 0.000000 0.000000 0.390966
O O17 0.500000 0.000000 0.121321
#
# Coordination Sequence:
#
# PCOD9426870 Si02
#       8
#     8   8   8   8   2   8   8   8
#     4  11  21  39  64  85 122 158 198 253 303 354
#     4  11  21  39  63  89 120 159 196 250 307 363
#     4  10  20  34  60  89 116 158 201 243 301 361
#     4  10  20  37  59  88 123 154 195 249 306 356
#     4  12  20  36  66  92 114 156 206 234 302 374
#     4  10  21  36  58  88 120 158 203 248 300 360
#     4  11  24  42  64  88 117 159 204 245 302 367
#     4  10  20  36  59  85 122 158 199 242 312 352
#
# _framework density 17.948990999999999
#
# number of rings (size 3 to 8) (size 9 to 14) (size 15 to 20)
#    0.000    1.517    5.517    1.241    0.000    1.379 
#    1.241    2.069    0.000    1.655    0.000    0.000 
#    0.000    0.000    0.000    0.000    0.000    0.000 
#
# Total GULP energy -323128.833731 kJ/mol
# GULP energy per Si atom -5571.186788 kJ/mol
# Density = 1.790814 g / cm^3
# Si number density = 17.948991 Si / 1000 Ang^3
#
#
#
# Elastic Constant Matrix: (Units=GPa)
#
#
# Indices 1 2 3 4 5 6 
#
# 1 58.5518 43.7420 32.3296 0.0000 0.0000 0.0000
# 2 43.7420 122.2498 56.5807 0.0000 0.0000 0.0000
# 3 32.3296 56.5807 96.1049 0.0000 0.0000 0.0000
# 4 0.0000 0.0000 0.0000 41.6458 0.0000 0.0000
# 5 0.0000 0.0000 0.0000 0.0000 15.9386 0.0000
# 6 0.0000 0.0000 0.0000 0.0000 0.0000 25.8919
#
#
#
# Elastic Compliance Matrix: (Units=1/GPa)
#
#
# Indices 1 2 3 4 5 6 
#
# 1 0.024503 -0.006807 -0.004235 0.000000 0.000000 0.000000
# 2 -0.006807 0.013135 -0.005443 0.000000 0.000000 0.000000
# 3 -0.004235 -0.005443 0.015034 0.000000 0.000000 0.000000
# 4 0.000000 0.000000 0.000000 0.024012 0.000000 0.000000
# 5 0.000000 0.000000 0.000000 0.000000 0.062741 0.000000
# 6 0.000000 0.000000 0.000000 0.000000 0.000000 0.038622
#
#
# Mechanical properties :
#
#
# Convention : Reuss Voigt Hill
#
# Bulk Modulus (GPa) = 50.75763 60.24568 55.50166
# Shear Modulus (GPa) = 22.97958 26.31222 24.64590
#
# Velocity S-wave (km/s) = 3.58197 3.83292 3.70957
# Velocity P-wave (km/s) = 6.74148 7.29563 7.02402
#
# Compressibility (1/GPa) = 0.01970147
#
# Stress axis : x y z
#
# Youngs Moduli (GPa) = 40.81192 76.13349 66.51370
#
# Poissons Ratio (x) = 0.51825 0.28169
# Poissons Ratio (y) = 0.27781 0.36204
# Poissons Ratio (z) = 0.17284 0.41440
#
# Static dielectric constant tensor:
#      x y z
#    x 1.620340 0.000000 0.000000 
#    y 0.000000 1.621470 0.000000 
#    z 0.000000 0.000000 1.585360 
# 
# From -- ./inp_files/18518.got.cif
#   From: 2010.05.17/outbox.cif.g08.bks.cpg/sg55_10_cif.got.tgz:18518.got - 2010.06.03 13:27:54.
