data_PCOD9426092
_publ_section_title
;
Structure prediction by ZEFSAII (Michael W. Deem and Ramdas Pophale) SiO2 
 PCOD9426092
Probable space group: P B A M
;
_chemical_formula_sum "Si O2"
_cell_formula_units_Z 56
_cell_length_a 15.058818
_cell_length_b 22.206947
_cell_length_c 9.055301
_cell_angle_alpha 90.000000
_cell_angle_beta 90.000000
_cell_angle_gamma 90.000000
_cell_volume 3028.186587
_symmetry_space_group_name_H-M "P B A M"
_symmetry_group_IT_number 55
_symmetry_cell_setting 'orthorhombic'
loop_
_space_group_symop_operation_xyz
x,y,z
-x,-y,z
1/2+x,1/2-y,-z
1/2-x,1/2+y,-z
-x,-y,-z
x,y,-z
1/2-x,1/2+y,z
1/2+x,1/2-y,z
loop_
_atom_site_type_symbol
_atom_site_label
_atom_site_fract_x
_atom_site_fract_y
_atom_site_fract_z
Si Si1 0.826972 0.280000 0.327332
Si Si2 0.483927 0.570518 0.178840
Si Si3 0.517247 0.877501 0.328369
Si Si4 0.852084 0.463100 0.174017
Si Si5 0.198941 0.114201 0.677926
Si Si6 0.651552 0.652423 0.822438
Si Si7 0.156087 0.394384 0.825619
O O1 0.814863 0.265180 0.500000
O O2 0.912386 0.323478 0.314818
O O3 0.742112 0.320771 0.280243
O O4 0.846050 0.219784 0.238643
O O5 0.500000 0.500000 0.217369
O O6 0.395451 0.597662 0.252069
O O7 0.568393 0.611232 0.224070
O O8 0.474848 0.572934 0.000000
O O9 0.512158 0.894629 0.500000
O O10 0.559570 0.931344 0.233545
O O11 0.420948 0.862200 0.265711
O O12 0.770360 0.434097 0.262740
O O13 0.854634 0.534252 0.194678
O O14 0.841107 0.450455 0.000000
O O15 0.195188 0.112133 0.500000
O O16 0.745161 0.623051 0.778574
O O17 0.648682 0.654097 0.000000
O O18 0.146011 0.380981 0.000000
#
# Coordination Sequence:
#
# PCOD9426092 Si02
#       7
#     8   8   8   8   8   8   8
#     4   9  21  40  56  76 110 147 182 225 280 333
#     4  10  21  39  61  85 115 150 188 235 290 339
#     4  10  21  36  55  81 112 145 181 221 267 324
#     4  10  19  34  57  83 113 146 178 219 271 324
#     4  10  21  37  58  84 113 147 187 229 276 333
#     4  10  22  38  57  81 108 142 188 235 274 326
#     4  10  21  36  54  80 111 142 178 221 272 325
#
# _framework density 18.492916000000001
#
# number of rings (size 3 to 8) (size 9 to 14) (size 15 to 20)
#    0.000    2.143    0.000    3.429    0.000   11.143 
#    0.000    7.143    0.000    0.000    0.000    0.000 
#    0.000    0.000    0.000    0.000    0.000    0.000 
#
# Total GULP energy -312590.053510 kJ/mol
# GULP energy per Si atom -5581.965241 kJ/mol
# Density = 1.845083 g / cm^3
# Si number density = 18.492916 Si / 1000 Ang^3
#
#
#
# Elastic Constant Matrix: (Units=GPa)
#
#
# Indices 1 2 3 4 5 6 
#
# 1 159.3095 53.4400 44.9018 0.0000 0.0000 0.0000
# 2 53.4400 78.9502 39.8765 0.0000 0.0000 0.0000
# 3 44.9018 39.8765 35.1368 0.0000 0.0000 0.0000
# 4 0.0000 0.0000 0.0000 62.1685 0.0000 0.0000
# 5 0.0000 0.0000 0.0000 0.0000 23.1928 0.0000
# 6 0.0000 0.0000 0.0000 0.0000 0.0000 15.2465
#
#
#
# Elastic Compliance Matrix: (Units=1/GPa)
#
#
# Indices 1 2 3 4 5 6 
#
# 1 0.009828 -0.000724 -0.011738 0.000000 0.000000 0.000000
# 2 -0.000724 0.029732 -0.032817 0.000000 0.000000 0.000000
# 3 -0.011738 -0.032817 0.080705 0.000000 0.000000 0.000000
# 4 0.000000 0.000000 0.000000 0.016085 0.000000 0.000000
# 5 0.000000 0.000000 0.000000 0.000000 0.043117 0.000000
# 6 0.000000 0.000000 0.000000 0.000000 0.000000 0.065589
#
#
# Mechanical properties :
#
#
# Convention : Reuss Voigt Hill
#
# Bulk Modulus (GPa) = 33.66322 61.09258 47.37790
# Shear Modulus (GPa) = 14.47106 29.13343 21.80225
#
# Velocity S-wave (km/s) = 2.80039 3.97342 3.43731
# Velocity P-wave (km/s) = 5.35715 7.35922 6.43650
#
# Compressibility (1/GPa) = 0.02970601
#
# Stress axis : x y z
#
# Youngs Moduli (GPa) = 101.74614 33.63418 12.39079
#
# Poissons Ratio (x) = 0.02434 0.14545
# Poissons Ratio (y) = 0.07364 0.40663
# Poissons Ratio (z) = 1.19434 1.10379
#
# Static dielectric constant tensor:
#      x y z
#    x 1.637520 0.000000 0.000000 
#    y 0.000000 1.618080 0.000000 
#    z 0.000000 0.000000 1.622950 
# 
# From -- ./inp_files/6049.got.cif
#   From: 2010.05.17/outbox.cif.g08.bks.cpg/sg55_4_cif.got.tgz:6049.got - 2010.06.03 13:27:54.
