data_PCOD9426254
_publ_section_title
;
Structure prediction by ZEFSAII (Michael W. Deem and Ramdas Pophale) SiO2 
 PCOD9426254
Probable space group: P B A M
;
_chemical_formula_sum "Si O2"
_cell_formula_units_Z 64
_cell_length_a 12.221886
_cell_length_b 30.948586
_cell_length_c 7.523343
_cell_angle_alpha 90.000000
_cell_angle_beta 90.000000
_cell_angle_gamma 90.000000
_cell_volume 2845.705166
_symmetry_space_group_name_H-M "P B A M"
_symmetry_group_IT_number 55
_symmetry_cell_setting 'orthorhombic'
loop_
_space_group_symop_operation_xyz
x,y,z
-x,-y,z
1/2+x,1/2-y,-z
1/2-x,1/2+y,-z
-x,-y,-z
x,y,-z
1/2-x,1/2+y,z
1/2+x,1/2-y,z
loop_
_atom_site_type_symbol
_atom_site_label
_atom_site_fract_x
_atom_site_fract_y
_atom_site_fract_z
Si Si1 0.069807 0.212411 0.282353
Si Si2 0.017416 0.450444 0.217146
Si Si3 0.200370 0.385155 0.793682
Si Si4 0.781996 0.419366 0.215926
Si Si5 0.072211 0.037859 0.794700
Si Si6 0.529910 0.189405 0.284256
Si Si7 0.451654 0.374738 0.294505
Si Si8 0.710901 0.824656 0.294716
O O1 0.068734 0.211835 0.500000
O O2 0.037410 0.260571 0.230594
O O3 0.193869 0.204735 0.218597
O O4 0.994904 0.171784 0.225084
O O5 0.124376 0.424315 0.278881
O O6 0.000000 0.500000 0.270423
O O7 0.905836 0.427038 0.273998
O O8 0.021048 0.449715 0.000000
O O9 0.125388 0.342271 0.779853
O O10 0.320209 0.378187 0.714309
O O11 0.220486 0.394807 0.000000
O O12 0.693390 0.454062 0.279382
O O13 0.744363 0.372988 0.283019
O O14 0.780757 0.418833 0.000000
O O15 0.007286 0.083233 0.791923
O O16 0.090974 0.025220 0.000000
O O17 0.000000 0.000000 0.711407
O O18 0.534930 0.186922 0.500000
O O19 0.410505 0.174633 0.218092
O O20 0.484877 0.376989 0.500000
O O21 0.697738 0.811460 0.500000
#
# Coordination Sequence:
#
# PCOD9426254 Si02
#       8
#     8   8   8   8   8   8   8   8
#     4   9  20  37  59  85 112 150 193 234 281 337
#     4   9  19  35  58  83 109 148 191 229 276 339
#     4  11  23  39  59  84 118 151 188 239 293 346
#     4  10  19  35  59  84 112 146 188 235 284 339
#     4  10  22  38  60  88 118 153 195 240 290 348
#     4  10  21  37  61  86 112 149 194 236 280 339
#     4  11  23  40  61  84 117 156 197 241 290 347
#     4  10  19  35  59  84 112 145 187 237 284 333
#
# _framework density 22.490031999999999
#
# number of rings (size 3 to 8) (size 9 to 14) (size 15 to 20)
#    0.000    2.000    2.500    0.750    3.500    0.250 
#    0.000    1.875    0.000    1.875    0.000    0.000 
#    0.000    0.000    0.000    0.000    0.000    0.000 
#
# Total GULP energy -357349.694026 kJ/mol
# GULP energy per Si atom -5583.588969 kJ/mol
# Density = 2.243884 g / cm^3
# Si number density = 22.490032 Si / 1000 Ang^3
#
#
#
# Elastic Constant Matrix: (Units=GPa)
#
#
# Indices 1 2 3 4 5 6 
#
# 1 99.1690 6.9981 -9.1485 0.0000 0.0000 0.0000
# 2 6.9981 88.7284 -15.1504 0.0000 0.0000 0.0000
# 3 -9.1485 -15.1504 59.7686 0.0000 0.0000 0.0000
# 4 0.0000 0.0000 0.0000 13.2784 0.0000 0.0000
# 5 0.0000 0.0000 0.0000 0.0000 -17.0666 0.0000
# 6 0.0000 0.0000 0.0000 0.0000 0.0000 36.7857
#
#
#
# Elastic Compliance Matrix: (Units=1/GPa)
#
#
# Indices 1 2 3 4 5 6 
#
# 1 0.010255 -0.000565 0.001426 0.000000 0.000000 0.000000
# 2 -0.000565 0.011811 0.002907 0.000000 0.000000 0.000000
# 3 0.001426 0.002907 0.017687 0.000000 0.000000 0.000000
# 4 0.000000 0.000000 0.000000 0.075310 0.000000 0.000000
# 5 0.000000 0.000000 0.000000 0.000000 -0.058594 0.000000
# 6 0.000000 0.000000 0.000000 0.000000 0.000000 0.027185
#
#
# Mechanical properties :
#
#
# Convention : Reuss Voigt Hill
#
# Bulk Modulus (GPa) = 21.14594 23.67384 22.40989
# Shear Modulus (GPa) = 54.41866 24.26393 39.34130
#
# Velocity S-wave (km/s) = 4.92436 3.28819 4.18697
# Velocity P-wave (km/s) = 6.46183 4.99654 5.77584
#
# Compressibility (1/GPa) = 0.04729041
#
# Stress axis : x y z
#
# Youngs Moduli (GPa) = 97.51073 84.66409 56.54024
#
# Poissons Ratio (x) = 0.04786 -0.08065
# Poissons Ratio (y) = 0.05512 -0.16439
# Poissons Ratio (z) = -0.13909 -0.24616
#
# Static dielectric constant tensor:
#      x y z
#    x 1.823370 0.000000 0.000000 
#    y 0.000000 1.869420 0.000000 
#    z 0.000000 0.000000 1.863640 
# 
# From -- ./inp_files/4496.got.cif
#   From: 2010.05.17/outbox.cif.g08.bks.cpg/sg55_3_cif.got.tgz:4496.got - 2010.06.03 13:27:54.
