data_PCOD9426271
_publ_section_title
;
Structure prediction by ZEFSAII (Michael W. Deem and Ramdas Pophale) SiO2 
 PCOD9426271
Probable space group: P B A M
;
_chemical_formula_sum "Si O2"
_cell_formula_units_Z 64
_cell_length_a 10.620386
_cell_length_b 33.918490
_cell_length_c 8.485563
_cell_angle_alpha 90.000000
_cell_angle_beta 90.000000
_cell_angle_gamma 90.000000
_cell_volume 3056.732775
_symmetry_space_group_name_H-M "P B A M"
_symmetry_group_IT_number 55
_symmetry_cell_setting 'orthorhombic'
loop_
_space_group_symop_operation_xyz
x,y,z
-x,-y,z
1/2+x,1/2-y,-z
1/2-x,1/2+y,-z
-x,-y,-z
x,y,-z
1/2-x,1/2+y,z
1/2+x,1/2-y,z
loop_
_atom_site_type_symbol
_atom_site_label
_atom_site_fract_x
_atom_site_fract_y
_atom_site_fract_z
Si Si1 0.092838 0.940497 0.181972
Si Si2 0.310065 0.132695 0.181777
Si Si3 0.564516 0.083477 0.821317
Si Si4 0.675047 0.437353 0.685755
Si Si5 0.088935 0.717762 0.192250
Si Si6 0.178160 0.488726 0.315805
Si Si7 0.717262 0.632070 0.317797
Si Si8 0.204326 0.282897 0.809223
O O1 0.118592 0.894486 0.221298
O O2 0.950093 0.949456 0.223760
O O3 0.190637 0.965130 0.286899
O O4 0.118050 0.948983 0.000000
O O5 0.431519 0.104456 0.182349
O O6 0.208733 0.107832 0.277815
O O7 0.356985 0.175048 0.241072
O O8 0.267189 0.137230 0.000000
O O9 0.653778 0.107445 0.703379
O O10 0.577235 0.037842 0.775538
O O11 0.613943 0.088448 0.000000
O O12 0.655661 0.442729 0.500000
O O13 0.787018 0.467109 0.734335
O O14 0.192219 0.750319 0.240547
O O15 0.942344 0.723537 0.242392
O O16 0.085559 0.717548 0.000000
O O17 0.146281 0.488635 0.500000
O O18 0.680368 0.633900 0.500000
O O19 0.746190 0.675021 0.250376
O O20 0.202167 0.283262 0.000000
#
# Coordination Sequence:
#
# PCOD9426271 Si02
#       8
#     8   8   8   8   8   8   8   8
#     4  11  22  37  60  86 114 152 198 246 292 349
#     4  10  21  38  58  83 115 153 198 248 295 348
#     4  10  19  35  60  85 113 148 197 247 285 339
#     4  11  24  39  55  81 119 158 193 241 299 358
#     4   9  19  36  61  89 120 154 200 251 303 356
#     4  10  21  37  57  83 117 154 195 241 297 355
#     4  11  21  35  58  87 117 152 192 235 291 354
#     4  10  19  37  62  89 118 155 199 248 298 358
#
# _framework density 20.937387000000001
#
# number of rings (size 3 to 8) (size 9 to 14) (size 15 to 20)
#    0.000    1.750    1.250    5.250    0.000    6.000 
#    0.000    6.250    0.000    0.000    0.000    0.000 
#    0.000    0.000    0.000    0.000    0.000    0.000 
#
# Total GULP energy -357363.476962 kJ/mol
# GULP energy per Si atom -5583.804328 kJ/mol
# Density = 2.088973 g / cm^3
# Si number density = 20.937387 Si / 1000 Ang^3
#
#
#
# Elastic Constant Matrix: (Units=GPa)
#
#
# Indices 1 2 3 4 5 6 
#
# 1 65.5393 35.6966 10.5110 0.0000 0.0000 0.0000
# 2 35.6966 144.2911 11.5462 0.0000 0.0000 0.0000
# 3 10.5110 11.5462 29.2623 0.0000 0.0000 0.0000
# 4 0.0000 0.0000 0.0000 20.4986 0.0000 0.0000
# 5 0.0000 0.0000 0.0000 0.0000 42.3163 0.0000
# 6 0.0000 0.0000 0.0000 0.0000 0.0000 29.9817
#
#
#
# Elastic Compliance Matrix: (Units=1/GPa)
#
#
# Indices 1 2 3 4 5 6 
#
# 1 0.018301 -0.004132 -0.004943 0.000000 0.000000 0.000000
# 2 -0.004132 0.008089 -0.001708 0.000000 0.000000 0.000000
# 3 -0.004943 -0.001708 0.036623 0.000000 0.000000 0.000000
# 4 0.000000 0.000000 0.000000 0.048784 0.000000 0.000000
# 5 0.000000 0.000000 0.000000 0.000000 0.023632 0.000000
# 6 0.000000 0.000000 0.000000 0.000000 0.000000 0.033354
#
#
# Mechanical properties :
#
#
# Convention : Reuss Voigt Hill
#
# Bulk Modulus (GPa) = 24.12684 39.40004 31.76344
# Shear Modulus (GPa) = 24.49002 30.64860 27.56931
#
# Velocity S-wave (km/s) = 3.42377 3.83014 3.63264
# Velocity P-wave (km/s) = 5.21324 6.19830 5.72699
#
# Compressibility (1/GPa) = 0.04144762
#
# Stress axis : x y z
#
# Youngs Moduli (GPa) = 54.64060 123.61976 27.30517
#
# Poissons Ratio (x) = 0.51081 0.13498
# Poissons Ratio (y) = 0.22578 0.04663
# Poissons Ratio (z) = 0.27011 0.21109
#
# Static dielectric constant tensor:
#      x y z
#    x 1.769670 0.000000 0.000000 
#    y 0.000000 1.762520 0.000000 
#    z 0.000000 0.000000 1.718990 
# 
# From -- ./inp_files/4594.got.cif
#   From: 2010.05.17/outbox.cif.g08.bks.cpg/sg55_3_cif.got.tgz:4594.got - 2010.06.03 13:27:54.
