data_PCOD9426146
_publ_section_title
;
Structure prediction by ZEFSAII (Michael W. Deem and Ramdas Pophale) SiO2 
 PCOD9426146
Probable space group: P B A M
;
_chemical_formula_sum "Si O2"
_cell_formula_units_Z 64
_cell_length_a 11.505306
_cell_length_b 31.747967
_cell_length_c 7.798353
_cell_angle_alpha 90.000000
_cell_angle_beta 90.000000
_cell_angle_gamma 90.000000
_cell_volume 2848.504987
_symmetry_space_group_name_H-M "P B A M"
_symmetry_group_IT_number 55
_symmetry_cell_setting 'orthorhombic'
loop_
_space_group_symop_operation_xyz
x,y,z
-x,-y,z
1/2+x,1/2-y,-z
1/2-x,1/2+y,-z
-x,-y,-z
x,y,-z
1/2-x,1/2+y,z
1/2+x,1/2-y,z
loop_
_atom_site_type_symbol
_atom_site_label
_atom_site_fract_x
_atom_site_fract_y
_atom_site_fract_z
Si Si1 0.901528 0.614419 0.202981
Si Si2 0.407751 0.179565 0.797423
Si Si3 0.214611 0.820169 0.694956
Si Si4 0.845578 0.834936 0.798160
Si Si5 0.104278 0.254943 0.298272
Si Si6 0.042189 0.889452 0.198324
Si Si7 0.878034 0.518114 0.702820
Si Si8 0.880459 0.020176 0.298903
O O1 0.819006 0.646012 0.304693
O O2 0.889793 0.568004 0.272486
O O3 0.028156 0.634751 0.219574
O O4 0.869619 0.615456 0.000000
O O5 0.280273 0.174769 0.721285
O O6 0.492586 0.215415 0.726246
O O7 0.398570 0.188997 0.000000
O O8 0.174901 0.811627 0.500000
O O9 0.279398 0.779044 0.769528
O O10 0.117835 0.846763 0.791752
O O11 0.911193 0.790474 0.782708
O O12 0.919238 0.873917 0.726100
O O13 0.830707 0.844392 0.000000
O O14 0.122272 0.249722 0.500000
O O15 0.102690 0.929237 0.285513
O O16 0.029632 0.901458 0.000000
O O17 0.876111 0.507637 0.500000
O O18 0.747563 0.507565 0.772412
O O19 0.000000 0.500000 0.775541
O O20 0.877453 0.008808 0.500000
O O21 0.000000 0.000000 0.225886
#
# Coordination Sequence:
#
# PCOD9426146 Si02
#       8
#     8   8   8   8   8   8   8   8
#     4  10  19  34  59  86 110 143 189 238 287 345
#     4   9  20  39  58  79 112 152 192 237 293 355
#     4  10  20  36  58  83 114 150 189 239 292 348
#     4  10  23  40  57  82 119 159 198 242 298 360
#     4  10  22  37  57  86 116 150 195 247 298 347
#     4  11  23  38  60  89 117 154 202 248 297 357
#     4  10  21  37  58  86 119 154 194 242 300 366
#     4  10  22  41  63  87 120 162 204 249 309 374
#
# _framework density 22.467928000000001
#
# number of rings (size 3 to 8) (size 9 to 14) (size 15 to 20)
#    0.000    2.000    1.250    1.500    1.750    5.000 
#    0.000    0.000    0.000    0.000    0.000    0.000 
#    0.000    0.000    0.000    0.000    0.000    0.000 
#
# Total GULP energy -357024.582956 kJ/mol
# GULP energy per Si atom -5578.509109 kJ/mol
# Density = 2.241679 g / cm^3
# Si number density = 22.467928 Si / 1000 Ang^3
#
#
#
# Elastic Constant Matrix: (Units=GPa)
#
#
# Indices 1 2 3 4 5 6 
#
# 1 146.1255 35.4572 9.3165 0.0000 0.0000 0.0000
# 2 35.4572 44.3891 -7.8429 0.0000 0.0000 0.0000
# 3 9.3165 -7.8429 35.2022 0.0000 0.0000 0.0000
# 4 0.0000 0.0000 0.0000 9.9498 0.0000 0.0000
# 5 0.0000 0.0000 0.0000 0.0000 6.3208 0.0000
# 6 0.0000 0.0000 0.0000 0.0000 0.0000 24.3109
#
#
#
# Elastic Compliance Matrix: (Units=1/GPa)
#
#
# Indices 1 2 3 4 5 6 
#
# 1 0.009040 -0.007957 -0.004165 0.000000 0.000000 0.000000
# 2 -0.007957 0.030455 0.008891 0.000000 0.000000 0.000000
# 3 -0.004165 0.008891 0.031491 0.000000 0.000000 0.000000
# 4 0.000000 0.000000 0.000000 0.100504 0.000000 0.000000
# 5 0.000000 0.000000 0.000000 0.000000 0.158209 0.000000
# 6 0.000000 0.000000 0.000000 0.000000 0.000000 0.041134
#
#
# Mechanical properties :
#
#
# Convention : Reuss Voigt Hill
#
# Bulk Modulus (GPa) = 15.49831 33.28647 24.39239
# Shear Modulus (GPa) = 12.53758 20.70203 16.61981
#
# Velocity S-wave (km/s) = 2.36481 3.03876 2.72272
# Velocity P-wave (km/s) = 3.79070 5.21146 4.55679
#
# Compressibility (1/GPa) = 0.06452318
#
# Stress axis : x y z
#
# Youngs Moduli (GPa) = 110.62378 32.83582 31.75558
#
# Poissons Ratio (x) = 0.26126 0.13227
# Poissons Ratio (y) = 0.88019 -0.28234
# Poissons Ratio (z) = 0.46076 -0.29194
#
# Static dielectric constant tensor:
#      x y z
#    x 1.939980 0.000000 0.000000 
#    y 0.000000 1.801120 0.000000 
#    z 0.000000 0.000000 1.831950 
# 
# From -- ./inp_files/4540.got.cif
#   From: 2010.05.17/outbox.cif.g08.bks.cpg/sg55_3_cif.got.tgz:4540.got - 2010.06.03 13:27:54.
