data_PCOD9426624
_publ_section_title
;
Structure prediction by ZEFSAII (Michael W. Deem and Ramdas Pophale) SiO2 
 PCOD9426624
Probable space group: P B A M
;
_chemical_formula_sum "Si O2"
_cell_formula_units_Z 64
_cell_length_a 22.958228
_cell_length_b 16.250774
_cell_length_c 8.858818
_cell_angle_alpha 90.000000
_cell_angle_beta 90.000000
_cell_angle_gamma 90.000000
_cell_volume 3305.127324
_symmetry_space_group_name_H-M "P B A M"
_symmetry_group_IT_number 55
_symmetry_cell_setting 'orthorhombic'
loop_
_space_group_symop_operation_xyz
x,y,z
-x,-y,z
1/2+x,1/2-y,-z
1/2-x,1/2+y,-z
-x,-y,-z
x,y,-z
1/2-x,1/2+y,z
1/2+x,1/2-y,z
loop_
_atom_site_type_symbol
_atom_site_label
_atom_site_fract_x
_atom_site_fract_y
_atom_site_fract_z
Si Si1 0.661311 0.736281 0.825044
Si Si2 0.709757 0.569139 0.681367
Si Si3 0.988764 0.905566 0.683795
Si Si4 0.457361 0.232425 0.318303
Si Si5 0.360172 0.586543 0.676287
Si Si6 0.830983 0.595434 0.174915
Si Si7 0.034112 0.415211 0.182619
Si Si8 0.708905 0.285230 0.833643
O O1 0.680311 0.651546 0.745114
O O2 0.607983 0.779799 0.742178
O O3 0.721593 0.786170 0.823854
O O4 0.645961 0.721169 0.000000
O O5 0.709181 0.572513 0.500000
O O6 0.670124 0.494414 0.739300
O O7 0.776445 0.558061 0.734985
O O8 0.993426 0.905827 0.500000
O O9 0.923051 0.889780 0.736722
O O10 0.026300 0.826379 0.730896
O O11 0.000000 0.000000 0.731403
O O12 0.459268 0.228826 0.500000
O O13 0.501131 0.163642 0.252948
O O14 0.369152 0.570017 0.500000
O O15 0.317758 0.661533 0.702663
O O16 0.897362 0.581520 0.228319
O O17 0.815696 0.692779 0.176749
O O18 0.827733 0.568034 0.000000
O O19 0.000000 0.500000 0.221089
O O20 0.033158 0.406767 0.000000
O O21 0.691825 0.317447 0.000000
#
# Coordination Sequence:
#
# PCOD9426624 Si02
#       8
#     8   8   8   8   8   8   8   8
#     4  10  21  38  57  78 108 146 185 224 275 337
#     4  10  20  34  55  82 109 139 178 225 274 325
#     4   9  18  34  55  80 114 151 182 215 267 337
#     4  11  22  36  59  87 114 148 188 236 287 332
#     4  10  20  33  52  80 111 141 175 218 270 327
#     4   9  19  37  57  77 105 142 184 227 276 332
#     4  10  22  40  60  81 110 152 196 237 285 342
#     4   9  19  34  53  76 102 136 176 221 269 321
#
# _framework density 19.363852000000001
#
# number of rings (size 3 to 8) (size 9 to 14) (size 15 to 20)
#    0.000    2.250    0.000    3.375    0.000    7.250 
#    0.000    4.375    0.000    2.625    0.000    0.000 
#    0.000    0.000    0.000    0.000    0.000    0.000 
#
# Total GULP energy -356743.759191 kJ/mol
# GULP energy per Si atom -5574.121237 kJ/mol
# Density = 1.931978 g / cm^3
# Si number density = 19.363852 Si / 1000 Ang^3
#
#
#
# Elastic Constant Matrix: (Units=GPa)
#
#
# Indices 1 2 3 4 5 6 
#
# 1 81.0465 -1.7915 17.6430 0.0000 0.0000 0.0000
# 2 -1.7915 28.9609 5.9483 0.0000 0.0000 0.0000
# 3 17.6430 5.9483 27.2028 0.0000 0.0000 0.0000
# 4 0.0000 0.0000 0.0000 36.2084 0.0000 0.0000
# 5 0.0000 0.0000 0.0000 0.0000 23.8639 0.0000
# 6 0.0000 0.0000 0.0000 0.0000 0.0000 19.1614
#
#
#
# Elastic Compliance Matrix: (Units=1/GPa)
#
#
# Indices 1 2 3 4 5 6 
#
# 1 0.014609 0.002984 -0.010128 0.000000 0.000000 0.000000
# 2 0.002984 0.036762 -0.009974 0.000000 0.000000 0.000000
# 3 -0.010128 -0.009974 0.045510 0.000000 0.000000 0.000000
# 4 0.000000 0.000000 0.000000 0.027618 0.000000 0.000000
# 5 0.000000 0.000000 0.000000 0.000000 0.041904 0.000000
# 6 0.000000 0.000000 0.000000 0.000000 0.000000 0.052188
#
#
# Mechanical properties :
#
#
# Convention : Reuss Voigt Hill
#
# Bulk Modulus (GPa) = 15.96255 20.08999 18.02627
# Shear Modulus (GPa) = 18.26754 23.54079 20.90416
#
# Velocity S-wave (km/s) = 3.07479 3.49048 3.28921
# Velocity P-wave (km/s) = 4.56806 5.16160 4.87387
#
# Compressibility (1/GPa) = 0.06264663
#
# Stress axis : x y z
#
# Youngs Moduli (GPa) = 68.45000 27.20172 21.97306
#
# Poissons Ratio (x) = -0.08116 0.22253
# Poissons Ratio (y) = -0.20424 0.21916
# Poissons Ratio (z) = 0.69323 0.27131
#
# Static dielectric constant tensor:
#      x y z
#    x 1.687640 0.000000 0.000000 
#    y 0.000000 1.673060 0.000000 
#    z 0.000000 0.000000 1.671340 
# 
# From -- ./inp_files/8947.got.cif
#   From: 2010.05.17/outbox.cif.g08.bks.cpg/sg55_5_cif.got.tgz:8947.got - 2010.06.03 13:27:54.
