data_PCOD9426504
_publ_section_title
;
Structure prediction by ZEFSAII (Michael W. Deem and Ramdas Pophale) SiO2 
 PCOD9426504
Probable space group: P B A M
;
_chemical_formula_sum "Si O2"
_cell_formula_units_Z 60
_cell_length_a 12.642072
_cell_length_b 11.090853
_cell_length_c 21.411986
_cell_angle_alpha 90.000000
_cell_angle_beta 90.000000
_cell_angle_gamma 90.000000
_cell_volume 3002.203724
_symmetry_space_group_name_H-M "P B A M"
_symmetry_group_IT_number 55
_symmetry_cell_setting 'orthorhombic'
loop_
_space_group_symop_operation_xyz
x,y,z
-x,-y,z
1/2+x,1/2-y,-z
1/2-x,1/2+y,-z
-x,-y,-z
x,y,-z
1/2-x,1/2+y,z
1/2+x,1/2-y,z
loop_
_atom_site_type_symbol
_atom_site_label
_atom_site_fract_x
_atom_site_fract_y
_atom_site_fract_z
Si Si1 0.203009 0.416451 0.776599
Si Si2 0.528932 0.838221 0.426633
Si Si3 0.334128 0.950212 0.630534
Si Si4 0.684170 0.352688 0.170836
Si Si5 0.490581 0.641388 0.930064
Si Si6 0.396254 0.433937 0.573306
Si Si7 0.500000 0.000000 0.855611
Si Si8 0.641234 0.832893 0.069994
O O1 0.176465 0.426320 0.703620
O O2 0.216748 0.273194 0.793894
O O3 0.292981 0.520132 0.792386
O O4 0.098813 0.459329 0.814153
O O5 0.531860 0.871036 0.500000
O O6 0.408390 0.849049 0.402238
O O7 0.576776 0.706429 0.421167
O O8 0.601005 0.929125 0.386762
O O9 0.216329 0.959212 0.603728
O O10 0.572959 0.335284 0.134588
O O11 0.761535 0.363254 0.112160
O O12 0.500000 0.500000 0.933754
O O13 0.609083 0.693931 0.926589
O O14 0.449471 0.684793 0.000000
O O15 0.500000 0.500000 0.599888
O O16 0.387862 0.467043 0.500000
O O17 0.461480 0.104869 0.901011
O O18 0.659021 0.872325 0.000000
#
# Coordination Sequence:
#
# PCOD9426504 Si02
#       8
#     8   8   8   8   8   8   4   8
#     4  11  25  40  65  88 128 169 213 251 319 372
#     4  10  22  41  69  97 126 171 216 270 334 381
#     4  11  23  42  64  94 127 172 220 264 314 398
#     4  11  23  42  58  91 124 165 204 259 308 382
#     4  10  20  37  61  89 119 155 201 259 319 374
#     4  10  23  40  65 100 135 166 210 274 329 377
#     4  10  19  40  58  88 117 162 206 262 304 382
#     4  10  20  35  60  87 116 154 202 255 314 370
#
# _framework density 19.985319
#
# number of rings (size 3 to 8) (size 9 to 14) (size 15 to 20)
#    0.000    1.600    1.333    3.800    3.733    0.000 
#    0.000    3.333    0.000    0.000    0.000    0.000 
#    0.000    0.000    0.000    0.000    0.000    0.000 
#
# Total GULP energy -334286.509223 kJ/mol
# GULP energy per Si atom -5571.441820 kJ/mol
# Density = 1.993983 g / cm^3
# Si number density = 19.985319 Si / 1000 Ang^3
#
#
#
# Elastic Constant Matrix: (Units=GPa)
#
#
# Indices 1 2 3 4 5 6 
#
# 1 77.0664 4.7832 27.1256 0.0000 0.0000 0.0000
# 2 4.7832 62.3861 19.4937 0.0000 0.0000 0.0000
# 3 27.1256 19.4937 122.4984 0.0000 0.0000 0.0000
# 4 0.0000 0.0000 0.0000 13.1973 0.0000 0.0000
# 5 0.0000 0.0000 0.0000 0.0000 6.9108 0.0000
# 6 0.0000 0.0000 0.0000 0.0000 0.0000 23.0475
#
#
#
# Elastic Compliance Matrix: (Units=1/GPa)
#
#
# Indices 1 2 3 4 5 6 
#
# 1 0.014073 -0.000111 -0.003099 0.000000 0.000000 0.000000
# 2 -0.000111 0.016869 -0.002660 0.000000 0.000000 0.000000
# 3 -0.003099 -0.002660 0.009273 0.000000 0.000000 0.000000
# 4 0.000000 0.000000 0.000000 0.075773 0.000000 0.000000
# 5 0.000000 0.000000 0.000000 0.000000 0.144701 0.000000
# 6 0.000000 0.000000 0.000000 0.000000 0.000000 0.043389
#
#
# Mechanical properties :
#
#
# Convention : Reuss Voigt Hill
#
# Bulk Modulus (GPa) = 35.11695 40.52843 37.82269
# Shear Modulus (GPa) = 15.37002 22.66767 19.01885
#
# Velocity S-wave (km/s) = 2.77621 3.37147 3.08821
# Velocity P-wave (km/s) = 5.28072 5.95641 5.62871
#
# Compressibility (1/GPa) = 0.02847628
#
# Stress axis : x y z
#
# Youngs Moduli (GPa) = 71.05609 59.28092 107.84202
#
# Poissons Ratio (x) = 0.00657 0.33417
# Poissons Ratio (y) = 0.00787 0.28685
# Poissons Ratio (z) = 0.22018 0.15768
#
# Static dielectric constant tensor:
#      x y z
#    x 1.713820 0.000000 0.000000 
#    y 0.000000 1.794670 0.000000 
#    z 0.000000 0.000000 1.703120 
# 
# From -- ./inp_files/22864.got.cif
#   From: 2010.05.17/outbox.cif.g08.bks.cpg/sg55_12_cif.got.tgz:22864.got - 2010.06.03 13:27:54.
