data_PCOD9426449
_publ_section_title
;
Structure prediction by ZEFSAII (Michael W. Deem and Ramdas Pophale) SiO2 
 PCOD9426449
Probable space group: P B A M
;
_chemical_formula_sum "Si O2"
_cell_formula_units_Z 56
_cell_length_a 8.995786
_cell_length_b 14.585192
_cell_length_c 19.311759
_cell_angle_alpha 90.000000
_cell_angle_beta 90.000000
_cell_angle_gamma 90.000000
_cell_volume 2533.804477
_symmetry_space_group_name_H-M "P B A M"
_symmetry_group_IT_number 55
_symmetry_cell_setting 'orthorhombic'
loop_
_space_group_symop_operation_xyz
x,y,z
-x,-y,z
1/2+x,1/2-y,-z
1/2-x,1/2+y,-z
-x,-y,-z
x,y,-z
1/2-x,1/2+y,z
1/2+x,1/2-y,z
loop_
_atom_site_type_symbol
_atom_site_label
_atom_site_fract_x
_atom_site_fract_y
_atom_site_fract_z
Si Si1 0.666616 0.042006 0.848230
Si Si2 0.698989 0.366328 0.919636
Si Si3 0.993609 0.282736 0.136009
Si Si4 0.281915 0.660106 0.650740
Si Si5 0.953675 0.106282 0.573745
Si Si6 0.008099 0.304782 0.705108
Si Si7 0.252210 0.949854 0.696548
O O1 0.620878 0.140208 0.879282
O O2 0.764294 0.058044 0.779137
O O3 0.500000 0.000000 0.831626
O O4 0.753069 0.967283 0.893357
O O5 0.567252 0.315449 0.878076
O O6 0.849011 0.306464 0.908233
O O7 0.659098 0.368964 0.000000
O O8 0.948938 0.300631 0.216528
O O9 0.390181 0.657549 0.585466
O O10 0.372351 0.724282 0.702807
O O11 0.260201 0.556626 0.677702
O O12 0.119479 0.702263 0.647928
O O13 0.882292 0.132875 0.500000
O O14 0.857218 0.103062 0.644154
O O15 0.000000 0.000000 0.568267
O O16 0.090435 0.399646 0.688144
#
# Coordination Sequence:
#
# PCOD9426449 Si02
#       7
#     8   8   8   8   8   8   8
#     4   9  19  36  59  86 115 154 202 251 302 362
#     4  11  22  37  58  83 116 159 201 245 306 372
#     4  10  21  37  57  82 116 151 198 256 307 361
#     4  11  21  36  59  86 122 158 198 253 305 362
#     4   9  20  38  59  85 120 159 193 236 299 362
#     4  11  21  36  60  91 118 155 209 261 312 364
#     4  10  19  37  63  88 119 158 204 257 307 357
#
# _framework density 22.101151999999999
#
# number of rings (size 3 to 8) (size 9 to 14) (size 15 to 20)
#    0.000    1.857    0.000    6.000    0.000    4.286 
#    0.000    7.143    0.000    7.286    0.000    0.000 
#    0.000    0.000    0.000    0.000    0.000    0.000 
#
# Total GULP energy -312253.821019 kJ/mol
# GULP energy per Si atom -5575.961090 kJ/mol
# Density = 2.205085 g / cm^3
# Si number density = 22.101152 Si / 1000 Ang^3
#
#
#
# Elastic Constant Matrix: (Units=GPa)
#
#
# Indices 1 2 3 4 5 6 
#
# 1 61.0626 16.5963 30.8100 0.0000 0.0000 0.0000
# 2 16.5963 89.0880 -1.2066 0.0000 0.0000 0.0000
# 3 30.8100 -1.2066 58.9322 0.0000 0.0000 0.0000
# 4 0.0000 0.0000 0.0000 -18.8333 0.0000 0.0000
# 5 0.0000 0.0000 0.0000 0.0000 29.1926 0.0000
# 6 0.0000 0.0000 0.0000 0.0000 0.0000 33.0171
#
#
#
# Elastic Compliance Matrix: (Units=1/GPa)
#
#
# Indices 1 2 3 4 5 6 
#
# 1 0.024025 -0.004647 -0.012656 0.000000 0.000000 0.000000
# 2 -0.004647 0.012127 0.002678 0.000000 0.000000 0.000000
# 3 -0.012656 0.002678 0.023640 0.000000 0.000000 0.000000
# 4 0.000000 0.000000 0.000000 -0.053097 0.000000 0.000000
# 5 0.000000 0.000000 0.000000 0.000000 0.034255 0.000000
# 6 0.000000 0.000000 0.000000 0.000000 0.000000 0.030287
#
#
# Mechanical properties :
#
#
# Convention : Reuss Voigt Hill
#
# Bulk Modulus (GPa) = 32.74167 33.49803 33.11985
# Shear Modulus (GPa) = 45.18016 19.53414 32.35715
#
# Velocity S-wave (km/s) = 4.52624 2.97619 3.83044
# Velocity P-wave (km/s) = 6.49326 5.19614 5.88057
#
# Compressibility (1/GPa) = 0.03054212
#
# Stress axis : x y z
#
# Youngs Moduli (GPa) = 41.62274 82.46171 42.30124
#
# Poissons Ratio (x) = 0.38321 0.53535
# Poissons Ratio (y) = 0.19343 -0.11328
# Poissons Ratio (z) = 0.52677 -0.22082
#
# Static dielectric constant tensor:
#      x y z
#    x 1.818240 0.000000 0.000000 
#    y 0.000000 1.870470 0.000000 
#    z 0.000000 0.000000 1.807290 
# 
# From -- ./inp_files/22621.got.cif
#   From: 2010.05.17/outbox.cif.g08.bks.cpg/sg55_12_cif.got.tgz:22621.got - 2010.06.03 13:27:54.
