data_PCOD9426047
_publ_section_title
;
Structure prediction by ZEFSAII (Michael W. Deem and Ramdas Pophale) SiO2 
 PCOD9426047
Probable space group: P B A M
;
_chemical_formula_sum "Si O2"
_cell_formula_units_Z 64
_cell_length_a 29.378085
_cell_length_b 13.106380
_cell_length_c 7.446742
_cell_angle_alpha 90.000000
_cell_angle_beta 90.000000
_cell_angle_gamma 90.000000
_cell_volume 2867.296114
_symmetry_space_group_name_H-M "P B A M"
_symmetry_group_IT_number 55
_symmetry_cell_setting 'orthorhombic'
loop_
_space_group_symop_operation_xyz
x,y,z
-x,-y,z
1/2+x,1/2-y,-z
1/2-x,1/2+y,-z
-x,-y,-z
x,y,-z
1/2-x,1/2+y,z
1/2+x,1/2-y,z
loop_
_atom_site_type_symbol
_atom_site_label
_atom_site_fract_x
_atom_site_fract_y
_atom_site_fract_z
Si Si1 0.295295 0.430363 0.219563
Si Si2 0.805256 0.507257 0.780340
Si Si3 0.481066 0.894208 0.209489
Si Si4 0.432578 0.237586 0.293970
Si Si5 0.169488 0.712813 0.794025
Si Si6 0.881306 0.667327 0.780152
Si Si7 0.550343 0.528402 0.782552
Si Si8 0.364532 0.604911 0.781065
O O1 0.243032 0.445157 0.271336
O O2 0.315862 0.322372 0.283136
O O3 0.325186 0.527399 0.278282
O O4 0.297697 0.430373 0.000000
O O5 0.810610 0.391162 0.715117
O O6 0.847280 0.577807 0.724164
O O7 0.806347 0.504783 0.000000
O O8 0.521581 0.812430 0.219032
O O9 0.432979 0.853904 0.281775
O O10 0.500000 0.000000 0.288728
O O11 0.471520 0.915252 0.000000
O O12 0.429643 0.206682 0.500000
O O13 0.385211 0.204578 0.206170
O O14 0.436080 0.359219 0.278403
O O15 0.185619 0.715488 0.000000
O O16 0.863359 0.778191 0.721821
O O17 0.881495 0.669652 0.000000
O O18 0.500000 0.500000 0.721026
O O19 0.587643 0.445919 0.727463
O O20 0.550159 0.530735 0.000000
O O21 0.363227 0.605955 0.000000
#
# Coordination Sequence:
#
# PCOD9426047 Si02
#       8
#     8   8   8   8   8   8   8   8
#     4   9  17  28  47  77 108 140 175 224 281 329
#     4   9  18  29  49  81 112 142 176 226 285 331
#     4  10  20  36  58  80 107 146 190 235 283 337
#     4  12  24  36  54  81 114 149 187 236 284 335
#     4  10  19  35  56  79 112 148 188 230 276 341
#     4   9  17  29  47  76 109 139 177 222 274 333
#     4  10  19  34  56  80 107 144 187 229 281 339
#     4   9  16  27  45  72 107 140 172 216 270 328
#
# _framework density 22.320682000000001
#
# number of rings (size 3 to 8) (size 9 to 14) (size 15 to 20)
#    0.000    2.250    1.250    2.625    1.750    4.500 
#    0.000    0.000    0.000    0.750    0.000    0.000 
#    0.000    0.000    0.000    0.000    0.000    0.000 
#
# Total GULP energy -357633.749158 kJ/mol
# GULP energy per Si atom -5588.027331 kJ/mol
# Density = 2.226988 g / cm^3
# Si number density = 22.320682 Si / 1000 Ang^3
#
#
#
# Elastic Constant Matrix: (Units=GPa)
#
#
# Indices 1 2 3 4 5 6 
#
# 1 145.9742 80.0262 -0.3110 0.0000 0.0000 0.0000
# 2 80.0262 174.5721 3.3194 0.0000 0.0000 0.0000
# 3 -0.3110 3.3194 62.5267 0.0000 0.0000 0.0000
# 4 0.0000 0.0000 0.0000 32.6214 0.0000 0.0000
# 5 0.0000 0.0000 0.0000 0.0000 -16.1943 0.0000
# 6 0.0000 0.0000 0.0000 0.0000 0.0000 30.4204
#
#
#
# Elastic Compliance Matrix: (Units=1/GPa)
#
#
# Indices 1 2 3 4 5 6 
#
# 1 0.009155 -0.004202 0.000269 0.000000 0.000000 0.000000
# 2 -0.004202 0.007663 -0.000428 0.000000 0.000000 0.000000
# 3 0.000269 -0.000428 0.016017 0.000000 0.000000 0.000000
# 4 0.000000 0.000000 0.000000 0.030655 0.000000 0.000000
# 5 0.000000 0.000000 0.000000 0.000000 -0.061750 0.000000
# 6 0.000000 0.000000 0.000000 0.000000 0.000000 0.032873
#
#
# Mechanical properties :
#
#
# Convention : Reuss Voigt Hill
#
# Bulk Modulus (GPa) = 41.47182 61.01579 51.24380
# Shear Modulus (GPa) = 97.33127 29.37203 63.35165
#
# Velocity S-wave (km/s) = 6.61064 3.63148 5.33330
# Velocity P-wave (km/s) = 8.76856 6.70663 7.80598
#
# Compressibility (1/GPa) = 0.02411276
#
# Stress axis : x y z
#
# Youngs Moduli (GPa) = 109.23541 130.50524 62.43281
#
# Poissons Ratio (x) = 0.54834 -0.01677
# Poissons Ratio (y) = 0.45897 0.02670
# Poissons Ratio (z) = -0.02934 0.05582
#
# Static dielectric constant tensor:
#      x y z
#    x 1.773760 0.000000 0.000000 
#    y 0.000000 1.784410 0.000000 
#    z 0.000000 0.000000 1.851820 
# 
# From -- ./inp_files/10839.got.cif
#   From: 2010.05.17/outbox.cif.g08.bks.cpg/sg55_6_cif.got.tgz:10839.got - 2010.06.03 13:27:54.
