data_PCOD9426474
_publ_section_title
;
Structure prediction by ZEFSAII (Michael W. Deem and Ramdas Pophale) SiO2 
 PCOD9426474
Probable space group: P B A M
;
_chemical_formula_sum "Si O2"
_cell_formula_units_Z 60
_cell_length_a 12.469788
_cell_length_b 18.368599
_cell_length_c 13.051378
_cell_angle_alpha 90.000000
_cell_angle_beta 90.000000
_cell_angle_gamma 90.000000
_cell_volume 2989.451221
_symmetry_space_group_name_H-M "P B A M"
_symmetry_group_IT_number 55
_symmetry_cell_setting 'orthorhombic'
loop_
_space_group_symop_operation_xyz
x,y,z
-x,-y,z
1/2+x,1/2-y,-z
1/2-x,1/2+y,-z
-x,-y,-z
x,y,-z
1/2-x,1/2+y,z
1/2+x,1/2-y,z
loop_
_atom_site_type_symbol
_atom_site_label
_atom_site_fract_x
_atom_site_fract_y
_atom_site_fract_z
Si Si1 0.000000 0.000000 0.280391
Si Si2 0.804607 0.366848 0.791122
Si Si3 0.169923 0.935820 0.881356
Si Si4 0.581480 0.347430 0.312078
Si Si5 0.616372 0.002353 0.884810
Si Si6 0.667846 0.196093 0.616784
Si Si7 0.529518 0.914098 0.618169
Si Si8 0.359304 0.295173 0.218721
O O1 0.091148 0.971978 0.201138
O O2 0.956983 0.929466 0.343292
O O3 0.678908 0.362998 0.766541
O O4 0.834043 0.422463 0.879920
O O5 0.870808 0.396191 0.692174
O O6 0.847027 0.287313 0.813765
O O7 0.153396 0.850213 0.874548
O O8 0.289904 0.949527 0.839952
O O9 0.158858 0.961422 0.000000
O O10 0.627656 0.280730 0.379988
O O11 0.475543 0.311759 0.264455
O O12 0.500000 0.000000 0.835653
O O13 0.600727 0.029747 0.000000
O O14 0.701145 0.179127 0.500000
O O15 0.571099 0.139678 0.643417
O O16 0.767185 0.190702 0.695316
O O17 0.558700 0.896940 0.500000
O O18 0.500000 0.000000 0.620551
#
# Coordination Sequence:
#
# PCOD9426474 Si02
#       8
#     4   8   8   8   8   8   8   8
#     4  10  19  38  63  86 120 158 215 254 305 366
#     4  11  21  37  61  83 121 159 192 249 305 354
#     4  10  21  38  60  87 120 161 204 252 307 364
#     4  10  21  38  57  91 118 160 205 250 301 364
#     4  10  22  37  58  88 119 156 199 245 302 358
#     4  10  22  40  60  86 123 164 203 249 312 370
#     4  10  22  38  61  89 113 151 206 247 294 365
#     4  10  23  37  59  87 121 158 205 247 303 359
#
# _framework density 20.070573
#
# number of rings (size 3 to 8) (size 9 to 14) (size 15 to 20)
#    0.000    1.867    2.667    0.600    3.733    3.200 
#    0.000    0.333    0.000    1.600    0.000    0.000 
#    0.000    0.000    0.000    0.000    0.000    0.000 
#
# Total GULP energy -334218.599516 kJ/mol
# GULP energy per Si atom -5570.309992 kJ/mol
# Density = 2.002489 g / cm^3
# Si number density = 20.070573 Si / 1000 Ang^3
#
#
#
# Elastic Constant Matrix: (Units=GPa)
#
#
# Indices 1 2 3 4 5 6 
#
# 1 106.2215 11.7507 17.6178 0.0000 0.0000 0.0000
# 2 11.7507 105.2589 -8.3054 0.0000 0.0000 0.0000
# 3 17.6178 -8.3054 53.5382 0.0000 0.0000 0.0000
# 4 0.0000 0.0000 0.0000 19.5535 0.0000 0.0000
# 5 0.0000 0.0000 0.0000 0.0000 20.2264 0.0000
# 6 0.0000 0.0000 0.0000 0.0000 0.0000 32.0942
#
#
#
# Elastic Compliance Matrix: (Units=1/GPa)
#
#
# Indices 1 2 3 4 5 6 
#
# 1 0.010162 -0.001416 -0.003564 0.000000 0.000000 0.000000
# 2 -0.001416 0.009815 0.001989 0.000000 0.000000 0.000000
# 3 -0.003564 0.001989 0.020159 0.000000 0.000000 0.000000
# 4 0.000000 0.000000 0.000000 0.051142 0.000000 0.000000
# 5 0.000000 0.000000 0.000000 0.000000 0.049440 0.000000
# 6 0.000000 0.000000 0.000000 0.000000 0.000000 0.031158
#
#
# Mechanical properties :
#
#
# Convention : Reuss Voigt Hill
#
# Bulk Modulus (GPa) = 29.27809 34.12719 31.70264
# Shear Modulus (GPa) = 26.42099 30.63852 28.52976
#
# Velocity S-wave (km/s) = 3.63216 3.91133 3.77433
# Velocity P-wave (km/s) = 5.67533 6.11871 5.90118
#
# Compressibility (1/GPa) = 0.03415523
#
# Stress axis : x y z
#
# Youngs Moduli (GPa) = 98.40636 101.88149 49.60466
#
# Poissons Ratio (x) = 0.14423 0.17677
# Poissons Ratio (y) = 0.13931 -0.09864
# Poissons Ratio (z) = 0.35068 -0.20259
#
# Static dielectric constant tensor:
#      x y z
#    x 1.709660 0.000000 0.000000 
#    y 0.000000 1.732740 0.000000 
#    z 0.000000 0.000000 1.690050 
# 
# From -- ./inp_files/18534.got.cif
#   From: 2010.05.17/outbox.cif.g08.bks.cpg/sg55_10_cif.got.tgz:18534.got - 2010.06.03 13:27:54.
