data_PCOD9426867
_publ_section_title
;
Structure prediction by ZEFSAII (Michael W. Deem and Ramdas Pophale) SiO2 
 PCOD9426867
Probable space group: P B A M
;
_chemical_formula_sum "Si O2"
_cell_formula_units_Z 64
_cell_length_a 25.115874
_cell_length_b 14.438214
_cell_length_c 7.493150
_cell_angle_alpha 90.000000
_cell_angle_beta 90.000000
_cell_angle_gamma 90.000000
_cell_volume 2717.228723
_symmetry_space_group_name_H-M "P B A M"
_symmetry_group_IT_number 55
_symmetry_cell_setting 'orthorhombic'
loop_
_space_group_symop_operation_xyz
x,y,z
-x,-y,z
1/2+x,1/2-y,-z
1/2-x,1/2+y,-z
-x,-y,-z
x,y,-z
1/2-x,1/2+y,z
1/2+x,1/2-y,z
loop_
_atom_site_type_symbol
_atom_site_label
_atom_site_fract_x
_atom_site_fract_y
_atom_site_fract_z
Si Si1 0.672945 0.008242 0.716540
Si Si2 0.299647 0.793754 0.791587
Si Si3 0.084702 0.244286 0.208681
Si Si4 0.807835 0.300990 0.294554
Si Si5 0.970093 0.284644 0.215387
Si Si6 0.057808 0.516560 0.292543
Si Si7 0.940963 0.968123 0.716845
Si Si8 0.615760 0.643500 0.704827
O O1 0.672978 0.008193 0.500000
O O2 0.707595 0.095700 0.773686
O O3 0.689011 0.905408 0.779191
O O4 0.612055 0.025284 0.781234
O O5 0.357926 0.769576 0.713956
O O6 0.251946 0.736667 0.707565
O O7 0.299464 0.769242 0.000000
O O8 0.073122 0.135119 0.225110
O O9 0.031033 0.292455 0.280144
O O10 0.086790 0.268895 0.000000
O O11 0.826192 0.309495 0.500000
O O12 0.844249 0.219065 0.211869
O O13 0.936771 0.372711 0.278683
O O14 0.941548 0.194252 0.290229
O O15 0.969487 0.280152 0.000000
O O16 0.054877 0.489763 0.500000
O O17 0.000000 0.500000 0.207297
O O18 0.941004 0.970055 0.500000
O O19 0.896891 0.042518 0.780897
O O20 0.000000 0.000000 0.775862
O O21 0.633389 0.629454 0.500000
#
# Coordination Sequence:
#
# PCOD9426867 Si02
#       8
#     8   8   8   8   8   8   8   8
#     4  10  21  40  65  91 119 156 199 246 303 357
#     4  11  25  43  62  88 124 161 203 251 298 353
#     4  10  23  40  56  82 124 166 198 242 302 360
#     4  10  22  42  66  88 118 157 202 253 301 355
#     4  11  21  33  55  85 118 156 195 237 296 361
#     4  10  20  35  58  88 120 156 197 243 297 357
#     4  10  20  34  59  90 118 155 202 250 298 354
#     4  10  20  38  60  86 119 151 194 249 300 353
#
# _framework density 23.553408999999998
#
# number of rings (size 3 to 8) (size 9 to 14) (size 15 to 20)
#    0.000    1.750    2.500    1.500    0.000    5.000 
#    0.000    3.750    0.000    0.000    0.000    0.000 
#    0.000    0.000    0.000    0.000    0.000    0.000 
#
# Total GULP energy -357641.328478 kJ/mol
# GULP energy per Si atom -5588.145757 kJ/mol
# Density = 2.349980 g / cm^3
# Si number density = 23.553409 Si / 1000 Ang^3
#
#
#
# Elastic Constant Matrix: (Units=GPa)
#
#
# Indices 1 2 3 4 5 6 
#
# 1 103.1838 31.2405 -2.8407 0.0000 0.0000 0.0000
# 2 31.2405 111.8492 -7.4377 0.0000 0.0000 0.0000
# 3 -2.8407 -7.4377 79.3728 0.0000 0.0000 0.0000
# 4 0.0000 0.0000 0.0000 26.5223 0.0000 0.0000
# 5 0.0000 0.0000 0.0000 0.0000 10.9685 0.0000
# 6 0.0000 0.0000 0.0000 0.0000 0.0000 39.8199
#
#
#
# Elastic Compliance Matrix: (Units=1/GPa)
#
#
# Indices 1 2 3 4 5 6 
#
# 1 0.010588 -0.002950 0.000102 0.000000 0.000000 0.000000
# 2 -0.002950 0.009819 0.000814 0.000000 0.000000 0.000000
# 3 0.000102 0.000814 0.012679 0.000000 0.000000 0.000000
# 4 0.000000 0.000000 0.000000 0.037704 0.000000 0.000000
# 5 0.000000 0.000000 0.000000 0.000000 0.091170 0.000000
# 6 0.000000 0.000000 0.000000 0.000000 0.000000 0.025113
#
#
# Mechanical properties :
#
#
# Convention : Reuss Voigt Hill
#
# Bulk Modulus (GPa) = 34.46106 37.37000 35.91553
# Shear Modulus (GPa) = 24.89892 33.69174 29.29533
#
# Velocity S-wave (km/s) = 3.25487 3.78622 3.53056
# Velocity P-wave (km/s) = 5.36548 5.91730 5.64813
#
# Compressibility (1/GPa) = 0.02901826
#
# Stress axis : x y z
#
# Youngs Moduli (GPa) = 94.45068 101.84503 78.87207
#
# Poissons Ratio (x) = 0.30048 -0.00808
# Poissons Ratio (y) = 0.27867 -0.06424
# Poissons Ratio (z) = -0.00968 -0.08295
#
# Static dielectric constant tensor:
#      x y z
#    x 1.904640 0.000000 0.000000 
#    y 0.000000 1.891720 0.000000 
#    z 0.000000 0.000000 1.941510 
# 
# From -- ./inp_files/9809.got.cif
#   From: 2010.05.17/outbox.cif.g08.bks.cpg/sg55_5_cif.got.tgz:9809.got - 2010.06.03 13:27:54.
