data_PCOD9426304
_publ_section_title
;
Structure prediction by ZEFSAII (Michael W. Deem and Ramdas Pophale) SiO2 
 PCOD9426304
Probable space group: P B A M
;
_chemical_formula_sum "Si O2"
_cell_formula_units_Z 40
_cell_length_a 12.741995
_cell_length_b 5.330442
_cell_length_c 24.722400
_cell_angle_alpha 90.000000
_cell_angle_beta 90.000000
_cell_angle_gamma 90.000000
_cell_volume 1679.156912
_symmetry_space_group_name_H-M "P B A M"
_symmetry_group_IT_number 55
_symmetry_cell_setting 'orthorhombic'
loop_
_space_group_symop_operation_xyz
x,y,z
-x,-y,z
1/2+x,1/2-y,-z
1/2-x,1/2+y,-z
-x,-y,-z
x,y,-z
1/2-x,1/2+y,z
1/2+x,1/2-y,z
loop_
_atom_site_type_symbol
_atom_site_label
_atom_site_fract_x
_atom_site_fract_y
_atom_site_fract_z
Si Si1 0.881339 0.638590 0.062015
Si Si2 0.181698 0.655607 0.327343
Si Si3 0.145305 0.861696 0.895396
Si Si4 0.178982 0.753012 0.441543
Si Si5 0.067367 0.745487 0.785122
O O1 0.756423 0.601841 0.075410
O O2 0.917018 0.353779 0.072281
O O3 0.905718 0.865580 0.101929
O O4 0.894015 0.713891 0.000000
O O5 0.228591 0.373753 0.326825
O O6 0.377827 0.208372 0.384310
O O7 0.116329 0.698129 0.273443
O O8 0.151786 0.777148 0.833293
O O9 0.123326 0.731457 0.500000
O O10 0.234453 0.026841 0.440789
O O11 0.000000 0.500000 0.799120
O O12 0.000000 0.000000 0.783044
#
# Coordination Sequence:
#
# PCOD9426304 Si02
#       5
#     8   8   8   8   8
#     4  10  19  35  62  90 107 131 182 244 280 321
#     4  10  21  36  62  87 112 150 205 245 272 337
#     4  10  20  33  57  80 110 142 182 221 276 341
#     4   8  14  27  49  82 114 140 178 241 298 325
#     4  12  26  41  56  81 125 161 185 233 296 342
#
# _framework density 23.821479
#
# number of rings (size 3 to 8) (size 9 to 14) (size 15 to 20)
#    0.000    2.000    0.000    5.400    5.600    0.000 
#    0.000    0.000    0.000   21.600    0.000    0.000 
#    0.000    0.000    0.000    0.000    0.000    0.000 
#
# Total GULP energy -223367.496822 kJ/mol
# GULP energy per Si atom -5584.187421 kJ/mol
# Density = 2.376726 g / cm^3
# Si number density = 23.821479 Si / 1000 Ang^3
#
#
#
# Elastic Constant Matrix: (Units=GPa)
#
#
# Indices 1 2 3 4 5 6 
#
# 1 6.8922 8.2199 -2.5574 0.0000 0.0000 0.0000
# 2 8.2199 160.3780 -4.5972 0.0000 0.0000 0.0000
# 3 -2.5574 -4.5972 195.4040 0.0000 0.0000 0.0000
# 4 0.0000 0.0000 0.0000 36.1853 0.0000 0.0000
# 5 0.0000 0.0000 0.0000 0.0000 12.4493 0.0000
# 6 0.0000 0.0000 0.0000 0.0000 0.0000 26.9413
#
#
#
# Elastic Compliance Matrix: (Units=1/GPa)
#
#
# Indices 1 2 3 4 5 6 
#
# 1 0.155199 -0.007902 0.001845 0.000000 0.000000 0.000000
# 2 -0.007902 0.006642 0.000053 0.000000 0.000000 0.000000
# 3 0.001845 0.000053 0.005143 0.000000 0.000000 0.000000
# 4 0.000000 0.000000 0.000000 0.027635 0.000000 0.000000
# 5 0.000000 0.000000 0.000000 0.000000 0.080326 0.000000
# 6 0.000000 0.000000 0.000000 0.000000 0.000000 0.037118
#
#
# Mechanical properties :
#
#
# Convention : Reuss Voigt Hill
#
# Bulk Modulus (GPa) = 6.45256 40.53388 23.49322
# Shear Modulus (GPa) = 13.30744 39.22243 26.26494
#
# Velocity S-wave (km/s) = 2.36610 4.06213 3.32410
# Velocity P-wave (km/s) = 3.19048 6.24931 4.96150
#
# Compressibility (1/GPa) = 0.15497727
#
# Stress axis : x y z
#
# Youngs Moduli (GPa) = 6.44332 150.56227 194.43917
#
# Poissons Ratio (x) = 1.18969 -0.35880
# Poissons Ratio (y) = 0.05091 -0.01028
# Poissons Ratio (z) = -0.01189 -0.00796
#
# Static dielectric constant tensor:
#      x y z
#    x 1.497500 0.000000 0.000000 
#    y 0.000000 1.937370 0.000000 
#    z 0.000000 0.000000 1.883390 
# 
# From -- ./inp_files/23576.got.cif
#   From: 2010.05.17/outbox.cif.g08.bks.cpg/sg55_12_cif.got.tgz:23576.got - 2010.06.03 13:27:54.
