data_PCOD9426393
_publ_section_title
;
Structure prediction by ZEFSAII (Michael W. Deem and Ramdas Pophale) SiO2 
 PCOD9426393
Probable space group: P B A M
;
_chemical_formula_sum "Si O2"
_cell_formula_units_Z 64
_cell_length_a 31.496453
_cell_length_b 12.283213
_cell_length_c 7.538254
_cell_angle_alpha 90.000000
_cell_angle_beta 90.000000
_cell_angle_gamma 90.000000
_cell_volume 2916.381924
_symmetry_space_group_name_H-M "P B A M"
_symmetry_group_IT_number 55
_symmetry_cell_setting 'orthorhombic'
loop_
_space_group_symop_operation_xyz
x,y,z
-x,-y,z
1/2+x,1/2-y,-z
1/2-x,1/2+y,-z
-x,-y,-z
x,y,-z
1/2-x,1/2+y,z
1/2+x,1/2-y,z
loop_
_atom_site_type_symbol
_atom_site_label
_atom_site_fract_x
_atom_site_fract_y
_atom_site_fract_z
Si Si1 0.190635 0.773130 0.299909
Si Si2 0.548839 0.214411 0.216104
Si Si3 0.667010 0.971673 0.785590
Si Si4 0.211467 0.310636 0.786504
Si Si5 0.068943 0.522096 0.784460
Si Si6 0.457711 0.263390 0.217383
Si Si7 0.634321 0.337995 0.782468
Si Si8 0.884716 0.078736 0.798079
O O1 0.182760 0.807229 0.500000
O O2 0.181106 0.645904 0.278546
O O3 0.239764 0.791229 0.257460
O O4 0.156521 0.844055 0.194347
O O5 0.506683 0.279616 0.268727
O O6 0.593210 0.267597 0.271219
O O7 0.545669 0.088119 0.273565
O O8 0.549509 0.213153 0.000000
O O9 0.618251 0.991993 0.737268
O O10 0.695676 0.071464 0.722927
O O11 0.668824 0.968592 0.000000
O O12 0.177974 0.219411 0.723619
O O13 0.208458 0.311705 0.000000
O O14 0.054537 0.641030 0.724309
O O15 0.065589 0.524207 0.000000
O O16 0.423415 0.351237 0.281531
O O17 0.455486 0.263139 0.000000
O O18 0.627811 0.461820 0.720732
O O19 0.635723 0.337627 0.000000
O O20 0.898331 0.054162 0.000000
#
# Coordination Sequence:
#
# PCOD9426393 Si02
#       8
#     8   8   8   8   8   8   8   8
#     4  12  26  40  56  81 113 145 182 234 284 333
#     4   9  15  25  44  79 117 144 173 222 281 323
#     4  10  19  36  62  84 109 143 184 229 274 330
#     4  10  21  38  60  84 108 144 187 230 276 330
#     4   9  14  25  46  76 113 144 175 217 268 324
#     4   9  16  25  45  77 114 148 178 219 272 325
#     4   9  18  32  52  79 112 145 182 225 272 325
#     4  10  20  36  55  79 111 149 190 227 268 328
#
# _framework density 21.944997999999998
#
# number of rings (size 3 to 8) (size 9 to 14) (size 15 to 20)
#    0.000    2.250    2.500    1.500    1.750    2.500 
#    0.000    2.500    0.000    0.000    0.000    4.375 
#    0.000    0.000    0.000    0.000    0.000    0.000 
#
# Total GULP energy -357426.504161 kJ/mol
# GULP energy per Si atom -5584.789128 kJ/mol
# Density = 2.189505 g / cm^3
# Si number density = 21.944998 Si / 1000 Ang^3
#
#
#
# Elastic Constant Matrix: (Units=GPa)
#
#
# Indices 1 2 3 4 5 6 
#
# 1 63.2415 -10.0034 -5.2296 0.0000 0.0000 0.0000
# 2 -10.0034 78.5969 -5.4810 0.0000 0.0000 0.0000
# 3 -5.2296 -5.4810 53.1997 0.0000 0.0000 0.0000
# 4 0.0000 0.0000 0.0000 -61.5622 0.0000 0.0000
# 5 0.0000 0.0000 0.0000 0.0000 -49.2220 0.0000
# 6 0.0000 0.0000 0.0000 0.0000 0.0000 -23.2926
#
#
#
# Elastic Compliance Matrix: (Units=1/GPa)
#
#
# Indices 1 2 3 4 5 6 
#
# 1 0.016312 0.002204 0.001831 0.000000 0.000000 0.000000
# 2 0.002204 0.013113 0.001568 0.000000 0.000000 0.000000
# 3 0.001831 0.001568 0.019139 0.000000 0.000000 0.000000
# 4 0.000000 0.000000 0.000000 -0.016244 0.000000 0.000000
# 5 0.000000 0.000000 0.000000 0.000000 -0.020316 0.000000
# 6 0.000000 0.000000 0.000000 0.000000 0.000000 -0.042932
#
#
# Mechanical properties :
#
#
# Convention : Reuss Voigt Hill
#
# Bulk Modulus (GPa) = 16.73141 17.06781 16.89961
# Shear Modulus (GPa) = -225.13049 -12.43191 -118.78120
#
# Velocity S-wave (km/s) = -10.13959 -2.38271 -7.36507
# Velocity P-wave (km/s) = 11.37721 0.47397 8.03792
#
# Compressibility (1/GPa) = 0.05976783
#
# Stress axis : x y z
#
# Youngs Moduli (GPa) = 61.30317 76.26043 52.25060
#
# Poissons Ratio (x) = -0.16806 -0.09565
# Poissons Ratio (y) = -0.13510 -0.08191
# Poissons Ratio (z) = -0.11222 -0.11955
#
# Static dielectric constant tensor:
#      x y z
#    x 1.782240 0.000000 0.000000 
#    y 0.000000 1.770000 0.000000 
#    z 0.000000 0.000000 1.844630 
# 
# From -- ./inp_files/10856.got.cif
#   From: 2010.05.17/outbox.cif.g08.bks.cpg/sg55_6_cif.got.tgz:10856.got - 2010.06.03 13:27:54.
