data_PCOD9426298
_publ_section_title
;
Structure prediction by ZEFSAII (Michael W. Deem and Ramdas Pophale) SiO2 
 PCOD9426298
Probable space group: P B A M
;
_chemical_formula_sum "Si O2"
_cell_formula_units_Z 48
_cell_length_a 27.271194
_cell_length_b 5.713424
_cell_length_c 14.170429
_cell_angle_alpha 90.000000
_cell_angle_beta 90.000000
_cell_angle_gamma 90.000000
_cell_volume 2207.921386
_symmetry_space_group_name_H-M "P B A M"
_symmetry_group_IT_number 55
_symmetry_cell_setting 'orthorhombic'
loop_
_space_group_symop_operation_xyz
x,y,z
-x,-y,z
1/2+x,1/2-y,-z
1/2-x,1/2+y,-z
-x,-y,-z
x,y,-z
1/2-x,1/2+y,z
1/2+x,1/2-y,z
loop_
_atom_site_type_symbol
_atom_site_label
_atom_site_fract_x
_atom_site_fract_y
_atom_site_fract_z
Si Si1 0.946203 0.567260 0.211021
Si Si2 0.735681 0.712694 0.349539
Si Si3 0.630568 0.351181 0.894138
Si Si4 0.628976 0.679511 0.277799
Si Si5 0.052713 0.126476 0.606644
Si Si6 0.271619 0.855986 0.136478
O O1 0.921255 0.751044 0.140476
O O2 0.907568 0.361913 0.228891
O O3 0.951839 0.674640 0.315334
O O4 0.000000 0.500000 0.177048
O O5 0.741896 0.451028 0.393251
O O6 0.678195 0.761633 0.329443
O O7 0.762747 0.667171 0.248865
O O8 0.646766 0.523652 0.810556
O O9 0.671408 0.148915 0.889722
O O10 0.628771 0.447551 0.000000
O O11 0.595708 0.537979 0.352504
O O12 0.063516 0.205032 0.500000
O O13 0.000000 0.000000 0.605732
O O14 0.250500 0.603392 0.102944
#
# Coordination Sequence:
#
# PCOD9426298 Si02
#       6
#     8   8   8   8   8   8
#     4  11  23  41  64  92 125 169 214 269 333 402
#     4  10  19  35  61  92 125 173 218 269 324 393
#     4  11  25  39  58  89 128 174 226 273 320 387
#     4  11  22  40  65  90 130 170 214 263 336 397
#     4  10  22  41  67 102 130 156 204 271 340 404
#     4  10  19  37  58  90 125 168 216 282 333 384
#
# _framework density 21.739905
#
# number of rings (size 3 to 8) (size 9 to 14) (size 15 to 20)
#    0.000    1.500    5.000    2.000    2.333    2.667 
#    0.000    0.833    0.000    1.000    0.000    0.000 
#    0.000    0.000    0.000    0.000    0.000    0.000 
#
# Total GULP energy -267820.507136 kJ/mol
# GULP energy per Si atom -5579.593899 kJ/mol
# Density = 2.169042 g / cm^3
# Si number density = 21.739905 Si / 1000 Ang^3
#
#
#
# Elastic Constant Matrix: (Units=GPa)
#
#
# Indices 1 2 3 4 5 6 
#
# 1 112.5672 26.9367 13.1895 0.0000 0.0000 0.0000
# 2 26.9367 99.7794 -3.0769 0.0000 0.0000 0.0000
# 3 13.1895 -3.0769 102.5680 0.0000 0.0000 0.0000
# 4 0.0000 0.0000 0.0000 -21.7401 0.0000 0.0000
# 5 0.0000 0.0000 0.0000 0.0000 -9.6206 0.0000
# 6 0.0000 0.0000 0.0000 0.0000 0.0000 42.5757
#
#
#
# Elastic Compliance Matrix: (Units=1/GPa)
#
#
# Indices 1 2 3 4 5 6 
#
# 1 0.009673 -0.002652 -0.001323 0.000000 0.000000 0.000000
# 2 -0.002652 0.010759 0.000664 0.000000 0.000000 0.000000
# 3 -0.001323 0.000664 0.009940 0.000000 0.000000 0.000000
# 4 0.000000 0.000000 0.000000 -0.045998 0.000000 0.000000
# 5 0.000000 0.000000 0.000000 0.000000 -0.103943 0.000000
# 6 0.000000 0.000000 0.000000 0.000000 0.000000 0.023488
#
#
# Mechanical properties :
#
#
# Convention : Reuss Voigt Hill
#
# Bulk Modulus (GPa) = 42.10919 43.22370 42.66645
# Shear Modulus (GPa) = -61.31795 20.76733 -20.27531
#
# Velocity S-wave (km/s) = -5.31662 3.09409 -3.05721
# Velocity P-wave (km/s) = 4.27517 5.71750 2.68447
#
# Compressibility (1/GPa) = 0.02374778
#
# Stress axis : x y z
#
# Youngs Moduli (GPa) = 103.37714 92.94905 100.60627
#
# Poissons Ratio (x) = 0.24652 0.13315
# Poissons Ratio (y) = 0.27418 -0.06678
# Poissons Ratio (z) = 0.13682 -0.06170
#
# Static dielectric constant tensor:
#      x y z
#    x 3.849660 0.000000 0.000000 
#    y 0.000000 1.957230 0.000000 
#    z 0.000000 0.000000 1.725990 
# 
# From -- ./inp_files/20053.got.cif
#   From: 2010.05.17/outbox.cif.g08.bks.cpg/sg55_11_cif.got.tgz:20053.got - 2010.06.03 13:27:54.
