data_PCOD9426954
_publ_section_title
;
Structure prediction by ZEFSAII (Michael W. Deem and Ramdas Pophale) SiO2 
 PCOD9426954
Probable space group: P B A M
;
_chemical_formula_sum "Si O2"
_cell_formula_units_Z 64
_cell_length_a 15.690229
_cell_length_b 24.520841
_cell_length_c 7.633017
_cell_angle_alpha 90.000000
_cell_angle_beta 90.000000
_cell_angle_gamma 90.000000
_cell_volume 2936.708722
_symmetry_space_group_name_H-M "P B A M"
_symmetry_group_IT_number 55
_symmetry_cell_setting 'orthorhombic'
loop_
_space_group_symop_operation_xyz
x,y,z
-x,-y,z
1/2+x,1/2-y,-z
1/2-x,1/2+y,-z
-x,-y,-z
x,y,-z
1/2-x,1/2+y,z
1/2+x,1/2-y,z
loop_
_atom_site_type_symbol
_atom_site_label
_atom_site_fract_x
_atom_site_fract_y
_atom_site_fract_z
Si Si1 0.363239 0.875374 0.792008
Si Si2 0.009152 0.833893 0.289576
Si Si3 0.250382 0.075367 0.708836
Si Si4 0.695205 0.807544 0.705336
Si Si5 0.063484 0.048997 0.714479
Si Si6 0.501433 0.212090 0.208996
Si Si7 0.402684 0.994459 0.211860
Si Si8 0.699614 0.689390 0.711564
O O1 0.430720 0.831498 0.721882
O O2 0.372528 0.935849 0.721503
O O3 0.269626 0.853543 0.761834
O O4 0.379152 0.878473 0.000000
O O5 0.009790 0.837481 0.500000
O O6 0.106366 0.827880 0.225345
O O7 0.968154 0.890564 0.229053
O O8 0.970800 0.774370 0.247653
O O9 0.239510 0.080658 0.500000
O O10 0.267457 0.136479 0.780803
O O11 0.162877 0.046744 0.771595
O O12 0.335367 0.040447 0.737435
O O13 0.717845 0.807966 0.500000
O O14 0.592300 0.802514 0.718239
O O15 0.724910 0.749437 0.779840
O O16 0.061650 0.047295 0.500000
O O17 0.000000 0.000000 0.771920
O O18 0.494327 0.207402 0.000000
O O19 0.500000 0.000000 0.271586
O O20 0.403981 0.994992 0.000000
O O21 0.694731 0.692712 0.500000
#
# Coordination Sequence:
#
# PCOD9426954 Si02
#       8
#     8   8   8   8   8   8   8   8
#     4  10  22  36  53  79 110 144 185 226 271 331
#     4   9  19  36  58  82 110 145 183 225 278 333
#     4  10  21  36  60  89 115 145 190 240 279 328
#     4   9  19  36  55  82 113 141 179 226 279 331
#     4   9  19  35  58  84 112 148 188 231 281 338
#     4  10  20  35  56  82 110 146 185 225 274 334
#     4  10  22  41  60  79 111 155 192 226 280 342
#     4   9  19  33  54  82 109 141 179 222 274 332
#
# _framework density 21.793105000000001
#
# number of rings (size 3 to 8) (size 9 to 14) (size 15 to 20)
#    0.000    2.500    0.000    1.875    3.500    5.250 
#    0.000    0.625    0.000    0.750    0.000    0.000 
#    0.000    0.000    0.000    0.000    0.000    0.000 
#
# Total GULP energy -357169.534913 kJ/mol
# GULP energy per Si atom -5580.773983 kJ/mol
# Density = 2.174350 g / cm^3
# Si number density = 21.793105 Si / 1000 Ang^3
#
#
#
# Elastic Constant Matrix: (Units=GPa)
#
#
# Indices 1 2 3 4 5 6 
#
# 1 82.5411 56.3395 -0.1892 0.0000 0.0000 0.0000
# 2 56.3395 132.4379 4.6971 0.0000 0.0000 0.0000
# 3 -0.1892 4.6971 41.4746 0.0000 0.0000 0.0000
# 4 0.0000 0.0000 0.0000 11.5484 0.0000 0.0000
# 5 0.0000 0.0000 0.0000 0.0000 8.5085 0.0000
# 6 0.0000 0.0000 0.0000 0.0000 0.0000 35.1493
#
#
#
# Elastic Compliance Matrix: (Units=1/GPa)
#
#
# Indices 1 2 3 4 5 6 
#
# 1 0.017106 -0.007309 0.000906 0.000000 0.000000 0.000000
# 2 -0.007309 0.010704 -0.001246 0.000000 0.000000 0.000000
# 3 0.000906 -0.001246 0.024256 0.000000 0.000000 0.000000
# 4 0.000000 0.000000 0.000000 0.086592 0.000000 0.000000
# 5 0.000000 0.000000 0.000000 0.000000 0.117530 0.000000
# 6 0.000000 0.000000 0.000000 0.000000 0.000000 0.028450
#
#
# Mechanical properties :
#
#
# Convention : Reuss Voigt Hill
#
# Bulk Modulus (GPa) = 27.19692 42.01648 34.60670
# Shear Modulus (GPa) = 16.01572 24.08164 20.04868
#
# Velocity S-wave (km/s) = 2.71384 3.32778 3.03637
# Velocity P-wave (km/s) = 4.72510 5.83841 5.31101
#
# Compressibility (1/GPa) = 0.03676886
#
# Stress axis : x y z
#
# Youngs Moduli (GPa) = 58.45829 93.42107 41.22630
#
# Poissons Ratio (x) = 0.68283 -0.03734
# Poissons Ratio (y) = 0.42728 0.05135
# Poissons Ratio (z) = -0.05295 0.11637
#
# Static dielectric constant tensor:
#      x y z
#    x 1.761510 0.000000 0.000000 
#    y 0.000000 1.795040 0.000000 
#    z 0.000000 0.000000 1.821430 
# 
# From -- ./inp_files/6612.got.cif
#   From: 2010.05.17/outbox.cif.g08.bks.cpg/sg55_4_cif.got.tgz:6612.got - 2010.06.03 13:27:54.
