data_PCOD9426225
_publ_section_title
;
Structure prediction by ZEFSAII (Michael W. Deem and Ramdas Pophale) SiO2 
 PCOD9426225
Probable space group: P B A M
;
_chemical_formula_sum "Si O2"
_cell_formula_units_Z 48
_cell_length_a 30.103407
_cell_length_b 10.439935
_cell_length_c 8.596005
_cell_angle_alpha 90.000000
_cell_angle_beta 90.000000
_cell_angle_gamma 90.000000
_cell_volume 2701.531927
_symmetry_space_group_name_H-M "P B A M"
_symmetry_group_IT_number 55
_symmetry_cell_setting 'orthorhombic'
loop_
_space_group_symop_operation_xyz
x,y,z
-x,-y,z
1/2+x,1/2-y,-z
1/2-x,1/2+y,-z
-x,-y,-z
x,y,-z
1/2-x,1/2+y,z
1/2+x,1/2-y,z
loop_
_atom_site_type_symbol
_atom_site_label
_atom_site_fract_x
_atom_site_fract_y
_atom_site_fract_z
Si Si1 0.887323 0.272436 0.313358
Si Si2 0.383750 0.513222 0.814960
Si Si3 0.976948 0.367032 0.185999
Si Si4 0.529290 0.376363 0.313987
Si Si5 0.786526 0.982794 0.311180
Si Si6 0.213632 0.722599 0.311028
O O1 0.889978 0.276909 0.500000
O O2 0.894193 0.125620 0.259964
O O3 0.926162 0.357138 0.241687
O O4 0.837105 0.307850 0.264491
O O5 0.422413 0.608454 0.761656
O O6 0.335055 0.550655 0.753905
O O7 0.383319 0.500938 0.000000
O O8 0.000000 0.500000 0.230720
O O9 0.003712 0.249690 0.260635
O O10 0.978352 0.354440 0.000000
O O11 0.500000 0.500000 0.267192
O O12 0.533687 0.377862 0.500000
O O13 0.788685 0.980564 0.500000
O O14 0.749356 0.881844 0.258633
O O15 0.776579 0.130300 0.264350
O O16 0.214290 0.721106 0.500000
#
# Coordination Sequence:
#
# PCOD9426225 Si02
#       6
#     8   8   8   8   8   8
#     4  10  19  35  58  83 110 146 192 231 270 328
#     4  11  21  34  56  84 113 145 182 229 285 335
#     4  11  24  40  57  82 119 154 183 224 284 343
#     4  11  22  37  61  87 109 142 192 238 273 322
#     4   9  17  34  55  78 107 141 181 227 273 325
#     4   8  16  31  55  79 105 136 178 228 272 315
#
# _framework density 17.767697999999999
#
# number of rings (size 3 to 8) (size 9 to 14) (size 15 to 20)
#    0.000    2.000    1.667    4.000    0.000    2.000 
#    3.000    4.167    0.000    0.000    0.000    0.000 
#    0.000    0.000    0.000    0.000    0.000    0.000 
#
# Total GULP energy -267944.003791 kJ/mol
# GULP energy per Si atom -5582.166746 kJ/mol
# Density = 1.772726 g / cm^3
# Si number density = 17.767698 Si / 1000 Ang^3
#
#
#
# Elastic Constant Matrix: (Units=GPa)
#
#
# Indices 1 2 3 4 5 6 
#
# 1 140.3333 68.0829 9.0068 0.0000 0.0000 0.0000
# 2 68.0829 81.8186 6.2060 0.0000 0.0000 0.0000
# 3 9.0068 6.2060 17.6427 0.0000 0.0000 0.0000
# 4 0.0000 0.0000 0.0000 16.1130 0.0000 0.0000
# 5 0.0000 0.0000 0.0000 0.0000 3.6615 0.0000
# 6 0.0000 0.0000 0.0000 0.0000 0.0000 38.1957
#
#
#
# Elastic Compliance Matrix: (Units=1/GPa)
#
#
# Indices 1 2 3 4 5 6 
#
# 1 0.012074 -0.009842 -0.002702 0.000000 0.000000 0.000000
# 2 -0.009842 0.020580 -0.002215 0.000000 0.000000 0.000000
# 3 -0.002702 -0.002215 0.058839 0.000000 0.000000 0.000000
# 4 0.000000 0.000000 0.000000 0.062062 0.000000 0.000000
# 5 0.000000 0.000000 0.000000 0.000000 0.273115 0.000000
# 6 0.000000 0.000000 0.000000 0.000000 0.000000 0.026181
#
#
# Mechanical properties :
#
#
# Convention : Reuss Voigt Hill
#
# Bulk Modulus (GPa) = 16.13538 45.15399 30.64468
# Shear Modulus (GPa) = 9.93982 22.02731 15.98357
#
# Velocity S-wave (km/s) = 2.36780 3.52481 3.00256
# Velocity P-wave (km/s) = 4.07140 6.48340 5.41344
#
# Compressibility (1/GPa) = 0.06197563
#
# Stress axis : x y z
#
# Youngs Moduli (GPa) = 82.82030 48.59053 16.99555
#
# Poissons Ratio (x) = 0.47824 0.04592
# Poissons Ratio (y) = 0.81515 0.03764
# Poissons Ratio (z) = 0.22378 0.10761
#
# Static dielectric constant tensor:
#      x y z
#    x 1.607960 0.000000 0.000000 
#    y 0.000000 1.588070 0.000000 
#    z 0.000000 0.000000 1.591030 
# 
# From -- ./inp_files/2894.got.cif
#   From: 2010.05.17/outbox.cif.g08.bks.cpg/sg55_2_cif.got.tgz:2894.got - 2010.06.03 13:27:54.
