data_PCOD9426780
_publ_section_title
;
Structure prediction by ZEFSAII (Michael W. Deem and Ramdas Pophale) SiO2 
 PCOD9426780
Probable space group: P B A M
;
_chemical_formula_sum "Si O2"
_cell_formula_units_Z 64
_cell_length_a 15.336232
_cell_length_b 25.023219
_cell_length_c 7.603851
_cell_angle_alpha 90.000000
_cell_angle_beta 90.000000
_cell_angle_gamma 90.000000
_cell_volume 2918.068246
_symmetry_space_group_name_H-M "P B A M"
_symmetry_group_IT_number 55
_symmetry_cell_setting 'orthorhombic'
loop_
_space_group_symop_operation_xyz
x,y,z
-x,-y,z
1/2+x,1/2-y,-z
1/2-x,1/2+y,-z
-x,-y,-z
x,y,-z
1/2-x,1/2+y,z
1/2+x,1/2-y,z
loop_
_atom_site_type_symbol
_atom_site_label
_atom_site_fract_x
_atom_site_fract_y
_atom_site_fract_z
Si Si1 0.247727 0.065963 0.294199
Si Si2 0.361096 0.254734 0.703413
Si Si3 0.001360 0.331334 0.284074
Si Si4 0.171772 0.273508 0.698478
Si Si5 0.871088 0.840467 0.798905
Si Si6 0.443136 0.050312 0.714834
Si Si7 0.439615 0.367212 0.788420
Si Si8 0.402966 0.482237 0.213186
O O1 0.257402 0.077385 0.500000
O O2 0.210963 0.120670 0.214050
O O3 0.342308 0.048487 0.227104
O O4 0.174445 0.020772 0.270741
O O5 0.344792 0.238849 0.500000
O O6 0.424646 0.208964 0.776547
O O7 0.266211 0.265638 0.785862
O O8 0.409129 0.311508 0.710012
O O9 0.002358 0.328215 0.500000
O O10 0.095528 0.309887 0.222883
O O11 0.981927 0.392105 0.234242
O O12 0.187207 0.294346 0.500000
O O13 0.135277 0.213394 0.690711
O O14 0.957585 0.873185 0.749496
O O15 0.882211 0.823133 0.000000
O O16 0.443704 0.048789 0.500000
O O17 0.500000 0.000000 0.775519
O O18 0.390970 0.420738 0.729968
O O19 0.430071 0.363438 0.000000
O O20 0.500000 0.500000 0.270797
O O21 0.404021 0.483769 0.000000
#
# Coordination Sequence:
#
# PCOD9426780 Si02
#       8
#     8   8   8   8   8   8   8   8
#     4  11  22  35  58  89 115 146 197 247 283 337
#     4  10  20  34  54  82 115 146 181 232 286 335
#     4   9  17  32  53  78 111 149 182 222 279 333
#     4  10  20  34  56  84 112 148 191 233 282 339
#     4  11  21  36  57  81 113 153 192 231 283 342
#     4   9  19  36  57  82 115 152 188 232 286 338
#     4  10  21  36  55  78 109 150 187 225 278 344
#     4  10  20  38  57  77 113 154 187 225 285 352
#
# _framework density 21.932317999999999
#
# number of rings (size 3 to 8) (size 9 to 14) (size 15 to 20)
#    0.000    2.000    2.500    1.500    0.000    4.750 
#    0.000    2.500    0.000    2.250    0.000    0.000 
#    0.000    0.000    0.000    0.000    0.000    0.000 
#
# Total GULP energy -357400.048704 kJ/mol
# GULP energy per Si atom -5584.375761 kJ/mol
# Density = 2.188240 g / cm^3
# Si number density = 21.932318 Si / 1000 Ang^3
#
#
#
# Elastic Constant Matrix: (Units=GPa)
#
#
# Indices 1 2 3 4 5 6 
#
# 1 154.3021 68.1762 2.1554 0.0000 0.0000 0.0000
# 2 68.1762 143.7488 -3.1711 0.0000 0.0000 0.0000
# 3 2.1554 -3.1711 45.6552 0.0000 0.0000 0.0000
# 4 0.0000 0.0000 0.0000 -97.1883 0.0000 0.0000
# 5 0.0000 0.0000 0.0000 0.0000 7.5532 0.0000
# 6 0.0000 0.0000 0.0000 0.0000 0.0000 29.9817
#
#
#
# Elastic Compliance Matrix: (Units=1/GPa)
#
#
# Indices 1 2 3 4 5 6 
#
# 1 0.008219 -0.003912 -0.000660 0.000000 0.000000 0.000000
# 2 -0.003912 0.008830 0.000798 0.000000 0.000000 0.000000
# 3 -0.000660 0.000798 0.021990 0.000000 0.000000 0.000000
# 4 0.000000 0.000000 0.000000 -0.010289 0.000000 0.000000
# 5 0.000000 0.000000 0.000000 0.000000 0.132395 0.000000
# 6 0.000000 0.000000 0.000000 0.000000 0.000000 0.033354
#
#
# Mechanical properties :
#
#
# Convention : Reuss Voigt Hill
#
# Bulk Modulus (GPa) = 31.75622 53.11413 42.43518
# Shear Modulus (GPa) = 23.52469 6.50569 15.01519
#
# Velocity S-wave (km/s) = 3.27862 1.72415 2.61935
# Velocity P-wave (km/s) = 5.37057 5.31352 5.34212
#
# Compressibility (1/GPa) = 0.03148989
#
# Stress axis : x y z
#
# Youngs Moduli (GPa) = 121.67427 113.25349 45.47545
#
# Poissons Ratio (x) = 0.44310 0.03000
# Poissons Ratio (y) = 0.47604 -0.03629
# Poissons Ratio (z) = 0.08028 -0.09038
#
# Static dielectric constant tensor:
#      x y z
#    x 1.825830 0.000000 0.000000 
#    y 0.000000 1.757350 0.000000 
#    z 0.000000 0.000000 1.837390 
# 
# From -- ./inp_files/6584.got.cif
#   From: 2010.05.17/outbox.cif.g08.bks.cpg/sg55_4_cif.got.tgz:6584.got - 2010.06.03 13:27:54.
