data_PCOD9426312
_publ_section_title
;
Structure prediction by ZEFSAII (Michael W. Deem and Ramdas Pophale) SiO2 
 PCOD9426312
Probable space group: P B A M
;
_chemical_formula_sum "Si O2"
_cell_formula_units_Z 56
_cell_length_a 13.967347
_cell_length_b 14.926118
_cell_length_c 13.549305
_cell_angle_alpha 90.000000
_cell_angle_beta 90.000000
_cell_angle_gamma 90.000000
_cell_volume 2824.735659
_symmetry_space_group_name_H-M "P B A M"
_symmetry_group_IT_number 55
_symmetry_cell_setting 'orthorhombic'
loop_
_space_group_symop_operation_xyz
x,y,z
-x,-y,z
1/2+x,1/2-y,-z
1/2-x,1/2+y,-z
-x,-y,-z
x,y,-z
1/2-x,1/2+y,z
1/2+x,1/2-y,z
loop_
_atom_site_type_symbol
_atom_site_label
_atom_site_fract_x
_atom_site_fract_y
_atom_site_fract_z
Si Si1 0.391143 0.014566 0.617149
Si Si2 0.106481 0.133104 0.802073
Si Si3 0.309657 0.179350 0.737203
Si Si4 0.542854 0.740546 0.890636
Si Si5 0.346371 0.448036 0.111293
Si Si6 0.521055 0.604306 0.609929
Si Si7 0.264522 0.378193 0.693585
O O1 0.394496 0.023530 0.500000
O O2 0.347707 0.105937 0.661276
O O3 0.500000 0.000000 0.653817
O O4 0.321400 0.931296 0.642578
O O5 0.220073 0.137640 0.792965
O O6 0.065749 0.217908 0.861774
O O7 0.049237 0.137268 0.697464
O O8 0.096895 0.036117 0.853404
O O9 0.396314 0.206755 0.809563
O O10 0.262773 0.270662 0.694715
O O11 0.586905 0.640027 0.891276
O O12 0.551822 0.779291 0.000000
O O13 0.271554 0.419635 0.196083
O O14 0.309430 0.462310 0.000000
O O15 0.500000 0.500000 0.601597
O O16 0.508125 0.645622 0.500000
O O17 0.631518 0.607079 0.643393
#
# Coordination Sequence:
#
# PCOD9426312 Si02
#       7
#     8   8   8   8   8   8   8
#     4  11  26  47  70  96 134 185 229 275 340 416
#     4  12  20  38  61  95 125 168 216 281 330 397
#     4  11  25  41  67  95 134 175 227 277 330 410
#     4  10  22  39  61  95 133 169 218 276 336 398
#     4  10  19  35  63  93 123 160 206 268 340 396
#     4  11  20  34  60  91 120 152 200 265 338 388
#     4  11  22  43  64  93 130 171 217 281 331 393
#
# _framework density 19.824864000000002
#
# number of rings (size 3 to 8) (size 9 to 14) (size 15 to 20)
#    0.000    1.143    5.714    1.286    2.000    5.143 
#    0.000    0.000    0.000    0.857    0.000    0.000 
#    0.000    0.000    0.000    0.000    0.000    0.000 
#
# Total GULP energy -312256.107693 kJ/mol
# GULP energy per Si atom -5576.001923 kJ/mol
# Density = 1.977974 g / cm^3
# Si number density = 19.824864 Si / 1000 Ang^3
#
#
#
# Elastic Constant Matrix: (Units=GPa)
#
#
# Indices 1 2 3 4 5 6 
#
# 1 60.2795 24.7021 5.4863 0.0000 0.0000 0.0000
# 2 24.7021 90.4596 22.0151 0.0000 0.0000 0.0000
# 3 5.4863 22.0151 82.0843 0.0000 0.0000 0.0000
# 4 0.0000 0.0000 0.0000 11.1608 0.0000 0.0000
# 5 0.0000 0.0000 0.0000 0.0000 15.2972 0.0000
# 6 0.0000 0.0000 0.0000 0.0000 0.0000 28.0972
#
#
#
# Elastic Compliance Matrix: (Units=1/GPa)
#
#
# Indices 1 2 3 4 5 6 
#
# 1 0.018681 -0.005132 0.000128 0.000000 0.000000 0.000000
# 2 -0.005132 0.013237 -0.003207 0.000000 0.000000 0.000000
# 3 0.000128 -0.003207 0.013034 0.000000 0.000000 0.000000
# 4 0.000000 0.000000 0.000000 0.089600 0.000000 0.000000
# 5 0.000000 0.000000 0.000000 0.000000 0.065371 0.000000
# 6 0.000000 0.000000 0.000000 0.000000 0.000000 0.035591
#
#
# Mechanical properties :
#
#
# Convention : Reuss Voigt Hill
#
# Bulk Modulus (GPa) = 35.05233 37.47004 36.26119
# Shear Modulus (GPa) = 19.12439 22.95237 21.03838
#
# Velocity S-wave (km/s) = 3.10928 3.40627 3.26116
# Velocity P-wave (km/s) = 5.53259 5.86616 5.70181
#
# Compressibility (1/GPa) = 0.02852877
#
# Stress axis : x y z
#
# Youngs Moduli (GPa) = 53.53044 75.54768 76.72133
#
# Poissons Ratio (x) = 0.38774 -0.00982
# Poissons Ratio (y) = 0.27474 0.24605
# Poissons Ratio (z) = -0.00685 0.24229
#
# Static dielectric constant tensor:
#      x y z
#    x 1.313500 0.000000 0.000000 
#    y 0.000000 1.807920 0.000000 
#    z 0.000000 0.000000 1.767860 
# 
# From -- ./inp_files/18375.got.cif
#   From: 2010.05.17/outbox.cif.g08.bks.cpg/sg55_10_cif.got.tgz:18375.got - 2010.06.03 13:27:54.
