data_PCOD9426339
_publ_section_title
;
Structure prediction by ZEFSAII (Michael W. Deem and Ramdas Pophale) SiO2 
 PCOD9426339
Probable space group: P B A M
;
_chemical_formula_sum "Si O2"
_cell_formula_units_Z 32
_cell_length_a 8.295912
_cell_length_b 19.336488
_cell_length_c 7.936133
_cell_angle_alpha 90.000000
_cell_angle_beta 90.000000
_cell_angle_gamma 90.000000
_cell_volume 1273.065274
_symmetry_space_group_name_H-M "P B A M"
_symmetry_group_IT_number 55
_symmetry_cell_setting 'orthorhombic'
loop_
_space_group_symop_operation_xyz
x,y,z
-x,-y,z
1/2+x,1/2-y,-z
1/2-x,1/2+y,-z
-x,-y,-z
x,y,-z
1/2-x,1/2+y,z
1/2+x,1/2-y,z
loop_
_atom_site_type_symbol
_atom_site_label
_atom_site_fract_x
_atom_site_fract_y
_atom_site_fract_z
Si Si1 0.954707 0.399004 0.306763
Si Si2 0.759006 0.775989 0.294713
Si Si3 0.077025 0.854480 0.296569
Si Si4 0.752187 0.015252 0.811451
O O1 0.013110 0.395100 0.500000
O O2 0.892971 0.324567 0.251747
O O3 0.799263 0.450241 0.301495
O O4 0.093605 0.435444 0.201617
O O5 0.768121 0.775576 0.500000
O O6 0.721101 0.697818 0.243918
O O7 0.916641 0.815994 0.234389
O O8 0.073432 0.856132 0.500000
O O9 0.106275 0.932282 0.237294
O O10 0.773597 0.989655 0.000000
#
# Coordination Sequence:
#
# PCOD9426339 Si02
#       4
#     8   8   8   8
#     4  10  19  36  60  84 107 141 182 227 274 320
#     4   9  19  34  59  86 107 134 180 231 274 317
#     4  10  19  36  58  82 108 139 178 225 271 320
#     4  11  22  36  53  80 113 148 182 219 265 323
#
# _framework density 25.136181000000001
#
# number of rings (size 3 to 8) (size 9 to 14) (size 15 to 20)
#    0.000    2.000    0.000    6.000    0.000    5.000 
#    0.000   13.750    0.000    0.000    0.000    0.000 
#    0.000    0.000    0.000    0.000    0.000    0.000 
#
# Total GULP energy -179035.234284 kJ/mol
# GULP energy per Si atom -5594.851071 kJ/mol
# Density = 2.507897 g / cm^3
# Si number density = 25.136181 Si / 1000 Ang^3
#
#
#
# Elastic Constant Matrix: (Units=GPa)
#
#
# Indices 1 2 3 4 5 6 
#
# 1 68.5085 2.1647 0.4316 0.0000 0.0000 0.0000
# 2 2.1647 126.2860 -2.4413 0.0000 0.0000 0.0000
# 3 0.4316 -2.4413 48.1097 0.0000 0.0000 0.0000
# 4 0.0000 0.0000 0.0000 -142.2684 0.0000 0.0000
# 5 0.0000 0.0000 0.0000 0.0000 -67.0556 0.0000
# 6 0.0000 0.0000 0.0000 0.0000 0.0000 45.7732
#
#
#
# Elastic Compliance Matrix: (Units=1/GPa)
#
#
# Indices 1 2 3 4 5 6 
#
# 1 0.014606 -0.000253 -0.000144 0.000000 0.000000 0.000000
# 2 -0.000253 0.007931 0.000405 0.000000 0.000000 0.000000
# 3 -0.000144 0.000405 0.020808 0.000000 0.000000 0.000000
# 4 0.000000 0.000000 0.000000 -0.007029 0.000000 0.000000
# 5 0.000000 0.000000 0.000000 0.000000 -0.014913 0.000000
# 6 0.000000 0.000000 0.000000 0.000000 0.000000 0.021847
#
#
# Mechanical properties :
#
#
# Convention : Reuss Voigt Hill
#
# Bulk Modulus (GPa) = 23.06305 27.02379 25.04342
# Shear Modulus (GPa) = 86.67527 -16.52686 35.07421
#
# Velocity S-wave (km/s) = 5.87853 -2.56694 3.73951
# Velocity P-wave (km/s) = 7.43447 1.41021 5.35070
#
# Compressibility (1/GPa) = 0.04335940
#
# Stress axis : x y z
#
# Youngs Moduli (GPa) = 68.46676 126.09237 48.05919
#
# Poissons Ratio (x) = 0.03192 0.00691
# Poissons Ratio (y) = 0.01733 -0.01945
# Poissons Ratio (z) = 0.00985 -0.05103
#
# Static dielectric constant tensor:
#      x y z
#    x 2.108570 0.000000 0.000000 
#    y 0.000000 1.929120 0.000000 
#    z 0.000000 0.000000 1.887660 
# 
# From -- ./inp_files/1982.got.cif
#   From: 2010.05.17/outbox.cif.g08.bks.cpg/sg55_1_cif.got.tgz:1982.got - 2010.06.03 13:27:54.
