data_PCOD9426736
_publ_section_title
;
Structure prediction by ZEFSAII (Michael W. Deem and Ramdas Pophale) SiO2 
 PCOD9426736
Probable space group: P B A M
;
_chemical_formula_sum "Si O2"
_cell_formula_units_Z 64
_cell_length_a 16.683376
_cell_length_b 19.656387
_cell_length_c 7.417193
_cell_angle_alpha 90.000000
_cell_angle_beta 90.000000
_cell_angle_gamma 90.000000
_cell_volume 2432.356409
_symmetry_space_group_name_H-M "P B A M"
_symmetry_group_IT_number 55
_symmetry_cell_setting 'orthorhombic'
loop_
_space_group_symop_operation_xyz
x,y,z
-x,-y,z
1/2+x,1/2-y,-z
1/2-x,1/2+y,-z
-x,-y,-z
x,y,-z
1/2-x,1/2+y,z
1/2+x,1/2-y,z
loop_
_atom_site_type_symbol
_atom_site_label
_atom_site_fract_x
_atom_site_fract_y
_atom_site_fract_z
Si Si1 0.182569 0.297248 0.783188
Si Si2 0.826013 0.546356 0.780110
Si Si3 0.589479 0.390348 0.291192
Si Si4 0.578423 0.668448 0.202565
Si Si5 0.238958 0.662472 0.289963
Si Si6 0.494927 0.794948 0.221621
Si Si7 0.582100 0.921264 0.793896
Si Si8 0.649165 0.531906 0.782165
O O1 0.181260 0.375563 0.722147
O O2 0.250360 0.244287 0.724703
O O3 0.093974 0.272334 0.726731
O O4 0.185867 0.298461 0.000000
O O5 0.893800 0.494200 0.715103
O O6 0.740082 0.514340 0.733353
O O7 0.832308 0.547830 0.000000
O O8 0.583357 0.370108 0.500000
O O9 0.511598 0.362372 0.193271
O O10 0.675401 0.365042 0.217402
O O11 0.592667 0.471935 0.281474
O O12 0.561440 0.741695 0.286371
O O13 0.628452 0.607324 0.286420
O O14 0.610543 0.679511 0.000000
O O15 0.234329 0.644780 0.500000
O O16 0.162752 0.625705 0.203404
O O17 0.515635 0.870787 0.284189
O O18 0.497372 0.794700 0.000000
O O19 0.557358 0.933752 0.000000
O O20 0.643458 0.534812 0.000000
#
# Coordination Sequence:
#
# PCOD9426736 Si02
#       8
#     8   8   8   8   8   8   8   8
#     4  10  20  37  61  85 113 147 186 232 284 337
#     4   9  19  34  57  87 111 142 185 231 279 331
#     4  11  22  36  55  78 110 148 189 229 273 332
#     4  10  20  34  53  81 115 146 182 227 277 336
#     4  11  23  38  56  83 114 149 191 234 277 332
#     4   9  19  34  57  87 111 142 185 231 279 331
#     4  10  20  37  61  85 113 147 186 232 284 337
#     4  10  20  34  53  81 115 146 182 227 277 336
#
# _framework density 26.311934999999998
#
# number of rings (size 3 to 8) (size 9 to 14) (size 15 to 20)
#    0.000    2.000    2.500    1.125    1.750    3.500 
#    0.000    5.000    0.000    0.000    0.000    1.750 
#    0.000    0.000    0.000    0.000    0.000    0.000 
#
# Total GULP energy -358042.303530 kJ/mol
# GULP energy per Si atom -5594.410993 kJ/mol
# Density = 2.625205 g / cm^3
# Si number density = 26.311935 Si / 1000 Ang^3
#
#
#
# Elastic Constant Matrix: (Units=GPa)
#
#
# Indices 1 2 3 4 5 6 
#
# 1 81.6114 13.2035 -2.2990 0.0000 0.0000 0.0000
# 2 13.2035 164.8149 -3.6164 0.0000 0.0000 0.0000
# 3 -2.2990 -3.6164 102.2379 0.0000 0.0000 0.0000
# 4 0.0000 0.0000 0.0000 45.9435 0.0000 0.0000
# 5 0.0000 0.0000 0.0000 0.0000 -16.6168 0.0000
# 6 0.0000 0.0000 0.0000 0.0000 0.0000 54.6338
#
#
#
# Elastic Compliance Matrix: (Units=1/GPa)
#
#
# Indices 1 2 3 4 5 6 
#
# 1 0.012420 -0.000990 0.000244 0.000000 0.000000 0.000000
# 2 -0.000990 0.006151 0.000195 0.000000 0.000000 0.000000
# 3 0.000244 0.000195 0.009794 0.000000 0.000000 0.000000
# 4 0.000000 0.000000 0.000000 0.021766 0.000000 0.000000
# 5 0.000000 0.000000 0.000000 0.000000 -0.060180 0.000000
# 6 0.000000 0.000000 0.000000 0.000000 0.000000 0.018304
#
#
# Mechanical properties :
#
#
# Convention : Reuss Voigt Hill
#
# Bulk Modulus (GPa) = 36.67758 40.36004 38.51881
# Shear Modulus (GPa) = 271.11361 39.55052 155.33207
#
# Velocity S-wave (km/s) = 10.16179 3.88124 7.69175
# Velocity P-wave (km/s) = 12.31472 5.95464 9.67239
#
# Compressibility (1/GPa) = 0.02726462
#
# Stress axis : x y z
#
# Youngs Moduli (GPa) = 80.51416 162.57578 102.10843
#
# Poissons Ratio (x) = 0.16089 -0.02494
# Poissons Ratio (y) = 0.07968 -0.01994
# Poissons Ratio (z) = -0.01967 -0.03175
#
# Static dielectric constant tensor:
#      x y z
#    x 2.036890 0.000000 0.000000 
#    y 0.000000 2.099300 0.000000 
#    z 0.000000 0.000000 1.895650 
# 
# From -- ./inp_files/8073.got.cif
#   From: 2010.05.17/outbox.cif.g08.bks.cpg/sg55_5_cif.got.tgz:8073.got - 2010.06.03 13:27:54.
