data_PCOD9426194
_publ_section_title
;
Structure prediction by ZEFSAII (Michael W. Deem and Ramdas Pophale) SiO2 
 PCOD9426194
Probable space group: P B A M
;
_chemical_formula_sum "Si O2"
_cell_formula_units_Z 48
_cell_length_a 28.647079
_cell_length_b 8.085391
_cell_length_c 8.017229
_cell_angle_alpha 90.000000
_cell_angle_beta 90.000000
_cell_angle_gamma 90.000000
_cell_volume 1856.973308
_symmetry_space_group_name_H-M "P B A M"
_symmetry_group_IT_number 55
_symmetry_cell_setting 'orthorhombic'
loop_
_space_group_symop_operation_xyz
x,y,z
-x,-y,z
1/2+x,1/2-y,-z
1/2-x,1/2+y,-z
-x,-y,-z
x,y,-z
1/2-x,1/2+y,z
1/2+x,1/2-y,z
loop_
_atom_site_type_symbol
_atom_site_label
_atom_site_fract_x
_atom_site_fract_y
_atom_site_fract_z
Si Si1 0.321126 0.241572 0.189378
Si Si2 0.429166 0.925710 0.202666
Si Si3 0.399751 0.465841 0.311199
Si Si4 0.237469 0.039357 0.309807
Si Si5 0.983042 0.235672 0.799112
Si Si6 0.158700 0.260749 0.190683
O O1 0.365967 0.306030 0.288572
O O2 0.288855 0.094956 0.257806
O O3 0.286144 0.400165 0.196344
O O4 0.335541 0.207532 0.000000
O O5 0.465286 0.783897 0.261527
O O6 0.376338 0.899693 0.259979
O O7 0.452984 0.099407 0.240690
O O8 0.427602 0.915281 0.000000
O O9 0.395244 0.525118 0.500000
O O10 0.452226 0.412627 0.270529
O O11 0.376713 0.602608 0.192957
O O12 0.235683 0.981563 0.500000
O O13 0.203190 0.198386 0.291689
O O14 0.984795 0.217065 0.000000
O O15 0.172825 0.294363 0.000000
#
# Coordination Sequence:
#
# PCOD9426194 Si02
#       6
#     8   8   8   8   8   8
#     4  11  22  39  60  82 107 144 187 226 265 323
#     4   8  17  33  57  81 104 135 180 227 267 313
#     4  11  22  36  52  78 111 144 178 221 271 321
#     4  11  22  38  57  82 113 144 176 224 280 327
#     4   9  17  35  57  79 105 139 179 224 270 319
#     4  10  19  35  56  80 106 140 182 224 266 321
#
# _framework density 25.848514000000002
#
# number of rings (size 3 to 8) (size 9 to 14) (size 15 to 20)
#    0.000    2.000    0.000    8.000    0.000    2.000 
#    0.000   13.333    0.000    0.000    0.000    0.000 
#    0.000    0.000    0.000    0.000    0.000    0.000 
#
# Total GULP energy -268807.094018 kJ/mol
# GULP energy per Si atom -5600.147792 kJ/mol
# Density = 2.578968 g / cm^3
# Si number density = 25.848514 Si / 1000 Ang^3
#
#
#
# Elastic Constant Matrix: (Units=GPa)
#
#
# Indices 1 2 3 4 5 6 
#
# 1 162.9598 18.1621 4.0616 0.0000 0.0000 0.0000
# 2 18.1621 67.1856 -3.8512 0.0000 0.0000 0.0000
# 3 4.0616 -3.8512 88.9374 0.0000 0.0000 0.0000
# 4 0.0000 0.0000 0.0000 -7.5416 0.0000 0.0000
# 5 0.0000 0.0000 0.0000 0.0000 -12.3689 0.0000
# 6 0.0000 0.0000 0.0000 0.0000 0.0000 59.5525
#
#
#
# Elastic Compliance Matrix: (Units=1/GPa)
#
#
# Indices 1 2 3 4 5 6 
#
# 1 0.006339 -0.001734 -0.000365 0.000000 0.000000 0.000000
# 2 -0.001734 0.015396 0.000746 0.000000 0.000000 0.000000
# 3 -0.000365 0.000746 0.011293 0.000000 0.000000 0.000000
# 4 0.000000 0.000000 0.000000 -0.132598 0.000000 0.000000
# 5 0.000000 0.000000 0.000000 0.000000 -0.080848 0.000000
# 6 0.000000 0.000000 0.000000 0.000000 0.000000 0.016792
#
#
# Mechanical properties :
#
#
# Convention : Reuss Voigt Hill
#
# Bulk Modulus (GPa) = 32.98032 39.53641 36.25836
# Shear Modulus (GPa) = -33.15343 27.97578 -2.58882
#
# Velocity S-wave (km/s) = -3.58523 3.29340 -1.00185
# Velocity P-wave (km/s) = 2.08608 5.45808 3.56643
#
# Compressibility (1/GPa) = 0.03032111
#
# Stress axis : x y z
#
# Youngs Moduli (GPa) = 157.75666 64.95292 88.55191
#
# Poissons Ratio (x) = 0.11266 0.03228
# Poissons Ratio (y) = 0.27362 -0.06605
# Poissons Ratio (z) = 0.05752 -0.04845
#
# Static dielectric constant tensor:
#      x y z
#    x 2.040300 0.000000 0.000000 
#    y 0.000000 2.169690 0.000000 
#    z 0.000000 0.000000 1.893350 
# 
# From -- ./inp_files/10525.got.cif
#   From: 2010.05.17/outbox.cif.g08.bks.cpg/sg55_6_cif.got.tgz:10525.got - 2010.06.03 13:27:54.
