data_PCOD9426468
_publ_section_title
;
Structure prediction by ZEFSAII (Michael W. Deem and Ramdas Pophale) SiO2 
 PCOD9426468
Probable space group: P B A M
;
_chemical_formula_sum "Si O2"
_cell_formula_units_Z 48
_cell_length_a 16.409530
_cell_length_b 9.530855
_cell_length_c 15.719852
_cell_angle_alpha 90.000000
_cell_angle_beta 90.000000
_cell_angle_gamma 90.000000
_cell_volume 2458.535352
_symmetry_space_group_name_H-M "P B A M"
_symmetry_group_IT_number 55
_symmetry_cell_setting 'orthorhombic'
loop_
_space_group_symop_operation_xyz
x,y,z
-x,-y,z
1/2+x,1/2-y,-z
1/2-x,1/2+y,-z
-x,-y,-z
x,y,-z
1/2-x,1/2+y,z
1/2+x,1/2-y,z
loop_
_atom_site_type_symbol
_atom_site_label
_atom_site_fract_x
_atom_site_fract_y
_atom_site_fract_z
Si Si1 0.911232 0.072044 0.000000
Si Si2 0.918737 0.406297 0.000000
Si Si3 0.098909 0.480757 0.597215
Si Si4 0.638492 0.021717 0.829591
Si Si5 0.330282 0.467878 0.811152
Si Si6 0.589436 0.263234 0.729144
Si Si7 0.593678 0.784320 0.711700
O O1 0.927472 0.239434 0.000000
O O2 0.864670 0.035407 0.909604
O O3 0.000000 0.000000 0.000000
O O4 0.868277 0.456232 0.920451
O O5 0.000000 0.500000 0.000000
O O6 0.121944 0.453891 0.500000
O O7 0.122258 0.348147 0.657668
O O8 0.128667 0.634759 0.629256
O O9 0.000000 0.500000 0.601148
O O10 0.584963 0.919903 0.771395
O O11 0.733313 0.019013 0.807916
O O12 0.601091 0.174806 0.816298
O O13 0.368657 0.591149 0.752876
O O14 0.351862 0.323598 0.763178
O O15 0.495404 0.283410 0.703126
#
# Coordination Sequence:
#
# PCOD9426468 Si02
#       7
#     4   4   8   8   8   8   8
#     4  12  27  42  58  86 122 157 198 256 300 341
#     4  12  25  42  64  84 114 159 216 252 286 357
#     4   8  16  34  62  92 118 149 196 248 293 352
#     4  11  23  39  59  83 113 157 202 246 288 353
#     4  12  24  39  58  86 124 157 195 250 306 344
#     4  10  21  36  63  85 115 156 196 242 295 357
#     4  10  19  38  59  86 115 153 200 238 295 357
#
# _framework density 19.523820000000001
#
# number of rings (size 3 to 8) (size 9 to 14) (size 15 to 20)
#    0.000    1.500    1.667    5.500    2.333    0.000 
#    0.000    0.833    0.000   20.000    0.000    0.000 
#    0.000    0.000    0.000    0.000    0.000    0.167 
#
# Total GULP energy -267349.785097 kJ/mol
# GULP energy per Si atom -5569.787190 kJ/mol
# Density = 1.947938 g / cm^3
# Si number density = 19.523820 Si / 1000 Ang^3
#
#
#
# Elastic Constant Matrix: (Units=GPa)
#
#
# Indices 1 2 3 4 5 6 
#
# 1 80.9185 20.7149 17.5928 0.0000 0.0000 0.0000
# 2 20.7149 100.0596 36.2177 0.0000 0.0000 0.0000
# 3 17.5928 36.2177 107.5240 0.0000 0.0000 0.0000
# 4 0.0000 0.0000 0.0000 45.7968 0.0000 0.0000
# 5 0.0000 0.0000 0.0000 0.0000 9.0152 0.0000
# 6 0.0000 0.0000 0.0000 0.0000 0.0000 16.5863
#
#
#
# Elastic Compliance Matrix: (Units=1/GPa)
#
#
# Indices 1 2 3 4 5 6 
#
# 1 0.013236 -0.002228 -0.001415 0.000000 0.000000 0.000000
# 2 -0.002228 0.011757 -0.003596 0.000000 0.000000 0.000000
# 3 -0.001415 -0.003596 0.010743 0.000000 0.000000 0.000000
# 4 0.000000 0.000000 0.000000 0.021836 0.000000 0.000000
# 5 0.000000 0.000000 0.000000 0.000000 0.110923 0.000000
# 6 0.000000 0.000000 0.000000 0.000000 0.000000 0.060291
#
#
# Mechanical properties :
#
#
# Convention : Reuss Voigt Hill
#
# Bulk Modulus (GPa) = 47.04031 48.61699 47.82865
# Shear Modulus (GPa) = 19.97212 28.54478 24.25845
#
# Velocity S-wave (km/s) = 3.20185 3.82782 3.52874
# Velocity P-wave (km/s) = 6.14941 6.67021 6.41510
#
# Compressibility (1/GPa) = 0.02125837
#
# Stress axis : x y z
#
# Youngs Moduli (GPa) = 75.55060 85.05766 93.08475
#
# Poissons Ratio (x) = 0.18951 0.13173
# Poissons Ratio (y) = 0.16833 0.33469
# Poissons Ratio (z) = 0.10692 0.30583
#
# Static dielectric constant tensor:
#      x y z
#    x 1.702910 0.000000 0.000000 
#    y 0.000000 1.690840 0.000000 
#    z 0.000000 0.000000 -11.398430 
# 
# From -- ./inp_files/19379.got.cif
#   From: 2010.05.17/outbox.cif.g08.bks.cpg/sg55_10_cif.got.tgz:19379.got - 2010.06.03 13:27:54.
