data_PCOD9426641
_publ_section_title
;
Structure prediction by ZEFSAII (Michael W. Deem and Ramdas Pophale) SiO2 
 PCOD9426641
Probable space group: P B A M
;
_chemical_formula_sum "Si O2"
_cell_formula_units_Z 64
_cell_length_a 17.078637
_cell_length_b 21.456959
_cell_length_c 9.072299
_cell_angle_alpha 90.000000
_cell_angle_beta 90.000000
_cell_angle_gamma 90.000000
_cell_volume 3324.594899
_symmetry_space_group_name_H-M "P B A M"
_symmetry_group_IT_number 55
_symmetry_cell_setting 'orthorhombic'
loop_
_space_group_symop_operation_xyz
x,y,z
-x,-y,z
1/2+x,1/2-y,-z
1/2-x,1/2+y,-z
-x,-y,-z
x,y,-z
1/2-x,1/2+y,z
1/2+x,1/2-y,z
loop_
_atom_site_type_symbol
_atom_site_label
_atom_site_fract_x
_atom_site_fract_y
_atom_site_fract_z
Si Si1 0.084910 0.252322 0.176389
Si Si2 0.357592 0.404180 0.677263
Si Si3 0.327134 0.078383 0.324976
Si Si4 0.824500 0.965724 0.175373
Si Si5 0.476174 0.616254 0.175910
Si Si6 0.402844 0.942922 0.329850
Si Si7 0.470214 0.135395 0.175618
Si Si8 0.784433 0.673491 0.671521
O O1 0.059281 0.183237 0.218320
O O2 0.167075 0.274752 0.242420
O O3 0.018093 0.302452 0.219786
O O4 0.090979 0.254756 0.000000
O O5 0.354621 0.408730 0.500000
O O6 0.323730 0.467315 0.747136
O O7 0.445069 0.396286 0.735578
O O8 0.301804 0.346454 0.722552
O O9 0.318240 0.086509 0.500000
O O10 0.243816 0.076333 0.244670
O O11 0.387972 0.127270 0.257013
O O12 0.366079 0.010044 0.299040
O O13 0.909272 0.935009 0.200859
O O14 0.812756 0.971765 0.000000
O O15 0.493645 0.616830 0.000000
O O16 0.431064 0.942499 0.500000
O O17 0.473098 0.921190 0.225772
O O18 0.336065 0.889985 0.317610
O O19 0.459729 0.134907 0.000000
O O20 0.780919 0.691019 0.500000
#
# Coordination Sequence:
#
# PCOD9426641 Si02
#       8
#     8   8   8   8   8   8   8   8
#     4   9  20  40  61  82 114 154 197 239 286 342
#     4  11  22  39  63  92 121 151 192 240 295 355
#     4  11  21  35  54  80 117 155 191 232 292 353
#     4  11  23  39  61  87 118 152 194 246 297 348
#     4  10  23  43  62  85 116 154 197 244 294 344
#     4   9  17  32  52  76 112 152 186 228 284 344
#     4  10  20  33  53  83 113 148 194 238 284 343
#     4   9  18  35  58  85 117 150 189 235 282 342
#
# _framework density 19.250467
#
# number of rings (size 3 to 8) (size 9 to 14) (size 15 to 20)
#    0.000    2.000    1.250    2.250    0.000    7.000 
#    2.250    0.000    0.000    0.000    0.000    0.000 
#    0.000    0.000    0.000    0.000    0.000    0.000 
#
# Total GULP energy -357485.978464 kJ/mol
# GULP energy per Si atom -5585.718413 kJ/mol
# Density = 1.920665 g / cm^3
# Si number density = 19.250467 Si / 1000 Ang^3
#
#
#
# Elastic Constant Matrix: (Units=GPa)
#
#
# Indices 1 2 3 4 5 6 
#
# 1 115.6190 11.4963 51.8961 0.0000 0.0000 0.0000
# 2 11.4963 34.6397 16.6229 0.0000 0.0000 0.0000
# 3 51.8961 16.6229 48.4096 0.0000 0.0000 0.0000
# 4 0.0000 0.0000 0.0000 -333.6839 0.0000 0.0000
# 5 0.0000 0.0000 0.0000 0.0000 37.2438 0.0000
# 6 0.0000 0.0000 0.0000 0.0000 0.0000 9.8417
#
#
#
# Elastic Compliance Matrix: (Units=1/GPa)
#
#
# Indices 1 2 3 4 5 6 
#
# 1 0.017064 0.003730 -0.019574 0.000000 0.000000 0.000000
# 2 0.003730 0.035379 -0.016147 0.000000 0.000000 0.000000
# 3 -0.019574 -0.016147 0.047185 0.000000 0.000000 0.000000
# 4 0.000000 0.000000 0.000000 -0.002997 0.000000 0.000000
# 5 0.000000 0.000000 0.000000 0.000000 0.026850 0.000000
# 6 0.000000 0.000000 0.000000 0.000000 0.000000 0.101609
#
#
# Mechanical properties :
#
#
# Convention : Reuss Voigt Hill
#
# Bulk Modulus (GPa) = 28.05315 39.85544 33.95429
# Shear Modulus (GPa) = 16.61381 -49.40950 -16.39784
#
# Velocity S-wave (km/s) = 2.94093 -5.07172 -2.92175
# Velocity P-wave (km/s) = 5.11238 3.68075 2.50884
#
# Compressibility (1/GPa) = 0.03564662
#
# Stress axis : x y z
#
# Youngs Moduli (GPa) = 58.60309 28.26503 21.19319
#
# Poissons Ratio (x) = -0.10542 0.41483
# Poissons Ratio (y) = -0.21858 0.34221
# Poissons Ratio (z) = 1.14708 0.45640
#
# Static dielectric constant tensor:
#      x y z
#    x 1.674330 0.000000 0.000000 
#    y 0.000000 1.667250 0.000000 
#    z 0.000000 0.000000 1.640860 
# 
# From -- ./inp_files/6616.got.cif
#   From: 2010.05.17/outbox.cif.g08.bks.cpg/sg55_4_cif.got.tgz:6616.got - 2010.06.03 13:27:54.
