data_PCOD9426557
_publ_section_title
;
Structure prediction by ZEFSAII (Michael W. Deem and Ramdas Pophale) SiO2 
 PCOD9426557
Probable space group: P B A M
;
_chemical_formula_sum "Si O2"
_cell_formula_units_Z 56
_cell_length_a 12.547797
_cell_length_b 14.765508
_cell_length_c 12.177809
_cell_angle_alpha 90.000000
_cell_angle_beta 90.000000
_cell_angle_gamma 90.000000
_cell_volume 2256.238655
_symmetry_space_group_name_H-M "P B A M"
_symmetry_group_IT_number 55
_symmetry_cell_setting 'orthorhombic'
loop_
_space_group_symop_operation_xyz
x,y,z
-x,-y,z
1/2+x,1/2-y,-z
1/2-x,1/2+y,-z
-x,-y,-z
x,y,-z
1/2-x,1/2+y,z
1/2+x,1/2-y,z
loop_
_atom_site_type_symbol
_atom_site_label
_atom_site_fract_x
_atom_site_fract_y
_atom_site_fract_z
Si Si1 0.997271 0.627005 0.623206
Si Si2 0.259896 0.947933 0.384540
Si Si3 0.725746 0.272138 0.122738
Si Si4 0.393228 0.296265 0.303435
Si Si5 0.238831 0.518426 0.155364
Si Si6 0.951186 0.614347 0.124729
Si Si7 0.943352 0.095049 0.884116
O O1 0.035505 0.590620 0.500000
O O2 0.872175 0.604917 0.619000
O O3 0.014839 0.606184 0.757243
O O4 0.043076 0.727138 0.623640
O O5 0.245369 0.994495 0.500000
O O6 0.169334 0.873533 0.367599
O O7 0.259923 0.018156 0.286750
O O8 0.807774 0.249698 0.220562
O O9 0.721279 0.382496 0.120390
O O10 0.624599 0.204336 0.137740
O O11 0.766408 0.248900 0.000000
O O12 0.471854 0.345876 0.219189
O O13 0.126568 0.473939 0.120309
O O14 0.321184 0.438529 0.122102
O O15 0.999748 0.622952 0.000000
O O16 0.969714 0.139196 0.000000
O O17 0.000000 0.000000 0.878150
#
# Coordination Sequence:
#
# PCOD9426557 Si02
#       7
#     8   8   8   8   8   8   8
#     4  10  21  38  61  88 118 159 203 249 303 366
#     4   9  19  40  62  81 119 164 204 259 310 361
#     4  11  21  35  60  91 122 159 202 251 309 370
#     4  11  21  36  59  88 123 159 206 251 305 371
#     4  10  20  37  59  85 121 158 203 252 309 372
#     4  10  20  38  61  88 120 160 203 254 305 362
#     4  10  20  32  52  82 121 159 195 246 307 366
#
# _framework density 24.820067999999999
#
# number of rings (size 3 to 8) (size 9 to 14) (size 15 to 20)
#    0.000    1.857    4.286    2.143    2.000    1.143 
#    0.000    5.000    0.000   10.714    0.000    0.000 
#    0.000    0.000    0.000    0.000    0.000    0.000 
#
# Total GULP energy -312244.854131 kJ/mol
# GULP energy per Si atom -5575.800967 kJ/mol
# Density = 2.476358 g / cm^3
# Si number density = 24.820068 Si / 1000 Ang^3
#
#
#
# Elastic Constant Matrix: (Units=GPa)
#
#
# Indices 1 2 3 4 5 6 
#
# 1 40.7616 27.5667 22.7545 0.0000 0.0000 0.0000
# 2 27.5667 140.7035 46.0803 0.0000 0.0000 0.0000
# 3 22.7545 46.0803 234.7702 0.0000 0.0000 0.0000
# 4 0.0000 0.0000 0.0000 32.8456 0.0000 0.0000
# 5 0.0000 0.0000 0.0000 0.0000 -24.9462 0.0000
# 6 0.0000 0.0000 0.0000 0.0000 0.0000 48.4347
#
#
#
# Elastic Compliance Matrix: (Units=1/GPa)
#
#
# Indices 1 2 3 4 5 6 
#
# 1 0.028983 -0.005085 -0.001811 0.000000 0.000000 0.000000
# 2 -0.005085 0.008488 -0.001173 0.000000 0.000000 0.000000
# 3 -0.001811 -0.001173 0.004665 0.000000 0.000000 0.000000
# 4 0.000000 0.000000 0.000000 0.030445 0.000000 0.000000
# 5 0.000000 0.000000 0.000000 0.000000 -0.040086 0.000000
# 6 0.000000 0.000000 0.000000 0.000000 0.000000 0.020646
#
#
# Mechanical properties :
#
#
# Convention : Reuss Voigt Hill
#
# Bulk Modulus (GPa) = 38.46563 67.67092 53.06827
# Shear Modulus (GPa) = 64.14718 32.58907 48.36812
#
# Velocity S-wave (km/s) = 5.08930 3.62748 4.41925
# Velocity P-wave (km/s) = 7.07574 6.69841 6.88966
#
# Compressibility (1/GPa) = 0.02599724
#
# Stress axis : x y z
#
# Youngs Moduli (GPa) = 34.50306 117.81856 214.35051
#
# Poissons Ratio (x) = 0.59914 0.38818
# Poissons Ratio (y) = 0.17546 0.25145
# Poissons Ratio (z) = 0.06248 0.13821
#
# Static dielectric constant tensor:
#      x y z
#    x 2.030600 0.000000 0.000000 
#    y 0.000000 1.952770 0.000000 
#    z 0.000000 0.000000 2.041980 
# 
# From -- ./inp_files/14238.got.cif
#   From: 2010.05.17/outbox.cif.g08.bks.cpg/sg55_8_cif.got.tgz:14238.got - 2010.06.03 13:27:54.
