data_PCOD9426764
_publ_section_title
;
Structure prediction by ZEFSAII (Michael W. Deem and Ramdas Pophale) SiO2 
 PCOD9426764
Probable space group: P B A M
;
_chemical_formula_sum "Si O2"
_cell_formula_units_Z 48
_cell_length_a 10.494585
_cell_length_b 27.753947
_cell_length_c 7.601763
_cell_angle_alpha 90.000000
_cell_angle_beta 90.000000
_cell_angle_gamma 90.000000
_cell_volume 2214.136287
_symmetry_space_group_name_H-M "P B A M"
_symmetry_group_IT_number 55
_symmetry_cell_setting 'orthorhombic'
loop_
_space_group_symop_operation_xyz
x,y,z
-x,-y,z
1/2+x,1/2-y,-z
1/2-x,1/2+y,-z
-x,-y,-z
x,y,-z
1/2-x,1/2+y,z
1/2+x,1/2-y,z
loop_
_atom_site_type_symbol
_atom_site_label
_atom_site_fract_x
_atom_site_fract_y
_atom_site_fract_z
Si Si1 0.114468 0.533099 0.710790
Si Si2 0.396556 0.690560 0.789234
Si Si3 0.871974 0.357891 0.289901
Si Si4 0.850464 0.134902 0.215963
Si Si5 0.629748 0.524697 0.211569
Si Si6 0.119758 0.298817 0.205874
O O1 0.099478 0.536096 0.500000
O O2 0.111128 0.587699 0.778582
O O3 0.248720 0.507861 0.746471
O O4 0.000000 0.500000 0.780424
O O5 0.267601 0.661722 0.753685
O O6 0.521227 0.662156 0.726178
O O7 0.384232 0.744959 0.718060
O O8 0.412305 0.694093 0.000000
O O9 0.885093 0.358441 0.500000
O O10 0.982214 0.323287 0.219667
O O11 0.851206 0.079433 0.275425
O O12 0.727709 0.165189 0.277254
O O13 0.848753 0.133765 0.000000
O O14 0.500000 0.500000 0.277944
O O15 0.619398 0.527341 0.000000
O O16 0.152007 0.293071 0.000000
#
# Coordination Sequence:
#
# PCOD9426764 Si02
#       6
#     8   8   8   8   8   8
#     4  10  22  39  56  77 109 148 187 224 266 322
#     4  10  20  37  60  82 108 144 183 224 272 327
#     4  11  23  37  55  82 114 146 181 224 273 322
#     4   9  18  33  54  81 108 135 178 231 275 322
#     4  10  20  34  54  80 108 139 178 227 279 325
#     4  10  20  36  59  83 107 141 183 224 269 322
#
# _framework density 21.678881000000001
#
# number of rings (size 3 to 8) (size 9 to 14) (size 15 to 20)
#    0.000    2.000    0.000    3.500    0.000    6.667 
#    0.000    1.667    0.000    0.000    0.000    0.000 
#    0.000    0.000    0.000    0.000    0.000    0.000 
#
# Total GULP energy -268346.939348 kJ/mol
# GULP energy per Si atom -5590.561236 kJ/mol
# Density = 2.162954 g / cm^3
# Si number density = 21.678881 Si / 1000 Ang^3
#
#
#
# Elastic Constant Matrix: (Units=GPa)
#
#
# Indices 1 2 3 4 5 6 
#
# 1 63.8701 -8.4160 -19.1768 0.0000 0.0000 0.0000
# 2 -8.4160 118.8588 -0.9129 0.0000 0.0000 0.0000
# 3 -19.1768 -0.9129 38.6673 0.0000 0.0000 0.0000
# 4 0.0000 0.0000 0.0000 31.5515 0.0000 0.0000
# 5 0.0000 0.0000 0.0000 0.0000 211.4501 0.0000
# 6 0.0000 0.0000 0.0000 0.0000 0.0000 51.8519
#
#
#
# Elastic Compliance Matrix: (Units=1/GPa)
#
#
# Indices 1 2 3 4 5 6 
#
# 1 0.018623 0.001390 0.009269 0.000000 0.000000 0.000000
# 2 0.001390 0.008519 0.000890 0.000000 0.000000 0.000000
# 3 0.009269 0.000890 0.030479 0.000000 0.000000 0.000000
# 4 0.000000 0.000000 0.000000 0.031694 0.000000 0.000000
# 5 0.000000 0.000000 0.000000 0.000000 0.004729 0.000000
# 6 0.000000 0.000000 0.000000 0.000000 0.000000 0.019286
#
#
# Mechanical properties :
#
#
# Convention : Reuss Voigt Hill
#
# Bulk Modulus (GPa) = 12.38874 18.26498 15.32686
# Shear Modulus (GPa) = 42.68456 75.63083 59.15770
#
# Velocity S-wave (km/s) = 4.44210 5.91292 5.22948
# Velocity P-wave (km/s) = 5.66010 7.42027 6.59913
#
# Compressibility (1/GPa) = 0.08071847
#
# Stress axis : x y z
#
# Youngs Moduli (GPa) = 53.69768 117.39028 32.80904
#
# Poissons Ratio (x) = -0.16315 -0.30410
# Poissons Ratio (y) = -0.07463 -0.02921
# Poissons Ratio (z) = -0.49771 -0.10452
#
# Static dielectric constant tensor:
#      x y z
#    x 1.726480 0.000000 0.000000 
#    y 0.000000 1.772140 0.000000 
#    z 0.000000 0.000000 1.853280 
# 
# From -- ./inp_files/2910.got.cif
#   From: 2010.05.17/outbox.cif.g08.bks.cpg/sg55_2_cif.got.tgz:2910.got - 2010.06.03 13:27:54.
