data_PCOD9426473
_publ_section_title
;
Structure prediction by ZEFSAII (Michael W. Deem and Ramdas Pophale) SiO2 
 PCOD9426473
Probable space group: P B A M
;
_chemical_formula_sum "Si O2"
_cell_formula_units_Z 64
_cell_length_a 19.115990
_cell_length_b 20.442083
_cell_length_c 7.850477
_cell_angle_alpha 90.000000
_cell_angle_beta 90.000000
_cell_angle_gamma 90.000000
_cell_volume 3067.736033
_symmetry_space_group_name_H-M "P B A M"
_symmetry_group_IT_number 55
_symmetry_cell_setting 'orthorhombic'
loop_
_space_group_symop_operation_xyz
x,y,z
-x,-y,z
1/2+x,1/2-y,-z
1/2-x,1/2+y,-z
-x,-y,-z
x,y,-z
1/2-x,1/2+y,z
1/2+x,1/2-y,z
loop_
_atom_site_type_symbol
_atom_site_label
_atom_site_fract_x
_atom_site_fract_y
_atom_site_fract_z
Si Si1 0.807106 0.405503 0.707001
Si Si2 0.034413 0.568027 0.202325
Si Si3 0.184458 0.743374 0.706079
Si Si4 0.285111 0.860821 0.192318
Si Si5 0.532399 0.703993 0.291545
Si Si6 0.446076 0.443844 0.708634
Si Si7 0.293448 0.483714 0.303791
Si Si8 0.435376 0.816867 0.302685
O O1 0.806344 0.406395 0.500000
O O2 0.883332 0.430305 0.762138
O O3 0.799012 0.330316 0.762224
O O4 0.747190 0.454370 0.771792
O O5 0.000000 0.500000 0.260135
O O6 0.996099 0.628928 0.289653
O O7 0.022465 0.574201 0.000000
O O8 0.185251 0.744509 0.500000
O O9 0.239530 0.796871 0.767409
O O10 0.106440 0.764310 0.760600
O O11 0.258185 0.921582 0.302111
O O12 0.366116 0.843547 0.214633
O O13 0.271817 0.881727 0.000000
O O14 0.531130 0.705501 0.500000
O O15 0.531585 0.628762 0.236450
O O16 0.468686 0.749711 0.233637
O O17 0.500000 0.500000 0.759508
O O18 0.444950 0.441576 0.500000
O O19 0.367919 0.461405 0.769337
O O20 0.308476 0.501415 0.500000
O O21 0.416447 0.806734 0.500000
#
# Coordination Sequence:
#
# PCOD9426473 Si02
#       8
#     8   8   8   8   8   8   8   8
#     4  10  21  36  59  88 115 152 202 248 296 355
#     4  11  23  37  54  81 120 159 191 237 297 359
#     4  10  19  38  62  86 116 153 199 249 294 352
#     4  12  25  39  57  87 121 161 202 241 297 363
#     4   9  17  33  59  86 114 147 188 241 299 345
#     4   9  17  31  57  91 119 144 186 243 299 347
#     4  10  20  37  61  88 119 157 199 250 301 354
#     4  11  22  38  61  87 114 151 198 250 297 349
#
# _framework density 20.862290999999999
#
# number of rings (size 3 to 8) (size 9 to 14) (size 15 to 20)
#    0.000    1.750    2.500    2.625    0.000    5.000 
#    0.000    3.750    0.000    0.375    0.000    0.000 
#    0.000    0.000    0.000    0.000    0.000    0.000 
#
# Total GULP energy -357619.485398 kJ/mol
# GULP energy per Si atom -5587.804459 kJ/mol
# Density = 2.081481 g / cm^3
# Si number density = 20.862291 Si / 1000 Ang^3
#
#
#
# Elastic Constant Matrix: (Units=GPa)
#
#
# Indices 1 2 3 4 5 6 
#
# 1 89.1908 44.0680 -6.3254 0.0000 0.0000 0.0000
# 2 44.0680 144.6481 -4.3061 0.0000 0.0000 0.0000
# 3 -6.3254 -4.3061 30.1122 0.0000 0.0000 0.0000
# 4 0.0000 0.0000 0.0000 6.1048 0.0000 0.0000
# 5 0.0000 0.0000 0.0000 0.0000 -153.7576 0.0000
# 6 0.0000 0.0000 0.0000 0.0000 0.0000 43.2832
#
#
#
# Elastic Compliance Matrix: (Units=1/GPa)
#
#
# Indices 1 2 3 4 5 6 
#
# 1 0.013346 -0.004000 0.002232 0.000000 0.000000 0.000000
# 2 -0.004000 0.008141 0.000324 0.000000 0.000000 0.000000
# 3 0.002232 0.000324 0.033724 0.000000 0.000000 0.000000
# 4 0.000000 0.000000 0.000000 0.163804 0.000000 0.000000
# 5 0.000000 0.000000 0.000000 0.000000 -0.006504 0.000000
# 6 0.000000 0.000000 0.000000 0.000000 0.000000 0.023104
#
#
# Mechanical properties :
#
#
# Convention : Reuss Voigt Hill
#
# Bulk Modulus (GPa) = 19.11163 36.75824 27.93493
# Shear Modulus (GPa) = 19.53541 -5.50627 7.01457
#
# Velocity S-wave (km/s) = 3.06338 -1.62637 1.83565
# Velocity P-wave (km/s) = 4.65759 3.75912 4.23226
#
# Compressibility (1/GPa) = 0.05232417
#
# Stress axis : x y z
#
# Youngs Moduli (GPa) = 74.92691 122.82763 29.65228
#
# Poissons Ratio (x) = 0.49126 -0.06617
# Poissons Ratio (y) = 0.29968 -0.00961
# Poissons Ratio (z) = -0.16721 -0.03981
#
# Static dielectric constant tensor:
#      x y z
#    x 1.706040 0.000000 0.000000 
#    y 0.000000 1.728280 0.000000 
#    z 0.000000 0.000000 1.754430 
# 
# From -- ./inp_files/8059.got.cif
#   From: 2010.05.17/outbox.cif.g08.bks.cpg/sg55_5_cif.got.tgz:8059.got - 2010.06.03 13:27:54.
