data_PCOD9426815
_publ_section_title
;
Structure prediction by ZEFSAII (Michael W. Deem and Ramdas Pophale) SiO2 
 PCOD9426815
Probable space group: P B A M
;
_chemical_formula_sum "Si O2"
_cell_formula_units_Z 58
_cell_length_a 25.754089
_cell_length_b 12.612746
_cell_length_c 7.512770
_cell_angle_alpha 90.000000
_cell_angle_beta 90.000000
_cell_angle_gamma 90.000000
_cell_volume 2440.371449
_symmetry_space_group_name_H-M "P B A M"
_symmetry_group_IT_number 55
_symmetry_cell_setting 'orthorhombic'
loop_
_space_group_symop_operation_xyz
x,y,z
-x,-y,z
1/2+x,1/2-y,-z
1/2-x,1/2+y,-z
-x,-y,-z
x,y,-z
1/2-x,1/2+y,z
1/2+x,1/2-y,z
loop_
_atom_site_type_symbol
_atom_site_label
_atom_site_fract_x
_atom_site_fract_y
_atom_site_fract_z
Si Si1 0.809524 0.524769 0.297391
Si Si2 0.920095 0.511338 0.282135
Si Si3 0.661411 0.340650 0.203279
Si Si4 0.302025 0.430194 0.712479
Si Si5 0.222248 0.704945 0.212258
Si Si6 0.000000 0.000000 0.000000
Si Si7 0.548076 0.373050 0.294928
Si Si8 0.488333 0.171592 0.715794
O O1 0.809831 0.565125 0.500000
O O2 0.864639 0.548123 0.213980
O O3 0.756634 0.562968 0.211518
O O4 0.803357 0.398004 0.298002
O O5 0.917866 0.509709 0.500000
O O6 0.964559 0.593733 0.233426
O O7 0.937496 0.392995 0.225992
O O8 0.668203 0.468965 0.212279
O O9 0.716629 0.294585 0.274812
O O10 0.605489 0.320127 0.290115
O O11 0.657565 0.306110 0.000000
O O12 0.301833 0.447599 0.500000
O O13 0.312673 0.307472 0.746506
O O14 0.224282 0.689488 0.000000
O O15 0.042339 0.032140 0.157469
O O16 0.538409 0.401357 0.500000
O O17 0.504664 0.288455 0.226982
O O18 0.487255 0.176179 0.500000
#
# Coordination Sequence:
#
# PCOD9426815 Si02
#       8
#     8   8   8   8   8   2   8   8
#     4   9  18  32  53  81 113 147 190 239 293 358
#     4   8  14  30  55  88 121 150 186 246 306 362
#     4  10  21  40  61  85 120 160 206 259 307 364
#     4  10  20  34  55  85 117 153 201 254 303 366
#     4  10  21  36  55  81 117 157 195 244 305 367
#     4  12  26  48  64  88 128 160 206 272 304 366
#     4  11  23  42  68  94 120 165 213 260 316 371
#     4   8  16  31  58  90 119 151 197 245 301 369
#
# _framework density 23.766874000000001
#
# number of rings (size 3 to 8) (size 9 to 14) (size 15 to 20)
#    0.000    2.483    0.690    2.276    1.931    2.207 
#    2.483    0.000    1.517    0.828    0.000    0.000 
#    0.000    0.000    0.000    0.000    0.000    0.000 
#
# Total GULP energy -323114.270995 kJ/mol
# GULP energy per Si atom -5570.935707 kJ/mol
# Density = 2.371278 g / cm^3
# Si number density = 23.766874 Si / 1000 Ang^3
#
#
#
# Elastic Constant Matrix: (Units=GPa)
#
#
# Indices 1 2 3 4 5 6 
#
# 1 47.3307 -20.2141 10.8353 0.0000 0.0000 0.0000
# 2 -20.2141 66.9625 -2.4479 0.0000 0.0000 0.0000
# 3 10.8353 -2.4479 110.2707 0.0000 0.0000 0.0000
# 4 0.0000 0.0000 0.0000 10.6764 0.0000 0.0000
# 5 0.0000 0.0000 0.0000 0.0000 84.0022 0.0000
# 6 0.0000 0.0000 0.0000 0.0000 0.0000 8.4851
#
#
#
# Elastic Compliance Matrix: (Units=1/GPa)
#
#
# Indices 1 2 3 4 5 6 
#
# 1 0.024812 0.007407 -0.002274 0.000000 0.000000 0.000000
# 2 0.007407 0.017157 -0.000347 0.000000 0.000000 0.000000
# 3 -0.002274 -0.000347 0.009284 0.000000 0.000000 0.000000
# 4 0.000000 0.000000 0.000000 0.093664 0.000000 0.000000
# 5 0.000000 0.000000 0.000000 0.000000 0.011904 0.000000
# 6 0.000000 0.000000 0.000000 0.000000 0.000000 0.117854
#
#
# Mechanical properties :
#
#
# Convention : Reuss Voigt Hill
#
# Bulk Modulus (GPa) = 16.44040 22.32337 19.38189
# Shear Modulus (GPa) = 17.52059 36.39211 26.95635
#
# Velocity S-wave (km/s) = 2.71806 3.91731 3.37144
# Velocity P-wave (km/s) = 4.09669 5.46567 4.82993
#
# Compressibility (1/GPa) = 0.06082578
#
# Stress axis : x y z
#
# Youngs Moduli (GPa) = 40.30342 58.28526 107.70879
#
# Poissons Ratio (x) = -0.43171 0.24489
# Poissons Ratio (y) = -0.29852 0.03737
# Poissons Ratio (z) = 0.09163 0.02022
#
# Static dielectric constant tensor:
#      x y z
#    x 1.932240 0.000000 0.000000 
#    y 0.000000 1.978050 0.000000 
#    z 0.000000 0.000000 1.725680 
# 
# From -- ./inp_files/10210.got.cif
#   From: 2010.05.17/outbox.cif.g08.bks.cpg/sg55_6_cif.got.tgz:10210.got - 2010.06.03 13:27:54.
