data_PCOD9426702
_publ_section_title
;
Structure prediction by ZEFSAII (Michael W. Deem and Ramdas Pophale) SiO2 
 PCOD9426702
Probable space group: P B A M
;
_chemical_formula_sum "Si O2"
_cell_formula_units_Z 64
_cell_length_a 9.772468
_cell_length_b 25.560980
_cell_length_c 13.643899
_cell_angle_alpha 90.000000
_cell_angle_beta 90.000000
_cell_angle_gamma 90.000000
_cell_volume 3408.162184
_symmetry_space_group_name_H-M "P B A M"
_symmetry_group_IT_number 55
_symmetry_cell_setting 'orthorhombic'
loop_
_space_group_symop_operation_xyz
x,y,z
-x,-y,z
1/2+x,1/2-y,-z
1/2-x,1/2+y,-z
-x,-y,-z
x,y,-z
1/2-x,1/2+y,z
1/2+x,1/2-y,z
loop_
_atom_site_type_symbol
_atom_site_label
_atom_site_fract_x
_atom_site_fract_y
_atom_site_fract_z
Si Si1 0.836170 0.663475 0.793964
Si Si2 0.160550 0.222810 0.116254
Si Si3 0.846915 0.410446 0.387783
Si Si4 0.553987 0.633088 0.883336
Si Si5 0.339067 0.494750 0.313760
Si Si6 0.161971 0.400148 0.387774
Si Si7 0.362372 0.135506 0.179143
Si Si8 0.831154 0.954189 0.112510
O O1 0.837208 0.723788 0.824307
O O2 0.701039 0.636639 0.835974
O O3 0.837700 0.651344 0.678752
O O4 0.975681 0.637839 0.833488
O O5 0.294077 0.187878 0.137672
O O6 0.035117 0.184408 0.143700
O O7 0.152984 0.234135 0.000000
O O8 0.824611 0.391577 0.500000
O O9 0.747790 0.459137 0.365994
O O10 0.827164 0.371472 0.295224
O O11 0.008630 0.424648 0.380887
O O12 0.462277 0.582230 0.861373
O O13 0.568713 0.634329 0.000000
O O14 0.500000 0.500000 0.336320
O O15 0.272906 0.440922 0.348477
O O16 0.319275 0.503125 0.196945
O O17 0.188988 0.388223 0.500000
O O18 0.294531 0.086259 0.124564
O O19 0.841572 0.972334 0.000000
#
# Coordination Sequence:
#
# PCOD9426702 Si02
#       8
#     8   8   8   8   8   8   8   8
#     4  11  20  32  53  78 102 132 177 220 249 292
#     4  10  20  34  52  76 108 142 170 203 254 308
#     4   9  19  37  59  79 102 135 172 212 262 312
#     4   9  18  32  51  76 106 137 167 204 253 304
#     4  11  21  34  56  82 104 131 173 217 255 305
#     4  10  22  39  55  73 102 137 171 212 263 310
#     4   9  19  34  55  79 105 137 175 214 252 301
#     4   9  19  36  53  72 106 144 169 201 257 314
#
# _framework density 18.778448999999998
#
# number of rings (size 3 to 8) (size 9 to 14) (size 15 to 20)
#    0.000    2.250    0.000    3.750    0.000    5.250 
#    0.000    1.875    0.000   12.750    0.000    0.000 
#    0.000    0.000    0.000    0.000    0.000    0.000 
#
# Total GULP energy -357231.607061 kJ/mol
# GULP energy per Si atom -5581.743860 kJ/mol
# Density = 1.873571 g / cm^3
# Si number density = 18.778449 Si / 1000 Ang^3
#
#
#
# Elastic Constant Matrix: (Units=GPa)
#
#
# Indices 1 2 3 4 5 6 
#
# 1 109.8867 21.0426 46.7417 0.0000 0.0000 0.0000
# 2 21.0426 43.1270 40.4196 0.0000 0.0000 0.0000
# 3 46.7417 40.4196 79.0648 0.0000 0.0000 0.0000
# 4 0.0000 0.0000 0.0000 22.0237 0.0000 0.0000
# 5 0.0000 0.0000 0.0000 0.0000 23.3512 0.0000
# 6 0.0000 0.0000 0.0000 0.0000 0.0000 10.1447
#
#
#
# Elastic Compliance Matrix: (Units=1/GPa)
#
#
# Indices 1 2 3 4 5 6 
#
# 1 0.012211 0.001551 -0.008012 0.000000 0.000000 0.000000
# 2 0.001551 0.044713 -0.023775 0.000000 0.000000 0.000000
# 3 -0.008012 -0.023775 0.029539 0.000000 0.000000 0.000000
# 4 0.000000 0.000000 0.000000 0.045406 0.000000 0.000000
# 5 0.000000 0.000000 0.000000 0.000000 0.042824 0.000000
# 6 0.000000 0.000000 0.000000 0.000000 0.000000 0.098573
#
#
# Mechanical properties :
#
#
# Convention : Reuss Voigt Hill
#
# Bulk Modulus (GPa) = 38.47527 49.83182 44.15355
# Shear Modulus (GPa) = 14.60269 19.36223 16.98246
#
# Velocity S-wave (km/s) = 2.79163 3.21454 3.01052
# Velocity P-wave (km/s) = 5.56098 6.35390 5.97061
#
# Compressibility (1/GPa) = 0.02599072
#
# Stress axis : x y z
#
# Youngs Moduli (GPa) = 81.89149 22.36469 33.85390
#
# Poissons Ratio (x) = -0.03468 0.27123
# Poissons Ratio (y) = -0.12699 0.80488
# Poissons Ratio (z) = 0.65610 0.53172
#
# Static dielectric constant tensor:
#      x y z
#    x 1.669750 0.000000 0.000000 
#    y 0.000000 1.642960 0.000000 
#    z 0.000000 0.000000 1.655320 
# 
# From -- ./inp_files/17821.got.cif
#   From: 2010.05.17/outbox.cif.g08.bks.cpg/sg55_9_cif.got.tgz:17821.got - 2010.06.03 13:27:54.
