data_PCOD9426756
_publ_section_title
;
Structure prediction by ZEFSAII (Michael W. Deem and Ramdas Pophale) SiO2 
 PCOD9426756
Probable space group: P B A M
;
_chemical_formula_sum "Si O2"
_cell_formula_units_Z 64
_cell_length_a 15.383313
_cell_length_b 17.313318
_cell_length_c 13.438665
_cell_angle_alpha 90.000000
_cell_angle_beta 90.000000
_cell_angle_gamma 90.000000
_cell_volume 3579.202833
_symmetry_space_group_name_H-M "P B A M"
_symmetry_group_IT_number 55
_symmetry_cell_setting 'orthorhombic'
loop_
_space_group_symop_operation_xyz
x,y,z
-x,-y,z
1/2+x,1/2-y,-z
1/2-x,1/2+y,-z
-x,-y,-z
x,y,-z
1/2-x,1/2+y,z
1/2+x,1/2-y,z
loop_
_atom_site_type_symbol
_atom_site_label
_atom_site_fract_x
_atom_site_fract_y
_atom_site_fract_z
Si Si1 0.170081 0.216717 0.618070
Si Si2 0.032734 0.373144 0.885425
Si Si3 0.138709 0.520332 0.115361
Si Si4 0.503686 0.730625 0.745100
Si Si5 0.655454 0.705499 0.612491
Si Si6 0.599647 0.527276 0.611983
Si Si7 0.798521 0.922626 0.761271
Si Si8 0.032230 0.088632 0.883012
O O1 0.164080 0.200441 0.500000
O O2 0.073180 0.225079 0.662915
O O3 0.241159 0.285553 0.630863
O O4 0.209549 0.148213 0.685071
O O5 0.107897 0.433918 0.857950
O O6 0.024641 0.299004 0.817651
O O7 0.944667 0.423628 0.880909
O O8 0.045992 0.349957 0.000000
O O9 0.210467 0.551254 0.188964
O O10 0.168486 0.519156 0.000000
O O11 0.594888 0.748116 0.691862
O O12 0.511693 0.651555 0.809780
O O13 0.641487 0.735570 0.500000
O O14 0.617803 0.618470 0.614215
O O15 0.500000 0.500000 0.627755
O O16 0.622457 0.500329 0.500000
O O17 0.658079 0.488999 0.695170
O O18 0.867529 0.905342 0.849004
O O19 0.020227 0.106643 0.000000
O O20 0.000000 0.000000 0.868065
#
# Coordination Sequence:
#
# PCOD9426756 Si02
#       8
#     8   8   8   8   8   8   8   8
#     4  10  22  36  52  80 112 142 178 225 277 325
#     4   9  19  36  55  78 106 139 182 227 273 326
#     4   9  19  35  55  78 106 140 179 228 278 322
#     4  11  20  34  59  79 103 148 184 222 269 338
#     4  10  21  36  53  77 109 139 175 224 273 322
#     4  10  20  34  54  79 106 140 182 227 271 325
#     4  11  19  32  56  78 102 141 183 220 263 331
#     4  10  21  35  50  77 112 142 175 220 274 321
#
# _framework density 17.881077999999999
#
# number of rings (size 3 to 8) (size 9 to 14) (size 15 to 20)
#    0.000    2.000    0.000    5.625    1.750    1.000 
#    0.000    0.000    0.000    1.875    0.000    5.250 
#    0.000    0.000    0.000    0.000    0.000    0.000 
#
# Total GULP energy -356859.643758 kJ/mol
# GULP energy per Si atom -5575.931934 kJ/mol
# Density = 1.784038 g / cm^3
# Si number density = 17.881078 Si / 1000 Ang^3
#
#
#
# Elastic Constant Matrix: (Units=GPa)
#
#
# Indices 1 2 3 4 5 6 
#
# 1 51.8981 4.1240 32.1093 0.0000 0.0000 0.0000
# 2 4.1240 62.3348 28.1393 0.0000 0.0000 0.0000
# 3 32.1093 28.1393 90.1277 0.0000 0.0000 0.0000
# 4 0.0000 0.0000 0.0000 21.3963 0.0000 0.0000
# 5 0.0000 0.0000 0.0000 0.0000 28.4827 0.0000
# 6 0.0000 0.0000 0.0000 0.0000 0.0000 24.9297
#
#
#
# Elastic Compliance Matrix: (Units=1/GPa)
#
#
# Indices 1 2 3 4 5 6 
#
# 1 0.025120 0.002768 -0.009814 0.000000 0.000000 0.000000
# 2 0.002768 0.018979 -0.006912 0.000000 0.000000 0.000000
# 3 -0.009814 -0.006912 0.016750 0.000000 0.000000 0.000000
# 4 0.000000 0.000000 0.000000 0.046737 0.000000 0.000000
# 5 0.000000 0.000000 0.000000 0.000000 0.035109 0.000000
# 6 0.000000 0.000000 0.000000 0.000000 0.000000 0.040113
#
#
# Mechanical properties :
#
#
# Convention : Reuss Voigt Hill
#
# Bulk Modulus (GPa) = 30.36324 37.01175 33.68750
# Shear Modulus (GPa) = 22.55285 24.29427 23.42356
#
# Velocity S-wave (km/s) = 3.55529 3.69000 3.62327
# Velocity P-wave (km/s) = 5.81988 6.23687 6.03198
#
# Compressibility (1/GPa) = 0.03293456
#
# Stress axis : x y z
#
# Youngs Moduli (GPa) = 39.80842 52.68857 59.70269
#
# Poissons Ratio (x) = -0.14585 0.58591
# Poissons Ratio (y) = -0.11020 0.41266
# Poissons Ratio (z) = 0.39067 0.36418
#
# Static dielectric constant tensor:
#      x y z
#    x 1.612220 0.000000 0.000000 
#    y 0.000000 1.608490 0.000000 
#    z 0.000000 0.000000 1.610530 
# 
# From -- ./inp_files/14387.got.cif
#   From: 2010.05.17/outbox.cif.g08.bks.cpg/sg55_8_cif.got.tgz:14387.got - 2010.06.03 13:27:54.
