data_PCOD9426161
_publ_section_title
;
Structure prediction by ZEFSAII (Michael W. Deem and Ramdas Pophale) SiO2 
 PCOD9426161
Probable space group: P B A M
;
_chemical_formula_sum "Si O2"
_cell_formula_units_Z 42
_cell_length_a 19.479823
_cell_length_b 12.179261
_cell_length_c 7.431522
_cell_angle_alpha 90.000000
_cell_angle_beta 90.000000
_cell_angle_gamma 90.000000
_cell_volume 1763.127469
_symmetry_space_group_name_H-M "P B A M"
_symmetry_group_IT_number 55
_symmetry_cell_setting 'orthorhombic'
loop_
_space_group_symop_operation_xyz
x,y,z
-x,-y,z
1/2+x,1/2-y,-z
1/2-x,1/2+y,-z
-x,-y,-z
x,y,-z
1/2-x,1/2+y,z
1/2+x,1/2-y,z
loop_
_atom_site_type_symbol
_atom_site_label
_atom_site_fract_x
_atom_site_fract_y
_atom_site_fract_z
Si Si1 0.780383 0.089803 0.794033
Si Si2 0.000000 0.000000 0.500000
Si Si3 0.888443 0.264993 0.780734
Si Si4 0.962307 0.697444 0.793659
Si Si5 0.864894 0.516393 0.220549
Si Si6 0.874060 0.897065 0.303046
O O1 0.833457 0.177042 0.711909
O O2 0.705345 0.072036 0.714433
O O3 0.818755 0.972475 0.792403
O O4 0.768893 0.124811 0.000000
O O5 0.941599 0.969545 0.346199
O O6 0.868071 0.388858 0.733137
O O7 0.967316 0.253392 0.714487
O O8 0.888639 0.252770 0.000000
O O9 0.930024 0.586823 0.715709
O O10 0.902803 0.788284 0.788206
O O11 0.979502 0.671045 0.000000
O O12 0.864973 0.519839 0.000000
O O13 0.845699 0.865586 0.500000
#
# Coordination Sequence:
#
# PCOD9426161 Si02
#       6
#     8   2   8   8   8   8
#     4  10  20  34  58  87 113 147 189 233 282 338
#     4   8  20  36  54  72 110 152 180 220 288 322
#     4   9  18  32  53  85 117 146 184 229 282 336
#     4  10  19  34  60  87 112 147 191 233 276 335
#     4   9  19  33  55  86 120 147 180 235 290 333
#     4  10  21  36  56  79 112 149 183 229 284 330
#
# _framework density 23.821308999999999
#
# number of rings (size 3 to 8) (size 9 to 14) (size 15 to 20)
#    0.571    1.905    0.000    2.286    2.667    2.286 
#    0.000    4.762    0.000    4.571    0.000    0.000 
#    0.000    0.000    0.000    0.000    0.000    0.000 
#
# Total GULP energy -233913.601993 kJ/mol
# GULP energy per Si atom -5569.371476 kJ/mol
# Density = 2.376709 g / cm^3
# Si number density = 23.821309 Si / 1000 Ang^3
#
#
#
# Elastic Constant Matrix: (Units=GPa)
#
#
# Indices 1 2 3 4 5 6 
#
# 1 95.6296 49.7394 1.2637 0.0000 0.0000 0.0000
# 2 49.7394 96.1740 -9.3954 0.0000 0.0000 0.0000
# 3 1.2637 -9.3954 72.5802 0.0000 0.0000 0.0000
# 4 0.0000 0.0000 0.0000 -48.5883 0.0000 0.0000
# 5 0.0000 0.0000 0.0000 0.0000 -22.9264 0.0000
# 6 0.0000 0.0000 0.0000 0.0000 0.0000 27.2839
#
#
#
# Elastic Compliance Matrix: (Units=1/GPa)
#
#
# Indices 1 2 3 4 5 6 
#
# 1 0.014413 -0.007574 -0.001231 0.000000 0.000000 0.000000
# 2 -0.007574 0.014512 0.002010 0.000000 0.000000 0.000000
# 3 -0.001231 0.002010 0.014060 0.000000 0.000000 0.000000
# 4 0.000000 0.000000 0.000000 -0.020581 0.000000 0.000000
# 5 0.000000 0.000000 0.000000 0.000000 -0.043618 0.000000
# 6 0.000000 0.000000 0.000000 0.000000 0.000000 0.036652
#
#
# Mechanical properties :
#
#
# Convention : Reuss Voigt Hill
#
# Bulk Modulus (GPa) = 34.02160 38.62214 36.32187
# Shear Modulus (GPa) = 128.78206 6.00559 67.39382
#
# Velocity S-wave (km/s) = 7.36064 1.58952 5.32474
# Velocity P-wave (km/s) = 9.30332 4.42913 7.28591
#
# Compressibility (1/GPa) = 0.02939309
#
# Stress axis : x y z
#
# Youngs Moduli (GPa) = 69.38220 68.91065 71.12611
#
# Poissons Ratio (x) = 0.52196 0.08759
# Poissons Ratio (y) = 0.52553 -0.14299
# Poissons Ratio (z) = 0.08544 -0.13854
#
# Static dielectric constant tensor:
#      x y z
#    x 1.895860 0.000000 0.000000 
#    y 0.000000 1.894650 0.000000 
#    z 0.000000 0.000000 1.950010 
# 
# From -- ./inp_files/14755.got.cif
#   From: 2010.05.17/outbox.cif.g08.bks.cpg/sg55_8_cif.got.tgz:14755.got - 2010.06.03 13:27:54.
