data_PCOD9426577
_publ_section_title
;
Structure prediction by ZEFSAII (Michael W. Deem and Ramdas Pophale) SiO2 
 PCOD9426577
Probable space group: P B A M
;
_chemical_formula_sum "Si O2"
_cell_formula_units_Z 56
_cell_length_a 15.029048
_cell_length_b 22.829629
_cell_length_c 7.399743
_cell_angle_alpha 90.000000
_cell_angle_beta 90.000000
_cell_angle_gamma 90.000000
_cell_volume 2538.907988
_symmetry_space_group_name_H-M "P B A M"
_symmetry_group_IT_number 55
_symmetry_cell_setting 'orthorhombic'
loop_
_space_group_symop_operation_xyz
x,y,z
-x,-y,z
1/2+x,1/2-y,-z
1/2-x,1/2+y,-z
-x,-y,-z
x,y,-z
1/2-x,1/2+y,z
1/2+x,1/2-y,z
loop_
_atom_site_type_symbol
_atom_site_label
_atom_site_fract_x
_atom_site_fract_y
_atom_site_fract_z
Si Si1 0.318797 0.778393 0.291512
Si Si2 0.295415 0.386213 0.281118
Si Si3 0.019379 0.361064 0.780800
Si Si4 0.853940 0.849061 0.708240
Si Si5 0.868575 0.530709 0.789767
Si Si6 0.488366 0.432328 0.721037
Si Si7 0.664988 0.900870 0.219419
O O1 0.291862 0.768967 0.500000
O O2 0.245992 0.824266 0.215777
O O3 0.412998 0.812101 0.286140
O O4 0.334474 0.714661 0.208264
O O5 0.294380 0.384546 0.500000
O O6 0.225399 0.436024 0.224765
O O7 0.394049 0.404298 0.223804
O O8 0.059642 0.423368 0.716931
O O9 0.916358 0.358297 0.729226
O O10 0.024427 0.360056 0.000000
O O11 0.881066 0.838030 0.500000
O O12 0.931006 0.890775 0.783586
O O13 0.760623 0.882465 0.712097
O O14 0.859498 0.465940 0.715180
O O15 0.891895 0.523040 0.000000
O O16 0.500000 0.500000 0.778705
O O17 0.489486 0.433586 0.500000
O O18 0.669770 0.901580 0.000000
#
# Coordination Sequence:
#
# PCOD9426577 Si02
#       7
#     8   8   8   8   8   8   8
#     4   9  19  34  51  74 100 126 162 207 251 294
#     4   9  17  31  51  72  96 127 163 204 248 296
#     4   9  18  33  53  74  99 133 166 197 241 298
#     4  10  21  35  51  72  99 132 169 209 252 297
#     4   9  17  31  51  75 102 129 160 200 245 296
#     4   9  17  30  49  71  94 125 165 204 244 293
#     4  10  20  33  50  74 102 131 163 201 247 295
#
# _framework density 22.056728
#
# number of rings (size 3 to 8) (size 9 to 14) (size 15 to 20)
#    0.000    2.714    0.000    1.286    0.000    5.714 
#    0.000    3.571    0.000    6.857    0.000    0.000 
#    0.000    0.000    0.000    0.000    0.000    0.000 
#
# Total GULP energy -312578.280888 kJ/mol
# GULP energy per Si atom -5581.755016 kJ/mol
# Density = 2.200653 g / cm^3
# Si number density = 22.056728 Si / 1000 Ang^3
#
#
#
# Elastic Constant Matrix: (Units=GPa)
#
#
# Indices 1 2 3 4 5 6 
#
# 1 161.6779 49.7374 -5.9253 0.0000 0.0000 0.0000
# 2 49.7374 112.1813 6.4854 0.0000 0.0000 0.0000
# 3 -5.9253 6.4854 75.8709 0.0000 0.0000 0.0000
# 4 0.0000 0.0000 0.0000 -55.1839 0.0000 0.0000
# 5 0.0000 0.0000 0.0000 0.0000 12.6442 0.0000
# 6 0.0000 0.0000 0.0000 0.0000 0.0000 11.3089
#
#
#
# Elastic Compliance Matrix: (Units=1/GPa)
#
#
# Indices 1 2 3 4 5 6 
#
# 1 0.007215 -0.003248 0.000841 0.000000 0.000000 0.000000
# 2 -0.003248 0.010420 -0.001144 0.000000 0.000000 0.000000
# 3 0.000841 -0.001144 0.013344 0.000000 0.000000 0.000000
# 4 0.000000 0.000000 0.000000 -0.018121 0.000000 0.000000
# 5 0.000000 0.000000 0.000000 0.000000 0.079088 0.000000
# 6 0.000000 0.000000 0.000000 0.000000 0.000000 0.088426
#
#
# Mechanical properties :
#
#
# Convention : Reuss Voigt Hill
#
# Bulk Modulus (GPa) = 41.88065 50.03612 45.95839
# Shear Modulus (GPa) = 25.58438 13.71603 19.65021
#
# Velocity S-wave (km/s) = 3.40948 2.49640 2.98802
# Velocity P-wave (km/s) = 5.87608 5.57170 5.72591
#
# Compressibility (1/GPa) = 0.02387738
#
# Stress axis : x y z
#
# Youngs Moduli (GPa) = 138.60014 95.96809 74.94129
#
# Poissons Ratio (x) = 0.31166 -0.06303
# Poissons Ratio (y) = 0.45011 0.08576
# Poissons Ratio (z) = -0.11657 0.10982
#
# Static dielectric constant tensor:
#      x y z
#    x 1.766220 0.000000 0.000000 
#    y 0.000000 1.799500 0.000000 
#    z 0.000000 0.000000 1.817400 
# 
# From -- ./inp_files/6017.got.cif
#   From: 2010.05.17/outbox.cif.g08.bks.cpg/sg55_4_cif.got.tgz:6017.got - 2010.06.03 13:27:54.
