data_PCOD9426230
_publ_section_title
;
Structure prediction by ZEFSAII (Michael W. Deem and Ramdas Pophale) SiO2 
 PCOD9426230
Probable space group: P B A M
;
_chemical_formula_sum "Si O2"
_cell_formula_units_Z 48
_cell_length_a 14.385039
_cell_length_b 5.022948
_cell_length_c 30.195516
_cell_angle_alpha 90.000000
_cell_angle_beta 90.000000
_cell_angle_gamma 90.000000
_cell_volume 2181.786154
_symmetry_space_group_name_H-M "P B A M"
_symmetry_group_IT_number 55
_symmetry_cell_setting 'orthorhombic'
loop_
_space_group_symop_operation_xyz
x,y,z
-x,-y,z
1/2+x,1/2-y,-z
1/2-x,1/2+y,-z
-x,-y,-z
x,y,-z
1/2-x,1/2+y,z
1/2+x,1/2-y,z
loop_
_atom_site_type_symbol
_atom_site_label
_atom_site_fract_x
_atom_site_fract_y
_atom_site_fract_z
Si Si1 0.886457 0.501098 0.950455
Si Si2 0.611953 0.502090 0.896972
Si Si3 0.809558 0.181777 0.803003
Si Si4 0.685904 0.938339 0.642019
Si Si5 0.684565 0.820798 0.452116
Si Si6 0.440015 0.251402 0.722492
O O1 0.859035 0.208625 0.935012
O O2 0.000000 0.500000 0.951300
O O3 0.857493 0.711603 0.913044
O O4 0.855363 0.568782 0.000000
O O5 0.500000 0.500000 0.894828
O O6 0.647424 0.604458 0.850105
O O7 0.778732 0.487436 0.799246
O O8 0.879140 0.134180 0.762693
O O9 0.773889 0.735877 0.643704
O O10 0.636660 0.882094 0.594626
O O11 0.622577 0.865973 0.683265
O O12 0.863038 0.359631 0.500000
O O13 0.728084 0.526137 0.451372
O O14 0.500000 0.500000 0.705541
O O15 0.500000 0.000000 0.739073
#
# Coordination Sequence:
#
# PCOD9426230 Si02
#       6
#     8   8   8   8   8   8
#     4   9  17  31  55  86 115 145 184 226 265 315
#     4  10  20  35  58  85 113 145 185 230 273 321
#     4  12  25  42  62  84 114 149 189 234 287 345
#     4  10  19  35  58  84 115 150 191 236 284 335
#     4   8  14  25  46  77 109 143 186 232 272 320
#     4  12  25  41  61  85 114 147 189 237 289 345
#
# _framework density 22.000323999999999
#
# number of rings (size 3 to 8) (size 9 to 14) (size 15 to 20)
#    0.000    1.833    0.000    5.000    0.000    4.000 
#    0.000    0.000    0.000   11.000    0.000    0.000 
#    0.000    0.000    0.000    0.000    0.000    0.000 
#
# Total GULP energy -268227.923089 kJ/mol
# GULP energy per Si atom -5588.081731 kJ/mol
# Density = 2.195025 g / cm^3
# Si number density = 22.000324 Si / 1000 Ang^3
#
#
#
# Elastic Constant Matrix: (Units=GPa)
#
#
# Indices 1 2 3 4 5 6 
#
# 1 38.9161 -3.1962 21.9697 0.0000 0.0000 0.0000
# 2 -3.1962 73.6078 -7.6585 0.0000 0.0000 0.0000
# 3 21.9697 -7.6585 140.2717 0.0000 0.0000 0.0000
# 4 0.0000 0.0000 0.0000 36.1773 0.0000 0.0000
# 5 0.0000 0.0000 0.0000 0.0000 44.4697 0.0000
# 6 0.0000 0.0000 0.0000 0.0000 0.0000 6.9601
#
#
#
# Elastic Compliance Matrix: (Units=1/GPa)
#
#
# Indices 1 2 3 4 5 6 
#
# 1 0.028232 0.000770 -0.004380 0.000000 0.000000 0.000000
# 2 0.000770 0.013684 0.000626 0.000000 0.000000 0.000000
# 3 -0.004380 0.000626 0.007849 0.000000 0.000000 0.000000
# 4 0.000000 0.000000 0.000000 0.027642 0.000000 0.000000
# 5 0.000000 0.000000 0.000000 0.000000 0.022487 0.000000
# 6 0.000000 0.000000 0.000000 0.000000 0.000000 0.143675
#
#
# Mechanical properties :
#
#
# Convention : Reuss Voigt Hill
#
# Bulk Modulus (GPa) = 22.83139 30.55841 26.69490
# Shear Modulus (GPa) = 18.92966 33.63346 26.28156
#
# Velocity S-wave (km/s) = 2.93649 3.91419 3.46005
# Velocity P-wave (km/s) = 4.67948 5.86072 5.30309
#
# Compressibility (1/GPa) = 0.04379935
#
# Stress axis : x y z
#
# Youngs Moduli (GPa) = 35.42063 73.07732 127.40163
#
# Poissons Ratio (x) = -0.05628 0.55799
# Poissons Ratio (y) = -0.02728 -0.07982
# Poissons Ratio (z) = 0.15513 -0.04578
#
# Static dielectric constant tensor:
#      x y z
#    x 2.339400 0.000000 0.000000 
#    y 0.000000 1.761750 0.000000 
#    z 0.000000 0.000000 1.826400 
# 
# From -- ./inp_files/23977.got.cif
#   From: 2010.05.17/outbox.cif.g08.bks.cpg/sg55_12_cif.got.tgz:23977.got - 2010.06.03 13:27:54.
