data_PCOD9426916
_publ_section_title
;
Structure prediction by ZEFSAII (Michael W. Deem and Ramdas Pophale) SiO2 
 PCOD9426916
Probable space group: P B A M
;
_chemical_formula_sum "Si O2"
_cell_formula_units_Z 48
_cell_length_a 10.628844
_cell_length_b 27.651335
_cell_length_c 7.686522
_cell_angle_alpha 90.000000
_cell_angle_beta 90.000000
_cell_angle_gamma 90.000000
_cell_volume 2259.082084
_symmetry_space_group_name_H-M "P B A M"
_symmetry_group_IT_number 55
_symmetry_cell_setting 'orthorhombic'
loop_
_space_group_symop_operation_xyz
x,y,z
-x,-y,z
1/2+x,1/2-y,-z
1/2-x,1/2+y,-z
-x,-y,-z
x,y,-z
1/2-x,1/2+y,z
1/2+x,1/2-y,z
loop_
_atom_site_type_symbol
_atom_site_label
_atom_site_fract_x
_atom_site_fract_y
_atom_site_fract_z
Si Si1 0.118255 0.140911 0.207640
Si Si2 0.129563 0.363047 0.289529
Si Si3 0.871880 0.523772 0.208214
Si Si4 0.632544 0.698302 0.294296
Si Si5 0.119486 0.692410 0.708985
Si Si6 0.121760 0.030202 0.213165
O O1 0.250231 0.165583 0.253543
O O2 0.115460 0.085656 0.271681
O O3 0.999529 0.171202 0.273588
O O4 0.107832 0.139623 0.000000
O O5 0.129784 0.361359 0.500000
O O6 0.133660 0.419190 0.240978
O O7 0.252031 0.333829 0.224568
O O8 0.001552 0.337352 0.226351
O O9 0.748359 0.496201 0.273861
O O10 0.000000 0.500000 0.277740
O O11 0.872346 0.516937 0.000000
O O12 0.657251 0.703502 0.500000
O O13 0.624659 0.752687 0.222156
O O14 0.105458 0.695106 0.500000
O O15 0.122712 0.030485 0.000000
O O16 0.000000 0.000000 0.267536
#
# Coordination Sequence:
#
# PCOD9426916 Si02
#       6
#     8   8   8   8   8   8
#     4  11  22  36  58  87 114 142 183 234 278 320
#     4  10  21  36  57  84 110 142 188 235 273 317
#     4  10  20  35  55  77 106 146 184 220 272 334
#     4  10  21  39  60  81 110 150 189 223 273 338
#     4  10  21  39  60  80 110 152 188 221 271 335
#     4   9  18  33  52  75 106 144 180 215 267 331
#
# _framework density 21.247568999999999
#
# number of rings (size 3 to 8) (size 9 to 14) (size 15 to 20)
#    0.000    2.000    0.000    3.500    0.000    7.667 
#    0.000    3.333    0.000    4.500    0.000    0.000 
#    0.000    0.000    0.000    0.000    0.000    0.000 
#
# Total GULP energy -268323.809995 kJ/mol
# GULP energy per Si atom -5590.079375 kJ/mol
# Density = 2.119921 g / cm^3
# Si number density = 21.247569 Si / 1000 Ang^3
#
#
#
# Elastic Constant Matrix: (Units=GPa)
#
#
# Indices 1 2 3 4 5 6 
#
# 1 157.9731 84.5150 -18.4549 0.0000 0.0000 0.0000
# 2 84.5150 196.7667 -16.0295 0.0000 0.0000 0.0000
# 3 -18.4549 -16.0295 29.3810 0.0000 0.0000 0.0000
# 4 0.0000 0.0000 0.0000 20.9352 0.0000 0.0000
# 5 0.0000 0.0000 0.0000 0.0000 -196.4782 0.0000
# 6 0.0000 0.0000 0.0000 0.0000 0.0000 54.1255
#
#
#
# Elastic Compliance Matrix: (Units=1/GPa)
#
#
# Indices 1 2 3 4 5 6 
#
# 1 0.008554 -0.003387 0.003525 0.000000 0.000000 0.000000
# 2 -0.003387 0.006660 0.001506 0.000000 0.000000 0.000000
# 3 0.003525 0.001506 0.037071 0.000000 0.000000 0.000000
# 4 0.000000 0.000000 0.000000 0.047767 0.000000 0.000000
# 5 0.000000 0.000000 0.000000 0.000000 -0.005090 0.000000
# 6 0.000000 0.000000 0.000000 0.000000 0.000000 0.018476
#
#
# Mechanical properties :
#
#
# Convention : Reuss Voigt Hill
#
# Bulk Modulus (GPa) = 17.99430 53.79802 35.89616
# Shear Modulus (GPa) = 38.85799 -2.01081 18.42359
#
# Velocity S-wave (km/s) = 4.28111 -0.97387 2.94784
# Velocity P-wave (km/s) = 5.73798 4.91019 5.34015
#
# Compressibility (1/GPa) = 0.05557317
#
# Stress axis : x y z
#
# Youngs Moduli (GPa) = 116.90425 150.15947 26.97499
#
# Poissons Ratio (x) = 0.50858 -0.09509
# Poissons Ratio (y) = 0.39595 -0.04062
# Poissons Ratio (z) = -0.41211 -0.22612
#
# Static dielectric constant tensor:
#      x y z
#    x 1.739360 0.000000 0.000000 
#    y 0.000000 1.725890 0.000000 
#    z 0.000000 0.000000 1.795040 
# 
# From -- ./inp_files/2880.got.cif
#   From: 2010.05.17/outbox.cif.g08.bks.cpg/sg55_2_cif.got.tgz:2880.got - 2010.06.03 13:27:54.
