data_PCOD9426967
_publ_section_title
;
Structure prediction by ZEFSAII (Michael W. Deem and Ramdas Pophale) SiO2 
 PCOD9426967
Probable space group: P B A M
;
_chemical_formula_sum "Si O2"
_cell_formula_units_Z 64
_cell_length_a 9.168472
_cell_length_b 27.690052
_cell_length_c 13.331587
_cell_angle_alpha 90.000000
_cell_angle_beta 90.000000
_cell_angle_gamma 90.000000
_cell_volume 3384.562868
_symmetry_space_group_name_H-M "P B A M"
_symmetry_group_IT_number 55
_symmetry_cell_setting 'orthorhombic'
loop_
_space_group_symop_operation_xyz
x,y,z
-x,-y,z
1/2+x,1/2-y,-z
1/2-x,1/2+y,-z
-x,-y,-z
x,y,-z
1/2-x,1/2+y,z
1/2+x,1/2-y,z
loop_
_atom_site_type_symbol
_atom_site_label
_atom_site_fract_x
_atom_site_fract_y
_atom_site_fract_z
Si Si1 0.822533 0.537127 0.111829
Si Si2 0.765954 0.108445 0.385881
Si Si3 0.908373 0.214172 0.384493
Si Si4 0.608758 0.932396 0.189839
Si Si5 0.228271 0.202456 0.297463
Si Si6 0.667384 0.364277 0.117899
Si Si7 0.085530 0.613269 0.384511
Si Si8 0.047592 0.944009 0.215138
O O1 0.830627 0.481905 0.146331
O O2 0.659678 0.554265 0.122739
O O3 0.935534 0.565888 0.179086
O O4 0.877453 0.541142 0.000000
O O5 0.787757 0.090486 0.500000
O O6 0.590677 0.115302 0.374040
O O7 0.854619 0.075022 0.308112
O O8 0.837812 0.161318 0.377855
O O9 0.890566 0.231701 0.500000
O O10 0.078812 0.210308 0.358399
O O11 0.824230 0.249448 0.308439
O O12 0.673697 0.888720 0.126720
O O13 0.642126 0.926985 0.307096
O O14 0.179657 0.183483 0.187088
O O15 0.330503 0.161134 0.347350
O O16 0.571008 0.404194 0.179993
O O17 0.627284 0.358655 0.000000
O O18 0.119712 0.603931 0.500000
O O19 0.000000 0.000000 0.231994
#
# Coordination Sequence:
#
# PCOD9426967 Si02
#       8
#     8   8   8   8   8   8   8   8
#     4  11  21  35  57  81 111 155 213 268 308 350
#     4  10  22  41  62  89 128 167 206 260 320 381
#     4  11  21  38  65  93 122 158 201 252 311 377
#     4  10  20  35  56  84 116 154 206 258 305 364
#     4  11  23  39  65  98 128 159 204 260 311 384
#     4  11  23  41  62  90 129 170 210 262 316 369
#     4  10  20  37  59  86 123 160 195 248 316 379
#     4  12  23  39  62  92 127 170 224 271 318 380
#
# _framework density 18.909383999999999
#
# number of rings (size 3 to 8) (size 9 to 14) (size 15 to 20)
#    0.000    1.250    3.750    3.750    0.000    1.750 
#    0.000    2.500    0.000    0.000    0.000    0.000 
#    0.000    0.000    0.000    0.000    0.000    0.000 
#
# Total GULP energy -356706.772081 kJ/mol
# GULP energy per Si atom -5573.543314 kJ/mol
# Density = 1.886635 g / cm^3
# Si number density = 18.909384 Si / 1000 Ang^3
#
#
#
# Elastic Constant Matrix: (Units=GPa)
#
#
# Indices 1 2 3 4 5 6 
#
# 1 59.7231 24.4378 26.9022 0.0000 0.0000 0.0000
# 2 24.4378 49.8812 39.1169 0.0000 0.0000 0.0000
# 3 26.9022 39.1169 134.2458 0.0000 0.0000 0.0000
# 4 0.0000 0.0000 0.0000 14.8973 0.0000 0.0000
# 5 0.0000 0.0000 0.0000 0.0000 25.1450 0.0000
# 6 0.0000 0.0000 0.0000 0.0000 0.0000 28.6830
#
#
#
# Elastic Compliance Matrix: (Units=1/GPa)
#
#
# Indices 1 2 3 4 5 6 
#
# 1 0.021199 -0.009144 -0.001584 0.000000 0.000000 0.000000
# 2 -0.009144 0.029929 -0.006889 0.000000 0.000000 0.000000
# 3 -0.001584 -0.006889 0.009774 0.000000 0.000000 0.000000
# 4 0.000000 0.000000 0.000000 0.067126 0.000000 0.000000
# 5 0.000000 0.000000 0.000000 0.000000 0.039769 0.000000
# 6 0.000000 0.000000 0.000000 0.000000 0.000000 0.034864
#
#
# Mechanical properties :
#
#
# Convention : Reuss Voigt Hill
#
# Bulk Modulus (GPa) = 38.95654 47.19601 43.07628
# Shear Modulus (GPa) = 20.28809 23.97126 22.12967
#
# Velocity S-wave (km/s) = 3.27909 3.56433 3.42468
# Velocity P-wave (km/s) = 5.91464 6.47707 6.20223
#
# Compressibility (1/GPa) = 0.02566963
#
# Stress axis : x y z
#
# Youngs Moduli (GPa) = 47.17238 33.41208 102.31636
#
# Poissons Ratio (x) = 0.30551 0.16205
# Poissons Ratio (y) = 0.43133 0.70481
# Poissons Ratio (z) = 0.07471 0.23016
#
# Static dielectric constant tensor:
#      x y z
#    x 1.720370 0.000000 0.000000 
#    y 0.000000 1.647080 0.000000 
#    z 0.000000 0.000000 1.664420 
# 
# From -- ./inp_files/12627.got.cif
#   From: 2010.05.17/outbox.cif.g08.bks.cpg/sg55_7_cif.got.tgz:12627.got - 2010.06.03 13:27:54.
