data_PCOD9426879
_publ_section_title
;
Structure prediction by ZEFSAII (Michael W. Deem and Ramdas Pophale) SiO2 
 PCOD9426879
Probable space group: P B A M
;
_chemical_formula_sum "Si O2"
_cell_formula_units_Z 48
_cell_length_a 19.651151
_cell_length_b 5.618443
_cell_length_c 21.158295
_cell_angle_alpha 90.000000
_cell_angle_beta 90.000000
_cell_angle_gamma 90.000000
_cell_volume 2336.063480
_symmetry_space_group_name_H-M "P B A M"
_symmetry_group_IT_number 55
_symmetry_cell_setting 'orthorhombic'
loop_
_space_group_symop_operation_xyz
x,y,z
-x,-y,z
1/2+x,1/2-y,-z
1/2-x,1/2+y,-z
-x,-y,-z
x,y,-z
1/2-x,1/2+y,z
1/2+x,1/2-y,z
loop_
_atom_site_type_symbol
_atom_site_label
_atom_site_fract_x
_atom_site_fract_y
_atom_site_fract_z
Si Si1 0.926383 0.876379 0.070045
Si Si2 0.829724 0.597780 0.358294
Si Si3 0.327817 0.402741 0.309024
Si Si4 0.708258 0.130833 0.500000
Si Si5 0.789690 0.442877 0.069225
Si Si6 0.626602 0.725465 0.827485
Si Si7 0.500000 0.000000 0.147107
O O1 0.947964 0.628698 0.099860
O O2 0.882916 0.020618 0.120262
O O3 0.896955 0.873921 0.000000
O O4 0.000000 0.000000 0.065924
O O5 0.750532 0.589102 0.333859
O O6 0.858443 0.340306 0.338596
O O7 0.830748 0.622988 0.433704
O O8 0.858506 0.841353 0.328460
O O9 0.336120 0.367033 0.234418
O O10 0.747761 0.384987 0.500000
O O11 0.756975 0.705126 0.069293
O O12 0.828910 0.418097 0.135323
O O13 0.826346 0.420650 0.000000
O O14 0.550054 0.825891 0.814312
#
# Coordination Sequence:
#
# PCOD9426879 Si02
#       7
#     8   8   8   4   8   8   4
#     4   9  19  37  57  80 103 136 191 255 311 352
#     4  10  20  35  52  86 118 158 195 231 283 356
#     4  10  21  32  53  80 117 152 193 227 288 354
#     4  12  16  32  54  80 122 162 193 244 275 336
#     4  10  24  41  57  82 112 150 196 241 298 364
#     4  11  24  37  61  78 118 154 201 253 307 363
#     4  10  23  40  58  88 104 155 202 270 312 361
#
# _framework density 20.547385999999999
#
# number of rings (size 3 to 8) (size 9 to 14) (size 15 to 20)
#    0.000    1.833    3.333    0.750    9.333    2.000 
#    0.000    0.000    0.000    0.000    0.000    0.000 
#    0.000    7.333    0.000    0.000    0.000    0.000 
#
# Total GULP energy -267493.700083 kJ/mol
# GULP energy per Si atom -5572.785418 kJ/mol
# Density = 2.050062 g / cm^3
# Si number density = 20.547386 Si / 1000 Ang^3
#
#
#
# Elastic Constant Matrix: (Units=GPa)
#
#
# Indices 1 2 3 4 5 6 
#
# 1 20.7429 11.2905 24.4850 0.0000 0.0000 0.0000
# 2 11.2905 132.4051 -1.3571 0.0000 0.0000 0.0000
# 3 24.4850 -1.3571 103.2192 0.0000 0.0000 0.0000
# 4 0.0000 0.0000 0.0000 48.4716 0.0000 0.0000
# 5 0.0000 0.0000 0.0000 0.0000 30.5049 0.0000
# 6 0.0000 0.0000 0.0000 0.0000 0.0000 34.8651
#
#
#
# Elastic Compliance Matrix: (Units=1/GPa)
#
#
# Indices 1 2 3 4 5 6 
#
# 1 0.071859 -0.006303 -0.017129 0.000000 0.000000 0.000000
# 2 -0.006303 0.008106 0.001602 0.000000 0.000000 0.000000
# 3 -0.017129 0.001602 0.013772 0.000000 0.000000 0.000000
# 4 0.000000 0.000000 0.000000 0.020631 0.000000 0.000000
# 5 0.000000 0.000000 0.000000 0.000000 0.032782 0.000000
# 6 0.000000 0.000000 0.000000 0.000000 0.000000 0.028682
#
#
# Mechanical properties :
#
#
# Convention : Reuss Voigt Hill
#
# Bulk Modulus (GPa) = 19.96907 36.13377 28.05142
# Shear Modulus (GPa) = 21.16988 37.56491 29.36740
#
# Velocity S-wave (km/s) = 3.21330 4.28039 3.78465
# Velocity P-wave (km/s) = 4.84838 6.48481 5.72536
#
# Compressibility (1/GPa) = 0.05007744
#
# Stress axis : x y z
#
# Youngs Moduli (GPa) = 13.91618 123.35815 72.60932
#
# Poissons Ratio (x) = 0.77754 1.24371
# Poissons Ratio (y) = 0.08772 -0.11630
# Poissons Ratio (z) = 0.23837 -0.19759
#
# Static dielectric constant tensor:
#      x y z
#    x 1.784110 0.000000 0.000000 
#    y 0.000000 1.871610 0.000000 
#    z 0.000000 0.000000 1.710440 
# 
# From -- ./inp_files/22014.got.cif
#   From: 2010.05.17/outbox.cif.g08.bks.cpg/sg55_12_cif.got.tgz:22014.got - 2010.06.03 13:27:54.
