data_PCOD9426274
_publ_section_title
;
Structure prediction by ZEFSAII (Michael W. Deem and Ramdas Pophale) SiO2 
 PCOD9426274
Probable space group: P B A M
;
_chemical_formula_sum "Si O2"
_cell_formula_units_Z 48
_cell_length_a 20.618588
_cell_length_b 14.618134
_cell_length_c 8.314258
_cell_angle_alpha 90.000000
_cell_angle_beta 90.000000
_cell_angle_gamma 90.000000
_cell_volume 2505.961279
_symmetry_space_group_name_H-M "P B A M"
_symmetry_group_IT_number 55
_symmetry_cell_setting 'orthorhombic'
loop_
_space_group_symop_operation_xyz
x,y,z
-x,-y,z
1/2+x,1/2-y,-z
1/2-x,1/2+y,-z
-x,-y,-z
x,y,-z
1/2-x,1/2+y,z
1/2+x,1/2-y,z
loop_
_atom_site_type_symbol
_atom_site_label
_atom_site_fract_x
_atom_site_fract_y
_atom_site_fract_z
Si Si1 0.187930 0.444075 0.687458
Si Si2 0.859283 0.749797 0.806154
Si Si3 0.489711 0.244668 0.803057
Si Si4 0.438516 0.439365 0.803845
Si Si5 0.813367 0.948894 0.194011
Si Si6 0.567267 0.945184 0.187884
O O1 0.199242 0.433274 0.500000
O O2 0.177731 0.342792 0.759663
O O3 0.246664 0.503248 0.758693
O O4 0.122257 0.500534 0.719608
O O5 0.825952 0.844435 0.749817
O O6 0.934791 0.745056 0.751254
O O7 0.861448 0.753206 0.000000
O O8 0.452986 0.336328 0.752285
O O9 0.450492 0.155427 0.750669
O O10 0.491248 0.242127 0.000000
O O11 0.500000 0.500000 0.756082
O O12 0.372800 0.487331 0.748773
O O13 0.436957 0.438773 0.000000
O O14 0.816119 0.945997 0.000000
O O15 0.500000 0.000000 0.192253
O O16 0.587712 0.939668 0.000000
#
# Coordination Sequence:
#
# PCOD9426274 Si02
#       6
#     8   8   8   8   8   8
#     4  12  26  40  56  82 124 164 198 239 291 360
#     4  10  19  37  63  87 112 149 198 246 298 350
#     4   9  16  29  56  91 119 144 180 241 301 343
#     4   9  15  28  55  92 120 137 175 238 301 346
#     4  10  21  37  62  90 118 152 195 246 296 355
#     4  10  19  35  60  86 114 148 197 251 292 341
#
# _framework density 19.154326000000001
#
# number of rings (size 3 to 8) (size 9 to 14) (size 15 to 20)
#    0.000    2.000    3.333    1.500    0.000    2.333 
#    0.000    3.333    0.000    1.500    0.000    0.000 
#    0.000    0.000    0.000    0.000    0.000    0.000 
#
# Total GULP energy -267886.042017 kJ/mol
# GULP energy per Si atom -5580.959209 kJ/mol
# Density = 1.911073 g / cm^3
# Si number density = 19.154326 Si / 1000 Ang^3
#
#
#
# Elastic Constant Matrix: (Units=GPa)
#
#
# Indices 1 2 3 4 5 6 
#
# 1 104.1352 65.6651 9.2087 0.0000 0.0000 0.0000
# 2 65.6651 196.1461 15.5086 0.0000 0.0000 0.0000
# 3 9.2087 15.5086 12.3222 0.0000 0.0000 0.0000
# 4 0.0000 0.0000 0.0000 -5.3512 0.0000 0.0000
# 5 0.0000 0.0000 0.0000 0.0000 -18.1915 0.0000
# 6 0.0000 0.0000 0.0000 0.0000 0.0000 29.6052
#
#
#
# Elastic Compliance Matrix: (Units=1/GPa)
#
#
# Indices 1 2 3 4 5 6 
#
# 1 0.012392 -0.003794 -0.004486 0.000000 0.000000 0.000000
# 2 -0.003794 0.006823 -0.005752 0.000000 0.000000 0.000000
# 3 -0.004486 -0.005752 0.091747 0.000000 0.000000 0.000000
# 4 0.000000 0.000000 0.000000 -0.186875 0.000000 0.000000
# 5 0.000000 0.000000 0.000000 0.000000 -0.054971 0.000000
# 6 0.000000 0.000000 0.000000 0.000000 0.000000 0.033778
#
#
# Mechanical properties :
#
#
# Convention : Reuss Voigt Hill
#
# Bulk Modulus (GPa) = 12.06310 54.81871 33.44090
# Shear Modulus (GPa) = -120.74622 16.02723 -52.35949
#
# Velocity S-wave (km/s) = -7.94830 2.89579 -5.23402
# Velocity P-wave (km/s) = 8.82737 6.31367 4.36234
#
# Compressibility (1/GPa) = 0.08289744
#
# Stress axis : x y z
#
# Youngs Moduli (GPa) = 80.69795 146.56015 10.89960
#
# Poissons Ratio (x) = 0.55602 0.04889
# Poissons Ratio (y) = 0.30615 0.06270
# Poissons Ratio (z) = 0.36201 0.84306
#
# Static dielectric constant tensor:
#      x y z
#    x 1.636710 0.000000 0.000000 
#    y 0.000000 1.697610 0.000000 
#    z 0.000000 0.000000 1.671170 
# 
# From -- ./inp_files/8559.got.cif
#   From: 2010.05.17/outbox.cif.g08.bks.cpg/sg55_5_cif.got.tgz:8559.got - 2010.06.03 13:27:54.
