data_PCOD9426672
_publ_section_title
;
Structure prediction by ZEFSAII (Michael W. Deem and Ramdas Pophale) SiO2 
 PCOD9426672
Probable space group: P B A M
;
_chemical_formula_sum "Si O2"
_cell_formula_units_Z 56
_cell_length_a 13.788033
_cell_length_b 29.933151
_cell_length_c 8.975917
_cell_angle_alpha 90.000000
_cell_angle_beta 90.000000
_cell_angle_gamma 90.000000
_cell_volume 3704.533946
_symmetry_space_group_name_H-M "P B A M"
_symmetry_group_IT_number 55
_symmetry_cell_setting 'orthorhombic'
loop_
_space_group_symop_operation_xyz
x,y,z
-x,-y,z
1/2+x,1/2-y,-z
1/2-x,1/2+y,-z
-x,-y,-z
x,y,-z
1/2-x,1/2+y,z
1/2+x,1/2-y,z
loop_
_atom_site_type_symbol
_atom_site_label
_atom_site_fract_x
_atom_site_fract_y
_atom_site_fract_z
Si Si1 0.396953 0.595875 0.177146
Si Si2 0.890190 0.093714 0.679725
Si Si3 0.725984 0.682376 0.321984
Si Si4 0.117390 0.004738 0.671094
Si Si5 0.694258 0.318053 0.322370
Si Si6 0.401149 0.768499 0.823084
Si Si7 0.895606 0.270531 0.676116
O O1 0.506608 0.600058 0.240592
O O2 0.359177 0.547167 0.228480
O O3 0.334793 0.635379 0.249482
O O4 0.397903 0.599363 0.000000
O O5 0.907034 0.093583 0.500000
O O6 0.819027 0.134442 0.714749
O O7 0.848688 0.044623 0.718269
O O8 0.745061 0.684434 0.500000
O O9 0.822973 0.695687 0.235790
O O10 0.646994 0.721157 0.290430
O O11 0.146702 0.013411 0.500000
O O12 0.000000 0.000000 0.671880
O O13 0.678055 0.319257 0.500000
O O14 0.629729 0.278413 0.252626
O O15 0.805876 0.303889 0.296264
O O16 0.509149 0.779848 0.770168
O O17 0.395556 0.764407 0.000000
O O18 0.919220 0.271933 0.500000
#
# Coordination Sequence:
#
# PCOD9426672 Si02
#       7
#     8   8   8   8   8   8   8
#     4  11  20  28  43  68  96 122 148 185 231 274
#     4   9  17  30  48  67  90 124 160 189 217 258
#     4   9  18  32  49  67  88 119 157 188 217 259
#     4   8  15  28  44  63  89 121 155 186 218 262
#     4  10  20  34  50  65  86 120 158 189 218 261
#     4  11  21  31  46  69  96 120 144 183 229 270
#     4   9  18  32  49  66  87 120 156 187 219 259
#
# _framework density 15.116612
#
# number of rings (size 3 to 8) (size 9 to 14) (size 15 to 20)
#    0.000    2.429    0.000    5.571    0.000    7.143 
#    0.000    0.000    0.000    0.000    0.000    1.000 
#    0.000    8.000    0.000    0.000    0.000    0.000 
#
# Total GULP energy -312283.355463 kJ/mol
# GULP energy per Si atom -5576.488490 kJ/mol
# Density = 1.508221 g / cm^3
# Si number density = 15.116612 Si / 1000 Ang^3
#
#
#
# Elastic Constant Matrix: (Units=GPa)
#
#
# Indices 1 2 3 4 5 6 
#
# 1 69.0699 54.6213 57.4178 0.0000 0.0000 0.0000
# 2 54.6213 142.6307 67.1847 0.0000 0.0000 0.0000
# 3 57.4178 67.1847 87.2030 0.0000 0.0000 0.0000
# 4 0.0000 0.0000 0.0000 13.7845 0.0000 0.0000
# 5 0.0000 0.0000 0.0000 0.0000 1.2614 0.0000
# 6 0.0000 0.0000 0.0000 0.0000 0.0000 19.0386
#
#
#
# Elastic Compliance Matrix: (Units=1/GPa)
#
#
# Indices 1 2 3 4 5 6 
#
# 1 0.033248 -0.003799 -0.018964 0.000000 0.000000 0.000000
# 2 -0.003799 0.011439 -0.006311 0.000000 0.000000 0.000000
# 3 -0.018964 -0.006311 0.028817 0.000000 0.000000 0.000000
# 4 0.000000 0.000000 0.000000 0.072545 0.000000 0.000000
# 5 0.000000 0.000000 0.000000 0.000000 0.792789 0.000000
# 6 0.000000 0.000000 0.000000 0.000000 0.000000 0.052525
#
#
# Mechanical properties :
#
#
# Convention : Reuss Voigt Hill
#
# Bulk Modulus (GPa) = 65.13249 73.03903 69.08576
# Shear Modulus (GPa) = 4.74099 14.79555 9.76827
#
# Velocity S-wave (km/s) = 1.77288 3.13191 2.54479
# Velocity P-wave (km/s) = 6.88266 7.84222 7.37806
#
# Compressibility (1/GPa) = 0.01535332
#
# Stress axis : x y z
#
# Youngs Moduli (GPa) = 30.07706 87.41981 34.70177
#
# Poissons Ratio (x) = 0.33215 0.65810
# Poissons Ratio (y) = 0.11428 0.21902
# Poissons Ratio (z) = 0.57040 0.55174
#
# Static dielectric constant tensor:
#      x y z
#    x 1.477040 0.000000 0.000000 
#    y 0.000000 1.515020 0.000000 
#    z 0.000000 0.000000 1.499130 
# 
# From -- ./inp_files/6880.got.cif
#   From: 2010.05.17/outbox.cif.g08.bks.cpg/sg55_4_cif.got.tgz:6880.got - 2010.06.03 13:27:54.
