data_PCOD9426849
_publ_section_title
;
Structure prediction by ZEFSAII (Michael W. Deem and Ramdas Pophale) SiO2 
 PCOD9426849
Probable space group: P B A M
;
_chemical_formula_sum "Si O2"
_cell_formula_units_Z 48
_cell_length_a 10.150180
_cell_length_b 22.604714
_cell_length_c 9.820983
_cell_angle_alpha 90.000000
_cell_angle_beta 90.000000
_cell_angle_gamma 90.000000
_cell_volume 2253.345156
_symmetry_space_group_name_H-M "P B A M"
_symmetry_group_IT_number 55
_symmetry_cell_setting 'orthorhombic'
loop_
_space_group_symop_operation_xyz
x,y,z
-x,-y,z
1/2+x,1/2-y,-z
1/2-x,1/2+y,-z
-x,-y,-z
x,y,-z
1/2-x,1/2+y,z
1/2+x,1/2-y,z
loop_
_atom_site_type_symbol
_atom_site_label
_atom_site_fract_x
_atom_site_fract_y
_atom_site_fract_z
Si Si1 0.978546 0.930479 0.846755
Si Si2 0.350883 0.234902 0.340456
Si Si3 0.227074 0.431462 0.849139
Si Si4 0.423712 0.674529 0.657960
Si Si5 0.356119 0.029783 0.652761
Si Si6 0.543286 0.867423 0.840186
O O1 0.127722 0.906046 0.853976
O O2 0.907736 0.884523 0.747783
O O3 0.921494 0.930083 0.000000
O O4 0.000000 0.000000 0.810225
O O5 0.373505 0.217758 0.500000
O O6 0.194314 0.222667 0.316577
O O7 0.430979 0.296233 0.324983
O O8 0.423496 0.192947 0.233686
O O9 0.225412 0.480341 0.731807
O O10 0.110454 0.385121 0.826334
O O11 0.199525 0.458546 0.000000
O O12 0.412543 0.657842 0.500000
O O13 0.310612 0.044424 0.500000
O O14 0.377798 0.083944 0.753751
O O15 0.500000 0.000000 0.640627
O O16 0.575828 0.867632 0.000000
#
# Coordination Sequence:
#
# PCOD9426849 Si02
#       6
#     8   8   8   8   8   8
#     4  10  23  42  64  92 129 170 214 267 324 383
#     4  10  23  43  66  94 127 163 209 265 323 382
#     4   9  19  35  55  84 124 165 209 260 317 377
#     4  10  24  45  68  95 128 167 213 266 322 384
#     4   9  17  30  50  81 118 158 203 250 303 365
#     4  10  20  34  57  88 122 163 208 259 315 376
#
# _framework density 21.301662
#
# number of rings (size 3 to 8) (size 9 to 14) (size 15 to 20)
#    0.000    2.333    0.000    1.000    4.667    5.000 
#    0.000    0.000    0.000    0.000    0.000    0.000 
#    0.000    0.000    0.000    0.000    0.000    0.000 
#
# Total GULP energy -267584.676072 kJ/mol
# GULP energy per Si atom -5574.680751 kJ/mol
# Density = 2.125318 g / cm^3
# Si number density = 21.301662 Si / 1000 Ang^3
#
#
#
# Elastic Constant Matrix: (Units=GPa)
#
#
# Indices 1 2 3 4 5 6 
#
# 1 99.2372 19.4759 30.9908 0.0000 0.0000 0.0000
# 2 19.4759 79.9205 62.7646 0.0000 0.0000 0.0000
# 3 30.9908 62.7646 112.6145 0.0000 0.0000 0.0000
# 4 0.0000 0.0000 0.0000 26.8328 0.0000 0.0000
# 5 0.0000 0.0000 0.0000 0.0000 20.8748 0.0000
# 6 0.0000 0.0000 0.0000 0.0000 0.0000 23.9362
#
#
#
# Elastic Compliance Matrix: (Units=1/GPa)
#
#
# Indices 1 2 3 4 5 6 
#
# 1 0.011037 -0.000541 -0.002736 0.000000 0.000000 0.000000
# 2 -0.000541 0.022279 -0.012268 0.000000 0.000000 0.000000
# 3 -0.002736 -0.012268 0.016470 0.000000 0.000000 0.000000
# 4 0.000000 0.000000 0.000000 0.037268 0.000000 0.000000
# 5 0.000000 0.000000 0.000000 0.000000 0.047905 0.000000
# 6 0.000000 0.000000 0.000000 0.000000 0.000000 0.041778
#
#
# Mechanical properties :
#
#
# Convention : Reuss Voigt Hill
#
# Bulk Modulus (GPa) = 53.48591 57.58164 55.53377
# Shear Modulus (GPa) = 23.35811 26.23151 24.79481
#
# Velocity S-wave (km/s) = 3.31500 3.51298 3.41542
# Velocity P-wave (km/s) = 6.30996 6.59886 6.45602
#
# Compressibility (1/GPa) = 0.01869651
#
# Stress axis : x y z
#
# Youngs Moduli (GPa) = 90.60064 44.88578 60.71591
#
# Poissons Ratio (x) = 0.02429 0.16611
# Poissons Ratio (y) = 0.04903 0.74486
# Poissons Ratio (z) = 0.24787 0.55066
#
# Static dielectric constant tensor:
#      x y z
#    x 1.834870 0.000000 0.000000 
#    y 0.000000 1.811970 0.000000 
#    z 0.000000 0.000000 1.764430 
# 
# From -- ./inp_files/4082.got.cif
#   From: 2010.05.17/outbox.cif.g08.bks.cpg/sg55_3_cif.got.tgz:4082.got - 2010.06.03 13:27:54.
