data_PCOD9426520
_publ_section_title
;
Structure prediction by ZEFSAII (Michael W. Deem and Ramdas Pophale) SiO2 
 PCOD9426520
Probable space group: P B A M
;
_chemical_formula_sum "Si O2"
_cell_formula_units_Z 48
_cell_length_a 22.570394
_cell_length_b 7.888712
_cell_length_c 13.104937
_cell_angle_alpha 90.000000
_cell_angle_beta 90.000000
_cell_angle_gamma 90.000000
_cell_volume 2333.351567
_symmetry_space_group_name_H-M "P B A M"
_symmetry_group_IT_number 55
_symmetry_cell_setting 'orthorhombic'
loop_
_space_group_symop_operation_xyz
x,y,z
-x,-y,z
1/2+x,1/2-y,-z
1/2-x,1/2+y,-z
-x,-y,-z
x,y,-z
1/2-x,1/2+y,z
1/2+x,1/2-y,z
loop_
_atom_site_type_symbol
_atom_site_label
_atom_site_fract_x
_atom_site_fract_y
_atom_site_fract_z
Si Si1 0.342458 0.709469 0.500000
Si Si2 0.030094 0.816231 0.381945
Si Si3 0.785032 0.407175 0.884008
Si Si4 0.646376 0.821758 0.691585
Si Si5 0.280201 0.075832 0.500000
Si Si6 0.086851 0.305362 0.304395
Si Si7 0.659477 0.284976 0.115764
O O1 0.290580 0.572883 0.500000
O O2 0.383089 0.710644 0.599499
O O3 0.307015 0.887664 0.500000
O O4 0.035712 0.759317 0.500000
O O5 0.094810 0.810216 0.332920
O O6 0.983054 0.701015 0.321983
O O7 0.000000 0.000000 0.380586
O O8 0.820585 0.304159 0.798829
O O9 0.810922 0.596918 0.882261
O O10 0.715263 0.404604 0.859384
O O11 0.791198 0.340792 0.000000
O O12 0.694280 0.833629 0.600999
O O13 0.612584 0.004080 0.692736
O O14 0.108823 0.218857 0.200277
O O15 0.639060 0.318162 0.000000
#
# Coordination Sequence:
#
# PCOD9426520 Si02
#       7
#     4   8   8   8   4   8   8
#     4  10  20  31  48  75 103 132 166 206 255 306
#     4  11  23  37  54  77 102 134 175 220 265 308
#     4   9  18  33  54  80 108 139 174 211 255 305
#     4  10  20  35  54  75 103 139 175 210 254 311
#     4  10  20  31  48  75 103 132 166 206 255 306
#     4  10  20  35  54  75 103 139 175 210 254 311
#     4   9  18  33  54  80 108 139 174 211 255 305
#
# _framework density 20.571266999999999
#
# number of rings (size 3 to 8) (size 9 to 14) (size 15 to 20)
#    0.000    2.167    1.667    1.500    0.000    3.333 
#    0.000    0.833    0.000    5.000    0.000    0.000 
#    0.000    0.000    0.000    0.000    0.000    0.000 
#
# Total GULP energy -268254.877683 kJ/mol
# GULP energy per Si atom -5588.643285 kJ/mol
# Density = 2.052445 g / cm^3
# Si number density = 20.571267 Si / 1000 Ang^3
#
#
#
# Elastic Constant Matrix: (Units=GPa)
#
#
# Indices 1 2 3 4 5 6 
#
# 1 41.4312 17.8383 20.3765 0.0000 0.0000 0.0000
# 2 17.8383 35.0835 26.4758 0.0000 0.0000 0.0000
# 3 20.3765 26.4758 87.7940 0.0000 0.0000 0.0000
# 4 0.0000 0.0000 0.0000 1.5276 0.0000 0.0000
# 5 0.0000 0.0000 0.0000 0.0000 21.4925 0.0000
# 6 0.0000 0.0000 0.0000 0.0000 0.0000 31.4791
#
#
#
# Elastic Compliance Matrix: (Units=1/GPa)
#
#
# Indices 1 2 3 4 5 6 
#
# 1 0.031589 -0.013631 -0.003221 0.000000 0.000000 0.000000
# 2 -0.013631 0.042783 -0.009738 0.000000 0.000000 0.000000
# 3 -0.003221 -0.009738 0.015075 0.000000 0.000000 0.000000
# 4 0.000000 0.000000 0.000000 0.654641 0.000000 0.000000
# 5 0.000000 0.000000 0.000000 0.000000 0.046528 0.000000
# 6 0.000000 0.000000 0.000000 0.000000 0.000000 0.031767
#
#
# Mechanical properties :
#
#
# Convention : Reuss Voigt Hill
#
# Bulk Modulus (GPa) = 27.57361 32.63220 30.10291
# Shear Modulus (GPa) = 5.63284 17.54105 11.58694
#
# Velocity S-wave (km/s) = 1.65655 2.92326 2.37588
# Velocity P-wave (km/s) = 4.13424 5.22412 4.71080
#
# Compressibility (1/GPa) = 0.03626656
#
# Stress axis : x y z
#
# Youngs Moduli (GPa) = 31.65619 23.37367 66.33644
#
# Poissons Ratio (x) = 0.31860 0.21367
# Poissons Ratio (y) = 0.43150 0.64601
# Poissons Ratio (z) = 0.10197 0.22762
#
# Static dielectric constant tensor:
#      x y z
#    x 1.698490 0.000000 0.000000 
#    y 0.000000 1.795850 0.000000 
#    z 0.000000 0.000000 1.711830 
# 
# From -- ./inp_files/12281.got.cif
#   From: 2010.05.17/outbox.cif.g08.bks.cpg/sg55_7_cif.got.tgz:12281.got - 2010.06.03 13:27:54.
