data_PCOD9426268
_publ_section_title
;
Structure prediction by ZEFSAII (Michael W. Deem and Ramdas Pophale) SiO2 
 PCOD9426268
Probable space group: P B A M
;
_chemical_formula_sum "Si O2"
_cell_formula_units_Z 48
_cell_length_a 30.070615
_cell_length_b 10.380468
_cell_length_c 8.319037
_cell_angle_alpha 90.000000
_cell_angle_beta 90.000000
_cell_angle_gamma 90.000000
_cell_volume 2596.762915
_symmetry_space_group_name_H-M "P B A M"
_symmetry_group_IT_number 55
_symmetry_cell_setting 'orthorhombic'
loop_
_space_group_symop_operation_xyz
x,y,z
-x,-y,z
1/2+x,1/2-y,-z
1/2-x,1/2+y,-z
-x,-y,-z
x,y,-z
1/2-x,1/2+y,z
1/2+x,1/2-y,z
loop_
_atom_site_type_symbol
_atom_site_label
_atom_site_fract_x
_atom_site_fract_y
_atom_site_fract_z
Si Si1 0.112953 0.534122 0.191783
Si Si2 0.027639 0.119456 0.808650
Si Si3 0.217758 0.243585 0.193160
Si Si4 0.211916 0.533784 0.309131
Si Si5 0.116881 0.237126 0.804138
Si Si6 0.523098 0.866452 0.309852
O O1 0.163519 0.566648 0.236460
O O2 0.106388 0.384689 0.243141
O O3 0.075246 0.619768 0.272986
O O4 0.107583 0.541104 0.000000
O O5 0.077493 0.145097 0.745282
O O6 0.999595 0.248265 0.779558
O O7 0.032311 0.098614 0.000000
O O8 0.000000 0.000000 0.739712
O O9 0.225268 0.392047 0.244128
O O10 0.167297 0.208619 0.246411
O O11 0.252864 0.143050 0.262346
O O12 0.219372 0.237942 0.000000
O O13 0.207849 0.525524 0.500000
O O14 0.116774 0.235391 0.000000
O O15 0.515806 0.851389 0.500000
O O16 0.500000 0.000000 0.257170
#
# Coordination Sequence:
#
# PCOD9426268 Si02
#       6
#     8   8   8   8   8   8
#     4  10  19  35  60  84 109 148 193 238 283 338
#     4  10  20  36  57  82 113 149 190 234 281 335
#     4  10  20  38  61  84 112 154 199 235 281 351
#     4  11  22  38  59  87 120 149 186 243 300 344
#     4   8  16  32  56  82 107 142 189 234 273 328
#     4  11  22  35  55  84 115 149 187 232 283 334
#
# _framework density 18.484552000000001
#
# number of rings (size 3 to 8) (size 9 to 14) (size 15 to 20)
#    0.000    2.000    1.667    4.000    0.000    1.000 
#    3.000    0.833    0.000    0.000    0.000    0.000 
#    0.000    0.000    0.000    0.000    0.000    0.000 
#
# Total GULP energy -267905.983438 kJ/mol
# GULP energy per Si atom -5581.374655 kJ/mol
# Density = 1.844248 g / cm^3
# Si number density = 18.484552 Si / 1000 Ang^3
#
#
#
# Elastic Constant Matrix: (Units=GPa)
#
#
# Indices 1 2 3 4 5 6 
#
# 1 92.7673 33.0235 -23.4450 0.0000 0.0000 0.0000
# 2 33.0235 47.9354 -18.7897 0.0000 0.0000 0.0000
# 3 -23.4450 -18.7897 15.2956 0.0000 0.0000 0.0000
# 4 0.0000 0.0000 0.0000 17.0107 0.0000 0.0000
# 5 0.0000 0.0000 0.0000 0.0000 -1.8944 0.0000
# 6 0.0000 0.0000 0.0000 0.0000 0.0000 34.5291
#
#
#
# Elastic Compliance Matrix: (Units=1/GPa)
#
#
# Indices 1 2 3 4 5 6 
#
# 1 0.017821 -0.003028 0.023596 0.000000 0.000000 0.000000
# 2 -0.003028 0.040751 0.045419 0.000000 0.000000 0.000000
# 3 0.023596 0.045419 0.157341 0.000000 0.000000 0.000000
# 4 0.000000 0.000000 0.000000 0.058786 0.000000 0.000000
# 5 0.000000 0.000000 0.000000 0.000000 -0.527859 0.000000
# 6 0.000000 0.000000 0.000000 0.000000 0.000000 0.028961
#
#
# Mechanical properties :
#
#
# Convention : Reuss Voigt Hill
#
# Bulk Modulus (GPa) = 2.87450 15.28621 9.08036
# Shear Modulus (GPa) = -20.81509 20.94304 0.06397
#
# Velocity S-wave (km/s) = -3.35935 3.36966 0.18624
# Velocity P-wave (km/s) = 3.67268 4.84016 2.22920
#
# Compressibility (1/GPa) = 0.34788704
#
# Stress axis : x y z
#
# Youngs Moduli (GPa) = 56.11342 24.53956 6.35561
#
# Poissons Ratio (x) = 0.07430 -0.14997
# Poissons Ratio (y) = 0.16991 -0.28866
# Poissons Ratio (z) = -1.32408 -1.11455
#
# Static dielectric constant tensor:
#      x y z
#    x 1.650860 0.000000 0.000000 
#    y 0.000000 1.612400 0.000000 
#    z 0.000000 0.000000 1.643400 
# 
# From -- ./inp_files/2906.got.cif
#   From: 2010.05.17/outbox.cif.g08.bks.cpg/sg55_2_cif.got.tgz:2906.got - 2010.06.03 13:27:54.
