data_PCOD9426434
_publ_section_title
;
Structure prediction by ZEFSAII (Michael W. Deem and Ramdas Pophale) SiO2 
 PCOD9426434
Probable space group: P B A M
;
_chemical_formula_sum "Si O2"
_cell_formula_units_Z 48
_cell_length_a 28.416498
_cell_length_b 10.254348
_cell_length_c 7.586116
_cell_angle_alpha 90.000000
_cell_angle_beta 90.000000
_cell_angle_gamma 90.000000
_cell_volume 2210.538516
_symmetry_space_group_name_H-M "P B A M"
_symmetry_group_IT_number 55
_symmetry_cell_setting 'orthorhombic'
loop_
_space_group_symop_operation_xyz
x,y,z
-x,-y,z
1/2+x,1/2-y,-z
1/2-x,1/2+y,-z
-x,-y,-z
x,y,-z
1/2-x,1/2+y,z
1/2+x,1/2-y,z
loop_
_atom_site_type_symbol
_atom_site_label
_atom_site_fract_x
_atom_site_fract_y
_atom_site_fract_z
Si Si1 0.539652 0.596645 0.791508
Si Si2 0.714490 0.764894 0.705266
Si Si3 0.640958 0.978193 0.283859
Si Si4 0.537324 0.892745 0.713191
Si Si5 0.179042 0.244230 0.286392
Si Si6 0.644060 0.541856 0.793004
O O1 0.500000 0.500000 0.717655
O O2 0.525376 0.746408 0.768713
O O3 0.592469 0.576928 0.718712
O O4 0.543400 0.567722 0.000000
O O5 0.721081 0.798168 0.500000
O O6 0.681339 0.878956 0.779060
O O7 0.766932 0.753977 0.779153
O O8 0.685302 0.630972 0.714406
O O9 0.640799 0.975106 0.500000
O O10 0.589853 0.929122 0.226433
O O11 0.652466 0.125089 0.228325
O O12 0.537398 0.894834 0.500000
O O13 0.500000 0.000000 0.774360
O O14 0.179414 0.247954 0.500000
O O15 0.154740 0.110027 0.232174
O O16 0.644276 0.572835 0.000000
#
# Coordination Sequence:
#
# PCOD9426434 Si02
#       6
#     8   8   8   8   8   8
#     4  10  23  42  60  81 114 155 194 232 282 347
#     4  10  19  37  62  84 111 151 194 233 282 341
#     4   9  18  34  55  82 114 143 180 233 281 330
#     4  10  21  37  59  87 114 141 182 239 293 336
#     4  10  21  36  59  87 114 150 192 231 278 340
#     4  11  23  38  57  85 119 152 190 238 286 334
#
# _framework density 21.714167
#
# number of rings (size 3 to 8) (size 9 to 14) (size 15 to 20)
#    0.000    2.000    1.667    1.500    2.333    4.667 
#    0.000    1.667    0.000    0.000    0.000    0.000 
#    0.000    0.000    0.000    0.000    0.000    0.000 
#
# Total GULP energy -268281.722355 kJ/mol
# GULP energy per Si atom -5589.202549 kJ/mol
# Density = 2.166474 g / cm^3
# Si number density = 21.714167 Si / 1000 Ang^3
#
#
#
# Elastic Constant Matrix: (Units=GPa)
#
#
# Indices 1 2 3 4 5 6 
#
# 1 100.9177 46.3334 -2.5017 0.0000 0.0000 0.0000
# 2 46.3334 142.8936 -25.7434 0.0000 0.0000 0.0000
# 3 -2.5017 -25.7434 44.0680 0.0000 0.0000 0.0000
# 4 0.0000 0.0000 0.0000 31.4785 0.0000 0.0000
# 5 0.0000 0.0000 0.0000 0.0000 -2.1493 0.0000
# 6 0.0000 0.0000 0.0000 0.0000 0.0000 39.3278
#
#
#
# Elastic Compliance Matrix: (Units=1/GPa)
#
#
# Indices 1 2 3 4 5 6 
#
# 1 0.011761 -0.004128 -0.001744 0.000000 0.000000 0.000000
# 2 -0.004128 0.009270 0.005181 0.000000 0.000000 0.000000
# 3 -0.001744 0.005181 0.025620 0.000000 0.000000 0.000000
# 4 0.000000 0.000000 0.000000 0.031768 0.000000 0.000000
# 5 0.000000 0.000000 0.000000 0.000000 -0.465264 0.000000
# 6 0.000000 0.000000 0.000000 0.000000 0.000000 0.025427
#
#
# Mechanical properties :
#
#
# Convention : Reuss Voigt Hill
#
# Bulk Modulus (GPa) = 22.08956 36.00622 29.04789
# Shear Modulus (GPa) = -14.49494 31.71746 8.61126
#
# Velocity S-wave (km/s) = -2.58647 3.82603 1.99358
# Velocity P-wave (km/s) = 1.12924 6.01132 4.32499
#
# Compressibility (1/GPa) = 0.04527025
#
# Stress axis : x y z
#
# Youngs Moduli (GPa) = 85.02743 107.87502 39.03232
#
# Poissons Ratio (x) = 0.44527 0.06806
# Poissons Ratio (y) = 0.35096 -0.20222
# Poissons Ratio (z) = 0.14825 -0.55890
#
# Static dielectric constant tensor:
#      x y z
#    x 1.779790 0.000000 0.000000 
#    y 0.000000 1.732180 0.000000 
#    z 0.000000 0.000000 1.834260 
# 
# From -- ./inp_files/2853.got.cif
#   From: 2010.05.17/outbox.cif.g08.bks.cpg/sg55_2_cif.got.tgz:2853.got - 2010.06.03 13:27:54.
