data_PCOD9426232
_publ_section_title
;
Structure prediction by ZEFSAII (Michael W. Deem and Ramdas Pophale) SiO2 
 PCOD9426232
Probable space group: P B A M
;
_chemical_formula_sum "Si O2"
_cell_formula_units_Z 56
_cell_length_a 21.729499
_cell_length_b 15.221544
_cell_length_c 7.947517
_cell_angle_alpha 90.000000
_cell_angle_beta 90.000000
_cell_angle_gamma 90.000000
_cell_volume 2628.693106
_symmetry_space_group_name_H-M "P B A M"
_symmetry_group_IT_number 55
_symmetry_cell_setting 'orthorhombic'
loop_
_space_group_symop_operation_xyz
x,y,z
-x,-y,z
1/2+x,1/2-y,-z
1/2-x,1/2+y,-z
-x,-y,-z
x,y,-z
1/2-x,1/2+y,z
1/2+x,1/2-y,z
loop_
_atom_site_type_symbol
_atom_site_label
_atom_site_fract_x
_atom_site_fract_y
_atom_site_fract_z
Si Si1 0.430072 0.483160 0.793685
Si Si2 0.816849 0.912491 0.804820
Si Si3 0.732216 0.067112 0.304799
Si Si4 0.096312 0.784728 0.796670
Si Si5 0.508024 0.865021 0.305090
Si Si6 0.402020 0.980253 0.806008
Si Si7 0.769374 0.260290 0.798750
O O1 0.500000 0.500000 0.742411
O O2 0.382401 0.557277 0.732627
O O3 0.408644 0.385810 0.741027
O O4 0.428265 0.484056 0.000000
O O5 0.776290 0.834277 0.727538
O O6 0.774668 0.999020 0.794748
O O7 0.827987 0.888822 0.000000
O O8 0.750013 0.064555 0.500000
O O9 0.661595 0.038997 0.284420
O O10 0.742085 0.164468 0.234984
O O11 0.038111 0.727179 0.742871
O O12 0.160233 0.741382 0.734790
O O13 0.098006 0.784951 0.000000
O O14 0.491335 0.866603 0.500000
O O15 0.448115 0.897221 0.205093
O O16 0.560201 0.938642 0.270781
O O17 0.388925 0.001170 0.000000
O O18 0.773583 0.274836 0.000000
#
# Coordination Sequence:
#
# PCOD9426232 Si02
#       7
#     8   8   8   8   8   8   8
#     4   9  18  34  58  86 116 153 204 259 302 348
#     4  10  20  38  62  88 119 158 209 259 307 366
#     4  12  24  38  59  88 124 158 196 251 316 370
#     4  10  19  35  58  85 118 158 207 251 302 370
#     4  11  22  37  58  88 124 155 194 245 307 364
#     4  11  22  39  61  85 117 158 204 246 299 360
#     4  10  21  37  61  89 116 156 208 258 305 367
#
# _framework density 21.303363000000001
#
# number of rings (size 3 to 8) (size 9 to 14) (size 15 to 20)
#    0.000    1.571    1.429    5.571    0.000    3.429 
#    0.000    2.857    0.000    1.714    0.000    0.000 
#    0.000    0.000    0.000    0.000    0.000    0.000 
#
# Total GULP energy -312978.379942 kJ/mol
# GULP energy per Si atom -5588.899642 kJ/mol
# Density = 2.125488 g / cm^3
# Si number density = 21.303363 Si / 1000 Ang^3
#
#
#
# Elastic Constant Matrix: (Units=GPa)
#
#
# Indices 1 2 3 4 5 6 
#
# 1 93.2490 4.5959 -2.2840 0.0000 0.0000 0.0000
# 2 4.5959 52.0785 -6.7301 0.0000 0.0000 0.0000
# 3 -2.2840 -6.7301 27.8548 0.0000 0.0000 0.0000
# 4 0.0000 0.0000 0.0000 45.7752 0.0000 0.0000
# 5 0.0000 0.0000 0.0000 0.0000 7.3856 0.0000
# 6 0.0000 0.0000 0.0000 0.0000 0.0000 34.8441
#
#
#
# Elastic Compliance Matrix: (Units=1/GPa)
#
#
# Indices 1 2 3 4 5 6 
#
# 1 0.010783 -0.000864 0.000675 0.000000 0.000000 0.000000
# 2 -0.000864 0.019890 0.004735 0.000000 0.000000 0.000000
# 3 0.000675 0.004735 0.037100 0.000000 0.000000 0.000000
# 4 0.000000 0.000000 0.000000 0.021846 0.000000 0.000000
# 5 0.000000 0.000000 0.000000 0.000000 0.135398 0.000000
# 6 0.000000 0.000000 0.000000 0.000000 0.000000 0.028699
#
#
# Mechanical properties :
#
#
# Convention : Reuss Voigt Hill
#
# Bulk Modulus (GPa) = 13.00993 18.26068 15.63530
# Shear Modulus (GPa) = 18.50165 29.44101 23.97133
#
# Velocity S-wave (km/s) = 2.95020 3.72154 3.35809
# Velocity P-wave (km/s) = 4.21013 5.20162 4.73192
#
# Compressibility (1/GPa) = 0.07686437
#
# Stress axis : x y z
#
# Youngs Moduli (GPa) = 92.73758 50.27670 26.95434
#
# Poissons Ratio (x) = 0.04346 -0.01820
# Poissons Ratio (y) = 0.08016 -0.12762
# Poissons Ratio (z) = -0.06263 -0.23805
#
# Static dielectric constant tensor:
#      x y z
#    x 1.768010 0.000000 0.000000 
#    y 0.000000 1.754780 0.000000 
#    z 0.000000 0.000000 1.733690 
# 
# From -- ./inp_files/8807.got.cif
#   From: 2010.05.17/outbox.cif.g08.bks.cpg/sg55_5_cif.got.tgz:8807.got - 2010.06.03 13:27:54.
