data_PCOD9426046
_publ_section_title
;
Structure prediction by ZEFSAII (Michael W. Deem and Ramdas Pophale) SiO2 
 PCOD9426046
Probable space group: P B A M
;
_chemical_formula_sum "Si O2"
_cell_formula_units_Z 48
_cell_length_a 17.013502
_cell_length_b 18.446013
_cell_length_c 8.868338
_cell_angle_alpha 90.000000
_cell_angle_beta 90.000000
_cell_angle_gamma 90.000000
_cell_volume 2783.161858
_symmetry_space_group_name_H-M "P B A M"
_symmetry_group_IT_number 55
_symmetry_cell_setting 'orthorhombic'
loop_
_space_group_symop_operation_xyz
x,y,z
-x,-y,z
1/2+x,1/2-y,-z
1/2-x,1/2+y,-z
-x,-y,-z
x,y,-z
1/2-x,1/2+y,z
1/2+x,1/2-y,z
loop_
_atom_site_type_symbol
_atom_site_label
_atom_site_fract_x
_atom_site_fract_y
_atom_site_fract_z
Si Si1 0.356719 0.826328 0.318528
Si Si2 0.911038 0.981067 0.817843
Si Si3 0.665976 0.329651 0.180142
Si Si4 0.740242 0.550103 0.681166
Si Si5 0.988496 0.415281 0.318470
Si Si6 0.323780 0.089013 0.820052
O O1 0.356713 0.823785 0.500000
O O2 0.355158 0.745690 0.255664
O O3 0.281257 0.874595 0.272546
O O4 0.435351 0.869497 0.272249
O O5 0.886716 0.899041 0.773581
O O6 0.845681 0.034070 0.747724
O O7 0.904602 0.985418 0.000000
O O8 0.000000 0.000000 0.774710
O O9 0.755647 0.352930 0.214216
O O10 0.658492 0.322337 0.000000
O O11 0.737725 0.546860 0.500000
O O12 0.795889 0.485346 0.741159
O O13 0.980537 0.410799 0.500000
O O14 0.000000 0.500000 0.279944
O O15 0.908595 0.389492 0.241112
O O16 0.325201 0.078124 0.000000
#
# Coordination Sequence:
#
# PCOD9426046 Si02
#       6
#     8   8   8   8   8   8
#     4  10  21  36  54  79 111 145 179 220 273 324
#     4   9  19  38  60  81 107 141 183 229 275 322
#     4   9  20  37  55  77 108 142 178 222 271 321
#     4  10  19  34  56  80 107 140 179 222 267 320
#     4  10  19  35  56  80 112 144 177 221 270 317
#     4  10  20  35  55  81 107 140 183 218 263 323
#
# _framework density 17.246572
#
# number of rings (size 3 to 8) (size 9 to 14) (size 15 to 20)
#    0.000    2.333    1.667    2.000    0.000    6.000 
#    3.000    0.000    0.000    0.000    0.000    0.000 
#    0.000    0.000    0.000    0.000    0.000    0.000 
#
# Total GULP energy -267762.069551 kJ/mol
# GULP energy per Si atom -5578.376449 kJ/mol
# Density = 1.720732 g / cm^3
# Si number density = 17.246572 Si / 1000 Ang^3
#
#
#
# Elastic Constant Matrix: (Units=GPa)
#
#
# Indices 1 2 3 4 5 6 
#
# 1 170.0530 90.0431 44.2758 0.0000 0.0000 0.0000
# 2 90.0431 124.6462 35.1011 0.0000 0.0000 0.0000
# 3 44.2758 35.1011 22.2575 0.0000 0.0000 0.0000
# 4 0.0000 0.0000 0.0000 36.3528 0.0000 0.0000
# 5 0.0000 0.0000 0.0000 0.0000 31.6384 0.0000
# 6 0.0000 0.0000 0.0000 0.0000 0.0000 19.7681
#
#
#
# Elastic Compliance Matrix: (Units=1/GPa)
#
#
# Indices 1 2 3 4 5 6 
#
# 1 0.013144 -0.003835 -0.020099 0.000000 0.000000 0.000000
# 2 -0.003835 0.015551 -0.016895 0.000000 0.000000 0.000000
# 3 -0.020099 -0.016895 0.111556 0.000000 0.000000 0.000000
# 4 0.000000 0.000000 0.000000 0.027508 0.000000 0.000000
# 5 0.000000 0.000000 0.000000 0.000000 0.031607 0.000000
# 6 0.000000 0.000000 0.000000 0.000000 0.000000 0.050587
#
#
# Mechanical properties :
#
#
# Convention : Reuss Voigt Hill
#
# Bulk Modulus (GPa) = 17.06729 72.86630 44.96679
# Shear Modulus (GPa) = 14.23921 27.38763 20.81342
#
# Velocity S-wave (km/s) = 2.87649 3.98930 3.47769
# Velocity P-wave (km/s) = 4.57709 7.97250 6.50041
#
# Compressibility (1/GPa) = 0.05859162
#
# Stress axis : x y z
#
# Youngs Moduli (GPa) = 76.07767 64.30379 8.96415
#
# Poissons Ratio (x) = 0.24663 0.18017
# Poissons Ratio (y) = 0.29179 0.15145
# Poissons Ratio (z) = 1.52909 1.08643
#
# Static dielectric constant tensor:
#      x y z
#    x 1.585600 0.000000 0.000000 
#    y 0.000000 1.560610 0.000000 
#    z 0.000000 0.000000 1.581640 
# 
# From -- ./inp_files/5633.got.cif
#   From: 2010.05.17/outbox.cif.g08.bks.cpg/sg55_3_cif.got.tgz:5633.got - 2010.06.03 13:27:54.
