data_PCOD9426465
_publ_section_title
;
Structure prediction by ZEFSAII (Michael W. Deem and Ramdas Pophale) SiO2 
 PCOD9426465
Probable space group: P B A M
;
_chemical_formula_sum "Si O2"
_cell_formula_units_Z 44
_cell_length_a 28.048509
_cell_length_b 8.021356
_cell_length_c 7.648186
_cell_angle_alpha 90.000000
_cell_angle_beta 90.000000
_cell_angle_gamma 90.000000
_cell_volume 1720.743005
_symmetry_space_group_name_H-M "P B A M"
_symmetry_group_IT_number 55
_symmetry_cell_setting 'orthorhombic'
loop_
_space_group_symop_operation_xyz
x,y,z
-x,-y,z
1/2+x,1/2-y,-z
1/2-x,1/2+y,-z
-x,-y,-z
x,y,-z
1/2-x,1/2+y,z
1/2+x,1/2-y,z
loop_
_atom_site_type_symbol
_atom_site_label
_atom_site_fract_x
_atom_site_fract_y
_atom_site_fract_z
Si Si1 0.845043 0.523608 0.305851
Si Si2 0.412149 0.689533 0.704067
Si Si3 0.736161 0.800718 0.201141
Si Si4 0.824655 0.995831 0.212825
Si Si5 0.988020 0.302357 0.803732
Si Si6 0.415380 0.218308 0.500000
O O1 0.829992 0.581265 0.500000
O O2 0.877915 0.664714 0.221398
O O3 0.798257 0.461621 0.209438
O O4 0.880608 0.370771 0.349089
O O5 0.421145 0.729253 0.500000
O O6 0.377394 0.530384 0.713121
O O7 0.462405 0.700303 0.796359
O O8 0.788098 0.849176 0.267564
O O9 0.703801 0.656501 0.280937
O O10 0.743043 0.755347 0.000000
O O11 0.828234 0.000445 0.000000
O O12 0.000000 0.500000 0.765371
O O13 0.954185 0.236275 0.653443
O O14 0.968153 0.294777 0.000000
#
# Coordination Sequence:
#
# PCOD9426465 Si02
#       6
#     8   8   8   8   8   4
#     4   9  20  34  57  81 119 152 191 246 296 356
#     4  11  20  35  57  88 120 158 197 253 302 356
#     4  10  21  39  60  83 117 154 196 250 303 363
#     4  10  22  38  58  86 117 152 199 250 300 366
#     4  11  19  31  57  88 122 163 202 252 307 351
#     4  10  19  38  54  85 132 147 206 253 297 354
#
# _framework density 25.570350000000001
#
# number of rings (size 3 to 8) (size 9 to 14) (size 15 to 20)
#    0.545    1.273    2.727    1.909    0.000    5.091 
#    0.000    0.000    0.000    2.182    0.000    3.818 
#    0.000    0.000    0.000    0.000    0.000    0.000 
#
# Total GULP energy -245002.286344 kJ/mol
# GULP energy per Si atom -5568.233781 kJ/mol
# Density = 2.551215 g / cm^3
# Si number density = 25.570350 Si / 1000 Ang^3
#
#
#
# Elastic Constant Matrix: (Units=GPa)
#
#
# Indices 1 2 3 4 5 6 
#
# 1 140.1987 23.6696 39.5606 0.0000 0.0000 0.0000
# 2 23.6696 60.5598 6.3703 0.0000 0.0000 0.0000
# 3 39.5606 6.3703 106.6488 0.0000 0.0000 0.0000
# 4 0.0000 0.0000 0.0000 -19.2450 0.0000 0.0000
# 5 0.0000 0.0000 0.0000 0.0000 15.3125 0.0000
# 6 0.0000 0.0000 0.0000 0.0000 0.0000 40.2435
#
#
#
# Elastic Compliance Matrix: (Units=1/GPa)
#
#
# Indices 1 2 3 4 5 6 
#
# 1 0.008476 -0.003001 -0.002965 0.000000 0.000000 0.000000
# 2 -0.003001 0.017679 0.000057 0.000000 0.000000 0.000000
# 3 -0.002965 0.000057 0.010473 0.000000 0.000000 0.000000
# 4 0.000000 0.000000 0.000000 -0.051962 0.000000 0.000000
# 5 0.000000 0.000000 0.000000 0.000000 0.065306 0.000000
# 6 0.000000 0.000000 0.000000 0.000000 0.000000 0.024849
#
#
# Mechanical properties :
#
#
# Convention : Reuss Voigt Hill
#
# Bulk Modulus (GPa) = 40.30446 49.62316 44.96381
# Shear Modulus (GPa) = 52.68180 23.11600 37.89890
#
# Velocity S-wave (km/s) = 4.54394 3.00995 3.85404
# Velocity P-wave (km/s) = 6.58227 5.61501 6.11779
#
# Compressibility (1/GPa) = 0.02481115
#
# Stress axis : x y z
#
# Youngs Moduli (GPa) = 117.98027 56.56270 95.48411
#
# Poissons Ratio (x) = 0.16974 0.28310
# Poissons Ratio (y) = 0.35405 -0.00546
# Poissons Ratio (z) = 0.34980 -0.00323
#
# Static dielectric constant tensor:
#      x y z
#    x 1.982160 0.000000 0.000000 
#    y 0.000000 2.202270 0.000000 
#    z 0.000000 0.000000 1.936160 
# 
# From -- ./inp_files/10408.got.cif
#   From: 2010.05.17/outbox.cif.g08.bks.cpg/sg55_6_cif.got.tgz:10408.got - 2010.06.03 13:27:54.
