data_PCOD9426509
_publ_section_title
;
Structure prediction by ZEFSAII (Michael W. Deem and Ramdas Pophale) SiO2 
 PCOD9426509
Probable space group: P B A M
;
_chemical_formula_sum "Si O2"
_cell_formula_units_Z 52
_cell_length_a 12.521400
_cell_length_b 19.415893
_cell_length_c 7.847812
_cell_angle_alpha 90.000000
_cell_angle_beta 90.000000
_cell_angle_gamma 90.000000
_cell_volume 1907.914243
_symmetry_space_group_name_H-M "P B A M"
_symmetry_group_IT_number 55
_symmetry_cell_setting 'orthorhombic'
loop_
_space_group_symop_operation_xyz
x,y,z
-x,-y,z
1/2+x,1/2-y,-z
1/2-x,1/2+y,-z
-x,-y,-z
x,y,-z
1/2-x,1/2+y,z
1/2+x,1/2-y,z
loop_
_atom_site_type_symbol
_atom_site_label
_atom_site_fract_x
_atom_site_fract_y
_atom_site_fract_z
Si Si1 0.257163 0.304566 0.306675
Si Si2 0.102137 0.428804 0.305133
Si Si3 0.460739 0.226664 0.000000
Si Si4 0.624427 0.867588 0.304880
Si Si5 0.781907 0.975790 0.805928
Si Si6 0.908400 0.801925 0.304107
Si Si7 0.935538 0.094297 0.803123
O O1 0.296269 0.311475 0.500000
O O2 0.152464 0.352371 0.288442
O O3 0.348808 0.342317 0.200103
O O4 0.211732 0.228030 0.282882
O O5 0.121594 0.451530 0.500000
O O6 0.178257 0.473666 0.188539
O O7 0.976601 0.421025 0.279553
O O8 0.397188 0.183954 0.849146
O O9 0.531603 0.265043 0.850633
O O10 0.611639 0.841704 0.500000
O O11 0.733306 0.911165 0.292198
O O12 0.873938 0.026835 0.735011
O O13 0.807270 0.955472 0.000000
O O14 0.934174 0.781594 0.500000
O O15 0.957230 0.878912 0.285276
O O16 0.957238 0.080480 0.000000
#
# Coordination Sequence:
#
# PCOD9426509 Si02
#       7
#     8   8   4   8   8   8   8
#     4   9  18  32  50  73 103 138 176 219 261 306
#     4   9  17  28  42  65  96 134 173 206 246 298
#     4  12  22  34  51  74  98 135 175 223 254 313
#     4  11  21  32  47  69  99 136 174 211 254 306
#     4  10  20  30  45  69 100 136 174 210 253 305
#     4  11  22  37  56  76 104 141 179 221 266 310
#     4  10  21  34  53  78 106 142 179 217 265 312
#
# _framework density 27.254894
#
# number of rings (size 3 to 8) (size 9 to 14) (size 15 to 20)
#    0.000    1.846    3.077    1.846    2.154    3.692 
#    0.000    0.000    0.000    0.000    0.000    0.000 
#    0.000    2.462    0.000    6.615    0.000    0.154 
#
# Total GULP energy -289877.034876 kJ/mol
# GULP energy per Si atom -5574.558363 kJ/mol
# Density = 2.719286 g / cm^3
# Si number density = 27.254894 Si / 1000 Ang^3
#
#
#
# Elastic Constant Matrix: (Units=GPa)
#
#
# Indices 1 2 3 4 5 6 
#
# 1 133.8872 22.1230 40.4400 0.0000 0.0000 0.0000
# 2 22.1230 120.9515 38.2460 0.0000 0.0000 0.0000
# 3 40.4400 38.2460 173.2218 0.0000 0.0000 0.0000
# 4 0.0000 0.0000 0.0000 17.0751 0.0000 0.0000
# 5 0.0000 0.0000 0.0000 0.0000 50.1452 0.0000
# 6 0.0000 0.0000 0.0000 0.0000 0.0000 56.2969
#
#
#
# Elastic Compliance Matrix: (Units=1/GPa)
#
#
# Indices 1 2 3 4 5 6 
#
# 1 0.008137 -0.000954 -0.001689 0.000000 0.000000 0.000000
# 2 -0.000954 0.009000 -0.001764 0.000000 0.000000 0.000000
# 3 -0.001689 -0.001764 0.006557 0.000000 0.000000 0.000000
# 4 0.000000 0.000000 0.000000 0.058565 0.000000 0.000000
# 5 0.000000 0.000000 0.000000 0.000000 0.019942 0.000000
# 6 0.000000 0.000000 0.000000 0.000000 0.000000 0.017763
#
#
# Mechanical properties :
#
#
# Convention : Reuss Voigt Hill
#
# Bulk Modulus (GPa) = 67.21009 69.96427 68.58718
# Shear Modulus (GPa) = 37.38645 46.52022 41.95334
#
# Velocity S-wave (km/s) = 3.70771 4.13590 3.92764
# Velocity P-wave (km/s) = 6.56070 6.96660 6.76670
#
# Compressibility (1/GPa) = 0.01487872
#
# Stress axis : x y z
#
# Youngs Moduli (GPa) = 122.89886 111.10821 152.51334
#
# Poissons Ratio (x) = 0.10602 0.25758
# Poissons Ratio (y) = 0.11727 0.26910
# Poissons Ratio (z) = 0.20756 0.19604
#
# Static dielectric constant tensor:
#      x y z
#    x 2.198270 0.000000 0.000000 
#    y 0.000000 2.269880 0.000000 
#    z 0.000000 0.000000 1.896620 
# 
# From -- ./inp_files/6358.got.cif
#   From: 2010.05.17/outbox.cif.g08.bks.cpg/sg55_4_cif.got.tgz:6358.got - 2010.06.03 13:27:54.
