data_PCOD9426922
_publ_section_title
;
Structure prediction by ZEFSAII (Michael W. Deem and Ramdas Pophale) SiO2 
 PCOD9426922
Probable space group: P B A M
;
_chemical_formula_sum "Si O2"
_cell_formula_units_Z 64
_cell_length_a 16.067212
_cell_length_b 14.975331
_cell_length_c 13.812209
_cell_angle_alpha 90.000000
_cell_angle_beta 90.000000
_cell_angle_gamma 90.000000
_cell_volume 3323.380717
_symmetry_space_group_name_H-M "P B A M"
_symmetry_group_IT_number 55
_symmetry_cell_setting 'orthorhombic'
loop_
_space_group_symop_operation_xyz
x,y,z
-x,-y,z
1/2+x,1/2-y,-z
1/2-x,1/2+y,-z
-x,-y,-z
x,y,-z
1/2-x,1/2+y,z
1/2+x,1/2-y,z
loop_
_atom_site_type_symbol
_atom_site_label
_atom_site_fract_x
_atom_site_fract_y
_atom_site_fract_z
Si Si1 0.434532 0.573541 0.810649
Si Si2 0.859280 0.435197 0.384936
Si Si3 0.241661 0.233672 0.391378
Si Si4 0.493522 0.171481 0.284268
Si Si5 0.310037 0.439423 0.885548
Si Si6 0.446710 0.659393 0.608310
Si Si7 0.318005 0.890770 0.266596
Si Si8 0.448973 0.285146 0.887705
O O1 0.500000 0.500000 0.846491
O O2 0.347199 0.529496 0.837133
O O3 0.447515 0.589841 0.696497
O O4 0.463772 0.663931 0.862991
O O5 0.866532 0.448726 0.500000
O O6 0.801487 0.348422 0.367400
O O7 0.822091 0.522458 0.334832
O O8 0.946576 0.408256 0.337171
O O9 0.262659 0.265623 0.500000
O O10 0.147888 0.195179 0.394386
O O11 0.238558 0.315033 0.317308
O O12 0.497917 0.256425 0.357261
O O13 0.588079 0.145523 0.259132
O O14 0.446246 0.204667 0.188194
O O15 0.224158 0.415276 0.834347
O O16 0.375677 0.357674 0.869360
O O17 0.303501 0.452303 0.000000
O O18 0.469283 0.628930 0.500000
O O19 0.446085 0.259668 0.000000
#
# Coordination Sequence:
#
# PCOD9426922 Si02
#       8
#     8   8   8   8   8   8   8   8
#     4   9  17  30  51  80 110 140 180 229 277 332
#     4  11  22  37  59  84 112 150 190 225 271 333
#     4   9  19  35  54  77 106 140 182 229 269 316
#     4  10  21  35  53  79 110 145 187 230 267 326
#     4  10  20  35  55  79 107 139 182 237 289 337
#     4   9  17  31  50  74 108 146 179 220 274 323
#     4  11  22  36  56  81 113 148 184 228 280 331
#     4   9  18  35  59  81 105 145 191 235 286 335
#
# _framework density 19.257498999999999
#
# number of rings (size 3 to 8) (size 9 to 14) (size 15 to 20)
#    0.000    2.250    0.000    3.000    0.000    4.250 
#    0.000    1.250    0.000    7.500    0.000    0.000 
#    0.000    0.000    0.000    0.000    0.000    0.000 
#
# Total GULP energy -357048.880368 kJ/mol
# GULP energy per Si atom -5578.888756 kJ/mol
# Density = 1.921367 g / cm^3
# Si number density = 19.257499 Si / 1000 Ang^3
#
#
#
# Elastic Constant Matrix: (Units=GPa)
#
#
# Indices 1 2 3 4 5 6 
#
# 1 32.8838 12.6915 26.8826 0.0000 0.0000 0.0000
# 2 12.6915 65.0553 39.9484 0.0000 0.0000 0.0000
# 3 26.8826 39.9484 97.5494 0.0000 0.0000 0.0000
# 4 0.0000 0.0000 0.0000 21.1969 0.0000 0.0000
# 5 0.0000 0.0000 0.0000 0.0000 19.7235 0.0000
# 6 0.0000 0.0000 0.0000 0.0000 0.0000 18.1768
#
#
#
# Elastic Compliance Matrix: (Units=1/GPa)
#
#
# Indices 1 2 3 4 5 6 
#
# 1 0.039343 -0.001359 -0.010285 0.000000 0.000000 0.000000
# 2 -0.001359 0.020583 -0.008054 0.000000 0.000000 0.000000
# 3 -0.010285 -0.008054 0.016384 0.000000 0.000000 0.000000
# 4 0.000000 0.000000 0.000000 0.047177 0.000000 0.000000
# 5 0.000000 0.000000 0.000000 0.000000 0.050701 0.000000
# 6 0.000000 0.000000 0.000000 0.000000 0.000000 0.055015
#
#
# Mechanical properties :
#
#
# Convention : Reuss Voigt Hill
#
# Bulk Modulus (GPa) = 27.09189 39.39261 33.24225
# Shear Modulus (GPa) = 17.79962 19.55052 18.67507
#
# Velocity S-wave (km/s) = 3.04352 3.18970 3.11747
# Velocity P-wave (km/s) = 5.14290 5.83659 5.50069
#
# Compressibility (1/GPa) = 0.03691142
#
# Stress axis : x y z
#
# Youngs Moduli (GPa) = 25.41741 48.58457 61.03485
#
# Poissons Ratio (x) = 0.06605 0.62777
# Poissons Ratio (y) = 0.03455 0.49160
# Poissons Ratio (z) = 0.26143 0.39132
#
# Static dielectric constant tensor:
#      x y z
#    x 1.689560 0.000000 0.000000 
#    y 0.000000 1.678740 0.000000 
#    z 0.000000 0.000000 1.661880 
# 
# From -- ./inp_files/15001.got.cif
#   From: 2010.05.17/outbox.cif.g08.bks.cpg/sg55_8_cif.got.tgz:15001.got - 2010.06.03 13:27:54.
