data_PCOD9426712
_publ_section_title
;
Structure prediction by ZEFSAII (Michael W. Deem and Ramdas Pophale) SiO2 
 PCOD9426712
Probable space group: P B A M
;
_chemical_formula_sum "Si O2"
_cell_formula_units_Z 52
_cell_length_a 18.917030
_cell_length_b 8.780716
_cell_length_c 15.959508
_cell_angle_alpha 90.000000
_cell_angle_beta 90.000000
_cell_angle_gamma 90.000000
_cell_volume 2650.955161
_symmetry_space_group_name_H-M "P B A M"
_symmetry_group_IT_number 55
_symmetry_cell_setting 'orthorhombic'
loop_
_space_group_symop_operation_xyz
x,y,z
-x,-y,z
1/2+x,1/2-y,-z
1/2-x,1/2+y,-z
-x,-y,-z
x,y,-z
1/2-x,1/2+y,z
1/2+x,1/2-y,z
loop_
_atom_site_type_symbol
_atom_site_label
_atom_site_fract_x
_atom_site_fract_y
_atom_site_fract_z
Si Si1 0.385416 0.066161 0.743224
Si Si2 0.081191 0.720106 0.090788
Si Si3 0.268229 0.363592 0.905911
Si Si4 0.000000 0.000000 0.835160
Si Si5 0.526187 0.823931 0.593107
Si Si6 0.087554 0.209899 0.706486
Si Si7 0.777819 0.867840 0.216010
O O1 0.425459 0.114626 0.828337
O O2 0.416358 0.168238 0.667321
O O3 0.301971 0.103139 0.752562
O O4 0.402008 0.889161 0.727363
O O5 0.165262 0.751560 0.086197
O O6 0.044933 0.882214 0.109513
O O7 0.057711 0.661316 0.000000
O O8 0.294765 0.507586 0.854450
O O9 0.215987 0.284517 0.840363
O O10 0.241872 0.396667 0.000000
O O11 0.047029 0.109663 0.776023
O O12 0.550924 0.781629 0.500000
O O13 0.461759 0.717719 0.624559
O O14 0.500000 0.000000 0.588660
O O15 0.166247 0.139812 0.708986
#
# Coordination Sequence:
#
# PCOD9426712 Si02
#       7
#     8   8   8   4   8   8   8
#     4  10  21  40  62  85 121 159 206 248 300 362
#     4  10  21  36  55  83 119 162 204 243 293 357
#     4  10  20  34  52  78 115 156 207 252 293 351
#     4  12  21  36  59  84 122 160 195 254 301 350
#     4   9  19  39  68  91 114 152 198 243 299 368
#     4  11  22  38  62  90 119 157 202 248 310 361
#     4  11  20  36  57  85 115 160 201 249 306 353
#
# _framework density 19.615570999999999
#
# number of rings (size 3 to 8) (size 9 to 14) (size 15 to 20)
#    0.000    1.692    4.615    0.692    0.000    0.615 
#    0.000    3.462    0.000    0.000    0.000    0.000 
#    0.000    0.000    0.000    0.000    0.000    0.000 
#
# Total GULP energy -289663.429886 kJ/mol
# GULP energy per Si atom -5570.450575 kJ/mol
# Density = 1.957092 g / cm^3
# Si number density = 19.615571 Si / 1000 Ang^3
#
#
#
# Elastic Constant Matrix: (Units=GPa)
#
#
# Indices 1 2 3 4 5 6 
#
# 1 77.0696 12.3389 44.1394 0.0000 0.0000 0.0000
# 2 12.3389 40.8128 20.8341 0.0000 0.0000 0.0000
# 3 44.1394 20.8341 133.9038 0.0000 0.0000 0.0000
# 4 0.0000 0.0000 0.0000 16.2562 0.0000 0.0000
# 5 0.0000 0.0000 0.0000 0.0000 21.7269 0.0000
# 6 0.0000 0.0000 0.0000 0.0000 0.0000 8.7332
#
#
#
# Elastic Compliance Matrix: (Units=1/GPa)
#
#
# Indices 1 2 3 4 5 6 
#
# 1 0.016201 -0.002359 -0.004973 0.000000 0.000000 0.000000
# 2 -0.002359 0.026960 -0.003417 0.000000 0.000000 0.000000
# 3 -0.004973 -0.003417 0.009639 0.000000 0.000000 0.000000
# 4 0.000000 0.000000 0.000000 0.061515 0.000000 0.000000
# 5 0.000000 0.000000 0.000000 0.000000 0.046026 0.000000
# 6 0.000000 0.000000 0.000000 0.000000 0.000000 0.114506
#
#
# Mechanical properties :
#
#
# Convention : Reuss Voigt Hill
#
# Bulk Modulus (GPa) = 31.94806 45.15676 38.55241
# Shear Modulus (GPa) = 16.29830 20.97484 18.63657
#
# Velocity S-wave (km/s) = 2.88564 3.27356 3.08570
# Velocity P-wave (km/s) = 5.23689 6.11221 5.69140
#
# Compressibility (1/GPa) = 0.03130081
#
# Stress axis : x y z
#
# Youngs Moduli (GPa) = 61.72294 37.09238 103.74393
#
# Poissons Ratio (x) = 0.08751 0.51597
# Poissons Ratio (y) = 0.14562 0.35449
# Poissons Ratio (z) = 0.30698 0.12674
#
# Static dielectric constant tensor:
#      x y z
#    x 1.733220 0.000000 0.000000 
#    y 0.000000 1.825250 0.000000 
#    z 0.000000 0.000000 1.705890 
# 
# From -- ./inp_files/19683.got.cif
#   From: 2010.05.17/outbox.cif.g08.bks.cpg/sg55_10_cif.got.tgz:19683.got - 2010.06.03 13:27:54.
