data_PCOD9426381
_publ_section_title
;
Structure prediction by ZEFSAII (Michael W. Deem and Ramdas Pophale) SiO2 
 PCOD9426381
Probable space group: P B A M
;
_chemical_formula_sum "Si O2"
_cell_formula_units_Z 56
_cell_length_a 21.860236
_cell_length_b 14.974511
_cell_length_c 7.559482
_cell_angle_alpha 90.000000
_cell_angle_beta 90.000000
_cell_angle_gamma 90.000000
_cell_volume 2474.568799
_symmetry_space_group_name_H-M "P B A M"
_symmetry_group_IT_number 55
_symmetry_cell_setting 'orthorhombic'
loop_
_space_group_symop_operation_xyz
x,y,z
-x,-y,z
1/2+x,1/2-y,-z
1/2-x,1/2+y,-z
-x,-y,-z
x,y,-z
1/2-x,1/2+y,z
1/2+x,1/2-y,z
loop_
_atom_site_type_symbol
_atom_site_label
_atom_site_fract_x
_atom_site_fract_y
_atom_site_fract_z
Si Si1 0.117396 0.896634 0.214438
Si Si2 0.540914 0.920829 0.795088
Si Si3 0.678531 0.914024 0.216555
Si Si4 0.990391 0.228105 0.297427
Si Si5 0.288922 0.707792 0.783360
Si Si6 0.596590 0.406813 0.207913
Si Si7 0.240664 0.401079 0.784674
O O1 0.076560 0.815501 0.281039
O O2 0.188279 0.895905 0.267597
O O3 0.090355 0.992278 0.275804
O O4 0.114844 0.890454 0.000000
O O5 0.608996 0.908813 0.719051
O O6 0.508333 0.824962 0.790320
O O7 0.500000 0.000000 0.715713
O O8 0.551024 0.946183 0.000000
O O9 0.724406 0.835351 0.270826
O O10 0.708538 0.007899 0.271653
O O11 0.678150 0.910832 0.000000
O O12 0.006153 0.242224 0.500000
O O13 0.037555 0.155017 0.224983
O O14 0.344652 0.646219 0.720074
O O15 0.292637 0.810487 0.727562
O O16 0.290504 0.707552 0.000000
O O17 0.609157 0.419052 0.000000
O O18 0.240446 0.402883 0.000000
#
# Coordination Sequence:
#
# PCOD9426381 Si02
#       7
#     8   8   8   8   8   8   8
#     4  10  19  36  60  89 118 147 190 243 295 344
#     4  10  22  39  63  92 118 149 193 241 287 340
#     4   9  16  30  52  87 120 141 176 229 289 339
#     4  12  26  40  56  79 115 161 199 234 288 348
#     4   9  16  27  49  82 118 148 177 227 290 345
#     4  10  20  35  58  86 114 146 194 247 295 340
#     4   9  16  27  52  87 118 144 174 228 293 342
#
# _framework density 22.630205
#
# number of rings (size 3 to 8) (size 9 to 14) (size 15 to 20)
#    0.000    2.143    1.429    2.571    2.000    4.857 
#    0.000    0.000    0.000    4.286    0.000    0.000 
#    0.000    0.000    0.000    0.000    0.000    0.000 
#
# Total GULP energy -312945.309552 kJ/mol
# GULP energy per Si atom -5588.309099 kJ/mol
# Density = 2.257870 g / cm^3
# Si number density = 22.630205 Si / 1000 Ang^3
#
#
#
# Elastic Constant Matrix: (Units=GPa)
#
#
# Indices 1 2 3 4 5 6 
#
# 1 33.5572 17.4404 -10.8477 0.0000 0.0000 0.0000
# 2 17.4404 102.0777 -4.8932 0.0000 0.0000 0.0000
# 3 -10.8477 -4.8932 42.0032 0.0000 0.0000 0.0000
# 4 0.0000 0.0000 0.0000 165.9061 0.0000 0.0000
# 5 0.0000 0.0000 0.0000 0.0000 -54.1781 0.0000
# 6 0.0000 0.0000 0.0000 0.0000 0.0000 32.1412
#
#
#
# Elastic Compliance Matrix: (Units=1/GPa)
#
#
# Indices 1 2 3 4 5 6 
#
# 1 0.035489 -0.005656 0.008507 0.000000 0.000000 0.000000
# 2 -0.005656 0.010753 -0.000208 0.000000 0.000000 0.000000
# 3 0.008507 -0.000208 0.025980 0.000000 0.000000 0.000000
# 4 0.000000 0.000000 0.000000 0.006028 0.000000 0.000000
# 5 0.000000 0.000000 0.000000 0.000000 -0.018458 0.000000
# 6 0.000000 0.000000 0.000000 0.000000 0.000000 0.031113
#
#
# Mechanical properties :
#
#
# Convention : Reuss Voigt Hill
#
# Bulk Modulus (GPa) = 12.90191 20.11522 16.50856
# Shear Modulus (GPa) = 44.86114 40.50308 42.68211
#
# Velocity S-wave (km/s) = 4.45720 4.23517 4.34760
# Velocity P-wave (km/s) = 5.67471 5.72918 5.70201
#
# Compressibility (1/GPa) = 0.07750793
#
# Stress axis : x y z
#
# Youngs Moduli (GPa) = 28.17767 92.99913 38.49064
#
# Poissons Ratio (x) = 0.52597 -0.32742
# Poissons Ratio (y) = 0.15936 0.00800
# Poissons Ratio (z) = -0.23969 0.01934
#
# Static dielectric constant tensor:
#      x y z
#    x 1.813700 0.000000 0.000000 
#    y 0.000000 1.822110 0.000000 
#    z 0.000000 0.000000 1.869220 
# 
# From -- ./inp_files/6180.got.cif
#   From: 2010.05.17/outbox.cif.g08.bks.cpg/sg55_4_cif.got.tgz:6180.got - 2010.06.03 13:27:54.
