data_PCOD9426261
_publ_section_title
;
Structure prediction by ZEFSAII (Michael W. Deem and Ramdas Pophale) SiO2 
 PCOD9426261
Probable space group: P B A M
;
_chemical_formula_sum "Si O2"
_cell_formula_units_Z 64
_cell_length_a 9.109659
_cell_length_b 21.674651
_cell_length_c 14.867461
_cell_angle_alpha 90.000000
_cell_angle_beta 90.000000
_cell_angle_gamma 90.000000
_cell_volume 2935.560543
_symmetry_space_group_name_H-M "P B A M"
_symmetry_group_IT_number 55
_symmetry_cell_setting 'orthorhombic'
loop_
_space_group_symop_operation_xyz
x,y,z
-x,-y,z
1/2+x,1/2-y,-z
1/2-x,1/2+y,-z
-x,-y,-z
x,y,-z
1/2-x,1/2+y,z
1/2+x,1/2-y,z
loop_
_atom_site_type_symbol
_atom_site_label
_atom_site_fract_x
_atom_site_fract_y
_atom_site_fract_z
Si Si1 0.070043 0.814355 0.640793
Si Si2 0.566773 0.936435 0.152139
Si Si3 0.587203 0.189124 0.142101
Si Si4 0.928452 0.184632 0.858021
Si Si5 0.940205 0.561804 0.646805
Si Si6 0.597100 0.442396 0.894665
Si Si7 0.392413 0.447604 0.395397
Si Si8 0.906065 0.693445 0.637807
O O1 0.067353 0.814699 0.749240
O O2 0.979990 0.756155 0.608411
O O3 0.025553 0.882217 0.610286
O O4 0.237167 0.806022 0.611403
O O5 0.500548 0.872518 0.113764
O O6 0.514044 0.936479 0.255449
O O7 0.742464 0.937385 0.148838
O O8 0.500000 0.000000 0.112197
O O9 0.510669 0.252766 0.111879
O O10 0.586444 0.191202 0.252283
O O11 0.757579 0.185392 0.114582
O O12 0.009285 0.121835 0.886052
O O13 0.763231 0.557195 0.654949
O O14 0.971844 0.628623 0.605061
O O15 0.000000 0.500000 0.601678
O O16 0.500000 0.500000 0.860275
O O17 0.624807 0.454203 0.000000
O O18 0.500000 0.500000 0.360676
O O19 0.357135 0.460488 0.500000
#
# Coordination Sequence:
#
# PCOD9426261 Si02
#       8
#     8   8   8   8   8   8   8   8
#     4   9  18  32  54  80 110 148 189 232 278 337
#     4  10  20  37  61  89 117 151 198 244 292 357
#     4   9  17  32  56  87 118 150 192 245 297 341
#     4  10  19  35  59  85 117 155 197 243 292 353
#     4   9  19  35  58  87 115 149 195 238 285 349
#     4  11  25  42  59  84 120 157 194 245 307 361
#     4  10  22  39  57  83 122 159 192 239 296 348
#     4   8  16  30  50  81 113 140 179 236 287 326
#
# _framework density 21.801628000000001
#
# number of rings (size 3 to 8) (size 9 to 14) (size 15 to 20)
#    0.000    2.500    0.000    2.250    0.000    9.000 
#    0.000    5.625    0.000    0.000    0.000    0.000 
#    0.000    0.000    0.000    0.000    0.000    0.000 
#
# Total GULP energy -357399.948085 kJ/mol
# GULP energy per Si atom -5584.374189 kJ/mol
# Density = 2.175201 g / cm^3
# Si number density = 21.801628 Si / 1000 Ang^3
#
#
#
# Elastic Constant Matrix: (Units=GPa)
#
#
# Indices 1 2 3 4 5 6 
#
# 1 152.5786 112.3758 19.8886 0.0000 0.0000 0.0000
# 2 112.3758 249.0128 1.8346 0.0000 0.0000 0.0000
# 3 19.8886 1.8346 75.6351 0.0000 0.0000 0.0000
# 4 0.0000 0.0000 0.0000 -57.0123 0.0000 0.0000
# 5 0.0000 0.0000 0.0000 0.0000 -17.9440 0.0000
# 6 0.0000 0.0000 0.0000 0.0000 0.0000 47.9002
#
#
#
# Elastic Compliance Matrix: (Units=1/GPa)
#
#
# Indices 1 2 3 4 5 6 
#
# 1 0.010303 -0.004630 -0.002597 0.000000 0.000000 0.000000
# 2 -0.004630 0.006098 0.001070 0.000000 0.000000 0.000000
# 3 -0.002597 0.001070 0.013878 0.000000 0.000000 0.000000
# 4 0.000000 0.000000 0.000000 -0.017540 0.000000 0.000000
# 5 0.000000 0.000000 0.000000 0.000000 -0.055729 0.000000
# 6 0.000000 0.000000 0.000000 0.000000 0.000000 0.020877
#
#
# Mechanical properties :
#
#
# Convention : Reuss Voigt Hill
#
# Bulk Modulus (GPa) = 55.66821 82.82496 69.24659
# Shear Modulus (GPa) = -1312.09225 17.46396 -647.31415
#
# Velocity S-wave (km/s) = -24.55888 2.83333 -17.24980
# Velocity P-wave (km/s) = 27.90333 6.98401 19.10261
#
# Compressibility (1/GPa) = 0.01796357
#
# Stress axis : x y z
#
# Youngs Moduli (GPa) = 97.06077 163.99898 72.05500
#
# Poissons Ratio (x) = 0.75938 0.18712
# Poissons Ratio (y) = 0.44943 -0.07708
# Poissons Ratio (z) = 0.25205 -0.17543
#
# Static dielectric constant tensor:
#      x y z
#    x 1.733420 0.000000 0.000000 
#    y 0.000000 1.824260 0.000000 
#    z 0.000000 0.000000 1.830470 
# 
# From -- ./inp_files/21100.got.cif
#   From: 2010.05.17/outbox.cif.g08.bks.cpg/sg55_11_cif.got.tgz:21100.got - 2010.06.03 13:27:54.
