data_PCOD9426687
_publ_section_title
;
Structure prediction by ZEFSAII (Michael W. Deem and Ramdas Pophale) SiO2 
 PCOD9426687
Probable space group: P B A M
;
_chemical_formula_sum "Si O2"
_cell_formula_units_Z 64
_cell_length_a 21.424200
_cell_length_b 19.062659
_cell_length_c 7.791105
_cell_angle_alpha 90.000000
_cell_angle_beta 90.000000
_cell_angle_gamma 90.000000
_cell_volume 3181.904570
_symmetry_space_group_name_H-M "P B A M"
_symmetry_group_IT_number 55
_symmetry_cell_setting 'orthorhombic'
loop_
_space_group_symop_operation_xyz
x,y,z
-x,-y,z
1/2+x,1/2-y,-z
1/2-x,1/2+y,-z
-x,-y,-z
x,y,-z
1/2-x,1/2+y,z
1/2+x,1/2-y,z
loop_
_atom_site_type_symbol
_atom_site_label
_atom_site_fract_x
_atom_site_fract_y
_atom_site_fract_z
Si Si1 0.743008 0.077344 0.300006
Si Si2 0.622191 0.324268 0.710946
Si Si3 0.150619 0.819800 0.801138
Si Si4 0.986044 0.170519 0.303896
Si Si5 0.375144 0.838038 0.707226
Si Si6 0.146310 0.657223 0.792857
Si Si7 0.231461 0.074922 0.298783
Si Si8 0.989825 0.330555 0.203956
O O1 0.728184 0.063569 0.500000
O O2 0.800326 0.131035 0.291806
O O3 0.681469 0.114650 0.226168
O O4 0.762513 0.002770 0.222009
O O5 0.621257 0.322885 0.500000
O O6 0.553691 0.351486 0.766321
O O7 0.631098 0.243210 0.766370
O O8 0.677909 0.373893 0.772157
O O9 0.079263 0.846041 0.785339
O O10 0.152447 0.739004 0.739297
O O11 0.168279 0.819160 0.000000
O O12 0.980682 0.146815 0.500000
O O13 0.991026 0.255365 0.297333
O O14 0.372094 0.836165 0.500000
O O15 0.443841 0.865115 0.757849
O O16 0.201747 0.612192 0.716731
O O17 0.075700 0.633833 0.747428
O O18 0.151804 0.654692 0.000000
O O19 0.215377 0.067273 0.500000
O O20 0.986128 0.315928 0.000000
#
# Coordination Sequence:
#
# PCOD9426687 Si02
#       8
#     8   8   8   8   8   8   8   8
#     4  10  21  35  51  74 103 135 172 211 252 301
#     4   8  15  29  50  74  97 124 161 203 247 294
#     4  10  20  34  53  77 103 132 169 210 252 303
#     4   9  16  29  51  76 101 129 162 206 256 300
#     4   9  17  31  51  74  99 128 166 209 251 300
#     4   9  19  34  51  74 101 128 163 205 249 301
#     4  10  20  34  52  74 101 134 171 210 252 299
#     4   9  17  30  49  75 103 128 162 208 253 302
#
# _framework density 20.113738999999999
#
# number of rings (size 3 to 8) (size 9 to 14) (size 15 to 20)
#    0.000    2.750    0.000    3.375    0.000    5.000 
#    0.000    5.625    0.000    7.500    0.000    0.000 
#    0.000    0.000    0.000    0.000    0.000    0.000 
#
# Total GULP energy -356719.442445 kJ/mol
# GULP energy per Si atom -5573.741288 kJ/mol
# Density = 2.006796 g / cm^3
# Si number density = 20.113739 Si / 1000 Ang^3
#
#
#
# Elastic Constant Matrix: (Units=GPa)
#
#
# Indices 1 2 3 4 5 6 
#
# 1 -145.1306 -183.6018 16.7899 0.0000 0.0000 0.0000
# 2 -183.6018 -123.0005 24.5531 0.0000 0.0000 0.0000
# 3 16.7899 24.5531 19.9062 0.0000 0.0000 0.0000
# 4 0.0000 0.0000 0.0000 -5.7464 0.0000 0.0000
# 5 0.0000 0.0000 0.0000 0.0000 70.7747 0.0000
# 6 0.0000 0.0000 0.0000 0.0000 0.0000 -7.6023
#
#
#
# Elastic Compliance Matrix: (Units=1/GPa)
#
#
# Indices 1 2 3 4 5 6 
#
# 1 0.008847 -0.011792 0.007083 0.000000 0.000000 0.000000
# 2 -0.011792 0.009194 -0.001394 0.000000 0.000000 0.000000
# 3 0.007083 -0.001394 0.045981 0.000000 0.000000 0.000000
# 4 0.000000 0.000000 0.000000 -0.174022 0.000000 0.000000
# 5 0.000000 0.000000 0.000000 0.000000 0.014129 0.000000
# 6 0.000000 0.000000 0.000000 0.000000 0.000000 -0.131538
#
#
# Mechanical properties :
#
#
# Convention : Reuss Voigt Hill
#
# Bulk Modulus (GPa) = 19.29933 -59.19361 -19.94714
# Shear Modulus (GPa) = -25.26131 4.42080 -10.42025
#
# Velocity S-wave (km/s) = -3.54775 1.48414 -2.27858
# Velocity P-wave (km/s) = 2.67695 5.15329 4.10625
#
# Compressibility (1/GPa) = 0.05181527
#
# Stress axis : x y z
#
# Youngs Moduli (GPa) = 113.03058 108.76834 21.74820
#
# Poissons Ratio (x) = 1.28262 -0.15404
# Poissons Ratio (y) = 1.33288 0.03032
# Poissons Ratio (z) = -0.80058 0.15162
#
# Static dielectric constant tensor:
#      x y z
#    x 1.737440 0.000000 0.000000 
#    y 0.000000 1.691430 0.000000 
#    z 0.000000 0.000000 1.753840 
# 
# From -- ./inp_files/9143.got.cif
#   From: 2010.05.17/outbox.cif.g08.bks.cpg/sg55_5_cif.got.tgz:9143.got - 2010.06.03 13:27:54.
