data_PCOD9426844
_publ_section_title
;
Structure prediction by ZEFSAII (Michael W. Deem and Ramdas Pophale) SiO2 
 PCOD9426844
Probable space group: P B A M
;
_chemical_formula_sum "Si O2"
_cell_formula_units_Z 64
_cell_length_a 10.844783
_cell_length_b 33.602233
_cell_length_c 7.364983
_cell_angle_alpha 90.000000
_cell_angle_beta 90.000000
_cell_angle_gamma 90.000000
_cell_volume 2683.865539
_symmetry_space_group_name_H-M "P B A M"
_symmetry_group_IT_number 55
_symmetry_cell_setting 'orthorhombic'
loop_
_space_group_symop_operation_xyz
x,y,z
-x,-y,z
1/2+x,1/2-y,-z
1/2-x,1/2+y,-z
-x,-y,-z
x,y,-z
1/2-x,1/2+y,z
1/2+x,1/2-y,z
loop_
_atom_site_type_symbol
_atom_site_label
_atom_site_fract_x
_atom_site_fract_y
_atom_site_fract_z
Si Si1 0.601944 0.032199 0.222246
Si Si2 0.955147 0.699870 0.205768
Si Si3 0.178207 0.086919 0.291901
Si Si4 0.030989 0.212691 0.791089
Si Si5 0.426943 0.367650 0.219781
Si Si6 0.652288 0.117742 0.779067
Si Si7 0.137428 0.999476 0.203026
Si Si8 0.782425 0.332446 0.719824
O O1 0.579851 0.078045 0.277338
O O2 0.500000 0.000000 0.281100
O O3 0.741495 0.021382 0.282422
O O4 0.603468 0.030699 0.000000
O O5 0.097466 0.687721 0.203431
O O6 0.952441 0.743660 0.291763
O O7 0.892164 0.660759 0.288276
O O8 0.904102 0.703962 0.000000
O O9 0.209905 0.078249 0.500000
O O10 0.176122 0.045503 0.191681
O O11 0.267246 0.121682 0.222502
O O12 0.042121 0.106632 0.286114
O O13 0.162663 0.191224 0.783697
O O14 0.941140 0.178289 0.716593
O O15 0.991665 0.219452 0.000000
O O16 0.296012 0.385657 0.269383
O O17 0.435622 0.366970 0.000000
O O18 0.643900 0.119028 0.000000
O O19 0.119910 0.981839 0.000000
O O20 0.000000 0.000000 0.288342
O O21 0.784609 0.331674 0.500000
#
# Coordination Sequence:
#
# PCOD9426844 Si02
#       8
#     8   8   8   8   8   8   8   8
#     4   9  18  31  49  78 112 141 177 226 277 334
#     4  10  21  34  57  85 110 140 182 232 278 328
#     4  10  21  36  55  80 111 146 184 226 272 323
#     4   9  19  34  56  83 107 137 179 231 280 322
#     4   9  17  33  56  80 109 142 177 223 276 329
#     4   9  18  32  52  79 110 142 176 221 278 330
#     4  10  20  34  57  85 109 140 185 235 284 337
#     4  10  22  38  54  76 112 151 186 222 268 332
#
# _framework density 23.846202999999999
#
# number of rings (size 3 to 8) (size 9 to 14) (size 15 to 20)
#    0.000    2.500    0.000    1.500    3.500    4.250 
#    0.000    0.625    0.000    1.125    0.000    0.000 
#    0.000    0.000    0.000    0.000    0.000    0.000 
#
# Total GULP energy -357388.066928 kJ/mol
# GULP energy per Si atom -5584.188546 kJ/mol
# Density = 2.379193 g / cm^3
# Si number density = 23.846203 Si / 1000 Ang^3
#
#
#
# Elastic Constant Matrix: (Units=GPa)
#
#
# Indices 1 2 3 4 5 6 
#
# 1 59.0494 17.8072 -9.8443 0.0000 0.0000 0.0000
# 2 17.8072 168.3714 1.0576 0.0000 0.0000 0.0000
# 3 -9.8443 1.0576 92.5177 0.0000 0.0000 0.0000
# 4 0.0000 0.0000 0.0000 11.2829 0.0000 0.0000
# 5 0.0000 0.0000 0.0000 0.0000 3.3952 0.0000
# 6 0.0000 0.0000 0.0000 0.0000 0.0000 25.7793
#
#
#
# Elastic Compliance Matrix: (Units=1/GPa)
#
#
# Indices 1 2 3 4 5 6 
#
# 1 0.017827 -0.001897 0.001919 0.000000 0.000000 0.000000
# 2 -0.001897 0.006142 -0.000272 0.000000 0.000000 0.000000
# 3 0.001919 -0.000272 0.011016 0.000000 0.000000 0.000000
# 4 0.000000 0.000000 0.000000 0.088630 0.000000 0.000000
# 5 0.000000 0.000000 0.000000 0.000000 0.294531 0.000000
# 6 0.000000 0.000000 0.000000 0.000000 0.000000 0.038791
#
#
# Mechanical properties :
#
#
# Convention : Reuss Voigt Hill
#
# Bulk Modulus (GPa) = 29.00009 37.55329 33.27669
# Shear Modulus (GPa) = 10.66250 28.81934 19.74092
#
# Velocity S-wave (km/s) = 2.11685 3.48019 2.88035
# Velocity P-wave (km/s) = 4.26174 5.65078 5.00469
#
# Compressibility (1/GPa) = 0.03448265
#
# Stress axis : x y z
#
# Youngs Moduli (GPa) = 56.09460 162.82295 90.77706
#
# Poissons Ratio (x) = 0.30895 -0.17416
# Poissons Ratio (y) = 0.10644 0.02470
# Poissons Ratio (z) = -0.10762 0.04431
#
# Static dielectric constant tensor:
#      x y z
#    x 1.869250 0.000000 0.000000 
#    y 0.000000 1.908230 0.000000 
#    z 0.000000 0.000000 1.893410 
# 
# From -- ./inp_files/4704.got.cif
#   From: 2010.05.17/outbox.cif.g08.bks.cpg/sg55_3_cif.got.tgz:4704.got - 2010.06.03 13:27:54.
