data_PCOD9426335
_publ_section_title
;
Structure prediction by ZEFSAII (Michael W. Deem and Ramdas Pophale) SiO2 
 PCOD9426335
Probable space group: P B A M
;
_chemical_formula_sum "Si O2"
_cell_formula_units_Z 48
_cell_length_a 15.093666
_cell_length_b 4.870930
_cell_length_c 30.893770
_cell_angle_alpha 90.000000
_cell_angle_beta 90.000000
_cell_angle_gamma 90.000000
_cell_volume 2271.315857
_symmetry_space_group_name_H-M "P B A M"
_symmetry_group_IT_number 55
_symmetry_cell_setting 'orthorhombic'
loop_
_space_group_symop_operation_xyz
x,y,z
-x,-y,z
1/2+x,1/2-y,-z
1/2-x,1/2+y,-z
-x,-y,-z
x,y,-z
1/2-x,1/2+y,z
1/2+x,1/2-y,z
loop_
_atom_site_type_symbol
_atom_site_label
_atom_site_fract_x
_atom_site_fract_y
_atom_site_fract_z
Si Si1 0.812098 0.519491 0.093592
Si Si2 0.689763 0.690793 0.324572
Si Si3 0.688809 0.611447 0.419688
Si Si4 0.810696 0.648545 0.000000
Si Si5 0.442400 0.743426 0.835158
Si Si6 0.314394 0.441938 0.768907
Si Si7 0.433809 0.252480 0.500000
O O1 0.775514 0.212124 0.097099
O O2 0.852856 0.574098 0.045939
O O3 0.877693 0.612258 0.130737
O O4 0.780474 0.507584 0.323780
O O5 0.648375 0.642634 0.371530
O O6 0.647511 0.586210 0.280066
O O7 0.723084 0.300738 0.422933
O O8 0.626634 0.714819 0.457664
O O9 0.720673 0.462761 0.000000
O O10 0.500000 0.500000 0.856870
O O11 0.387506 0.570582 0.799805
O O12 0.500000 0.000000 0.817165
O O13 0.270522 0.143712 0.775286
O O14 0.500000 0.500000 0.500000
O O15 0.500000 0.000000 0.500000
#
# Coordination Sequence:
#
# PCOD9426335 Si02
#       7
#     8   8   8   4   8   8   4
#     4  10  19  36  58  79 103 142 187 227 270 327
#     4   8  16  30  55  82 100 125 177 229 261 303
#     4  10  19  36  59  81 105 143 187 227 268 321
#     4   8  16  30  54  80 100 128 182 236 268 310
#     4  12  24  36  51  80 116 146 177 223 277 333
#     4  10  19  36  59  80 102 139 183 225 270 326
#     4  12  24  36  52  82 120 152 182 224 274 328
#
# _framework density 21.133125
#
# number of rings (size 3 to 8) (size 9 to 14) (size 15 to 20)
#    0.000    2.000    0.000    4.500    0.000    0.000 
#    0.000    1.667    0.000    2.000    0.000    0.000 
#    0.000    0.000    0.000    0.000    0.000    0.000 
#
# Total GULP energy -267653.975170 kJ/mol
# GULP energy per Si atom -5576.124483 kJ/mol
# Density = 2.108503 g / cm^3
# Si number density = 21.133125 Si / 1000 Ang^3
#
#
#
# Elastic Constant Matrix: (Units=GPa)
#
#
# Indices 1 2 3 4 5 6 
#
# 1 31.9300 0.9846 34.2806 0.0000 0.0000 0.0000
# 2 0.9846 92.6541 -6.0952 0.0000 0.0000 0.0000
# 3 34.2806 -6.0952 133.3180 0.0000 0.0000 0.0000
# 4 0.0000 0.0000 0.0000 24.8013 0.0000 0.0000
# 5 0.0000 0.0000 0.0000 0.0000 -14.0476 0.0000
# 6 0.0000 0.0000 0.0000 0.0000 0.0000 24.1074
#
#
#
# Elastic Compliance Matrix: (Units=1/GPa)
#
#
# Indices 1 2 3 4 5 6 
#
# 1 0.043394 -0.001199 -0.011213 0.000000 0.000000 0.000000
# 2 -0.001199 0.010859 0.000805 0.000000 0.000000 0.000000
# 3 -0.011213 0.000805 0.010421 0.000000 0.000000 0.000000
# 4 0.000000 0.000000 0.000000 0.040320 0.000000 0.000000
# 5 0.000000 0.000000 0.000000 0.000000 -0.071186 0.000000
# 6 0.000000 0.000000 0.000000 0.000000 0.000000 0.041481
#
#
# Mechanical properties :
#
#
# Convention : Reuss Voigt Hill
#
# Bulk Modulus (GPa) = 24.12001 35.13800 29.62901
# Shear Modulus (GPa) = 44.51499 22.22102 33.36800
#
# Velocity S-wave (km/s) = 4.59454 3.24617 3.97790
# Velocity P-wave (km/s) = 6.29163 5.54195 5.92865
#
# Compressibility (1/GPa) = 0.04145935
#
# Stress axis : x y z
#
# Youngs Moduli (GPa) = 23.04480 92.09372 95.96149
#
# Poissons Ratio (x) = 0.11040 1.07600
# Poissons Ratio (y) = 0.02762 -0.07722
# Poissons Ratio (z) = 0.25840 -0.07411
#
# Static dielectric constant tensor:
#      x y z
#    x 1.736360 0.000000 0.000000 
#    y 0.000000 1.735110 0.000000 
#    z 0.000000 0.000000 1.827190 
# 
# From -- ./inp_files/24169.got.cif
#   From: 2010.05.17/outbox.cif.g08.bks.cpg/sg55_13_cif.got.tgz:24169.got - 2010.06.03 13:27:54.
