data_PCOD9426956
_publ_section_title
;
Structure prediction by ZEFSAII (Michael W. Deem and Ramdas Pophale) SiO2 
 PCOD9426956
Probable space group: P B A M
;
_chemical_formula_sum "Si O2"
_cell_formula_units_Z 46
_cell_length_a 12.898652
_cell_length_b 19.427004
_cell_length_c 11.149339
_cell_angle_alpha 90.000000
_cell_angle_beta 90.000000
_cell_angle_gamma 90.000000
_cell_volume 2793.825494
_symmetry_space_group_name_H-M "P B A M"
_symmetry_group_IT_number 55
_symmetry_cell_setting 'orthorhombic'
loop_
_space_group_symop_operation_xyz
x,y,z
-x,-y,z
1/2+x,1/2-y,-z
1/2-x,1/2+y,-z
-x,-y,-z
x,y,-z
1/2-x,1/2+y,z
1/2+x,1/2-y,z
loop_
_atom_site_type_symbol
_atom_site_label
_atom_site_fract_x
_atom_site_fract_y
_atom_site_fract_z
Si Si1 0.500000 0.000000 0.500000
Si Si2 0.575354 0.660356 0.857415
Si Si3 0.163614 0.125620 0.141156
Si Si4 0.314324 0.220481 0.706167
Si Si5 0.619200 0.516316 0.731859
Si Si6 0.690589 0.203127 0.500000
Si Si7 0.539996 0.836736 0.500000
Si Si8 0.741786 0.041778 0.500000
O O1 0.489321 0.083707 0.500000
O O2 0.629052 0.007513 0.500000
O O3 0.450831 0.658273 0.839460
O O4 0.627166 0.724107 0.789237
O O5 0.617551 0.588559 0.802848
O O6 0.595148 0.663115 0.000000
O O7 0.249262 0.166919 0.215062
O O8 0.155282 0.046887 0.185142
O O9 0.185967 0.128046 0.000000
O O10 0.236573 0.260390 0.617216
O O11 0.394670 0.182621 0.617884
O O12 0.500000 0.500000 0.696086
O O13 0.692743 0.521216 0.617151
O O14 0.566871 0.205539 0.500000
O O15 0.728100 0.124251 0.500000
#
# Coordination Sequence:
#
# PCOD9426956 Si02
#       8
#     2   8   8   8   8   4   4   4
#     4  10  22  36  54  76 110 156 186 220 276 336
#     4  10  20  35  56  82 112 147 184 225 280 332
#     4  10  21  35  54  81 111 144 186 228 273 330
#     4  11  20  36  56  81 109 146 183 231 276 331
#     4  10  20  35  57  84 114 144 180 234 285 337
#     4  10  21  35  54  80 111 139 180 228 279 331
#     4  10  22  36  55  81 109 145 185 230 280 334
#     4  11  19  36  54  84 109 148 187 227 277 341
#
# _framework density 16.464879
#
# number of rings (size 3 to 8) (size 9 to 14) (size 15 to 20)
#    0.000    1.739    1.739    3.391    0.000    2.783 
#    0.000    0.870    0.000    0.000    0.000    4.870 
#    0.000    0.000    0.000    0.000    0.000    0.000 
#
# Total GULP energy -256264.678258 kJ/mol
# GULP energy per Si atom -5570.971266 kJ/mol
# Density = 1.642740 g / cm^3
# Si number density = 16.464879 Si / 1000 Ang^3
#
#
#
# Elastic Constant Matrix: (Units=GPa)
#
#
# Indices 1 2 3 4 5 6 
#
# 1 117.8603 58.1653 83.2359 0.0000 0.0000 0.0000
# 2 58.1653 87.7495 49.4177 0.0000 0.0000 0.0000
# 3 83.2359 49.4177 128.3178 0.0000 0.0000 0.0000
# 4 0.0000 0.0000 0.0000 17.1208 0.0000 0.0000
# 5 0.0000 0.0000 0.0000 0.0000 14.1982 0.0000
# 6 0.0000 0.0000 0.0000 0.0000 0.0000 33.8425
#
#
#
# Elastic Compliance Matrix: (Units=1/GPa)
#
#
# Indices 1 2 3 4 5 6 
#
# 1 0.018537 -0.007043 -0.009312 0.000000 0.000000 0.000000
# 2 -0.007043 0.017228 -0.002066 0.000000 0.000000 0.000000
# 3 -0.009312 -0.002066 0.014629 0.000000 0.000000 0.000000
# 4 0.000000 0.000000 0.000000 0.058408 0.000000 0.000000
# 5 0.000000 0.000000 0.000000 0.000000 0.070431 0.000000
# 6 0.000000 0.000000 0.000000 0.000000 0.000000 0.029549
#
#
# Mechanical properties :
#
#
# Convention : Reuss Voigt Hill
#
# Bulk Modulus (GPa) = 73.79064 79.50727 76.64896
# Shear Modulus (GPa) = 19.98864 22.57288 21.28076
#
# Velocity S-wave (km/s) = 3.48805 3.70668 3.59903
# Velocity P-wave (km/s) = 7.81897 8.16781 7.99529
#
# Compressibility (1/GPa) = 0.01355185
#
# Stress axis : x y z
#
# Youngs Moduli (GPa) = 53.94730 58.04405 68.35660
#
# Poissons Ratio (x) = 0.40881 0.63652
# Poissons Ratio (y) = 0.37995 0.14125
# Poissons Ratio (z) = 0.50234 0.11994
#
# Static dielectric constant tensor:
#      x y z
#    x 1.538390 0.000000 0.000000 
#    y 0.000000 1.528730 0.000000 
#    z 0.000000 0.000000 1.526840 
# 
# From -- ./inp_files/13249.got.cif
#   From: 2010.05.17/outbox.cif.g08.bks.cpg/sg55_7_cif.got.tgz:13249.got - 2010.06.03 13:27:54.
