data_PCOD9426669
_publ_section_title
;
Structure prediction by ZEFSAII (Michael W. Deem and Ramdas Pophale) SiO2 
 PCOD9426669
Probable space group: P B A M
;
_chemical_formula_sum "Si O2"
_cell_formula_units_Z 64
_cell_length_a 12.268474
_cell_length_b 12.359985
_cell_length_c 22.274973
_cell_angle_alpha 90.000000
_cell_angle_beta 90.000000
_cell_angle_gamma 90.000000
_cell_volume 3377.735800
_symmetry_space_group_name_H-M "P B A M"
_symmetry_group_IT_number 55
_symmetry_cell_setting 'orthorhombic'
loop_
_space_group_symop_operation_xyz
x,y,z
-x,-y,z
1/2+x,1/2-y,-z
1/2-x,1/2+y,-z
-x,-y,-z
x,y,-z
1/2-x,1/2+y,z
1/2+x,1/2-y,z
loop_
_atom_site_type_symbol
_atom_site_label
_atom_site_fract_x
_atom_site_fract_y
_atom_site_fract_z
Si Si1 0.094667 0.758981 0.836059
Si Si2 0.581282 0.095436 0.570862
Si Si3 0.756600 0.113495 0.744295
Si Si4 0.179100 0.962974 0.613625
Si Si5 0.114190 0.936527 0.931048
Si Si6 0.033525 0.167238 0.622198
Si Si7 0.907636 0.799562 0.754616
Si Si8 0.250384 0.556902 0.168643
O O1 0.149769 0.841283 0.788086
O O2 0.090947 0.823307 0.898084
O O3 0.169917 0.655264 0.843300
O O4 0.980406 0.737799 0.803864
O O5 0.562444 0.108632 0.500000
O O6 0.706584 0.060190 0.581496
O O7 0.556400 0.210758 0.601584
O O8 0.500000 0.000000 0.593000
O O9 0.795170 0.056196 0.684041
O O10 0.683959 0.217691 0.730265
O O11 0.694640 0.028910 0.786928
O O12 0.081444 0.879377 0.598289
O O13 0.128614 0.082402 0.603983
O O14 0.201767 0.001310 0.890724
O O15 0.148790 0.924642 0.000000
O O16 0.000000 0.000000 0.929479
O O17 0.030180 0.163448 0.694929
O O18 0.850789 0.895707 0.791658
#
# Coordination Sequence:
#
# PCOD9426669 Si02
#       8
#     8   8   8   8   8   8   8   8
#     4  10  21  34  56  84 120 157 196 244 304 362
#     4  11  28  49  68  92 130 175 220 269 319 379
#     4  10  20  33  57  91 122 155 196 240 306 373
#     4  11  23  41  68 100 127 168 215 263 324 391
#     4  10  20  36  59  82 109 156 208 249 294 358
#     4  11  24  40  70 100 130 168 213 266 324 392
#     4  11  19  34  58  90 126 158 190 248 307 374
#     4  10  21  35  55  85 120 156 195 247 300 361
#
# _framework density 18.947603999999998
#
# number of rings (size 3 to 8) (size 9 to 14) (size 15 to 20)
#    0.000    1.500    5.000    0.000    1.750    3.000 
#    0.000    1.250    0.000    0.000    0.000    3.500 
#    0.000    0.000    0.000    0.000    0.000    0.000 
#
# Total GULP energy -357041.361216 kJ/mol
# GULP energy per Si atom -5578.771269 kJ/mol
# Density = 1.890448 g / cm^3
# Si number density = 18.947604 Si / 1000 Ang^3
#
#
#
# Elastic Constant Matrix: (Units=GPa)
#
#
# Indices 1 2 3 4 5 6 
#
# 1 63.0908 33.7382 4.7265 0.0000 0.0000 0.0000
# 2 33.7382 100.2292 21.6536 0.0000 0.0000 0.0000
# 3 4.7265 21.6536 48.0877 0.0000 0.0000 0.0000
# 4 0.0000 0.0000 0.0000 23.8944 0.0000 0.0000
# 5 0.0000 0.0000 0.0000 0.0000 23.6104 0.0000
# 6 0.0000 0.0000 0.0000 0.0000 0.0000 19.7758
#
#
#
# Elastic Compliance Matrix: (Units=1/GPa)
#
#
# Indices 1 2 3 4 5 6 
#
# 1 0.019386 -0.006773 0.001144 0.000000 0.000000 0.000000
# 2 -0.006773 0.013419 -0.005377 0.000000 0.000000 0.000000
# 3 0.001144 -0.005377 0.023104 0.000000 0.000000 0.000000
# 4 0.000000 0.000000 0.000000 0.041851 0.000000 0.000000
# 5 0.000000 0.000000 0.000000 0.000000 0.042354 0.000000
# 6 0.000000 0.000000 0.000000 0.000000 0.000000 0.050567
#
#
# Mechanical properties :
#
#
# Convention : Reuss Voigt Hill
#
# Bulk Modulus (GPa) = 29.49983 36.84936 33.17460
# Shear Modulus (GPa) = 22.32240 23.54208 22.93224
#
# Velocity S-wave (km/s) = 3.43609 3.52871 3.48271
# Velocity P-wave (km/s) = 5.59868 6.00772 5.80680
#
# Compressibility (1/GPa) = 0.03389850
#
# Stress axis : x y z
#
# Youngs Moduli (GPa) = 51.58288 74.52387 43.28266
#
# Poissons Ratio (x) = 0.50474 -0.04953
# Poissons Ratio (y) = 0.34936 0.23271
# Poissons Ratio (z) = -0.05903 0.40068
#
# Static dielectric constant tensor:
#      x y z
#    x 1.690240 0.000000 0.000000 
#    y 0.000000 1.664880 0.000000 
#    z 0.000000 0.000000 1.651310 
# 
# From -- ./inp_files/23563.got.cif
#   From: 2010.05.17/outbox.cif.g08.bks.cpg/sg55_12_cif.got.tgz:23563.got - 2010.06.03 13:27:54.
