data_PCOD9426403
_publ_section_title
;
Structure prediction by ZEFSAII (Michael W. Deem and Ramdas Pophale) SiO2 
 PCOD9426403
Probable space group: P B A M
;
_chemical_formula_sum "Si O2"
_cell_formula_units_Z 64
_cell_length_a 12.184639
_cell_length_b 31.220285
_cell_length_c 8.663845
_cell_angle_alpha 90.000000
_cell_angle_beta 90.000000
_cell_angle_gamma 90.000000
_cell_volume 3295.795101
_symmetry_space_group_name_H-M "P B A M"
_symmetry_group_IT_number 55
_symmetry_cell_setting 'orthorhombic'
loop_
_space_group_symop_operation_xyz
x,y,z
-x,-y,z
1/2+x,1/2-y,-z
1/2-x,1/2+y,-z
-x,-y,-z
x,y,-z
1/2-x,1/2+y,z
1/2+x,1/2-y,z
loop_
_atom_site_type_symbol
_atom_site_label
_atom_site_fract_x
_atom_site_fract_y
_atom_site_fract_z
Si Si1 0.041496 0.208789 0.316671
Si Si2 0.009330 0.449944 0.185975
Si Si3 0.172134 0.380534 0.685507
Si Si4 0.765722 0.425590 0.180859
Si Si5 0.050597 0.045047 0.683745
Si Si6 0.507300 0.194757 0.312611
Si Si7 0.417883 0.373854 0.183775
Si Si8 0.735382 0.836485 0.317950
O O1 0.015651 0.207735 0.500000
O O2 0.020912 0.256637 0.256899
O O3 0.170437 0.198585 0.300161
O O4 0.972578 0.170544 0.240732
O O5 0.106879 0.423077 0.261910
O O6 0.000000 0.500000 0.226123
O O7 0.891555 0.430355 0.231548
O O8 0.021342 0.446816 0.000000
O O9 0.178140 0.379883 0.500000
O O10 0.098280 0.339698 0.738232
O O11 0.294123 0.377970 0.752634
O O12 0.678253 0.453893 0.270834
O O13 0.733339 0.376943 0.215592
O O14 0.759791 0.435620 0.000000
O O15 0.039144 0.048571 0.500000
O O16 0.988733 0.085673 0.756807
O O17 0.000000 0.000000 0.735642
O O18 0.514462 0.196027 0.500000
O O19 0.385329 0.178996 0.274216
O O20 0.416510 0.374529 0.000000
O O21 0.734232 0.849154 0.500000
#
# Coordination Sequence:
#
# PCOD9426403 Si02
#       8
#     8   8   8   8   8   8   8   8
#     4  10  21  38  64  92 121 161 207 254 301 361
#     4  10  23  42  62  90 127 168 207 249 308 369
#     4  11  23  41  65  92 123 164 211 257 306 363
#     4  11  22  38  63  91 124 163 203 251 307 367
#     4  11  25  44  66  93 122 157 206 258 305 361
#     4   9  20  37  62  94 122 158 207 254 305 359
#     4  12  26  43  62  89 127 165 202 251 313 374
#     4  10  19  36  62  89 120 158 204 257 303 353
#
# _framework density 19.418683000000001
#
# number of rings (size 3 to 8) (size 9 to 14) (size 15 to 20)
#    0.000    1.500    2.500    2.250    3.500    1.750 
#    0.000    1.875    0.000    0.000    0.000    0.000 
#    0.000    0.000    0.000    0.000    0.000    0.000 
#
# Total GULP energy -357539.646392 kJ/mol
# GULP energy per Si atom -5586.556975 kJ/mol
# Density = 1.937448 g / cm^3
# Si number density = 19.418683 Si / 1000 Ang^3
#
#
#
# Elastic Constant Matrix: (Units=GPa)
#
#
# Indices 1 2 3 4 5 6 
#
# 1 109.1842 26.5703 29.5562 0.0000 0.0000 0.0000
# 2 26.5703 94.6794 24.2159 0.0000 0.0000 0.0000
# 3 29.5562 24.2159 45.5779 0.0000 0.0000 0.0000
# 4 0.0000 0.0000 0.0000 25.3729 0.0000 0.0000
# 5 0.0000 0.0000 0.0000 0.0000 28.7491 0.0000
# 6 0.0000 0.0000 0.0000 0.0000 0.0000 27.7313
#
#
#
# Elastic Compliance Matrix: (Units=1/GPa)
#
#
# Indices 1 2 3 4 5 6 
#
# 1 0.011290 -0.001500 -0.006525 0.000000 0.000000 0.000000
# 2 -0.001500 0.012422 -0.005628 0.000000 0.000000 0.000000
# 3 -0.006525 -0.005628 0.029161 0.000000 0.000000 0.000000
# 4 0.000000 0.000000 0.000000 0.039412 0.000000 0.000000
# 5 0.000000 0.000000 0.000000 0.000000 0.034784 0.000000
# 6 0.000000 0.000000 0.000000 0.000000 0.000000 0.036060
#
#
# Mechanical properties :
#
#
# Convention : Reuss Voigt Hill
#
# Bulk Modulus (GPa) = 39.10803 45.56958 42.33881
# Shear Modulus (GPa) = 25.13112 27.64391 26.38751
#
# Velocity S-wave (km/s) = 3.60136 3.77712 3.69029
# Velocity P-wave (km/s) = 6.12178 6.52227 6.32520
#
# Compressibility (1/GPa) = 0.02557019
#
# Stress axis : x y z
#
# Youngs Moduli (GPa) = 88.57433 80.50138 34.29192
#
# Poissons Ratio (x) = 0.12072 0.22374
# Poissons Ratio (y) = 0.13282 0.19298
# Poissons Ratio (z) = 0.57790 0.45303
#
# Static dielectric constant tensor:
#      x y z
#    x 1.667460 0.000000 0.000000 
#    y 0.000000 1.684350 0.000000 
#    z 0.000000 0.000000 1.660460 
# 
# From -- ./inp_files/4602.got.cif
#   From: 2010.05.17/outbox.cif.g08.bks.cpg/sg55_3_cif.got.tgz:4602.got - 2010.06.03 13:27:54.
