data_PCOD9426549
_publ_section_title
;
Structure prediction by ZEFSAII (Michael W. Deem and Ramdas Pophale) SiO2 
 PCOD9426549
Probable space group: P B A M
;
_chemical_formula_sum "Si O2"
_cell_formula_units_Z 48
_cell_length_a 13.615282
_cell_length_b 13.643828
_cell_length_c 12.760300
_cell_angle_alpha 90.000000
_cell_angle_beta 90.000000
_cell_angle_gamma 90.000000
_cell_volume 2370.411589
_symmetry_space_group_name_H-M "P B A M"
_symmetry_group_IT_number 55
_symmetry_cell_setting 'orthorhombic'
loop_
_space_group_symop_operation_xyz
x,y,z
-x,-y,z
1/2+x,1/2-y,-z
1/2-x,1/2+y,-z
-x,-y,-z
x,y,-z
1/2-x,1/2+y,z
1/2+x,1/2-y,z
loop_
_atom_site_type_symbol
_atom_site_label
_atom_site_fract_x
_atom_site_fract_y
_atom_site_fract_z
Si Si1 0.794058 0.692671 0.618207
Si Si2 0.577237 0.911381 0.377209
Si Si3 0.383930 0.595287 0.616480
Si Si4 0.407293 0.424618 0.120384
Si Si5 0.570910 0.696922 0.674463
Si Si6 0.261367 0.986656 0.247582
O O1 0.826486 0.663342 0.500000
O O2 0.836323 0.799104 0.642658
O O3 0.676313 0.700560 0.620193
O O4 0.810308 0.611868 0.707260
O O5 0.612438 0.907672 0.500000
O O6 0.531064 0.806452 0.347437
O O7 0.660956 0.932720 0.289033
O O8 0.500000 0.000000 0.372580
O O9 0.355559 0.569456 0.500000
O O10 0.498107 0.617665 0.625192
O O11 0.336816 0.514239 0.688127
O O12 0.500000 0.500000 0.136671
O O13 0.418067 0.336324 0.204501
O O14 0.296343 0.469648 0.138645
O O15 0.414677 0.392147 0.000000
#
# Coordination Sequence:
#
# PCOD9426549 Si02
#       6
#     8   8   8   8   8   8
#     4  10  20  32  50  78 118 156 189 233 284 351
#     4  11  22  38  61  90 131 172 197 226 289 374
#     4  11  20  32  52  83 121 156 194 237 292 360
#     4  10  22  43  64  84 112 152 207 266 318 354
#     4  11  21  35  57  85 115 155 200 245 298 356
#     4  11  21  36  58  84 114 157 203 244 294 357
#
# _framework density 20.249647
#
# number of rings (size 3 to 8) (size 9 to 14) (size 15 to 20)
#    0.000    1.333    3.333    4.000    0.000    2.667 
#    0.000    3.333    0.000   10.000    0.000    0.000 
#    0.000    0.000    0.000    0.000    0.000    0.000 
#
# Total GULP energy -267563.588233 kJ/mol
# GULP energy per Si atom -5574.241422 kJ/mol
# Density = 2.020356 g / cm^3
# Si number density = 20.249647 Si / 1000 Ang^3
#
#
#
# Elastic Constant Matrix: (Units=GPa)
#
#
# Indices 1 2 3 4 5 6 
#
# 1 68.6846 -1.3760 7.3689 0.0000 0.0000 0.0000
# 2 -1.3760 43.4094 34.3080 0.0000 0.0000 0.0000
# 3 7.3689 34.3080 96.3386 0.0000 0.0000 0.0000
# 4 0.0000 0.0000 0.0000 31.4853 0.0000 0.0000
# 5 0.0000 0.0000 0.0000 0.0000 22.7257 0.0000
# 6 0.0000 0.0000 0.0000 0.0000 0.0000 44.6545
#
#
#
# Elastic Compliance Matrix: (Units=1/GPa)
#
#
# Indices 1 2 3 4 5 6 
#
# 1 0.014791 0.001897 -0.001807 0.000000 0.000000 0.000000
# 2 0.001897 0.032303 -0.011649 0.000000 0.000000 0.000000
# 3 -0.001807 -0.011649 0.014667 0.000000 0.000000 0.000000
# 4 0.000000 0.000000 0.000000 0.031761 0.000000 0.000000
# 5 0.000000 0.000000 0.000000 0.000000 0.044003 0.000000
# 6 0.000000 0.000000 0.000000 0.000000 0.000000 0.022394
#
#
# Mechanical properties :
#
#
# Convention : Reuss Voigt Hill
#
# Bulk Modulus (GPa) = 25.87771 32.11493 28.99632
# Shear Modulus (GPa) = 25.52090 30.98187 28.25138
#
# Velocity S-wave (km/s) = 3.55394 3.91576 3.73923
# Velocity P-wave (km/s) = 5.44497 6.02811 5.74395
#
# Compressibility (1/GPa) = 0.03864329
#
# Stress axis : x y z
#
# Youngs Moduli (GPa) = 67.60796 30.95671 68.18190
#
# Poissons Ratio (x) = -0.05872 0.12320
# Poissons Ratio (y) = -0.12825 0.79424
# Poissons Ratio (z) = 0.12216 0.36061
#
# Static dielectric constant tensor:
#      x y z
#    x 1.819910 0.000000 0.000000 
#    y 0.000000 1.768570 0.000000 
#    z 0.000000 0.000000 1.684270 
# 
# From -- ./inp_files/14118.got.cif
#   From: 2010.05.17/outbox.cif.g08.bks.cpg/sg55_8_cif.got.tgz:14118.got - 2010.06.03 13:27:54.
