data_PCOD9426282
_publ_section_title
;
Structure prediction by ZEFSAII (Michael W. Deem and Ramdas Pophale) SiO2 
 PCOD9426282
Probable space group: P B A M
;
_chemical_formula_sum "Si O2"
_cell_formula_units_Z 64
_cell_length_a 12.105090
_cell_length_b 31.564695
_cell_length_c 7.657082
_cell_angle_alpha 90.000000
_cell_angle_beta 90.000000
_cell_angle_gamma 90.000000
_cell_volume 2925.721061
_symmetry_space_group_name_H-M "P B A M"
_symmetry_group_IT_number 55
_symmetry_cell_setting 'orthorhombic'
loop_
_space_group_symop_operation_xyz
x,y,z
-x,-y,z
1/2+x,1/2-y,-z
1/2-x,1/2+y,-z
-x,-y,-z
x,y,-z
1/2-x,1/2+y,z
1/2+x,1/2-y,z
loop_
_atom_site_type_symbol
_atom_site_label
_atom_site_fract_x
_atom_site_fract_y
_atom_site_fract_z
Si Si1 0.738662 0.055613 0.797440
Si Si2 0.257598 0.037285 0.298869
Si Si3 0.506358 0.162483 0.288743
Si Si4 0.492921 0.066342 0.797323
Si Si5 0.091078 0.874984 0.794528
Si Si6 0.839332 0.875631 0.297256
Si Si7 0.742313 0.197846 0.288139
Si Si8 0.713876 0.792689 0.712937
O O1 0.615135 0.058782 0.720492
O O2 0.828091 0.088125 0.722611
O O3 0.774124 0.006913 0.788321
O O4 0.725524 0.068477 0.000000
O O5 0.222712 0.033688 0.500000
O O6 0.389828 0.043308 0.289554
O O7 0.205344 0.080163 0.220452
O O8 0.507178 0.158910 0.500000
O O9 0.474997 0.116666 0.216284
O O10 0.627588 0.176550 0.230214
O O11 0.412197 0.196111 0.241899
O O12 0.492076 0.052940 0.000000
O O13 0.156180 0.831133 0.770371
O O14 0.970978 0.874297 0.710471
O O15 0.073021 0.882735 0.000000
O O16 0.802129 0.876780 0.500000
O O17 0.787887 0.832223 0.224356
O O18 0.742013 0.197931 0.500000
O O19 0.751403 0.246231 0.226690
O O20 0.721615 0.791558 0.500000
#
# Coordination Sequence:
#
# PCOD9426282 Si02
#       8
#     8   8   8   8   8   8   8   8
#     4  10  23  41  59  83 118 159 194 234 294 357
#     4  11  23  39  62  91 118 148 193 250 295 339
#     4  10  19  35  60  90 120 151 196 245 290 339
#     4  11  21  37  60  86 122 160 192 231 292 356
#     4  11  24  42  60  83 120 159 196 242 292 350
#     4  10  22  41  62  85 117 154 196 246 294 345
#     4  10  21  36  63  92 116 155 199 244 293 345
#     4   9  19  37  61  89 121 153 193 244 295 346
#
# _framework density 21.874949999999998
#
# number of rings (size 3 to 8) (size 9 to 14) (size 15 to 20)
#    0.000    1.750    2.500    1.500    1.750    5.000 
#    0.000    3.750    0.000    0.000    0.000    0.000 
#    0.000    0.000    0.000    0.000    0.000    0.000 
#
# Total GULP energy -357690.403862 kJ/mol
# GULP energy per Si atom -5588.912560 kJ/mol
# Density = 2.182516 g / cm^3
# Si number density = 21.874950 Si / 1000 Ang^3
#
#
#
# Elastic Constant Matrix: (Units=GPa)
#
#
# Indices 1 2 3 4 5 6 
#
# 1 92.4366 25.0966 -10.0484 0.0000 0.0000 0.0000
# 2 25.0966 117.9446 -8.6278 0.0000 0.0000 0.0000
# 3 -10.0484 -8.6278 41.3969 0.0000 0.0000 0.0000
# 4 0.0000 0.0000 0.0000 24.9818 0.0000 0.0000
# 5 0.0000 0.0000 0.0000 0.0000 -105.7228 0.0000
# 6 0.0000 0.0000 0.0000 0.0000 0.0000 26.3062
#
#
#
# Elastic Compliance Matrix: (Units=1/GPa)
#
#
# Indices 1 2 3 4 5 6 
#
# 1 0.011704 -0.002318 0.002358 0.000000 0.000000 0.000000
# 2 -0.002318 0.009069 0.001327 0.000000 0.000000 0.000000
# 3 0.002358 0.001327 0.025005 0.000000 0.000000 0.000000
# 4 0.000000 0.000000 0.000000 0.040029 0.000000 0.000000
# 5 0.000000 0.000000 0.000000 0.000000 -0.009459 0.000000
# 6 0.000000 0.000000 0.000000 0.000000 0.000000 0.038014
#
#
# Mechanical properties :
#
#
# Convention : Reuss Voigt Hill
#
# Bulk Modulus (GPa) = 20.61309 29.40212 25.00760
# Shear Modulus (GPa) = 39.12406 5.47021 22.29714
#
# Velocity S-wave (km/s) = 4.23369 1.58307 3.19611
# Velocity P-wave (km/s) = 5.77429 4.10020 5.00770
#
# Compressibility (1/GPa) = 0.04851287
#
# Stress axis : x y z
#
# Youngs Moduli (GPa) = 85.44203 110.26732 39.99137
#
# Poissons Ratio (x) = 0.25559 -0.09429
# Poissons Ratio (y) = 0.19805 -0.05309
# Poissons Ratio (z) = -0.20146 -0.14638
#
# Static dielectric constant tensor:
#      x y z
#    x 1.768360 0.000000 0.000000 
#    y 0.000000 1.787140 0.000000 
#    z 0.000000 0.000000 1.831100 
# 
# From -- ./inp_files/4478.got.cif
#   From: 2010.05.17/outbox.cif.g08.bks.cpg/sg55_3_cif.got.tgz:4478.got - 2010.06.03 13:27:54.
