data_PCOD9426825
_publ_section_title
;
Structure prediction by ZEFSAII (Michael W. Deem and Ramdas Pophale) SiO2 
 PCOD9426825
Probable space group: P B A M
;
_chemical_formula_sum "Si O2"
_cell_formula_units_Z 56
_cell_length_a 22.136633
_cell_length_b 15.154937
_cell_length_c 7.562760
_cell_angle_alpha 90.000000
_cell_angle_beta 90.000000
_cell_angle_gamma 90.000000
_cell_volume 2537.149268
_symmetry_space_group_name_H-M "P B A M"
_symmetry_group_IT_number 55
_symmetry_cell_setting 'orthorhombic'
loop_
_space_group_symop_operation_xyz
x,y,z
-x,-y,z
1/2+x,1/2-y,-z
1/2-x,1/2+y,-z
-x,-y,-z
x,y,-z
1/2-x,1/2+y,z
1/2+x,1/2-y,z
loop_
_atom_site_type_symbol
_atom_site_label
_atom_site_fract_x
_atom_site_fract_y
_atom_site_fract_z
Si Si1 0.425076 0.588395 0.784675
Si Si2 0.797723 0.416215 0.794495
Si Si3 0.088324 0.698648 0.706730
Si Si4 0.666725 0.105375 0.207156
Si Si5 0.526639 0.095740 0.286731
Si Si6 0.563175 0.608186 0.213117
Si Si7 0.811733 0.797752 0.217716
O O1 0.411749 0.487189 0.730337
O O2 0.493064 0.611310 0.727189
O O3 0.374502 0.656857 0.727451
O O4 0.425746 0.589025 0.000000
O O5 0.858867 0.359296 0.789108
O O6 0.809958 0.512877 0.715507
O O7 0.743484 0.358006 0.719436
O O8 0.781915 0.429725 0.000000
O O9 0.089686 0.676919 0.500000
O O10 0.095941 0.802987 0.729404
O O11 0.022353 0.668023 0.773866
O O12 0.594009 0.107704 0.218131
O O13 0.691537 0.197133 0.280964
O O14 0.682610 0.104825 0.000000
O O15 0.530931 0.098611 0.500000
O O16 0.500000 0.000000 0.237250
O O17 0.563271 0.608194 0.000000
O O18 0.811339 0.795830 0.000000
#
# Coordination Sequence:
#
# PCOD9426825 Si02
#       7
#     8   8   8   8   8   8   8
#     4   8  15  30  53  81 109 137 170 212 262 312
#     4  10  21  35  52  76 105 138 177 218 261 309
#     4  11  22  35  52  76 107 141 176 217 269 320
#     4  10  20  34  56  84 108 136 179 226 265 310
#     4  10  20  35  54  76 106 144 174 212 275 330
#     4   9  17  31  55  83 108 136 171 212 261 315
#     4   9  18  33  53  78 109 141 176 219 264 313
#
# _framework density 22.072015
#
# number of rings (size 3 to 8) (size 9 to 14) (size 15 to 20)
#    0.000    2.429    1.429    2.143    0.000    3.714 
#    0.000    6.429    0.000    4.286    0.000    0.000 
#    0.000    0.000    0.000    0.000    0.000    0.000 
#
# Total GULP energy -312771.937952 kJ/mol
# GULP energy per Si atom -5585.213178 kJ/mol
# Density = 2.202178 g / cm^3
# Si number density = 22.072015 Si / 1000 Ang^3
#
#
#
# Elastic Constant Matrix: (Units=GPa)
#
#
# Indices 1 2 3 4 5 6 
#
# 1 67.9042 63.9974 -1.4148 0.0000 0.0000 0.0000
# 2 63.9974 189.5621 3.4779 0.0000 0.0000 0.0000
# 3 -1.4148 3.4779 50.9797 0.0000 0.0000 0.0000
# 4 0.0000 0.0000 0.0000 -16.5237 0.0000 0.0000
# 5 0.0000 0.0000 0.0000 0.0000 -124.5104 0.0000
# 6 0.0000 0.0000 0.0000 0.0000 0.0000 25.0914
#
#
#
# Elastic Compliance Matrix: (Units=1/GPa)
#
#
# Indices 1 2 3 4 5 6 
#
# 1 0.021661 -0.007333 0.001101 0.000000 0.000000 0.000000
# 2 -0.007333 0.007764 -0.000733 0.000000 0.000000 0.000000
# 3 0.001101 -0.000733 0.019696 0.000000 0.000000 0.000000
# 4 0.000000 0.000000 0.000000 -0.060519 0.000000 0.000000
# 5 0.000000 0.000000 0.000000 0.000000 -0.008031 0.000000
# 6 0.000000 0.000000 0.000000 0.000000 0.000000 0.039854
#
#
# Mechanical properties :
#
#
# Convention : Reuss Voigt Hill
#
# Bulk Modulus (GPa) = 28.41575 48.95188 38.68382
# Shear Modulus (GPa) = 108.49449 -7.02952 50.73249
#
# Velocity S-wave (km/s) = 7.01865 -1.78654 4.79947
# Velocity P-wave (km/s) = 8.86476 4.23919 6.94819
#
# Compressibility (1/GPa) = 0.03519175
#
# Stress axis : x y z
#
# Youngs Moduli (GPa) = 46.16658 128.79237 50.77109
#
# Poissons Ratio (x) = 0.94443 -0.05592
# Poissons Ratio (y) = 0.33854 0.03723
# Poissons Ratio (z) = -0.05085 0.09443
#
# Static dielectric constant tensor:
#      x y z
#    x 1.764060 0.000000 0.000000 
#    y 0.000000 1.816750 0.000000 
#    z 0.000000 0.000000 1.821180 
# 
# From -- ./inp_files/6159.got.cif
#   From: 2010.05.17/outbox.cif.g08.bks.cpg/sg55_4_cif.got.tgz:6159.got - 2010.06.03 13:27:54.
