data_PCOD9426101
_publ_section_title
;
Structure prediction by ZEFSAII (Michael W. Deem and Ramdas Pophale) SiO2 
 PCOD9426101
Probable space group: P B A M
;
_chemical_formula_sum "Si O2"
_cell_formula_units_Z 48
_cell_length_a 17.950752
_cell_length_b 8.927436
_cell_length_c 17.015654
_cell_angle_alpha 90.000000
_cell_angle_beta 90.000000
_cell_angle_gamma 90.000000
_cell_volume 2726.829843
_symmetry_space_group_name_H-M "P B A M"
_symmetry_group_IT_number 55
_symmetry_cell_setting 'orthorhombic'
loop_
_space_group_symop_operation_xyz
x,y,z
-x,-y,z
1/2+x,1/2-y,-z
1/2-x,1/2+y,-z
-x,-y,-z
x,y,-z
1/2-x,1/2+y,z
1/2+x,1/2-y,z
loop_
_atom_site_type_symbol
_atom_site_label
_atom_site_fract_x
_atom_site_fract_y
_atom_site_fract_z
Si Si1 0.414409 0.943970 0.087498
Si Si2 0.449318 0.648391 0.409581
Si Si3 0.537292 0.840078 0.285294
Si Si4 0.665094 0.349422 0.278352
Si Si5 0.823295 0.494491 0.243971
Si Si6 0.038900 0.144043 0.844492
O O1 0.360032 0.004153 0.156111
O O2 0.424027 0.765528 0.099004
O O3 0.500000 0.000000 0.093857
O O4 0.387426 0.981509 0.000000
O O5 0.500000 0.500000 0.406908
O O6 0.437558 0.690919 0.500000
O O7 0.496006 0.770554 0.360146
O O8 0.372069 0.621568 0.363171
O O9 0.519528 0.731655 0.212114
O O10 0.500000 0.000000 0.267944
O O11 0.623144 0.882970 0.293058
O O12 0.740948 0.431821 0.256057
O O13 0.672313 0.168645 0.269727
O O14 0.603034 0.403407 0.216273
O O15 0.000000 0.000000 0.881098
#
# Coordination Sequence:
#
# PCOD9426101 Si02
#       6
#     8   8   8   8   8   8
#     4  10  19  36  59  84 115 151 193 245 294 339
#     4  10  22  40  60  86 117 148 191 246 296 341
#     4  11  17  36  59  82 109 148 199 237 278 347
#     4  10  22  35  56  84 113 155 191 239 281 349
#     4  11  21  36  56  86 115 148 200 234 287 354
#     4  10  19  34  57  84 114 151 200 243 280 348
#
# _framework density 17.60286
#
# number of rings (size 3 to 8) (size 9 to 14) (size 15 to 20)
#    0.000    1.667    6.667    2.000    4.667    0.667 
#    0.000    5.000    0.000    0.000    0.000    0.000 
#    0.000    0.000    0.000    0.000    0.000    0.000 
#
# Total GULP energy -267441.943883 kJ/mol
# GULP energy per Si atom -5571.707164 kJ/mol
# Density = 1.756279 g / cm^3
# Si number density = 17.602860 Si / 1000 Ang^3
#
#
#
# Elastic Constant Matrix: (Units=GPa)
#
#
# Indices 1 2 3 4 5 6 
#
# 1 91.3067 41.5654 29.2063 0.0000 0.0000 0.0000
# 2 41.5654 53.1208 25.2400 0.0000 0.0000 0.0000
# 3 29.2063 25.2400 112.2882 0.0000 0.0000 0.0000
# 4 0.0000 0.0000 0.0000 8.4526 0.0000 0.0000
# 5 0.0000 0.0000 0.0000 0.0000 12.7947 0.0000
# 6 0.0000 0.0000 0.0000 0.0000 0.0000 37.1690
#
#
#
# Elastic Compliance Matrix: (Units=1/GPa)
#
#
# Indices 1 2 3 4 5 6 
#
# 1 0.017274 -0.012742 -0.001629 0.000000 0.000000 0.000000
# 2 -0.012742 0.030475 -0.003536 0.000000 0.000000 0.000000
# 3 -0.001629 -0.003536 0.010124 0.000000 0.000000 0.000000
# 4 0.000000 0.000000 0.000000 0.118306 0.000000 0.000000
# 5 0.000000 0.000000 0.000000 0.000000 0.078157 0.000000
# 6 0.000000 0.000000 0.000000 0.000000 0.000000 0.026904
#
#
# Mechanical properties :
#
#
# Convention : Reuss Voigt Hill
#
# Bulk Modulus (GPa) = 45.33212 49.85990 47.59601
# Shear Modulus (GPa) = 15.41269 22.39688 18.90478
#
# Velocity S-wave (km/s) = 2.96223 3.57086 3.28069
# Velocity P-wave (km/s) = 6.12440 6.73705 6.43802
#
# Compressibility (1/GPa) = 0.02205942
#
# Stress axis : x y z
#
# Youngs Moduli (GPa) = 57.89143 32.81325 98.77421
#
# Poissons Ratio (x) = 0.41811 0.16088
# Poissons Ratio (y) = 0.73767 0.34926
# Poissons Ratio (z) = 0.09429 0.11603
#
# Static dielectric constant tensor:
#      x y z
#    x 1.633190 0.000000 0.000000 
#    y 0.000000 1.625800 0.000000 
#    z 0.000000 0.000000 1.616540 
# 
# From -- ./inp_files/20906.got.cif
#   From: 2010.05.17/outbox.cif.g08.bks.cpg/sg55_11_cif.got.tgz:20906.got - 2010.06.03 13:27:54.
