data_PCOD9426809
_publ_section_title
;
Structure prediction by ZEFSAII (Michael W. Deem and Ramdas Pophale) SiO2 
 PCOD9426809
Probable space group: P B A M
;
_chemical_formula_sum "Si O2"
_cell_formula_units_Z 48
_cell_length_a 13.128714
_cell_length_b 13.814383
_cell_length_c 11.218616
_cell_angle_alpha 90.000000
_cell_angle_beta 90.000000
_cell_angle_gamma 90.000000
_cell_volume 2034.665228
_symmetry_space_group_name_H-M "P B A M"
_symmetry_group_IT_number 55
_symmetry_cell_setting 'orthorhombic'
loop_
_space_group_symop_operation_xyz
x,y,z
-x,-y,z
1/2+x,1/2-y,-z
1/2-x,1/2+y,-z
-x,-y,-z
x,y,-z
1/2-x,1/2+y,z
1/2+x,1/2-y,z
loop_
_atom_site_type_symbol
_atom_site_label
_atom_site_fract_x
_atom_site_fract_y
_atom_site_fract_z
Si Si1 0.747237 0.510342 0.366939
Si Si2 0.533607 0.889000 0.128277
Si Si3 0.065223 0.340865 0.629101
Si Si4 0.247404 0.698650 0.126351
Si Si5 0.748843 0.781980 0.374150
Si Si6 0.119983 0.018570 0.864523
O O1 0.702500 0.529508 0.500000
O O2 0.850088 0.573662 0.359779
O O3 0.771042 0.395730 0.368250
O O4 0.677565 0.524790 0.250605
O O5 0.497934 0.840727 0.250501
O O6 0.654685 0.877893 0.122165
O O7 0.500000 0.000000 0.134335
O O8 0.494535 0.849097 0.000000
O O9 0.012690 0.355331 0.500000
O O10 0.131513 0.243457 0.621244
O O11 0.222758 0.759055 0.244310
O O12 0.347971 0.632799 0.138265
O O13 0.248758 0.751616 0.000000
O O14 0.705850 0.744775 0.500000
O O15 0.149735 0.986089 0.000000
O O16 0.000000 0.000000 0.852991
#
# Coordination Sequence:
#
# PCOD9426809 Si02
#       6
#     8   8   8   8   8   8
#     4   9  18  34  55  78 108 145 183 230 284 333
#     4  10  20  34  55  84 116 151 190 233 285 340
#     4  10  21  36  57  86 114 146 191 234 280 344
#     4   9  18  33  53  79 113 149 185 229 279 331
#     4   9  18  34  54  76 106 143 183 228 277 327
#     4   9  17  31  53  78 103 137 180 221 264 319
#
# _framework density 23.591106
#
# number of rings (size 3 to 8) (size 9 to 14) (size 15 to 20)
#    0.000    2.667    0.000    2.000    0.000    4.000 
#    0.000    3.333    0.000   18.000    0.000    0.000 
#    0.000    0.000    0.000    0.000    0.000    0.000 
#
# Total GULP energy -267364.493180 kJ/mol
# GULP energy per Si atom -5570.093608 kJ/mol
# Density = 2.353741 g / cm^3
# Si number density = 23.591106 Si / 1000 Ang^3
#
#
#
# Elastic Constant Matrix: (Units=GPa)
#
#
# Indices 1 2 3 4 5 6 
#
# 1 53.3287 10.1709 44.5868 0.0000 0.0000 0.0000
# 2 10.1709 64.7513 10.1424 0.0000 0.0000 0.0000
# 3 44.5868 10.1424 309.2730 0.0000 0.0000 0.0000
# 4 0.0000 0.0000 0.0000 -2.8515 0.0000 0.0000
# 5 0.0000 0.0000 0.0000 0.0000 35.4466 0.0000
# 6 0.0000 0.0000 0.0000 0.0000 0.0000 19.2982
#
#
#
# Elastic Compliance Matrix: (Units=1/GPa)
#
#
# Indices 1 2 3 4 5 6 
#
# 1 0.021871 -0.002957 -0.003056 0.000000 0.000000 0.000000
# 2 -0.002957 0.015923 -0.000096 0.000000 0.000000 0.000000
# 3 -0.003056 -0.000096 0.003677 0.000000 0.000000 0.000000
# 4 0.000000 0.000000 0.000000 -0.350695 0.000000 0.000000
# 5 0.000000 0.000000 0.000000 0.000000 0.028211 0.000000
# 6 0.000000 0.000000 0.000000 0.000000 0.000000 0.051818
#
#
# Mechanical properties :
#
#
# Convention : Reuss Voigt Hill
#
# Bulk Modulus (GPa) = 34.18382 61.90589 48.04486
# Shear Modulus (GPa) = -24.12825 34.54220 5.20698
#
# Velocity S-wave (km/s) = -3.20155 3.83064 1.48727
# Velocity P-wave (km/s) = 0.92470 6.77224 4.83313
#
# Compressibility (1/GPa) = 0.02925361
#
# Stress axis : x y z
#
# Youngs Moduli (GPa) = 45.72343 62.80163 271.95239
#
# Poissons Ratio (x) = 0.18568 0.83110
# Poissons Ratio (y) = 0.13519 0.02609
# Poissons Ratio (z) = 0.13973 0.00603
#
# Static dielectric constant tensor:
#      x y z
#    x 1.871560 0.000000 0.000000 
#    y 0.000000 1.871130 0.000000 
#    z 0.000000 0.000000 2.058510 
# 
# From -- ./inp_files/14135.got.cif
#   From: 2010.05.17/outbox.cif.g08.bks.cpg/sg55_8_cif.got.tgz:14135.got - 2010.06.03 13:27:54.
