data_PCOD9426083
_publ_section_title
;
Structure prediction by ZEFSAII (Michael W. Deem and Ramdas Pophale) SiO2 
 PCOD9426083
Probable space group: P B A M
;
_chemical_formula_sum "Si O2"
_cell_formula_units_Z 64
_cell_length_a 20.637979
_cell_length_b 18.811262
_cell_length_c 7.530747
_cell_angle_alpha 90.000000
_cell_angle_beta 90.000000
_cell_angle_gamma 90.000000
_cell_volume 2923.635024
_symmetry_space_group_name_H-M "P B A M"
_symmetry_group_IT_number 55
_symmetry_cell_setting 'orthorhombic'
loop_
_space_group_symop_operation_xyz
x,y,z
-x,-y,z
1/2+x,1/2-y,-z
1/2-x,1/2+y,-z
-x,-y,-z
x,y,-z
1/2-x,1/2+y,z
1/2+x,1/2-y,z
loop_
_atom_site_type_symbol
_atom_site_label
_atom_site_fract_x
_atom_site_fract_y
_atom_site_fract_z
Si Si1 0.703479 0.036453 0.211248
Si Si2 0.142888 0.199708 0.714636
Si Si3 0.744384 0.694519 0.285985
Si Si4 0.403203 0.294030 0.717747
Si Si5 0.829550 0.963086 0.791301
Si Si6 0.940640 0.545070 0.790972
Si Si7 0.449388 0.445227 0.702036
Si Si8 0.522389 0.205846 0.285266
O O1 0.731309 0.115646 0.239893
O O2 0.630911 0.031058 0.285818
O O3 0.757583 0.981249 0.276791
O O4 0.698370 0.025915 0.000000
O O5 0.142659 0.200648 0.500000
O O6 0.203134 0.247971 0.776785
O O7 0.151252 0.118566 0.769725
O O8 0.076219 0.236821 0.773159
O O9 0.743164 0.698459 0.500000
O O10 0.671194 0.708514 0.222547
O O11 0.401722 0.296226 0.500000
O O12 0.436153 0.367777 0.779074
O O13 0.450860 0.230526 0.770890
O O14 0.881326 0.014000 0.699092
O O15 0.832086 0.981145 0.000000
O O16 0.956863 0.628168 0.775578
O O17 0.000000 0.500000 0.713294
O O18 0.937134 0.527185 0.000000
O O19 0.500000 0.500000 0.787647
O O20 0.473428 0.432380 0.500000
O O21 0.523208 0.205024 0.500000
#
# Coordination Sequence:
#
# PCOD9426083 Si02
#       8
#     8   8   8   8   8   8   8   8
#     4  10  21  38  58  81 114 151 190 237 287 337
#     4  10  21  36  56  82 112 148 191 236 283 340
#     4  10  19  35  59  83 107 145 192 233 280 339
#     4   9  18  32  54  83 114 143 178 229 283 333
#     4  11  23  36  54  83 116 150 189 235 284 338
#     4  10  22  40  61  84 114 154 196 236 286 345
#     4  10  19  34  57  81 110 151 188 225 280 336
#     4  10  20  37  59  85 116 148 188 237 285 337
#
# _framework density 21.890557999999999
#
# number of rings (size 3 to 8) (size 9 to 14) (size 15 to 20)
#    0.000    2.000    2.500    1.125    0.000    5.000 
#    0.000    1.250    0.000    0.000    0.000    0.000 
#    0.000    0.000    0.000    0.000    0.000    0.000 
#
# Total GULP energy -357588.501698 kJ/mol
# GULP energy per Si atom -5587.320339 kJ/mol
# Density = 2.184073 g / cm^3
# Si number density = 21.890558 Si / 1000 Ang^3
#
#
#
# Elastic Constant Matrix: (Units=GPa)
#
#
# Indices 1 2 3 4 5 6 
#
# 1 155.0337 14.4038 2.6897 0.0000 0.0000 0.0000
# 2 14.4038 50.7508 -13.1508 0.0000 0.0000 0.0000
# 3 2.6897 -13.1508 57.7055 0.0000 0.0000 0.0000
# 4 0.0000 0.0000 0.0000 71.4688 0.0000 0.0000
# 5 0.0000 0.0000 0.0000 0.0000 9.2783 0.0000
# 6 0.0000 0.0000 0.0000 0.0000 0.0000 44.9854
#
#
#
# Elastic Compliance Matrix: (Units=1/GPa)
#
#
# Indices 1 2 3 4 5 6 
#
# 1 0.006658 -0.002094 -0.000788 0.000000 0.000000 0.000000
# 2 -0.002094 0.021599 0.005020 0.000000 0.000000 0.000000
# 3 -0.000788 0.005020 0.018510 0.000000 0.000000 0.000000
# 4 0.000000 0.000000 0.000000 0.013992 0.000000 0.000000
# 5 0.000000 0.000000 0.000000 0.000000 0.107779 0.000000
# 6 0.000000 0.000000 0.000000 0.000000 0.000000 0.022229
#
#
# Mechanical properties :
#
#
# Convention : Reuss Voigt Hill
#
# Bulk Modulus (GPa) = 19.59062 30.15283 24.87172
# Shear Modulus (GPa) = 24.56936 42.44965 33.50950
#
# Velocity S-wave (km/s) = 3.35382 4.40839 3.91676
# Velocity P-wave (km/s) = 4.89553 6.30207 5.64280
#
# Compressibility (1/GPa) = 0.05104484
#
# Stress axis : x y z
#
# Youngs Moduli (GPa) = 150.18609 46.29811 54.02460
#
# Poissons Ratio (x) = 0.09694 0.04255
# Poissons Ratio (y) = 0.31446 -0.27120
# Poissons Ratio (z) = 0.11828 -0.23241
#
# Static dielectric constant tensor:
#      x y z
#    x 1.819200 0.000000 0.000000 
#    y 0.000000 1.736490 0.000000 
#    z 0.000000 0.000000 1.869380 
# 
# From -- ./inp_files/8952.got.cif
#   From: 2010.05.17/outbox.cif.g08.bks.cpg/sg55_5_cif.got.tgz:8952.got - 2010.06.03 13:27:54.
