data_PCOD9426675
_publ_section_title
;
Structure prediction by ZEFSAII (Michael W. Deem and Ramdas Pophale) SiO2 
 PCOD9426675
Probable space group: P B A M
;
_chemical_formula_sum "Si O2"
_cell_formula_units_Z 48
_cell_length_a 15.407562
_cell_length_b 20.649602
_cell_length_c 8.246678
_cell_angle_alpha 90.000000
_cell_angle_beta 90.000000
_cell_angle_gamma 90.000000
_cell_volume 2623.763263
_symmetry_space_group_name_H-M "P B A M"
_symmetry_group_IT_number 55
_symmetry_cell_setting 'orthorhombic'
loop_
_space_group_symop_operation_xyz
x,y,z
-x,-y,z
1/2+x,1/2-y,-z
1/2-x,1/2+y,-z
-x,-y,-z
x,y,-z
1/2-x,1/2+y,z
1/2+x,1/2-y,z
loop_
_atom_site_type_symbol
_atom_site_label
_atom_site_fract_x
_atom_site_fract_y
_atom_site_fract_z
Si Si1 0.114474 0.812797 0.195503
Si Si2 0.223998 0.483212 0.804395
Si Si3 0.917823 0.040913 0.198048
Si Si4 0.437517 0.057589 0.694924
Si Si5 0.494173 0.804016 0.306722
Si Si6 0.807871 0.664190 0.804474
O O1 0.081687 0.883882 0.248788
O O2 0.215128 0.806936 0.249356
O O3 0.052547 0.755478 0.249922
O O4 0.115598 0.813559 0.000000
O O5 0.324443 0.488159 0.753747
O O6 0.159775 0.537442 0.739472
O O7 0.191451 0.411514 0.752001
O O8 0.221520 0.484397 0.000000
O O9 0.919164 0.040659 0.000000
O O10 0.000000 0.000000 0.255153
O O11 0.444979 0.058620 0.500000
O O12 0.467627 0.127516 0.757131
O O13 0.500000 0.000000 0.757046
O O14 0.497223 0.805985 0.500000
O O15 0.393862 0.800590 0.254938
O O16 0.808427 0.664399 0.000000
#
# Coordination Sequence:
#
# PCOD9426675 Si02
#       6
#     8   8   8   8   8   8
#     4   9  19  36  56  78 105 137 175 218 262 312
#     4   9  17  30  53  81 102 129 172 217 256 304
#     4   8  15  32  57  81 105 132 167 212 262 312
#     4  10  20  34  50  73 106 142 174 208 260 312
#     4  11  22  35  53  76 106 143 178 216 262 316
#     4   9  18  34  55  76 100 135 177 218 261 309
#
# _framework density 18.294333000000002
#
# number of rings (size 3 to 8) (size 9 to 14) (size 15 to 20)
#    0.000    2.667    1.667    2.500    0.000    2.333 
#    3.000    2.500    0.000    1.000    0.000    0.000 
#    0.000    0.000    0.000    0.000    0.000    0.000 
#
# Total GULP energy -267659.690974 kJ/mol
# GULP energy per Si atom -5576.243562 kJ/mol
# Density = 1.825269 g / cm^3
# Si number density = 18.294333 Si / 1000 Ang^3
#
#
#
# Elastic Constant Matrix: (Units=GPa)
#
#
# Indices 1 2 3 4 5 6 
#
# 1 181.7660 110.3476 14.1977 0.0000 0.0000 0.0000
# 2 110.3476 114.8422 16.9199 0.0000 0.0000 0.0000
# 3 14.1977 16.9199 7.7270 0.0000 0.0000 0.0000
# 4 0.0000 0.0000 0.0000 17.9781 0.0000 0.0000
# 5 0.0000 0.0000 0.0000 0.0000 328.8241 0.0000
# 6 0.0000 0.0000 0.0000 0.0000 0.0000 36.6591
#
#
#
# Elastic Compliance Matrix: (Units=1/GPa)
#
#
# Indices 1 2 3 4 5 6 
#
# 1 0.013346 -0.013598 0.005253 0.000000 0.000000 0.000000
# 2 -0.013598 0.026709 -0.033499 0.000000 0.000000 0.000000
# 3 0.005253 -0.033499 0.193119 0.000000 0.000000 0.000000
# 4 0.000000 0.000000 0.000000 0.055623 0.000000 0.000000
# 5 0.000000 0.000000 0.000000 0.000000 0.003041 0.000000
# 6 0.000000 0.000000 0.000000 0.000000 0.000000 0.027278
#
#
# Mechanical properties :
#
#
# Convention : Reuss Voigt Hill
#
# Bulk Modulus (GPa) = 6.68967 65.25173 35.97070
# Shear Modulus (GPa) = 11.04644 87.55026 49.29835
#
# Velocity S-wave (km/s) = 2.45994 6.92534 5.19671
# Velocity P-wave (km/s) = 3.42535 9.98461 7.46409
#
# Compressibility (1/GPa) = 0.14948427
#
# Stress axis : x y z
#
# Youngs Moduli (GPa) = 74.92637 37.44071 5.17817
#
# Poissons Ratio (x) = 0.50912 -0.02720
# Poissons Ratio (y) = 1.01885 0.17347
# Poissons Ratio (z) = -0.39355 1.25424
#
# Static dielectric constant tensor:
#      x y z
#    x 1.630460 0.000000 0.000000 
#    y 0.000000 1.617510 0.000000 
#    z 0.000000 0.000000 1.639680 
# 
# From -- ./inp_files/5677.got.cif
#   From: 2010.05.17/outbox.cif.g08.bks.cpg/sg55_3_cif.got.tgz:5677.got - 2010.06.03 13:27:54.
