data_PCOD9426199
_publ_section_title
;
Structure prediction by ZEFSAII (Michael W. Deem and Ramdas Pophale) SiO2 
 PCOD9426199
Probable space group: P B A M
;
_chemical_formula_sum "Si O2"
_cell_formula_units_Z 40
_cell_length_a 9.388062
_cell_length_b 18.251644
_cell_length_c 12.051431
_cell_angle_alpha 90.000000
_cell_angle_beta 90.000000
_cell_angle_gamma 90.000000
_cell_volume 2064.983362
_symmetry_space_group_name_H-M "P B A M"
_symmetry_group_IT_number 55
_symmetry_cell_setting 'orthorhombic'
loop_
_space_group_symop_operation_xyz
x,y,z
-x,-y,z
1/2+x,1/2-y,-z
1/2-x,1/2+y,-z
-x,-y,-z
x,y,-z
1/2-x,1/2+y,z
1/2+x,1/2-y,z
loop_
_atom_site_type_symbol
_atom_site_label
_atom_site_fract_x
_atom_site_fract_y
_atom_site_fract_z
Si Si1 0.584336 0.406831 0.117757
Si Si2 0.655973 0.187871 0.131165
Si Si3 0.855050 0.453357 0.369103
Si Si4 0.664652 0.814845 0.792712
Si Si5 0.184945 0.947876 0.789647
O O1 0.720111 0.356286 0.131492
O O2 0.647800 0.488133 0.123759
O O3 0.464252 0.403386 0.212974
O O4 0.514394 0.389688 0.000000
O O5 0.752723 0.237475 0.213705
O O6 0.489279 0.199715 0.154875
O O7 0.694707 0.104953 0.164235
O O8 0.686036 0.200358 0.000000
O O9 0.837421 0.442996 0.500000
O O10 0.854614 0.374062 0.307473
O O11 0.733991 0.506389 0.317149
O O12 0.000000 0.500000 0.349689
#
# Coordination Sequence:
#
# PCOD9426199 Si02
#       5
#     8   8   8   8   8
#     4  10  19  35  56  85 127 164 201 249 302 364
#     4  12  22  36  57  88 129 164 197 243 308 379
#     4  10  21  44  69  90 119 162 215 276 319 351
#     4  11  24  39  59  92 124 170 211 252 307 381
#     4  10  20  35  59  91 117 160 205 251 305 367
#
# _framework density 19.370615999999998
#
# number of rings (size 3 to 8) (size 9 to 14) (size 15 to 20)
#    0.000    1.400    2.000    5.400    0.000    0.000 
#    0.000   13.000    0.000    0.000    0.000    0.000 
#    0.000    0.000    0.000    0.000    0.000    0.000 
#
# Total GULP energy -222707.499205 kJ/mol
# GULP energy per Si atom -5567.687480 kJ/mol
# Density = 1.932653 g / cm^3
# Si number density = 19.370616 Si / 1000 Ang^3
#
#
#
# Elastic Constant Matrix: (Units=GPa)
#
#
# Indices 1 2 3 4 5 6 
#
# 1 107.9497 21.9305 25.9198 0.0000 0.0000 0.0000
# 2 21.9305 75.3426 31.6719 0.0000 0.0000 0.0000
# 3 25.9198 31.6719 110.1787 0.0000 0.0000 0.0000
# 4 0.0000 0.0000 0.0000 17.1910 0.0000 0.0000
# 5 0.0000 0.0000 0.0000 0.0000 22.0043 0.0000
# 6 0.0000 0.0000 0.0000 0.0000 0.0000 44.4187
#
#
#
# Elastic Compliance Matrix: (Units=1/GPa)
#
#
# Indices 1 2 3 4 5 6 
#
# 1 0.010133 -0.002215 -0.001747 0.000000 0.000000 0.000000
# 2 -0.002215 0.015581 -0.003958 0.000000 0.000000 0.000000
# 3 -0.001747 -0.003958 0.010625 0.000000 0.000000 0.000000
# 4 0.000000 0.000000 0.000000 0.058170 0.000000 0.000000
# 5 0.000000 0.000000 0.000000 0.000000 0.045446 0.000000
# 6 0.000000 0.000000 0.000000 0.000000 0.000000 0.022513
#
#
# Mechanical properties :
#
#
# Convention : Reuss Voigt Hill
#
# Bulk Modulus (GPa) = 48.78253 50.27948 49.53101
# Shear Modulus (GPa) = 27.00646 30.98607 28.99626
#
# Velocity S-wave (km/s) = 3.73795 4.00389 3.87320
# Velocity P-wave (km/s) = 6.62330 6.88388 6.75485
#
# Compressibility (1/GPa) = 0.02049914
#
# Stress axis : x y z
#
# Youngs Moduli (GPa) = 98.68683 64.17978 94.11855
#
# Poissons Ratio (x) = 0.14216 0.16443
# Poissons Ratio (y) = 0.21860 0.37251
# Poissons Ratio (z) = 0.17241 0.25402
#
# Static dielectric constant tensor:
#      x y z
#    x 1.736740 0.000000 0.000000 
#    y 0.000000 1.812880 0.000000 
#    z 0.000000 0.000000 1.637240 
# 
# From -- ./inp_files/11879.got.cif
#   From: 2010.05.17/outbox.cif.g08.bks.cpg/sg55_6_cif.got.tgz:11879.got - 2010.06.03 13:27:54.
