data_PCOD9426711
_publ_section_title
;
Structure prediction by ZEFSAII (Michael W. Deem and Ramdas Pophale) SiO2 
 PCOD9426711
Probable space group: P B A M
;
_chemical_formula_sum "Si O2"
_cell_formula_units_Z 56
_cell_length_a 14.933514
_cell_length_b 22.629703
_cell_length_c 8.537925
_cell_angle_alpha 90.000000
_cell_angle_beta 90.000000
_cell_angle_gamma 90.000000
_cell_volume 2885.314798
_symmetry_space_group_name_H-M "P B A M"
_symmetry_group_IT_number 55
_symmetry_cell_setting 'orthorhombic'
loop_
_space_group_symop_operation_xyz
x,y,z
-x,-y,z
1/2+x,1/2-y,-z
1/2-x,1/2+y,-z
-x,-y,-z
x,y,-z
1/2-x,1/2+y,z
1/2+x,1/2-y,z
loop_
_atom_site_type_symbol
_atom_site_label
_atom_site_fract_x
_atom_site_fract_y
_atom_site_fract_z
Si Si1 0.103459 0.783767 0.312594
Si Si2 0.099809 0.224078 0.313685
Si Si3 0.603622 0.853696 0.686912
Si Si4 0.897057 0.998217 0.808665
Si Si5 0.909625 0.644632 0.186523
Si Si6 0.718624 0.609814 0.811493
Si Si7 0.712548 0.382514 0.813149
O O1 0.114944 0.786102 0.500000
O O2 0.114468 0.715426 0.263961
O O3 0.171316 0.829230 0.236409
O O4 0.000105 0.799779 0.276157
O O5 0.103676 0.234872 0.500000
O O6 0.108965 0.286730 0.228478
O O7 0.172616 0.176477 0.264073
O O8 0.611508 0.856072 0.500000
O O9 0.503861 0.872041 0.736037
O O10 0.684292 0.889071 0.764758
O O11 0.846697 0.938376 0.761835
O O12 0.841063 0.055129 0.754523
O O13 0.897827 0.999324 0.000000
O O14 0.000000 0.000000 0.756233
O O15 0.821741 0.609478 0.241910
O O16 0.918517 0.638755 0.000000
O O17 0.720385 0.607337 0.000000
O O18 0.705723 0.377006 0.000000
#
# Coordination Sequence:
#
# PCOD9426711 Si02
#       7
#     8   8   8   8   8   8   8
#     4   9  19  33  51  77 107 141 175 211 261 321
#     4  10  20  34  52  78 114 148 177 216 271 325
#     4  10  21  37  55  77 110 145 176 218 274 328
#     4   9  19  36  56  79 107 138 174 219 271 320
#     4  10  20  34  54  81 109 138 180 226 267 321
#     4  10  20  34  54  79 106 138 176 222 271 316
#     4  11  21  34  56  81 105 140 185 227 267 317
#
# _framework density 19.408626999999999
#
# number of rings (size 3 to 8) (size 9 to 14) (size 15 to 20)
#    0.000    2.143    0.000    4.286    0.000    8.000 
#    0.000    2.143    0.000    8.143    0.000    0.000 
#    0.000    0.000    0.000    0.000    0.000    0.000 
#
# Total GULP energy -312743.866846 kJ/mol
# GULP energy per Si atom -5584.711908 kJ/mol
# Density = 1.936445 g / cm^3
# Si number density = 19.408627 Si / 1000 Ang^3
#
#
#
# Elastic Constant Matrix: (Units=GPa)
#
#
# Indices 1 2 3 4 5 6 
#
# 1 149.6808 48.4267 4.6448 0.0000 0.0000 0.0000
# 2 48.4267 35.2049 0.8044 0.0000 0.0000 0.0000
# 3 4.6448 0.8044 11.1408 0.0000 0.0000 0.0000
# 4 0.0000 0.0000 0.0000 -7.5742 0.0000 0.0000
# 5 0.0000 0.0000 0.0000 0.0000 26.3248 0.0000
# 6 0.0000 0.0000 0.0000 0.0000 0.0000 33.0734
#
#
#
# Elastic Compliance Matrix: (Units=1/GPa)
#
#
# Indices 1 2 3 4 5 6 
#
# 1 0.012204 -0.016699 -0.003882 0.000000 0.000000 0.000000
# 2 -0.016699 0.051301 0.003258 0.000000 0.000000 0.000000
# 3 -0.003882 0.003258 0.091144 0.000000 0.000000 0.000000
# 4 0.000000 0.000000 0.000000 -0.132028 0.000000 0.000000
# 5 0.000000 0.000000 0.000000 0.000000 0.037987 0.000000
# 6 0.000000 0.000000 0.000000 0.000000 0.000000 0.030236
#
#
# Mechanical properties :
#
#
# Convention : Reuss Voigt Hill
#
# Bulk Modulus (GPa) = 8.33318 33.75315 21.04316
# Shear Modulus (GPa) = 30.21327 19.84151 25.02739
#
# Velocity S-wave (km/s) = 3.94977 3.20082 3.59485
# Velocity P-wave (km/s) = 5.01037 5.57574 5.30060
#
# Compressibility (1/GPa) = 0.12000225
#
# Stress axis : x y z
#
# Youngs Moduli (GPa) = 81.94110 19.49294 10.97167
#
# Poissons Ratio (x) = 0.32550 0.04260
# Poissons Ratio (y) = 1.36830 -0.03574
# Poissons Ratio (z) = 0.31812 -0.06350
#
# Static dielectric constant tensor:
#      x y z
#    x 1.697530 0.000000 0.000000 
#    y 0.000000 1.651570 0.000000 
#    z 0.000000 0.000000 1.653530 
# 
# From -- ./inp_files/6188.got.cif
#   From: 2010.05.17/outbox.cif.g08.bks.cpg/sg55_4_cif.got.tgz:6188.got - 2010.06.03 13:27:54.
