data_PCOD9426505
_publ_section_title
;
Structure prediction by ZEFSAII (Michael W. Deem and Ramdas Pophale) SiO2 
 PCOD9426505
Probable space group: P B A M
;
_chemical_formula_sum "Si O2"
_cell_formula_units_Z 32
_cell_length_a 13.025282
_cell_length_b 8.795275
_cell_length_c 11.341136
_cell_angle_alpha 90.000000
_cell_angle_beta 90.000000
_cell_angle_gamma 90.000000
_cell_volume 1299.251168
_symmetry_space_group_name_H-M "P B A M"
_symmetry_group_IT_number 55
_symmetry_cell_setting 'orthorhombic'
loop_
_space_group_symop_operation_xyz
x,y,z
-x,-y,z
1/2+x,1/2-y,-z
1/2-x,1/2+y,-z
-x,-y,-z
x,y,-z
1/2-x,1/2+y,z
1/2+x,1/2-y,z
loop_
_atom_site_type_symbol
_atom_site_label
_atom_site_fract_x
_atom_site_fract_y
_atom_site_fract_z
Si Si1 0.745223 0.521281 0.743666
Si Si2 0.489814 0.815606 0.500000
Si Si3 0.556088 0.837829 0.751997
Si Si4 0.128579 0.208770 0.865384
Si Si5 0.126222 0.037870 0.500000
O O1 0.827875 0.386057 0.763274
O O2 0.810772 0.668726 0.781960
O O3 0.656744 0.463267 0.831041
O O4 0.692310 0.513419 0.614617
O O5 0.542221 0.770836 0.621844
O O6 0.382308 0.724660 0.500000
O O7 0.500000 0.000000 0.500000
O O8 0.491830 0.738356 0.842150
O O9 0.500000 0.000000 0.754678
O O10 0.155318 0.241790 0.000000
O O11 0.000000 0.000000 0.500000
#
# Coordination Sequence:
#
# PCOD9426505 Si02
#       5
#     8   4   8   8   4
#     4  11  25  43  68 101 135 180 226 281 344 411
#     4  10  19  40  68  94 129 176 222 272 329 405
#     4   9  20  39  65  92 128 171 228 272 327 400
#     4  11  24  43  68  99 135 180 235 287 336 399
#     4  12  27  44  67 106 147 170 216 287 363 405
#
# _framework density 24.629572
#
# number of rings (size 3 to 8) (size 9 to 14) (size 15 to 20)
#    0.000    1.500    2.500    1.500    3.500    9.500 
#    0.000    0.000    0.000    4.500    0.000    0.000 
#    0.000    0.000    0.000    0.000    0.000    0.000 
#
# Total GULP energy -178362.813179 kJ/mol
# GULP energy per Si atom -5573.837912 kJ/mol
# Density = 2.457351 g / cm^3
# Si number density = 24.629572 Si / 1000 Ang^3
#
#
#
# Elastic Constant Matrix: (Units=GPa)
#
#
# Indices 1 2 3 4 5 6 
#
# 1 126.3622 60.8233 22.5082 0.0000 0.0000 0.0000
# 2 60.8233 70.2515 20.9540 0.0000 0.0000 0.0000
# 3 22.5082 20.9540 57.8122 0.0000 0.0000 0.0000
# 4 0.0000 0.0000 0.0000 25.9377 0.0000 0.0000
# 5 0.0000 0.0000 0.0000 0.0000 6.9455 0.0000
# 6 0.0000 0.0000 0.0000 0.0000 0.0000 45.8966
#
#
#
# Elastic Compliance Matrix: (Units=1/GPa)
#
#
# Indices 1 2 3 4 5 6 
#
# 1 0.013637 -0.011462 -0.001155 0.000000 0.000000 0.000000
# 2 -0.011462 0.025594 -0.004814 0.000000 0.000000 0.000000
# 3 -0.001155 -0.004814 0.019492 0.000000 0.000000 0.000000
# 4 0.000000 0.000000 0.000000 0.038554 0.000000 0.000000
# 5 0.000000 0.000000 0.000000 0.000000 0.143978 0.000000
# 6 0.000000 0.000000 0.000000 0.000000 0.000000 0.021788
#
#
# Mechanical properties :
#
#
# Convention : Reuss Voigt Hill
#
# Bulk Modulus (GPa) = 41.90954 51.44409 46.67681
# Shear Modulus (GPa) = 16.34747 25.76533 21.05640
#
# Velocity S-wave (km/s) = 2.57910 3.23788 2.92708
# Velocity P-wave (km/s) = 5.09135 5.90855 5.51511
#
# Compressibility (1/GPa) = 0.02386092
#
# Stress axis : x y z
#
# Youngs Moduli (GPa) = 73.33199 39.07124 51.30359
#
# Poissons Ratio (x) = 0.44784 0.05924
# Poissons Ratio (y) = 0.84054 0.24698
# Poissons Ratio (z) = 0.08468 0.18809
#
# Static dielectric constant tensor:
#      x y z
#    x 2.092510 0.000000 0.000000 
#    y 0.000000 2.048940 0.000000 
#    z 0.000000 0.000000 1.930280 
# 
# From -- ./inp_files/12805.got.cif
#   From: 2010.05.17/outbox.cif.g08.bks.cpg/sg55_7_cif.got.tgz:12805.got - 2010.06.03 13:27:54.
