data_PCOD9426515
_publ_section_title
;
Structure prediction by ZEFSAII (Michael W. Deem and Ramdas Pophale) SiO2 
 PCOD9426515
Probable space group: P B A M
;
_chemical_formula_sum "Si O2"
_cell_formula_units_Z 48
_cell_length_a 17.241388
_cell_length_b 13.598952
_cell_length_c 9.818567
_cell_angle_alpha 90.000000
_cell_angle_beta 90.000000
_cell_angle_gamma 90.000000
_cell_volume 2302.108425
_symmetry_space_group_name_H-M "P B A M"
_symmetry_group_IT_number 55
_symmetry_cell_setting 'orthorhombic'
loop_
_space_group_symop_operation_xyz
x,y,z
-x,-y,z
1/2+x,1/2-y,-z
1/2-x,1/2+y,-z
-x,-y,-z
x,y,-z
1/2-x,1/2+y,z
1/2+x,1/2-y,z
loop_
_atom_site_type_symbol
_atom_site_label
_atom_site_fract_x
_atom_site_fract_y
_atom_site_fract_z
Si Si1 0.100959 0.928592 0.342426
Si Si2 0.729701 0.857050 0.347689
Si Si3 0.363828 0.598079 0.842905
Si Si4 0.719947 0.130687 0.351303
Si Si5 0.412042 0.828609 0.842336
Si Si6 0.445420 0.205436 0.339800
O O1 0.081821 0.949567 0.500000
O O2 0.194104 0.911717 0.335226
O O3 0.065363 0.822041 0.306365
O O4 0.086349 0.021846 0.246692
O O5 0.744007 0.899338 0.500000
O O6 0.778403 0.902483 0.225251
O O7 0.763005 0.746857 0.354871
O O8 0.638159 0.846495 0.324746
O O9 0.393493 0.710680 0.836785
O O10 0.362293 0.567503 0.000000
O O11 0.687337 0.103366 0.500000
O O12 0.658366 0.115187 0.232395
O O13 0.489886 0.840832 0.755618
O O14 0.419507 0.855916 0.000000
O O15 0.466680 0.200492 0.500000
#
# Coordination Sequence:
#
# PCOD9426515 Si02
#       6
#     8   8   8   8   8   8
#     4   9  18  32  50  71  93 121 158 196 233 272
#     4   8  15  30  50  68  87 116 157 198 230 267
#     4  10  20  31  45  69  99 128 155 185 228 280
#     4   8  15  30  50  68  87 116 157 198 230 267
#     4  10  20  31  45  69  99 128 155 185 228 280
#     4   9  18  32  50  71  93 121 158 196 233 272
#
# _framework density 20.850451
#
# number of rings (size 3 to 8) (size 9 to 14) (size 15 to 20)
#    0.000    3.000    0.000    3.000    0.000    4.667 
#    0.000    6.667    0.000    1.000    0.000    7.000 
#    0.000    0.000    0.000    0.000    0.000    0.000 
#
# Total GULP energy -267759.973843 kJ/mol
# GULP energy per Si atom -5578.332788 kJ/mol
# Density = 2.080299 g / cm^3
# Si number density = 20.850451 Si / 1000 Ang^3
#
#
#
# Elastic Constant Matrix: (Units=GPa)
#
#
# Indices 1 2 3 4 5 6 
#
# 1 90.2830 -15.3113 49.1832 0.0000 0.0000 0.0000
# 2 -15.3113 35.3555 1.3096 0.0000 0.0000 0.0000
# 3 49.1832 1.3096 89.5223 0.0000 0.0000 0.0000
# 4 0.0000 0.0000 0.0000 12.6138 0.0000 0.0000
# 5 0.0000 0.0000 0.0000 0.0000 -12.7380 0.0000
# 6 0.0000 0.0000 0.0000 0.0000 0.0000 15.6500
#
#
#
# Elastic Compliance Matrix: (Units=1/GPa)
#
#
# Indices 1 2 3 4 5 6 
#
# 1 0.017861 0.008103 -0.009931 0.000000 0.000000 0.000000
# 2 0.008103 0.031975 -0.004919 0.000000 0.000000 0.000000
# 3 -0.009931 -0.004919 0.016698 0.000000 0.000000 0.000000
# 4 0.000000 0.000000 0.000000 0.079278 0.000000 0.000000
# 5 0.000000 0.000000 0.000000 0.000000 -0.078505 0.000000
# 6 0.000000 0.000000 0.000000 0.000000 0.000000 0.063898
#
#
# Mechanical properties :
#
#
# Convention : Reuss Voigt Hill
#
# Bulk Modulus (GPa) = 18.85409 31.72486 25.28947
# Shear Modulus (GPa) = 30.79203 15.10379 22.94791
#
# Velocity S-wave (km/s) = 3.84709 2.69436 3.32112
# Velocity P-wave (km/s) = 5.36616 4.99279 5.18283
#
# Compressibility (1/GPa) = 0.05303890
#
# Stress axis : x y z
#
# Youngs Moduli (GPa) = 55.98941 31.27409 59.88586
#
# Poissons Ratio (x) = -0.25340 0.59473
# Poissons Ratio (y) = -0.45366 0.29460
# Poissons Ratio (z) = 0.55603 0.15385
#
# Static dielectric constant tensor:
#      x y z
#    x 1.740420 0.000000 0.000000 
#    y 0.000000 1.813310 0.000000 
#    z 0.000000 0.000000 1.716740 
# 
# From -- ./inp_files/5547.got.cif
#   From: 2010.05.17/outbox.cif.g08.bks.cpg/sg55_3_cif.got.tgz:5547.got - 2010.06.03 13:27:54.
