data_PCOD9426355
_publ_section_title
;
Structure prediction by ZEFSAII (Michael W. Deem and Ramdas Pophale) SiO2 
 PCOD9426355
Probable space group: P B A M
;
_chemical_formula_sum "Si O2"
_cell_formula_units_Z 64
_cell_length_a 19.237072
_cell_length_b 20.443288
_cell_length_c 7.509438
_cell_angle_alpha 90.000000
_cell_angle_beta 90.000000
_cell_angle_gamma 90.000000
_cell_volume 2953.229197
_symmetry_space_group_name_H-M "P B A M"
_symmetry_group_IT_number 55
_symmetry_cell_setting 'orthorhombic'
loop_
_space_group_symop_operation_xyz
x,y,z
-x,-y,z
1/2+x,1/2-y,-z
1/2-x,1/2+y,-z
-x,-y,-z
x,y,-z
1/2-x,1/2+y,z
1/2+x,1/2-y,z
loop_
_atom_site_type_symbol
_atom_site_label
_atom_site_fract_x
_atom_site_fract_y
_atom_site_fract_z
Si Si1 0.802234 0.399789 0.786818
Si Si2 0.049541 0.556382 0.209194
Si Si3 0.198469 0.748055 0.790160
Si Si4 0.303865 0.861723 0.294224
Si Si5 0.543560 0.701186 0.285116
Si Si6 0.444019 0.446669 0.718079
Si Si7 0.288657 0.479241 0.286370
Si Si8 0.454252 0.820408 0.283809
O O1 0.873255 0.433013 0.715769
O O2 0.793138 0.325831 0.719281
O O3 0.739217 0.448636 0.751836
O O4 0.810978 0.393588 0.000000
O O5 0.000000 0.500000 0.287076
O O6 0.008784 0.624255 0.227921
O O7 0.058562 0.540433 0.000000
O O8 0.250020 0.801654 0.709672
O O9 0.119005 0.770310 0.764010
O O10 0.213637 0.747761 0.000000
O O11 0.318471 0.878424 0.500000
O O12 0.265511 0.925022 0.214710
O O13 0.377856 0.840031 0.217098
O O14 0.541056 0.699936 0.500000
O O15 0.537852 0.626686 0.223206
O O16 0.483844 0.750633 0.222580
O O17 0.500000 0.500000 0.775483
O O18 0.443895 0.446642 0.500000
O O19 0.366319 0.464892 0.777759
O O20 0.290962 0.471096 0.500000
O O21 0.452723 0.818594 0.500000
#
# Coordination Sequence:
#
# PCOD9426355 Si02
#       8
#     8   8   8   8   8   8   8   8
#     4  10  22  37  53  80 115 148 188 235 275 333
#     4  10  20  35  54  76 110 153 188 224 278 337
#     4  11  22  37  58  82 110 154 197 233 282 338
#     4  10  21  38  57  86 119 146 188 240 287 346
#     4  10  19  36  59  83 113 149 186 237 292 336
#     4   9  18  34  58  85 112 145 190 235 283 345
#     4  10  20  35  57  83 113 152 189 234 289 338
#     4  10  21  34  56  86 114 145 185 237 290 336
#
# _framework density 21.671192999999999
#
# number of rings (size 3 to 8) (size 9 to 14) (size 15 to 20)
#    0.000    2.000    2.500    1.125    0.000    3.750 
#    0.000    2.500    0.000    1.500    0.000    0.000 
#    0.000    0.000    0.000    0.000    0.000    0.000 
#
# Total GULP energy -357621.823028 kJ/mol
# GULP energy per Si atom -5587.840985 kJ/mol
# Density = 2.162187 g / cm^3
# Si number density = 21.671193 Si / 1000 Ang^3
#
#
#
# Elastic Constant Matrix: (Units=GPa)
#
#
# Indices 1 2 3 4 5 6 
#
# 1 70.9357 26.7439 -16.0585 0.0000 0.0000 0.0000
# 2 26.7439 148.3828 -17.4209 0.0000 0.0000 0.0000
# 3 -16.0585 -17.4209 52.2134 0.0000 0.0000 0.0000
# 4 0.0000 0.0000 0.0000 16.2462 0.0000 0.0000
# 5 0.0000 0.0000 0.0000 0.0000 13.8844 0.0000
# 6 0.0000 0.0000 0.0000 0.0000 0.0000 41.9761
#
#
#
# Elastic Compliance Matrix: (Units=1/GPa)
#
#
# Indices 1 2 3 4 5 6 
#
# 1 0.015926 -0.002389 0.004101 0.000000 0.000000 0.000000
# 2 -0.002389 0.007372 0.001725 0.000000 0.000000 0.000000
# 3 0.004101 0.001725 0.020989 0.000000 0.000000 0.000000
# 4 0.000000 0.000000 0.000000 0.061553 0.000000 0.000000
# 5 0.000000 0.000000 0.000000 0.000000 0.072023 0.000000
# 6 0.000000 0.000000 0.000000 0.000000 0.000000 0.023823
#
#
# Mechanical properties :
#
#
# Convention : Reuss Voigt Hill
#
# Bulk Modulus (GPa) = 19.54565 28.67344 24.10955
# Shear Modulus (GPa) = 23.59972 32.97249 28.28610
#
# Velocity S-wave (km/s) = 3.30357 3.90486 3.61673
# Velocity P-wave (km/s) = 4.85697 5.79572 5.34699
#
# Compressibility (1/GPa) = 0.05116227
#
# Stress axis : x y z
#
# Youngs Moduli (GPa) = 62.78884 135.64025 47.64390
#
# Poissons Ratio (x) = 0.32405 -0.19540
# Poissons Ratio (y) = 0.15000 -0.08219
# Poissons Ratio (z) = -0.25751 -0.23399
#
# Static dielectric constant tensor:
#      x y z
#    x 1.752420 0.000000 0.000000 
#    y 0.000000 1.771310 0.000000 
#    z 0.000000 0.000000 1.801580 
# 
# From -- ./inp_files/8066.got.cif
#   From: 2010.05.17/outbox.cif.g08.bks.cpg/sg55_5_cif.got.tgz:8066.got - 2010.06.03 13:27:54.
