data_PCOD9426633
_publ_section_title
;
Structure prediction by ZEFSAII (Michael W. Deem and Ramdas Pophale) SiO2 
 PCOD9426633
Probable space group: P B A M
;
_chemical_formula_sum "Si O2"
_cell_formula_units_Z 56
_cell_length_a 12.449797
_cell_length_b 20.242362
_cell_length_c 11.354722
_cell_angle_alpha 90.000000
_cell_angle_beta 90.000000
_cell_angle_gamma 90.000000
_cell_volume 2861.540936
_symmetry_space_group_name_H-M "P B A M"
_symmetry_group_IT_number 55
_symmetry_cell_setting 'orthorhombic'
loop_
_space_group_symop_operation_xyz
x,y,z
-x,-y,z
1/2+x,1/2-y,-z
1/2-x,1/2+y,-z
-x,-y,-z
x,y,-z
1/2-x,1/2+y,z
1/2+x,1/2-y,z
loop_
_atom_site_type_symbol
_atom_site_label
_atom_site_fract_x
_atom_site_fract_y
_atom_site_fract_z
Si Si1 0.840177 0.627572 0.366462
Si Si2 0.156132 0.601630 0.125714
Si Si3 0.566252 0.435250 0.366339
Si Si4 0.312050 0.258055 0.363045
Si Si5 0.358935 0.675765 0.211198
Si Si6 0.998336 0.707913 0.203260
Si Si7 0.680950 0.970741 0.631632
O O1 0.875737 0.643684 0.500000
O O2 0.727895 0.666493 0.350469
O O3 0.920719 0.658889 0.274033
O O4 0.831847 0.549236 0.356973
O O5 0.275370 0.632891 0.136190
O O6 0.136572 0.563329 0.249531
O O7 0.073427 0.662324 0.124897
O O8 0.146881 0.564953 0.000000
O O9 0.500000 0.500000 0.330435
O O10 0.532590 0.417597 0.500000
O O11 0.561579 0.374147 0.278183
O O12 0.692520 0.453946 0.369744
O O13 0.323264 0.242342 0.500000
O O14 0.217508 0.212443 0.307711
O O15 0.420080 0.242146 0.294748
O O16 0.425526 0.733975 0.149787
O O17 0.637878 0.951013 0.500000
#
# Coordination Sequence:
#
# PCOD9426633 Si02
#       7
#     8   8   8   8   8   8   8
#     4   9  18  32  51  81 116 150 183 225 277 324
#     4  10  22  40  60  80 107 144 184 228 278 331
#     4   9  17  28  48  79 109 145 183 221 268 321
#     4   9  17  29  49  79 116 149 181 224 272 322
#     4   9  19  34  51  76 108 144 177 227 272 330
#     4  10  20  33  53  81 107 143 187 228 272 329
#     4   9  19  36  55  78 113 148 184 228 273 324
#
# _framework density 19.569875
#
# number of rings (size 3 to 8) (size 9 to 14) (size 15 to 20)
#    0.000    2.714    0.000    0.857    2.000    6.857 
#    0.000    2.857    0.000   10.286    0.000    0.000 
#    0.000    0.000    0.000    0.000    0.000    0.000 
#
# Total GULP energy -312200.978602 kJ/mol
# GULP energy per Si atom -5575.017475 kJ/mol
# Density = 1.952533 g / cm^3
# Si number density = 19.569875 Si / 1000 Ang^3
#
#
#
# Elastic Constant Matrix: (Units=GPa)
#
#
# Indices 1 2 3 4 5 6 
#
# 1 23.3588 5.9357 14.1604 0.0000 0.0000 0.0000
# 2 5.9357 79.5200 39.7502 0.0000 0.0000 0.0000
# 3 14.1604 39.7502 112.6923 0.0000 0.0000 0.0000
# 4 0.0000 0.0000 0.0000 5.7493 0.0000 0.0000
# 5 0.0000 0.0000 0.0000 0.0000 -22.8826 0.0000
# 6 0.0000 0.0000 0.0000 0.0000 0.0000 28.0678
#
#
#
# Elastic Compliance Matrix: (Units=1/GPa)
#
#
# Indices 1 2 3 4 5 6 
#
# 1 0.046370 -0.000666 -0.005592 0.000000 0.000000 0.000000
# 2 -0.000666 0.015277 -0.005305 0.000000 0.000000 0.000000
# 3 -0.005592 -0.005305 0.011448 0.000000 0.000000 0.000000
# 4 0.000000 0.000000 0.000000 0.173935 0.000000 0.000000
# 5 0.000000 0.000000 0.000000 0.000000 -0.043701 0.000000
# 6 0.000000 0.000000 0.000000 0.000000 0.000000 0.035628
#
#
# Mechanical properties :
#
#
# Convention : Reuss Voigt Hill
#
# Bulk Modulus (GPa) = 20.01255 37.25154 28.63205
# Shear Modulus (GPa) = 17.93801 12.56854 15.25328
#
# Velocity S-wave (km/s) = 3.03085 2.53699 2.79485
# Velocity P-wave (km/s) = 4.74304 5.25911 5.00773
#
# Compressibility (1/GPa) = 0.04996864
#
# Stress axis : x y z
#
# Youngs Moduli (GPa) = 21.56590 65.45778 87.35461
#
# Poissons Ratio (x) = 0.04360 0.48846
# Poissons Ratio (y) = 0.01436 0.46342
# Poissons Ratio (z) = 0.12059 0.34725
#
# Static dielectric constant tensor:
#      x y z
#    x 1.691150 0.000000 0.000000 
#    y 0.000000 1.695070 0.000000 
#    z 0.000000 0.000000 1.700980 
# 
# From -- ./inp_files/13404.got.cif
#   From: 2010.05.17/outbox.cif.g08.bks.cpg/sg55_7_cif.got.tgz:13404.got - 2010.06.03 13:27:54.
