data_PCOD9426862
_publ_section_title
;
Structure prediction by ZEFSAII (Michael W. Deem and Ramdas Pophale) SiO2 
 PCOD9426862
Probable space group: P B A M
;
_chemical_formula_sum "Si O2"
_cell_formula_units_Z 64
_cell_length_a 8.177644
_cell_length_b 30.627078
_cell_length_c 13.336358
_cell_angle_alpha 90.000000
_cell_angle_beta 90.000000
_cell_angle_gamma 90.000000
_cell_volume 3340.188759
_symmetry_space_group_name_H-M "P B A M"
_symmetry_group_IT_number 55
_symmetry_cell_setting 'orthorhombic'
loop_
_space_group_symop_operation_xyz
x,y,z
-x,-y,z
1/2+x,1/2-y,-z
1/2-x,1/2+y,-z
-x,-y,-z
x,y,-z
1/2-x,1/2+y,z
1/2+x,1/2-y,z
loop_
_atom_site_type_symbol
_atom_site_label
_atom_site_fract_x
_atom_site_fract_y
_atom_site_fract_z
Si Si1 0.366209 0.208362 0.884152
Si Si2 0.580756 0.697024 0.616266
Si Si3 0.627623 0.373256 0.109228
Si Si4 0.949603 0.104991 0.702103
Si Si5 0.664405 0.470469 0.386443
Si Si6 0.679840 0.034647 0.237805
Si Si7 0.138628 0.263202 0.255248
Si Si8 0.649517 0.957553 0.115020
O O1 0.262428 0.164237 0.884598
O O2 0.510900 0.206488 0.803432
O O3 0.249336 0.244585 0.834918
O O4 0.413520 0.218061 0.000000
O O5 0.564606 0.709914 0.500000
O O6 0.571447 0.644522 0.624929
O O7 0.449267 0.723419 0.684827
O O8 0.752412 0.711600 0.664385
O O9 0.498195 0.370504 0.196318
O O10 0.722942 0.418671 0.120224
O O11 0.548787 0.370981 0.000000
O O12 0.793685 0.074709 0.728937
O O13 0.098018 0.073294 0.666918
O O14 0.500000 0.500000 0.388778
O O15 0.715552 0.461091 0.500000
O O16 0.798412 0.499846 0.329256
O O17 0.502519 0.048282 0.192968
O O18 0.737268 0.002921 0.146433
O O19 0.590133 0.958739 0.000000
#
# Coordination Sequence:
#
# PCOD9426862 Si02
#       8
#     8   8   8   8   8   8   8   8
#     4  10  20  38  61  89 121 155 188 235 296 359
#     4  11  23  41  63  88 118 154 198 245 295 348
#     4  10  21  36  57  84 118 152 191 238 288 348
#     4  11  21  37  58  86 114 149 193 240 285 342
#     4   9  18  34  55  78 106 143 185 232 283 329
#     4  10  20  34  59  80 111 150 194 237 281 343
#     4  10  22  39  64  89 118 153 193 241 293 360
#     4  10  21  38  57  81 117 159 191 233 295 347
#
# _framework density 19.160594
#
# number of rings (size 3 to 8) (size 9 to 14) (size 15 to 20)
#    0.000    1.875    2.500    1.875    1.750    1.500 
#    0.000    3.125    0.000    0.000    0.000    0.000 
#    0.000    0.000    0.000    0.000    0.000    0.000 
#
# Total GULP energy -356350.921702 kJ/mol
# GULP energy per Si atom -5567.983152 kJ/mol
# Density = 1.911698 g / cm^3
# Si number density = 19.160594 Si / 1000 Ang^3
#
#
#
# Elastic Constant Matrix: (Units=GPa)
#
#
# Indices 1 2 3 4 5 6 
#
# 1 33.5462 -2.5051 27.8813 0.0000 0.0000 0.0000
# 2 -2.5051 55.5426 16.0201 0.0000 0.0000 0.0000
# 3 27.8813 16.0201 130.2187 0.0000 0.0000 0.0000
# 4 0.0000 0.0000 0.0000 111.2844 0.0000 0.0000
# 5 0.0000 0.0000 0.0000 0.0000 34.2081 0.0000
# 6 0.0000 0.0000 0.0000 0.0000 0.0000 12.2695
#
#
#
# Elastic Compliance Matrix: (Units=1/GPa)
#
#
# Indices 1 2 3 4 5 6 
#
# 1 0.037149 0.004116 -0.008460 0.000000 0.000000 0.000000
# 2 0.004116 0.019123 -0.003234 0.000000 0.000000 0.000000
# 3 -0.008460 -0.003234 0.009889 0.000000 0.000000 0.000000
# 4 0.000000 0.000000 0.000000 0.008986 0.000000 0.000000
# 5 0.000000 0.000000 0.000000 0.000000 0.029233 0.000000
# 6 0.000000 0.000000 0.000000 0.000000 0.000000 0.081503
#
#
# Mechanical properties :
#
#
# Convention : Reuss Voigt Hill
#
# Bulk Modulus (GPa) = 19.60667 33.56669 26.58668
# Shear Modulus (GPa) = 22.93163 43.41313 33.17238
#
# Velocity S-wave (km/s) = 3.46325 4.76515 4.16538
# Velocity P-wave (km/s) = 5.12320 6.91608 6.08602
#
# Compressibility (1/GPa) = 0.05100305
#
# Stress axis : x y z
#
# Youngs Moduli (GPa) = 26.91896 52.29432 101.12594
#
# Poissons Ratio (x) = -0.21523 0.85555
# Poissons Ratio (y) = -0.11079 0.32702
# Poissons Ratio (z) = 0.22774 0.16911
#
# Static dielectric constant tensor:
#      x y z
#    x 1.688510 0.000000 0.000000 
#    y 0.000000 1.670670 0.000000 
#    z 0.000000 0.000000 1.693060 
# 
# From -- ./inp_files/12619.got.cif
#   From: 2010.05.17/outbox.cif.g08.bks.cpg/sg55_7_cif.got.tgz:12619.got - 2010.06.03 13:27:54.
