data_PCOD9426367
_publ_section_title
;
Structure prediction by ZEFSAII (Michael W. Deem and Ramdas Pophale) SiO2 
 PCOD9426367
Probable space group: P B A M
;
_chemical_formula_sum "Si O2"
_cell_formula_units_Z 48
_cell_length_a 16.944102
_cell_length_b 18.572679
_cell_length_c 8.508744
_cell_angle_alpha 90.000000
_cell_angle_beta 90.000000
_cell_angle_gamma 90.000000
_cell_volume 2677.679337
_symmetry_space_group_name_H-M "P B A M"
_symmetry_group_IT_number 55
_symmetry_cell_setting 'orthorhombic'
loop_
_space_group_symop_operation_xyz
x,y,z
-x,-y,z
1/2+x,1/2-y,-z
1/2-x,1/2+y,-z
-x,-y,-z
x,y,-z
1/2-x,1/2+y,z
1/2+x,1/2-y,z
loop_
_atom_site_type_symbol
_atom_site_label
_atom_site_fract_x
_atom_site_fract_y
_atom_site_fract_z
Si Si1 0.744596 0.952580 0.186790
Si Si2 0.331903 0.831175 0.309213
Si Si3 0.828969 0.094314 0.687980
Si Si4 0.852045 0.831179 0.687962
Si Si5 0.498092 0.416294 0.812902
Si Si6 0.088112 0.478412 0.309442
O O1 0.780055 0.876681 0.240209
O O2 0.799465 0.014897 0.262286
O O3 0.656113 0.969324 0.244168
O O4 0.749217 0.959147 0.000000
O O5 0.334910 0.830831 0.500000
O O6 0.242707 0.853147 0.265602
O O7 0.353219 0.751430 0.255184
O O8 0.387812 0.897320 0.258825
O O9 0.837989 0.096228 0.500000
O O10 0.911602 0.111713 0.768137
O O11 0.843610 0.831390 0.500000
O O12 0.932438 0.871513 0.733774
O O13 0.500000 0.500000 0.761477
O O14 0.509940 0.414659 0.000000
O O15 0.092134 0.481032 0.500000
O O16 0.000000 0.500000 0.261445
#
# Coordination Sequence:
#
# PCOD9426367 Si02
#       6
#     8   8   8   8   8   8
#     4  11  21  34  54  81 113 144 180 224 275 332
#     4   8  18  36  57  83 109 137 181 235 277 318
#     4  10  19  36  60  82 105 141 188 225 269 327
#     4  11  21  36  57  80 111 147 187 230 275 324
#     4  11  22  35  54  83 118 146 180 226 276 328
#     4   9  18  37  63  85 107 141 189 234 275 325
#
# _framework density 17.92597
#
# number of rings (size 3 to 8) (size 9 to 14) (size 15 to 20)
#    0.000    2.000    1.667    4.000    0.000    1.000 
#    3.000    8.333    0.000    0.000    0.000    0.000 
#    0.000    0.000    0.000    0.000    0.000    0.000 
#
# Total GULP energy -267926.602665 kJ/mol
# GULP energy per Si atom -5581.804222 kJ/mol
# Density = 1.788517 g / cm^3
# Si number density = 17.925970 Si / 1000 Ang^3
#
#
#
# Elastic Constant Matrix: (Units=GPa)
#
#
# Indices 1 2 3 4 5 6 
#
# 1 123.1449 65.8651 -1.7035 0.0000 0.0000 0.0000
# 2 65.8651 123.7060 4.4806 0.0000 0.0000 0.0000
# 3 -1.7035 4.4806 12.3719 0.0000 0.0000 0.0000
# 4 0.0000 0.0000 0.0000 -1.8262 0.0000 0.0000
# 5 0.0000 0.0000 0.0000 0.0000 -3.7322 0.0000
# 6 0.0000 0.0000 0.0000 0.0000 0.0000 19.5451
#
#
#
# Elastic Compliance Matrix: (Units=1/GPa)
#
#
# Indices 1 2 3 4 5 6 
#
# 1 0.011533 -0.006281 0.003863 0.000000 0.000000 0.000000
# 2 -0.006281 0.011611 -0.005070 0.000000 0.000000 0.000000
# 3 0.003863 -0.005070 0.083196 0.000000 0.000000 0.000000
# 4 0.000000 0.000000 0.000000 -0.547596 0.000000 0.000000
# 5 0.000000 0.000000 0.000000 0.000000 -0.267938 0.000000
# 6 0.000000 0.000000 0.000000 0.000000 0.000000 0.051164
#
#
# Mechanical properties :
#
#
# Convention : Reuss Voigt Hill
#
# Bulk Modulus (GPa) = 10.94509 44.05635 27.50072
# Shear Modulus (GPa) = -8.16196 15.50272 3.67038
#
# Velocity S-wave (km/s) = -2.13613 2.94397 1.43247
# Velocity P-wave (km/s) = 0.18690 6.01549 4.25565
#
# Compressibility (1/GPa) = 0.09136514
#
# Stress axis : x y z
#
# Youngs Moduli (GPa) = 86.70660 86.12320 12.01975
#
# Poissons Ratio (x) = 0.54090 -0.04643
# Poissons Ratio (y) = 0.54456 0.06094
# Poissons Ratio (z) = -0.33491 0.43664
#
# Static dielectric constant tensor:
#      x y z
#    x 1.599480 0.000000 0.000000 
#    y 0.000000 1.610440 0.000000 
#    z 0.000000 0.000000 1.601960 
# 
# From -- ./inp_files/7541.got.cif
#   From: 2010.05.17/outbox.cif.g08.bks.cpg/sg55_4_cif.got.tgz:7541.got - 2010.06.03 13:27:54.
