data_PCOD9426732
_publ_section_title
;
Structure prediction by ZEFSAII (Michael W. Deem and Ramdas Pophale) SiO2 
 PCOD9426732
Probable space group: P B A M
;
_chemical_formula_sum "Si O2"
_cell_formula_units_Z 64
_cell_length_a 25.515166
_cell_length_b 14.985817
_cell_length_c 8.450771
_cell_angle_alpha 90.000000
_cell_angle_beta 90.000000
_cell_angle_gamma 90.000000
_cell_volume 3231.284195
_symmetry_space_group_name_H-M "P B A M"
_symmetry_group_IT_number 55
_symmetry_cell_setting 'orthorhombic'
loop_
_space_group_symop_operation_xyz
x,y,z
-x,-y,z
1/2+x,1/2-y,-z
1/2-x,1/2+y,-z
-x,-y,-z
x,y,-z
1/2-x,1/2+y,z
1/2+x,1/2-y,z
loop_
_atom_site_type_symbol
_atom_site_label
_atom_site_fract_x
_atom_site_fract_y
_atom_site_fract_z
Si Si1 0.388556 0.175232 0.191194
Si Si2 0.085608 0.137524 0.312857
Si Si3 0.270021 0.855661 0.813351
Si Si4 0.342108 0.358932 0.317342
Si Si5 0.205533 0.158315 0.307791
Si Si6 0.065536 0.950473 0.183603
Si Si7 0.008912 0.769604 0.809808
Si Si8 0.806545 0.464244 0.690205
O O1 0.357350 0.259633 0.263175
O O2 0.449913 0.191722 0.235589
O O3 0.357834 0.090305 0.255973
O O4 0.385103 0.178459 0.000000
O O5 0.086071 0.144688 0.500000
O O6 0.146241 0.131885 0.259833
O O7 0.050520 0.219271 0.247862
O O8 0.057861 0.044915 0.264448
O O9 0.218478 0.873595 0.710013
O O10 0.287236 0.756802 0.763596
O O11 0.306916 0.938404 0.769190
O O12 0.258369 0.856497 0.000000
O O13 0.356371 0.373576 0.500000
O O14 0.374050 0.425730 0.208142
O O15 0.207339 0.163278 0.500000
O O16 0.253699 0.092317 0.261918
O O17 0.037348 0.861284 0.245972
O O18 0.053059 0.959409 0.000000
O O19 0.007877 0.770706 0.000000
O O20 0.805601 0.471859 0.500000
#
# Coordination Sequence:
#
# PCOD9426732 Si02
#       8
#     8   8   8   8   8   8   8   8
#     4  10  20  36  57  83 113 145 190 237 281 336
#     4  11  22  35  54  81 114 151 194 240 289 350
#     4  12  24  37  58  85 116 154 196 239 288 350
#     4  11  20  33  53  79 113 149 187 233 285 339
#     4  10  23  41  58  83 119 156 193 238 291 345
#     4  10  20  34  53  79 113 152 194 238 287 345
#     4   9  20  36  54  78 113 154 191 238 289 341
#     4  11  22  38  62  87 117 154 191 238 295 349
#
# _framework density 19.806366000000001
#
# number of rings (size 3 to 8) (size 9 to 14) (size 15 to 20)
#    0.000    1.500    1.250    5.625    0.000    7.000 
#    0.000    0.000    0.000    0.750    0.000    5.250 
#    0.000    0.000    0.000    0.000    0.000    0.000 
#
# Total GULP energy -357124.389487 kJ/mol
# GULP energy per Si atom -5580.068586 kJ/mol
# Density = 1.976129 g / cm^3
# Si number density = 19.806366 Si / 1000 Ang^3
#
#
#
# Elastic Constant Matrix: (Units=GPa)
#
#
# Indices 1 2 3 4 5 6 
#
# 1 35.4849 -5.1923 8.5514 0.0000 0.0000 0.0000
# 2 -5.1923 58.3837 6.2122 0.0000 0.0000 0.0000
# 3 8.5514 6.2122 41.7938 0.0000 0.0000 0.0000
# 4 0.0000 0.0000 0.0000 25.5002 0.0000 0.0000
# 5 0.0000 0.0000 0.0000 0.0000 21.9296 0.0000
# 6 0.0000 0.0000 0.0000 0.0000 0.0000 17.0526
#
#
#
# Elastic Compliance Matrix: (Units=1/GPa)
#
#
# Indices 1 2 3 4 5 6 
#
# 1 0.030295 0.003408 -0.006705 0.000000 0.000000 0.000000
# 2 0.003408 0.017787 -0.003341 0.000000 0.000000 0.000000
# 3 -0.006705 -0.003341 0.025796 0.000000 0.000000 0.000000
# 4 0.000000 0.000000 0.000000 0.039215 0.000000 0.000000
# 5 0.000000 0.000000 0.000000 0.000000 0.045600 0.000000
# 6 0.000000 0.000000 0.000000 0.000000 0.000000 0.058642
#
#
# Mechanical properties :
#
#
# Convention : Reuss Voigt Hill
#
# Bulk Modulus (GPa) = 16.50147 17.20053 16.85100
# Shear Modulus (GPa) = 19.93518 21.30256 20.61887
#
# Velocity S-wave (km/s) = 3.17599 3.28310 3.22999
# Velocity P-wave (km/s) = 4.66890 4.80363 4.73675
#
# Compressibility (1/GPa) = 0.06060066
#
# Stress axis : x y z
#
# Youngs Moduli (GPa) = 33.00820 56.22200 38.76633
#
# Poissons Ratio (x) = -0.19159 0.25994
# Poissons Ratio (y) = -0.11248 0.12952
# Poissons Ratio (z) = 0.22133 0.18784
#
# Static dielectric constant tensor:
#      x y z
#    x 1.757850 0.000000 0.000000 
#    y 0.000000 1.715200 0.000000 
#    z 0.000000 0.000000 1.667990 
# 
# From -- ./inp_files/9806.got.cif
#   From: 2010.05.17/outbox.cif.g08.bks.cpg/sg55_5_cif.got.tgz:9806.got - 2010.06.03 13:27:54.
