data_PCOD9426547
_publ_section_title
;
Structure prediction by ZEFSAII (Michael W. Deem and Ramdas Pophale) SiO2 
 PCOD9426547
Probable space group: P B A M
;
_chemical_formula_sum "Si O2"
_cell_formula_units_Z 40
_cell_length_a 9.173230
_cell_length_b 11.415668
_cell_length_c 15.882678
_cell_angle_alpha 90.000000
_cell_angle_beta 90.000000
_cell_angle_gamma 90.000000
_cell_volume 1663.210981
_symmetry_space_group_name_H-M "P B A M"
_symmetry_group_IT_number 55
_symmetry_cell_setting 'orthorhombic'
loop_
_space_group_symop_operation_xyz
x,y,z
-x,-y,z
1/2+x,1/2-y,-z
1/2-x,1/2+y,-z
-x,-y,-z
x,y,-z
1/2-x,1/2+y,z
1/2+x,1/2-y,z
loop_
_atom_site_type_symbol
_atom_site_label
_atom_site_fract_x
_atom_site_fract_y
_atom_site_fract_z
Si Si1 0.435388 0.866514 0.761751
Si Si2 0.945656 0.264291 0.408758
Si Si3 0.890862 0.386967 0.093903
Si Si4 0.831573 0.913449 0.407289
Si Si5 0.671134 0.505352 0.780852
O O1 0.477959 0.813734 0.673517
O O2 0.517066 0.808345 0.840827
O O3 0.500000 0.000000 0.755735
O O4 0.264625 0.874673 0.781718
O O5 0.997812 0.311277 0.500000
O O6 0.777081 0.299310 0.405781
O O7 0.000761 0.130721 0.407899
O O8 0.750148 0.428213 0.146923
O O9 0.000000 0.500000 0.083582
O O10 0.860338 0.342451 0.000000
O O11 0.798741 0.967028 0.500000
O O12 0.801340 0.967108 0.316305
O O13 0.500000 0.500000 0.793927
#
# Coordination Sequence:
#
# PCOD9426547 Si02
#       5
#     8   8   8   8   8
#     4   9  17  33  52  75  94 130 168 204 249 288
#     4  10  20  34  51  72  99 135 171 200 244 300
#     4   8  15  31  53  74  97 126 161 205 254 301
#     4  10  21  35  49  71 103 137 169 201 244 297
#     4  10  20  32  49  78 104 127 167 209 247 287
#
# _framework density 24.049865
#
# number of rings (size 3 to 8) (size 9 to 14) (size 15 to 20)
#    0.000    3.000    4.000    0.000    2.800    2.000 
#    0.000    0.000    0.000    1.200    0.000    0.000 
#    0.000    0.000    0.000    0.000    0.000    0.000 
#
# Total GULP energy -222773.627010 kJ/mol
# GULP energy per Si atom -5569.340675 kJ/mol
# Density = 2.399513 g / cm^3
# Si number density = 24.049865 Si / 1000 Ang^3
#
#
#
# Elastic Constant Matrix: (Units=GPa)
#
#
# Indices 1 2 3 4 5 6 
#
# 1 172.5054 11.4500 82.1157 0.0000 0.0000 0.0000
# 2 11.4500 22.9240 29.1382 0.0000 0.0000 0.0000
# 3 82.1157 29.1382 275.5463 0.0000 0.0000 0.0000
# 4 0.0000 0.0000 0.0000 -52.2223 0.0000 0.0000
# 5 0.0000 0.0000 0.0000 0.0000 24.0511 0.0000
# 6 0.0000 0.0000 0.0000 0.0000 0.0000 25.8675
#
#
#
# Elastic Compliance Matrix: (Units=1/GPa)
#
#
# Indices 1 2 3 4 5 6 
#
# 1 0.006773 -0.000944 -0.001919 0.000000 0.000000 0.000000
# 2 -0.000944 0.050528 -0.005062 0.000000 0.000000 0.000000
# 3 -0.001919 -0.005062 0.004736 0.000000 0.000000 0.000000
# 4 0.000000 0.000000 0.000000 -0.019149 0.000000 0.000000
# 5 0.000000 0.000000 0.000000 0.000000 0.041578 0.000000
# 6 0.000000 0.000000 0.000000 0.000000 0.000000 0.038659
#
#
# Mechanical properties :
#
#
# Convention : Reuss Voigt Hill
#
# Bulk Modulus (GPa) = 21.65076 79.59819 50.62448
# Shear Modulus (GPa) = 32.38976 22.75738 27.57357
#
# Velocity S-wave (km/s) = 3.67382 3.07947 3.38970
# Velocity P-wave (km/s) = 5.19788 6.76854 6.03453
#
# Compressibility (1/GPa) = 0.04618775
#
# Stress axis : x y z
#
# Youngs Moduli (GPa) = 147.64835 19.79105 211.14150
#
# Poissons Ratio (x) = 0.01869 0.40508
# Poissons Ratio (y) = 0.13942 1.06875
# Poissons Ratio (z) = 0.28327 0.10018
#
# Static dielectric constant tensor:
#      x y z
#    x 1.981090 0.000000 0.000000 
#    y 0.000000 2.057490 0.000000 
#    z 0.000000 0.000000 1.959720 
# 
# From -- ./inp_files/17053.got.cif
#   From: 2010.05.17/outbox.cif.g08.bks.cpg/sg55_9_cif.got.tgz:17053.got - 2010.06.03 13:27:54.
