data_PCOD9426076
_publ_section_title
;
Structure prediction by ZEFSAII (Michael W. Deem and Ramdas Pophale) SiO2 
 PCOD9426076
Probable space group: P B A M
;
_chemical_formula_sum "Si O2"
_cell_formula_units_Z 40
_cell_length_a 13.821148
_cell_length_b 18.871321
_cell_length_c 8.947225
_cell_angle_alpha 90.000000
_cell_angle_beta 90.000000
_cell_angle_gamma 90.000000
_cell_volume 2333.644934
_symmetry_space_group_name_H-M "P B A M"
_symmetry_group_IT_number 55
_symmetry_cell_setting 'orthorhombic'
loop_
_space_group_symop_operation_xyz
x,y,z
-x,-y,z
1/2+x,1/2-y,-z
1/2-x,1/2+y,-z
-x,-y,-z
x,y,-z
1/2-x,1/2+y,z
1/2+x,1/2-y,z
loop_
_atom_site_type_symbol
_atom_site_label
_atom_site_fract_x
_atom_site_fract_y
_atom_site_fract_z
Si Si1 0.714176 0.143341 0.820881
Si Si2 0.397824 0.288922 0.321765
Si Si3 0.386951 0.004450 0.180075
Si Si4 0.606349 0.289038 0.178647
Si Si5 0.209459 0.642119 0.678568
O O1 0.815106 0.158949 0.739902
O O2 0.666013 0.068918 0.779865
O O3 0.642841 0.209057 0.785492
O O4 0.729524 0.144293 0.000000
O O5 0.405587 0.295139 0.500000
O O6 0.500948 0.300989 0.246277
O O7 0.359230 0.209581 0.285699
O O8 0.500000 0.000000 0.220788
O O9 0.336667 0.071097 0.256917
O O10 0.381477 0.012807 0.000000
O O11 0.687133 0.340434 0.248065
O O12 0.604320 0.296540 0.000000
O O13 0.219232 0.638290 0.500000
#
# Coordination Sequence:
#
# PCOD9426076 Si02
#       5
#     8   8   8   8   8
#     4   9  19  34  53  78 105 135 173 214 256 305
#     4  10  20  34  53  77 106 138 172 213 258 306
#     4  10  20  35  55  79 107 137 172 215 259 305
#     4  10  19  34  57  79 102 136 176 217 259 304
#     4  10  21  35  52  78 110 140 172 211 258 312
#
# _framework density 17.140567999999998
#
# number of rings (size 3 to 8) (size 9 to 14) (size 15 to 20)
#    0.000    2.200    0.000    3.000    0.000    6.000 
#    0.000    1.000    0.000    6.000    0.000    0.000 
#    0.000    0.000    0.000    0.000    0.000    0.000 
#
# Total GULP energy -223341.924942 kJ/mol
# GULP energy per Si atom -5583.548124 kJ/mol
# Density = 1.710155 g / cm^3
# Si number density = 17.140568 Si / 1000 Ang^3
#
#
#
# Elastic Constant Matrix: (Units=GPa)
#
#
# Indices 1 2 3 4 5 6 
#
# 1 190.9061 94.3872 73.3418 0.0000 0.0000 0.0000
# 2 94.3872 133.1566 56.4325 0.0000 0.0000 0.0000
# 3 73.3418 56.4325 48.9141 0.0000 0.0000 0.0000
# 4 0.0000 0.0000 0.0000 28.0021 0.0000 0.0000
# 5 0.0000 0.0000 0.0000 0.0000 18.4806 0.0000
# 6 0.0000 0.0000 0.0000 0.0000 0.0000 16.6903
#
#
#
# Elastic Compliance Matrix: (Units=1/GPa)
#
#
# Indices 1 2 3 4 5 6 
#
# 1 0.012573 -0.001806 -0.016769 0.000000 0.000000 0.000000
# 2 -0.001806 0.014954 -0.014546 0.000000 0.000000 0.000000
# 3 -0.016769 -0.014546 0.062369 0.000000 0.000000 0.000000
# 4 0.000000 0.000000 0.000000 0.035712 0.000000 0.000000
# 5 0.000000 0.000000 0.000000 0.000000 0.054111 0.000000
# 6 0.000000 0.000000 0.000000 0.000000 0.000000 0.059915
#
#
# Mechanical properties :
#
#
# Convention : Reuss Voigt Hill
#
# Bulk Modulus (GPa) = 42.27278 91.25554 66.76416
# Shear Modulus (GPa) = 15.93574 22.55563 19.24568
#
# Velocity S-wave (km/s) = 3.05242 3.63150 3.35448
# Velocity P-wave (km/s) = 6.09418 8.42252 7.35111
#
# Compressibility (1/GPa) = 0.02365589
#
# Stress axis : x y z
#
# Youngs Moduli (GPa) = 79.53411 66.87014 16.03357
#
# Poissons Ratio (x) = 0.12074 0.26887
# Poissons Ratio (y) = 0.14360 0.23322
# Poissons Ratio (z) = 1.33372 0.97267
#
# Static dielectric constant tensor:
#      x y z
#    x 1.548470 0.000000 0.000000 
#    y 0.000000 1.560220 0.000000 
#    z 0.000000 0.000000 1.568900 
# 
# From -- ./inp_files/3593.got.cif
#   From: 2010.05.17/outbox.cif.g08.bks.cpg/sg55_2_cif.got.tgz:3593.got - 2010.06.03 13:27:54.
