data_PCOD9426460
_publ_section_title
;
Structure prediction by ZEFSAII (Michael W. Deem and Ramdas Pophale) SiO2 
 PCOD9426460
Probable space group: P B A M
;
_chemical_formula_sum "Si O2"
_cell_formula_units_Z 64
_cell_length_a 30.877471
_cell_length_b 12.145399
_cell_length_c 9.056452
_cell_angle_alpha 90.000000
_cell_angle_beta 90.000000
_cell_angle_gamma 90.000000
_cell_volume 3396.343433
_symmetry_space_group_name_H-M "P B A M"
_symmetry_group_IT_number 55
_symmetry_cell_setting 'orthorhombic'
loop_
_space_group_symop_operation_xyz
x,y,z
-x,-y,z
1/2+x,1/2-y,-z
1/2-x,1/2+y,-z
-x,-y,-z
x,y,-z
1/2-x,1/2+y,z
1/2+x,1/2-y,z
loop_
_atom_site_type_symbol
_atom_site_label
_atom_site_fract_x
_atom_site_fract_y
_atom_site_fract_z
Si Si1 0.381926 0.166664 0.822298
Si Si2 0.709062 0.447016 0.325880
Si Si3 0.324341 0.759367 0.167288
Si Si4 0.455940 0.557697 0.180008
Si Si5 0.699355 0.986258 0.175012
Si Si6 0.574941 0.212198 0.171051
Si Si7 0.949477 0.490258 0.676026
Si Si8 0.130064 0.923614 0.178282
O O1 0.423763 0.110337 0.749786
O O2 0.375706 0.294790 0.784634
O O3 0.339460 0.095535 0.779705
O O4 0.386289 0.158334 0.000000
O O5 0.707781 0.463011 0.500000
O O6 0.697471 0.322064 0.281433
O O7 0.756551 0.469878 0.262546
O O8 0.672702 0.523559 0.249525
O O9 0.315357 0.887534 0.193064
O O10 0.375914 0.744492 0.171592
O O11 0.309486 0.731753 0.000000
O O12 0.500000 0.500000 0.229421
O O13 0.453559 0.685346 0.225097
O O14 0.412972 0.490875 0.224560
O O15 0.455753 0.558425 0.000000
O O16 0.707095 0.967969 0.000000
O O17 0.571511 0.103493 0.267048
O O18 0.564136 0.185119 0.000000
O O19 0.946388 0.481119 0.500000
O O20 0.000000 0.500000 0.717707
O O21 0.133863 0.932322 0.000000
#
# Coordination Sequence:
#
# PCOD9426460 Si02
#       8
#     8   8   8   8   8   8   8   8
#     4  10  22  41  66  92 115 153 208 256 299 349
#     4  12  26  40  59  90 126 161 199 240 296 369
#     4  10  20  40  66  88 115 153 200 255 303 347
#     4   9  18  33  58  93 122 148 190 250 307 343
#     4  10  22  41  63  89 118 153 204 256 304 352
#     4  10  19  37  65  90 116 151 205 261 295 344
#     4  11  25  41  58  86 128 168 198 238 301 367
#     4  10  21  40  63  88 122 159 200 250 299 353
#
# _framework density 18.843793999999999
#
# number of rings (size 3 to 8) (size 9 to 14) (size 15 to 20)
#    0.000    1.750    2.500    1.500    3.500    3.000 
#    0.000    0.000    0.000    0.750    0.000    0.000 
#    0.000    0.000    0.000    0.000    0.000    0.000 
#
# Total GULP energy -357454.362760 kJ/mol
# GULP energy per Si atom -5585.224418 kJ/mol
# Density = 1.880090 g / cm^3
# Si number density = 18.843794 Si / 1000 Ang^3
#
#
#
# Elastic Constant Matrix: (Units=GPa)
#
#
# Indices 1 2 3 4 5 6 
#
# 1 85.3767 19.6446 31.9978 0.0000 0.0000 0.0000
# 2 19.6446 79.4085 26.6208 0.0000 0.0000 0.0000
# 3 31.9978 26.6208 34.3072 0.0000 0.0000 0.0000
# 4 0.0000 0.0000 0.0000 -130.0877 0.0000 0.0000
# 5 0.0000 0.0000 0.0000 0.0000 11.6407 0.0000
# 6 0.0000 0.0000 0.0000 0.0000 0.0000 29.2053
#
#
#
# Elastic Compliance Matrix: (Units=1/GPa)
#
#
# Indices 1 2 3 4 5 6 
#
# 1 0.018157 0.001602 -0.018178 0.000000 0.000000 0.000000
# 2 0.001602 0.017162 -0.014811 0.000000 0.000000 0.000000
# 3 -0.018178 -0.014811 0.057595 0.000000 0.000000 0.000000
# 4 0.000000 0.000000 0.000000 -0.007687 0.000000 0.000000
# 5 0.000000 0.000000 0.000000 0.000000 0.085905 0.000000
# 6 0.000000 0.000000 0.000000 0.000000 0.000000 0.034240
#
#
# Mechanical properties :
#
#
# Convention : Reuss Voigt Hill
#
# Bulk Modulus (GPa) = 33.17799 39.51320 36.34560
# Shear Modulus (GPa) = 17.97310 -9.79305 4.09002
#
# Velocity S-wave (km/s) = 3.09171 -2.28216 1.47486
# Velocity P-wave (km/s) = 5.51271 3.75100 4.71487
#
# Compressibility (1/GPa) = 0.03014046
#
# Stress axis : x y z
#
# Youngs Moduli (GPa) = 55.07546 58.26807 17.36253
#
# Poissons Ratio (x) = -0.09335 0.31561
# Poissons Ratio (y) = -0.08824 0.25716
# Poissons Ratio (z) = 1.00115 0.86302
#
# Static dielectric constant tensor:
#      x y z
#    x 1.654030 0.000000 0.000000 
#    y 0.000000 1.648870 0.000000 
#    z 0.000000 0.000000 1.633170 
# 
# From -- ./inp_files/10756.got.cif
#   From: 2010.05.17/outbox.cif.g08.bks.cpg/sg55_6_cif.got.tgz:10756.got - 2010.06.03 13:27:54.
