data_PCOD9426182
_publ_section_title
;
Structure prediction by ZEFSAII (Michael W. Deem and Ramdas Pophale) SiO2 
 PCOD9426182
Probable space group: P B A M
;
_chemical_formula_sum "Si O2"
_cell_formula_units_Z 48
_cell_length_a 10.672305
_cell_length_b 12.643522
_cell_length_c 15.129637
_cell_angle_alpha 90.000000
_cell_angle_beta 90.000000
_cell_angle_gamma 90.000000
_cell_volume 2041.525482
_symmetry_space_group_name_H-M "P B A M"
_symmetry_group_IT_number 55
_symmetry_cell_setting 'orthorhombic'
loop_
_space_group_symop_operation_xyz
x,y,z
-x,-y,z
1/2+x,1/2-y,-z
1/2-x,1/2+y,-z
-x,-y,-z
x,y,-z
1/2-x,1/2+y,z
1/2+x,1/2-y,z
loop_
_atom_site_type_symbol
_atom_site_label
_atom_site_fract_x
_atom_site_fract_y
_atom_site_fract_z
Si Si1 0.315816 0.047648 0.147696
Si Si2 0.550973 0.392999 0.099704
Si Si3 0.627687 0.943912 0.336722
Si Si4 0.069668 0.339776 0.102228
Si Si5 0.491941 0.741946 0.601346
Si Si6 0.760606 0.150616 0.605159
O O1 0.197060 0.082929 0.094351
O O2 0.438285 0.099637 0.106192
O O3 0.304841 0.090212 0.247385
O O4 0.333157 0.920097 0.148061
O O5 0.500000 0.500000 0.144353
O O6 0.543748 0.276450 0.141015
O O7 0.494392 0.386298 0.000000
O O8 0.711066 0.031758 0.383073
O O9 0.500000 0.000000 0.303104
O O10 0.573803 0.850663 0.396221
O O11 0.109803 0.326844 0.000000
O O12 0.468711 0.708438 0.500000
O O13 0.354367 0.773471 0.638493
O O14 0.598445 0.665509 0.642436
O O15 0.769129 0.170806 0.500000
#
# Coordination Sequence:
#
# PCOD9426182 Si02
#       6
#     8   8   8   8   8   8
#     4  11  21  38  57  86 116 148 191 241 293 353
#     4  10  23  40  60  86 115 150 196 243 292 348
#     4  10  19  35  54  81 110 148 184 227 281 343
#     4  10  21  38  61  82 107 151 194 238 286 345
#     4   9  18  34  56  81 108 145 190 234 279 337
#     4   9  18  34  56  80 109 148 194 237 281 338
#
# _framework density 23.51183
#
# number of rings (size 3 to 8) (size 9 to 14) (size 15 to 20)
#    0.000    2.167    1.667    2.500    2.333    3.333 
#    0.000    0.833    0.000    4.000    0.000    0.000 
#    0.000    0.000    0.000    0.000    0.000    0.000 
#
# Total GULP energy -267508.883884 kJ/mol
# GULP energy per Si atom -5573.101748 kJ/mol
# Density = 2.345832 g / cm^3
# Si number density = 23.511830 Si / 1000 Ang^3
#
#
#
# Elastic Constant Matrix: (Units=GPa)
#
#
# Indices 1 2 3 4 5 6 
#
# 1 41.4317 2.0207 1.6972 0.0000 0.0000 0.0000
# 2 2.0207 107.5174 -2.3493 0.0000 0.0000 0.0000
# 3 1.6972 -2.3493 49.6072 0.0000 0.0000 0.0000
# 4 0.0000 0.0000 0.0000 37.3657 0.0000 0.0000
# 5 0.0000 0.0000 0.0000 0.0000 16.0212 0.0000
# 6 0.0000 0.0000 0.0000 0.0000 0.0000 27.0798
#
#
#
# Elastic Compliance Matrix: (Units=1/GPa)
#
#
# Indices 1 2 3 4 5 6 
#
# 1 0.024194 -0.000473 -0.000850 0.000000 0.000000 0.000000
# 2 -0.000473 0.009320 0.000458 0.000000 0.000000 0.000000
# 3 -0.000850 0.000458 0.020209 0.000000 0.000000 0.000000
# 4 0.000000 0.000000 0.000000 0.026762 0.000000 0.000000
# 5 0.000000 0.000000 0.000000 0.000000 0.062417 0.000000
# 6 0.000000 0.000000 0.000000 0.000000 0.000000 0.036928
#
#
# Mechanical properties :
#
#
# Convention : Reuss Voigt Hill
#
# Bulk Modulus (GPa) = 19.23407 22.36595 20.80001
# Shear Modulus (GPa) = 25.13920 29.23920 27.18920
#
# Velocity S-wave (km/s) = 3.27343 3.53029 3.40428
# Velocity P-wave (km/s) = 4.74189 5.11376 4.93133
#
# Compressibility (1/GPa) = 0.05199107
#
# Stress axis : x y z
#
# Youngs Moduli (GPa) = 41.33251 107.29948 49.48261
#
# Poissons Ratio (x) = 0.05078 0.04207
# Poissons Ratio (y) = 0.01956 -0.02264
# Poissons Ratio (z) = 0.03514 -0.04909
#
# Static dielectric constant tensor:
#      x y z
#    x 1.906340 0.000000 0.000000 
#    y 0.000000 1.948380 0.000000 
#    z 0.000000 0.000000 1.934140 
# 
# From -- ./inp_files/21248.got.cif
#   From: 2010.05.17/outbox.cif.g08.bks.cpg/sg55_11_cif.got.tgz:21248.got - 2010.06.03 13:27:54.
