data_PCOD9426255
_publ_section_title
;
Structure prediction by ZEFSAII (Michael W. Deem and Ramdas Pophale) SiO2 
 PCOD9426255
Probable space group: P B A M
;
_chemical_formula_sum "Si O2"
_cell_formula_units_Z 64
_cell_length_a 22.853393
_cell_length_b 16.499983
_cell_length_c 8.861968
_cell_angle_alpha 90.000000
_cell_angle_beta 90.000000
_cell_angle_gamma 90.000000
_cell_volume 3341.676175
_symmetry_space_group_name_H-M "P B A M"
_symmetry_group_IT_number 55
_symmetry_cell_setting 'orthorhombic'
loop_
_space_group_symop_operation_xyz
x,y,z
-x,-y,z
1/2+x,1/2-y,-z
1/2-x,1/2+y,-z
-x,-y,-z
x,y,-z
1/2-x,1/2+y,z
1/2+x,1/2-y,z
loop_
_atom_site_type_symbol
_atom_site_label
_atom_site_fract_x
_atom_site_fract_y
_atom_site_fract_z
Si Si1 0.049708 0.934194 0.817305
Si Si2 0.752835 0.699347 0.178366
Si Si3 0.331842 0.198127 0.671120
Si Si4 0.447740 0.248520 0.178526
Si Si5 0.011484 0.407274 0.677418
Si Si6 0.822094 0.051639 0.678706
Si Si7 0.368009 0.885759 0.827269
Si Si8 0.296476 0.017917 0.328529
O O1 0.035181 0.840346 0.771712
O O2 0.114254 0.955885 0.753697
O O3 0.053174 0.934614 0.000000
O O4 0.000000 0.000000 0.772839
O O5 0.730923 0.776591 0.267340
O O6 0.713863 0.627006 0.249956
O O7 0.821687 0.685514 0.198243
O O8 0.741252 0.702902 0.000000
O O9 0.341876 0.226012 0.500000
O O10 0.379939 0.237244 0.778405
O O11 0.330788 0.101768 0.672511
O O12 0.477647 0.169141 0.251100
O O13 0.456846 0.244388 0.000000
O O14 0.998157 0.407781 0.500000
O O15 0.078900 0.389534 0.713285
O O16 0.000000 0.500000 0.734390
O O17 0.830531 0.064098 0.500000
O O18 0.773557 0.980129 0.697793
O O19 0.327351 0.963256 0.795919
O O20 0.389247 0.884112 0.000000
O O21 0.303092 0.983085 0.500000
#
# Coordination Sequence:
#
# PCOD9426255 Si02
#       8
#     8   8   8   8   8   8   8   8
#     4  10  22  41  62  84 116 158 202 253 310 360
#     4  10  20  35  56  82 113 147 187 235 288 350
#     4  11  21  35  57  85 118 151 190 239 294 354
#     4  11  23  39  62  89 121 158 206 255 299 359
#     4  11  24  41  61  87 122 162 202 247 304 364
#     4  10  19  35  59  84 112 147 190 240 294 353
#     4  10  21  37  58  83 113 150 193 236 288 348
#     4   9  20  36  55  84 119 151 185 232 292 355
#
# _framework density 19.152066000000001
#
# number of rings (size 3 to 8) (size 9 to 14) (size 15 to 20)
#    0.000    1.750    1.250    3.000    0.000    7.750 
#    2.250    0.000    0.000    0.000    0.000    0.000 
#    0.000    0.000    0.000    0.000    0.000    0.000 
#
# Total GULP energy -356708.432515 kJ/mol
# GULP energy per Si atom -5573.569258 kJ/mol
# Density = 1.910847 g / cm^3
# Si number density = 19.152066 Si / 1000 Ang^3
#
#
#
# Elastic Constant Matrix: (Units=GPa)
#
#
# Indices 1 2 3 4 5 6 
#
# 1 58.9939 27.1853 5.9675 0.0000 0.0000 0.0000
# 2 27.1853 83.8184 18.2424 0.0000 0.0000 0.0000
# 3 5.9675 18.2424 21.2167 0.0000 0.0000 0.0000
# 4 0.0000 0.0000 0.0000 21.0463 0.0000 0.0000
# 5 0.0000 0.0000 0.0000 0.0000 29.7393 0.0000
# 6 0.0000 0.0000 0.0000 0.0000 0.0000 24.7332
#
#
#
# Elastic Compliance Matrix: (Units=1/GPa)
#
#
# Indices 1 2 3 4 5 6 
#
# 1 0.019930 -0.006451 -0.000059 0.000000 0.000000 0.000000
# 2 -0.006451 0.016765 -0.012601 0.000000 0.000000 0.000000
# 3 -0.000059 -0.012601 0.057983 0.000000 0.000000 0.000000
# 4 0.000000 0.000000 0.000000 0.047514 0.000000 0.000000
# 5 0.000000 0.000000 0.000000 0.000000 0.033626 0.000000
# 6 0.000000 0.000000 0.000000 0.000000 0.000000 0.040431
#
#
# Mechanical properties :
#
#
# Convention : Reuss Voigt Hill
#
# Bulk Modulus (GPa) = 17.71247 29.64661 23.67954
# Shear Modulus (GPa) = 18.29561 22.61267 20.45414
#
# Velocity S-wave (km/s) = 3.09412 3.43985 3.27155
# Velocity P-wave (km/s) = 4.69395 5.59374 5.16348
#
# Compressibility (1/GPa) = 0.05645739
#
# Stress axis : x y z
#
# Youngs Moduli (GPa) = 50.17654 59.64696 17.24634
#
# Poissons Ratio (x) = 0.38479 0.00101
# Poissons Ratio (y) = 0.32369 0.21731
# Poissons Ratio (z) = 0.00295 0.75159
#
# Static dielectric constant tensor:
#      x y z
#    x 1.736060 0.000000 0.000000 
#    y 0.000000 1.721090 0.000000 
#    z 0.000000 0.000000 1.657560 
# 
# From -- ./inp_files/9718.got.cif
#   From: 2010.05.17/outbox.cif.g08.bks.cpg/sg55_5_cif.got.tgz:9718.got - 2010.06.03 13:27:54.
