data_PCOD9426645
_publ_section_title
;
Structure prediction by ZEFSAII (Michael W. Deem and Ramdas Pophale) SiO2 
 PCOD9426645
Probable space group: P B A M
;
_chemical_formula_sum "Si O2"
_cell_formula_units_Z 40
_cell_length_a 27.353594
_cell_length_b 8.095710
_cell_length_c 7.760637
_cell_angle_alpha 90.000000
_cell_angle_beta 90.000000
_cell_angle_gamma 90.000000
_cell_volume 1718.567954
_symmetry_space_group_name_H-M "P B A M"
_symmetry_group_IT_number 55
_symmetry_cell_setting 'orthorhombic'
loop_
_space_group_symop_operation_xyz
x,y,z
-x,-y,z
1/2+x,1/2-y,-z
1/2-x,1/2+y,-z
-x,-y,-z
x,y,-z
1/2-x,1/2+y,z
1/2+x,1/2-y,z
loop_
_atom_site_type_symbol
_atom_site_label
_atom_site_fract_x
_atom_site_fract_y
_atom_site_fract_z
Si Si1 0.854289 0.401281 0.200081
Si Si2 0.323647 0.580275 0.300700
Si Si3 0.082682 0.901733 0.302391
Si Si4 0.519636 0.726537 0.000000
Si Si5 0.764841 0.601412 0.201470
Si Si6 0.424506 0.916805 0.000000
O O1 0.885018 0.266922 0.300447
O O2 0.803547 0.466894 0.272005
O O3 0.888862 0.562005 0.164022
O O4 0.846424 0.339590 0.000000
O O5 0.329498 0.622944 0.500000
O O6 0.377494 0.534656 0.235530
O O7 0.287773 0.421527 0.285666
O O8 0.292360 0.725262 0.216807
O O9 0.067993 0.937114 0.500000
O O10 0.039541 0.866741 0.168524
O O11 0.462579 0.769599 0.000000
O O12 0.545895 0.907694 0.000000
O O13 0.758080 0.567979 0.000000
#
# Coordination Sequence:
#
# PCOD9426645 Si02
#       6
#     8   8   8   4   8   4
#     4   8  17  34  54  76 109 138 176 224 266 315
#     4  11  24  37  51  76 113 145 177 223 269 316
#     4  10  20  33  54  81 109 145 182 217 269 324
#     4   9  16  32  56  77 112 139 172 229 272 313
#     4  11  22  35  57  79 103 142 186 218 262 325
#     4   7  14  32  54  77 108 139 168 229 274 313
#
# _framework density 23.275193000000002
#
# number of rings (size 3 to 8) (size 9 to 14) (size 15 to 20)
#    0.600    1.800    1.000    2.400    2.800    4.800 
#    0.000    8.000    0.000    2.400    0.000    2.800 
#    0.000    0.000    0.000    0.000    0.000    0.000 
#
# Total GULP energy -223272.309242 kJ/mol
# GULP energy per Si atom -5581.807731 kJ/mol
# Density = 2.322222 g / cm^3
# Si number density = 23.275193 Si / 1000 Ang^3
#
#
#
# Elastic Constant Matrix: (Units=GPa)
#
#
# Indices 1 2 3 4 5 6 
#
# 1 95.6666 16.9101 13.8210 0.0000 0.0000 0.0000
# 2 16.9101 74.8615 1.6475 0.0000 0.0000 0.0000
# 3 13.8210 1.6475 71.2721 0.0000 0.0000 0.0000
# 4 0.0000 0.0000 0.0000 18.6988 0.0000 0.0000
# 5 0.0000 0.0000 0.0000 0.0000 4.3381 0.0000
# 6 0.0000 0.0000 0.0000 0.0000 0.0000 42.5827
#
#
#
# Elastic Compliance Matrix: (Units=1/GPa)
#
#
# Indices 1 2 3 4 5 6 
#
# 1 0.011197 -0.002483 -0.002114 0.000000 0.000000 0.000000
# 2 -0.002483 0.013915 0.000160 0.000000 0.000000 0.000000
# 3 -0.002114 0.000160 0.014437 0.000000 0.000000 0.000000
# 4 0.000000 0.000000 0.000000 0.053479 0.000000 0.000000
# 5 0.000000 0.000000 0.000000 0.000000 0.230517 0.000000
# 6 0.000000 0.000000 0.000000 0.000000 0.000000 0.023484
#
#
# Mechanical properties :
#
#
# Convention : Reuss Voigt Hill
#
# Bulk Modulus (GPa) = 32.59916 34.06194 33.33055
# Shear Modulus (GPa) = 13.65639 27.08536 20.37087
#
# Velocity S-wave (km/s) = 2.42489 3.41501 2.96162
# Velocity P-wave (km/s) = 4.67723 5.49690 5.10355
#
# Compressibility (1/GPa) = 0.03067564
#
# Stress axis : x y z
#
# Youngs Moduli (GPa) = 89.30775 71.86332 69.26659
#
# Poissons Ratio (x) = 0.17842 0.14643
# Poissons Ratio (y) = 0.22173 -0.01107
# Poissons Ratio (z) = 0.18879 -0.01148
#
# Static dielectric constant tensor:
#      x y z
#    x 1.895450 0.000000 0.000000 
#    y 0.000000 1.976240 0.000000 
#    z 0.000000 0.000000 1.818300 
# 
# From -- ./inp_files/10395.got.cif
#   From: 2010.05.17/outbox.cif.g08.bks.cpg/sg55_6_cif.got.tgz:10395.got - 2010.06.03 13:27:54.
