data_PCOD9426392
_publ_section_title
;
Structure prediction by ZEFSAII (Michael W. Deem and Ramdas Pophale) SiO2 
 PCOD9426392
Probable space group: P B A M
;
_chemical_formula_sum "Si O2"
_cell_formula_units_Z 64
_cell_length_a 7.718513
_cell_length_b 18.742007
_cell_length_c 19.167846
_cell_angle_alpha 90.000000
_cell_angle_beta 90.000000
_cell_angle_gamma 90.000000
_cell_volume 2772.828742
_symmetry_space_group_name_H-M "P B A M"
_symmetry_group_IT_number 55
_symmetry_cell_setting 'orthorhombic'
loop_
_space_group_symop_operation_xyz
x,y,z
-x,-y,z
1/2+x,1/2-y,-z
1/2-x,1/2+y,-z
-x,-y,-z
x,y,-z
1/2-x,1/2+y,z
1/2+x,1/2-y,z
loop_
_atom_site_type_symbol
_atom_site_label
_atom_site_fract_x
_atom_site_fract_y
_atom_site_fract_z
Si Si1 0.802686 0.141531 0.576927
Si Si2 0.097869 0.662577 0.726444
Si Si3 0.570064 0.209448 0.919949
Si Si4 0.587914 0.799460 0.422896
Si Si5 0.376232 0.432891 0.718112
Si Si6 0.811317 0.862836 0.920330
Si Si7 0.175019 0.527754 0.819832
Si Si8 0.229641 0.807778 0.216839
O O1 0.845382 0.112311 0.500000
O O2 0.912434 0.214141 0.588060
O O3 0.605289 0.169459 0.574480
O O4 0.824686 0.086858 0.639725
O O5 0.166073 0.666990 0.647313
O O6 0.134264 0.588078 0.762475
O O7 0.177504 0.726481 0.771620
O O8 0.891606 0.677170 0.731051
O O9 0.383652 0.171438 0.916868
O O10 0.565727 0.294816 0.904734
O O11 0.693921 0.179115 0.859945
O O12 0.634936 0.202614 0.000000
O O13 0.668455 0.812084 0.500000
O O14 0.500000 0.500000 0.714537
O O15 0.240056 0.461421 0.775088
O O16 0.425166 0.357915 0.754929
O O17 0.806200 0.932263 0.871703
O O18 0.844826 0.883923 0.000000
O O19 0.000000 0.500000 0.856908
#
# Coordination Sequence:
#
# PCOD9426392 Si02
#       8
#     8   8   8   8   8   8   8   8
#     4  10  21  41  65  94 127 160 208 262 320 375
#     4  12  22  37  66  91 122 160 212 258 311 372
#     4  10  19  36  61  94 125 158 207 269 322 370
#     4  10  19  36  64  94 122 154 200 265 310 360
#     4  12  27  41  60  89 131 170 211 258 314 380
#     4  10  21  37  62  92 123 161 207 262 322 381
#     4  12  23  41  60  88 130 169 208 258 314 379
#     4  12  22  40  62  95 121 162 212 262 311 372
#
# _framework density 23.081123000000002
#
# number of rings (size 3 to 8) (size 9 to 14) (size 15 to 20)
#    0.000    1.000    6.250    0.000    1.750    2.500 
#    0.000    1.250    0.000    3.000    0.000    0.000 
#    0.000    0.000    0.000    0.000    0.000    0.000 
#
# Total GULP energy -357608.560218 kJ/mol
# GULP energy per Si atom -5587.633753 kJ/mol
# Density = 2.302859 g / cm^3
# Si number density = 23.081123 Si / 1000 Ang^3
#
#
#
# Elastic Constant Matrix: (Units=GPa)
#
#
# Indices 1 2 3 4 5 6 
#
# 1 20.7036 -3.1154 -3.6873 0.0000 0.0000 0.0000
# 2 -3.1154 70.2131 31.6683 0.0000 0.0000 0.0000
# 3 -3.6873 31.6683 146.1695 0.0000 0.0000 0.0000
# 4 0.0000 0.0000 0.0000 22.7717 0.0000 0.0000
# 5 0.0000 0.0000 0.0000 0.0000 21.6223 0.0000
# 6 0.0000 0.0000 0.0000 0.0000 0.0000 26.9146
#
#
#
# Elastic Compliance Matrix: (Units=1/GPa)
#
#
# Indices 1 2 3 4 5 6 
#
# 1 0.048719 0.001781 0.000843 0.000000 0.000000 0.000000
# 2 0.001781 0.015850 -0.003389 0.000000 0.000000 0.000000
# 3 0.000843 -0.003389 0.007597 0.000000 0.000000 0.000000
# 4 0.000000 0.000000 0.000000 0.043914 0.000000 0.000000
# 5 0.000000 0.000000 0.000000 0.000000 0.046249 0.000000
# 6 0.000000 0.000000 0.000000 0.000000 0.000000 0.037155
#
#
# Mechanical properties :
#
#
# Convention : Reuss Voigt Hill
#
# Bulk Modulus (GPa) = 14.15692 31.86860 23.01276
# Shear Modulus (GPa) = 22.26600 28.40977 25.33788
#
# Velocity S-wave (km/s) = 3.10931 3.51218 3.31686
# Velocity P-wave (km/s) = 4.36317 5.50312 4.96596
#
# Compressibility (1/GPa) = 0.07063682
#
# Stress axis : x y z
#
# Youngs Moduli (GPa) = 20.52587 63.09163 131.63287
#
# Poissons Ratio (x) = -0.11240 -0.11097
# Poissons Ratio (y) = -0.03657 0.44611
# Poissons Ratio (z) = -0.01730 0.21382
#
# Static dielectric constant tensor:
#      x y z
#    x 1.975570 0.000000 0.000000 
#    y 0.000000 1.817190 0.000000 
#    z 0.000000 0.000000 1.900120 
# 
# From -- ./inp_files/22739.got.cif
#   From: 2010.05.17/outbox.cif.g08.bks.cpg/sg55_12_cif.got.tgz:22739.got - 2010.06.03 13:27:54.
