data_PCOD9426322
_publ_section_title
;
Structure prediction by ZEFSAII (Michael W. Deem and Ramdas Pophale) SiO2 
 PCOD9426322
Probable space group: P B A M
;
_chemical_formula_sum "Si O2"
_cell_formula_units_Z 64
_cell_length_a 15.206523
_cell_length_b 12.789308
_cell_length_c 17.940785
_cell_angle_alpha 90.000000
_cell_angle_beta 90.000000
_cell_angle_gamma 90.000000
_cell_volume 3489.140126
_symmetry_space_group_name_H-M "P B A M"
_symmetry_group_IT_number 55
_symmetry_cell_setting 'orthorhombic'
loop_
_space_group_symop_operation_xyz
x,y,z
-x,-y,z
1/2+x,1/2-y,-z
1/2-x,1/2+y,-z
-x,-y,-z
x,y,-z
1/2-x,1/2+y,z
1/2+x,1/2-y,z
loop_
_atom_site_type_symbol
_atom_site_label
_atom_site_fract_x
_atom_site_fract_y
_atom_site_fract_z
Si Si1 0.675967 0.165409 0.785923
Si Si2 0.984705 0.252637 0.214233
Si Si3 0.731778 0.782938 0.341273
Si Si4 0.156092 0.579073 0.789482
Si Si5 0.887927 0.910644 0.586958
Si Si6 0.024911 0.113661 0.085502
Si Si7 0.580097 0.640025 0.640383
Si Si8 0.726427 0.312739 0.912916
O O1 0.587423 0.231299 0.771236
O O2 0.737370 0.193195 0.716526
O O3 0.715843 0.206879 0.864024
O O4 0.654572 0.044453 0.789293
O O5 0.937472 0.363783 0.212644
O O6 0.942462 0.177082 0.275658
O O7 0.976926 0.199878 0.134146
O O8 0.701772 0.875341 0.285160
O O9 0.811846 0.830590 0.388153
O O10 0.651431 0.727263 0.385090
O O11 0.207845 0.618698 0.862865
O O12 0.878087 0.936277 0.500000
O O13 0.985159 0.862166 0.599868
O O14 0.885320 0.021194 0.631621
O O15 0.129529 0.133943 0.088482
O O16 0.996721 0.119171 0.000000
O O17 0.000000 0.000000 0.115554
O O18 0.750438 0.298702 0.000000
#
# Coordination Sequence:
#
# PCOD9426322 Si02
#       8
#     8   8   8   8   8   8   8   8
#     4  10  19  36  56  79 111 146 193 232 288 344
#     4  10  20  34  56  81 112 149 188 238 285 340
#     4  10  21  38  59  87 117 152 189 240 291 345
#     4  10  21  34  55  83 109 147 194 233 282 350
#     4  11  23  39  62  90 119 153 192 240 293 352
#     4   9  19  33  51  76 107 144 186 234 286 336
#     4  10  21  37  60  90 117 151 198 239 289 350
#     4   9  20  35  50  75 110 144 186 240 287 332
#
# _framework density 18.342627
#
# number of rings (size 3 to 8) (size 9 to 14) (size 15 to 20)
#    0.000    2.125    1.250    1.875    1.750    5.000 
#    0.000    1.250    0.000    3.750    0.000    3.500 
#    0.000    0.000    0.000    0.000    0.000    0.000 
#
# Total GULP energy -356798.512841 kJ/mol
# GULP energy per Si atom -5574.976763 kJ/mol
# Density = 1.830088 g / cm^3
# Si number density = 18.342627 Si / 1000 Ang^3
#
#
#
# Elastic Constant Matrix: (Units=GPa)
#
#
# Indices 1 2 3 4 5 6 
#
# 1 67.0111 27.8996 24.2404 0.0000 0.0000 0.0000
# 2 27.8996 90.9909 36.5067 0.0000 0.0000 0.0000
# 3 24.2404 36.5067 54.3832 0.0000 0.0000 0.0000
# 4 0.0000 0.0000 0.0000 12.2704 0.0000 0.0000
# 5 0.0000 0.0000 0.0000 0.0000 10.4358 0.0000
# 6 0.0000 0.0000 0.0000 0.0000 0.0000 24.9944
#
#
#
# Elastic Compliance Matrix: (Units=1/GPa)
#
#
# Indices 1 2 3 4 5 6 
#
# 1 0.018459 -0.003228 -0.006061 0.000000 0.000000 0.000000
# 2 -0.003228 0.015606 -0.009037 0.000000 0.000000 0.000000
# 3 -0.006061 -0.009037 0.027156 0.000000 0.000000 0.000000
# 4 0.000000 0.000000 0.000000 0.081497 0.000000 0.000000
# 5 0.000000 0.000000 0.000000 0.000000 0.095824 0.000000
# 6 0.000000 0.000000 0.000000 0.000000 0.000000 0.040009
#
#
# Mechanical properties :
#
#
# Convention : Reuss Voigt Hill
#
# Bulk Modulus (GPa) = 40.70193 43.29761 41.99977
# Shear Modulus (GPa) = 15.46107 17.78935 16.62521
#
# Velocity S-wave (km/s) = 2.90643 3.11760 3.01386
# Velocity P-wave (km/s) = 5.78801 6.05106 5.92100
#
# Compressibility (1/GPa) = 0.02456886
#
# Stress axis : x y z
#
# Youngs Moduli (GPa) = 54.17285 64.07914 36.82440
#
# Poissons Ratio (x) = 0.20687 0.22319
# Poissons Ratio (y) = 0.17489 0.33278
# Poissons Ratio (z) = 0.32833 0.57908
#
# Static dielectric constant tensor:
#      x y z
#    x 1.673740 0.000000 0.000000 
#    y 0.000000 1.619510 0.000000 
#    z 0.000000 0.000000 1.613910 
# 
# From -- ./inp_files/21381.got.cif
#   From: 2010.05.17/outbox.cif.g08.bks.cpg/sg55_11_cif.got.tgz:21381.got - 2010.06.03 13:27:54.
