data_PCOD9426073
_publ_section_title
;
Structure prediction by ZEFSAII (Michael W. Deem and Ramdas Pophale) SiO2 
 PCOD9426073
Probable space group: P B A M
;
_chemical_formula_sum "Si O2"
_cell_formula_units_Z 48
_cell_length_a 9.969242
_cell_length_b 25.603154
_cell_length_c 7.629681
_cell_angle_alpha 90.000000
_cell_angle_beta 90.000000
_cell_angle_gamma 90.000000
_cell_volume 1947.430589
_symmetry_space_group_name_H-M "P B A M"
_symmetry_group_IT_number 55
_symmetry_cell_setting 'orthorhombic'
loop_
_space_group_symop_operation_xyz
x,y,z
-x,-y,z
1/2+x,1/2-y,-z
1/2-x,1/2+y,-z
-x,-y,-z
x,y,-z
1/2-x,1/2+y,z
1/2+x,1/2-y,z
loop_
_atom_site_type_symbol
_atom_site_label
_atom_site_fract_x
_atom_site_fract_y
_atom_site_fract_z
Si Si1 0.543694 0.365408 0.285701
Si Si2 0.688505 0.259570 0.291107
Si Si3 0.548041 0.809803 0.801930
Si Si4 0.283713 0.417874 0.714001
Si Si5 0.015883 0.579132 0.698689
Si Si6 0.714146 0.465800 0.713885
O O1 0.545276 0.364047 0.500000
O O2 0.616107 0.312756 0.226858
O O3 0.390557 0.374823 0.228273
O O4 0.625357 0.416917 0.229666
O O5 0.677918 0.256727 0.500000
O O6 0.844375 0.265390 0.245948
O O7 0.601286 0.211952 0.220917
O O8 0.572129 0.861841 0.691714
O O9 0.571143 0.825612 0.000000
O O10 0.279659 0.413770 0.500000
O O11 0.333727 0.476281 0.758859
O O12 0.131236 0.415384 0.779844
O O13 0.994228 0.560374 0.500000
O O14 0.132777 0.543476 0.775827
O O15 0.716425 0.463819 0.500000
#
# Coordination Sequence:
#
# PCOD9426073 Si02
#       6
#     8   8   8   8   8   8
#     4   9  17  30  51  84 118 148 188 241 298 348
#     4  11  23  42  66  91 118 156 204 253 300 363
#     4  12  26  43  62  89 122 159 199 251 312 366
#     4   9  17  27  49  86 122 152 189 245 301 347
#     4  10  19  34  56  85 118 156 200 244 293 356
#     4   9  15  28  50  81 120 154 191 245 301 347
#
# _framework density 24.647862
#
# number of rings (size 3 to 8) (size 9 to 14) (size 15 to 20)
#    0.000    2.000    1.667    3.000    2.333    4.000 
#    0.000    0.000    0.000    2.000    0.000    1.167 
#    0.000    0.000    0.000    0.000    0.000    0.000 
#
# Total GULP energy -268429.254896 kJ/mol
# GULP energy per Si atom -5592.276144 kJ/mol
# Density = 2.459176 g / cm^3
# Si number density = 24.647862 Si / 1000 Ang^3
#
#
#
# Elastic Constant Matrix: (Units=GPa)
#
#
# Indices 1 2 3 4 5 6 
#
# 1 90.0309 -5.2482 -2.2093 0.0000 0.0000 0.0000
# 2 -5.2482 56.7454 2.3487 0.0000 0.0000 0.0000
# 3 -2.2093 2.3487 66.5154 0.0000 0.0000 0.0000
# 4 0.0000 0.0000 0.0000 -26.6544 0.0000 0.0000
# 5 0.0000 0.0000 0.0000 0.0000 -3.9815 0.0000
# 6 0.0000 0.0000 0.0000 0.0000 0.0000 44.7162
#
#
#
# Elastic Compliance Matrix: (Units=1/GPa)
#
#
# Indices 1 2 3 4 5 6 
#
# 1 0.011175 0.001020 0.000335 0.000000 0.000000 0.000000
# 2 0.001020 0.017741 -0.000593 0.000000 0.000000 0.000000
# 3 0.000335 -0.000593 0.015066 0.000000 0.000000 0.000000
# 4 0.000000 0.000000 0.000000 -0.037517 0.000000 0.000000
# 5 0.000000 0.000000 0.000000 0.000000 -0.251161 0.000000
# 6 0.000000 0.000000 0.000000 0.000000 0.000000 0.022363
#
#
# Mechanical properties :
#
#
# Convention : Reuss Voigt Hill
#
# Bulk Modulus (GPa) = 21.97463 22.56378 22.26920
# Shear Modulus (GPa) = -23.95925 17.37610 -3.29158
#
# Velocity S-wave (km/s) = -3.12117 2.65801 -1.15687
# Velocity P-wave (km/s) = 2.01350 4.31212 2.69631
#
# Compressibility (1/GPa) = 0.04550703
#
# Stress axis : x y z
#
# Youngs Moduli (GPa) = 89.48571 56.36534 66.37385
#
# Poissons Ratio (x) = -0.05747 -0.02225
# Poissons Ratio (y) = -0.09125 0.03933
# Poissons Ratio (z) = -0.02999 0.03340
#
# Static dielectric constant tensor:
#      x y z
#    x 1.976170 0.000000 0.000000 
#    y 0.000000 1.937380 0.000000 
#    z 0.000000 0.000000 1.967230 
# 
# From -- ./inp_files/2907.got.cif
#   From: 2010.05.17/outbox.cif.g08.bks.cpg/sg55_2_cif.got.tgz:2907.got - 2010.06.03 13:27:54.
