data_PCOD9426031
_publ_section_title
;
Structure prediction by ZEFSAII (Michael W. Deem and Ramdas Pophale) SiO2 
 PCOD9426031
Probable space group: P B A M
;
_chemical_formula_sum "Si O2"
_cell_formula_units_Z 64
_cell_length_a 24.414146
_cell_length_b 15.564840
_cell_length_c 8.922228
_cell_angle_alpha 90.000000
_cell_angle_beta 90.000000
_cell_angle_gamma 90.000000
_cell_volume 3390.466949
_symmetry_space_group_name_H-M "P B A M"
_symmetry_group_IT_number 55
_symmetry_cell_setting 'orthorhombic'
loop_
_space_group_symop_operation_xyz
x,y,z
-x,-y,z
1/2+x,1/2-y,-z
1/2-x,1/2+y,-z
-x,-y,-z
x,y,-z
1/2-x,1/2+y,z
1/2+x,1/2-y,z
loop_
_atom_site_type_symbol
_atom_site_label
_atom_site_fract_x
_atom_site_fract_y
_atom_site_fract_z
Si Si1 0.874748 0.820249 0.321418
Si Si2 0.052375 0.322194 0.178855
Si Si3 0.725745 0.965958 0.174696
Si Si4 0.379775 0.977363 0.678415
Si Si5 0.354156 0.500380 0.174909
Si Si6 0.846267 0.188155 0.819686
Si Si7 0.575354 0.847873 0.179548
Si Si8 0.250286 0.216158 0.320646
O O1 0.880494 0.814358 0.500000
O O2 0.920592 0.764515 0.240394
O O3 0.875136 0.919185 0.269319
O O4 0.814212 0.782670 0.281180
O O5 0.084319 0.401012 0.254170
O O6 0.988012 0.329193 0.213157
O O7 0.058955 0.326773 0.000000
O O8 0.681922 0.024712 0.258008
O O9 0.787913 0.998221 0.183477
O O10 0.726387 0.872191 0.250687
O O11 0.710570 0.957725 0.000000
O O12 0.379365 0.972820 0.500000
O O13 0.404350 0.067898 0.734662
O O14 0.369995 0.404695 0.224570
O O15 0.369117 0.513055 0.000000
O O16 0.887369 0.265667 0.782776
O O17 0.787986 0.208925 0.744808
O O18 0.838926 0.186147 0.000000
O O19 0.580213 0.863023 0.000000
O O20 0.254628 0.213318 0.500000
#
# Coordination Sequence:
#
# PCOD9426031 Si02
#       8
#     8   8   8   8   8   8   8   8
#     4  10  22  40  59  85 120 155 194 246 300 349
#     4  11  24  41  62  84 112 156 205 248 296 353
#     4  10  19  34  55  83 118 155 192 233 281 345
#     4  12  24  37  57  87 121 157 193 240 299 357
#     4   9  20  37  59  87 117 155 198 239 289 351
#     4  10  20  36  60  88 117 152 196 243 294 350
#     4  10  22  41  62  86 117 154 199 251 296 347
#     4  10  20  34  54  84 117 152 190 235 295 351
#
# _framework density 18.876456000000001
#
# number of rings (size 3 to 8) (size 9 to 14) (size 15 to 20)
#    0.000    1.750    1.250    3.000    1.750    5.000 
#    0.000    0.625    0.000    3.750    0.000    0.000 
#    0.000    0.000    0.000    0.000    0.000    0.000 
#
# Total GULP energy -357629.638800 kJ/mol
# GULP energy per Si atom -5587.963106 kJ/mol
# Density = 1.883349 g / cm^3
# Si number density = 18.876456 Si / 1000 Ang^3
#
#
#
# Elastic Constant Matrix: (Units=GPa)
#
#
# Indices 1 2 3 4 5 6 
#
# 1 14.4344 -5.7295 3.3320 0.0000 0.0000 0.0000
# 2 -5.7295 77.6993 13.5517 0.0000 0.0000 0.0000
# 3 3.3320 13.5517 43.0724 0.0000 0.0000 0.0000
# 4 0.0000 0.0000 0.0000 5219.5712 0.0000 0.0000
# 5 0.0000 0.0000 0.0000 0.0000 18.5303 0.0000
# 6 0.0000 0.0000 0.0000 0.0000 0.0000 17.8297
#
#
#
# Elastic Compliance Matrix: (Units=1/GPa)
#
#
# Indices 1 2 3 4 5 6 
#
# 1 0.073795 0.006811 -0.007852 0.000000 0.000000 0.000000
# 2 0.006811 0.014246 -0.005009 0.000000 0.000000 0.000000
# 3 -0.007852 -0.005009 0.025400 0.000000 0.000000 0.000000
# 4 0.000000 0.000000 0.000000 0.000192 0.000000 0.000000
# 5 0.000000 0.000000 0.000000 0.000000 0.053966 0.000000
# 6 0.000000 0.000000 0.000000 0.000000 0.000000 0.056086
#
#
# Mechanical properties :
#
#
# Convention : Reuss Voigt Hill
#
# Bulk Modulus (GPa) = 9.86758 17.50159 13.68458
# Shear Modulus (GPa) = 18.54843 1059.45636 539.00239
#
# Velocity S-wave (km/s) = 3.13808 23.71659 16.91632
# Velocity P-wave (km/s) = 4.28589 27.55468 19.71838
#
# Compressibility (1/GPa) = 0.10134202
#
# Stress axis : x y z
#
# Youngs Moduli (GPa) = 13.55104 70.19504 39.36991
#
# Poissons Ratio (x) = -0.47810 0.30912
# Poissons Ratio (y) = -0.09230 0.19721
# Poissons Ratio (z) = 0.10640 0.35161
#
# Static dielectric constant tensor:
#      x y z
#    x 1.648210 0.000000 0.000000 
#    y 0.000000 1.652440 0.000000 
#    z 0.000000 0.000000 1.627190 
# 
# From -- ./inp_files/6540.got.cif
#   From: 2010.05.17/outbox.cif.g08.bks.cpg/sg55_4_cif.got.tgz:6540.got - 2010.06.03 13:27:54.
