data_PCOD9426316
_publ_section_title
;
Structure prediction by ZEFSAII (Michael W. Deem and Ramdas Pophale) SiO2 
 PCOD9426316
Probable space group: P B A M
;
_chemical_formula_sum "Si O2"
_cell_formula_units_Z 60
_cell_length_a 5.380409
_cell_length_b 28.062258
_cell_length_c 19.293526
_cell_angle_alpha 90.000000
_cell_angle_beta 90.000000
_cell_angle_gamma 90.000000
_cell_volume 2913.060526
_symmetry_space_group_name_H-M "P B A M"
_symmetry_group_IT_number 55
_symmetry_cell_setting 'orthorhombic'
loop_
_space_group_symop_operation_xyz
x,y,z
-x,-y,z
1/2+x,1/2-y,-z
1/2-x,1/2+y,-z
-x,-y,-z
x,y,-z
1/2-x,1/2+y,z
1/2+x,1/2-y,z
loop_
_atom_site_type_symbol
_atom_site_label
_atom_site_fract_x
_atom_site_fract_y
_atom_site_fract_z
Si Si1 0.401169 0.313374 0.633783
Si Si2 0.252104 0.467892 0.076650
Si Si3 0.753766 0.371803 0.713571
Si Si4 0.416774 0.945101 0.782795
Si Si5 0.254551 0.468860 0.363201
Si Si6 0.144147 0.219003 0.500000
Si Si7 0.394619 0.233342 0.746803
Si Si8 0.976531 0.616839 0.423369
O O1 0.603435 0.308604 0.572480
O O2 0.370108 0.264090 0.675003
O O3 0.164867 0.334370 0.594806
O O4 0.486153 0.349972 0.694327
O O5 0.500000 0.500000 0.086778
O O6 0.216607 0.435008 0.144325
O O7 0.000000 0.500000 0.073453
O O8 0.275796 0.445228 0.000000
O O9 0.847209 0.411087 0.767704
O O10 0.899286 0.322671 0.732099
O O11 0.838828 0.392735 0.639617
O O12 0.244199 0.946155 0.714429
O O13 0.500000 0.000000 0.786931
O O14 0.500000 0.500000 0.373258
O O15 0.225469 0.425464 0.416339
O O16 0.000000 0.500000 0.368781
O O17 0.404986 0.245741 0.500000
O O18 0.138983 0.247470 0.783426
O O19 0.081226 0.617166 0.500000
#
# Coordination Sequence:
#
# PCOD9426316 Si02
#       8
#     8   8   8   8   8   4   8   8
#     4  11  23  35  55  77 104 138 175 236 289 356
#     4   9  17  32  55  86 122 153 180 214 262 320
#     4  10  22  38  53  77 108 142 183 230 278 337
#     4   9  19  36  58  84 112 151 184 223 264 326
#     4  10  23  41  58  74 103 142 188 233 273 324
#     4  12  26  38  58  80 103 136 175 224 302 366
#     4  10  19  36  53  72 100 133 169 220 274 334
#     4  11  24  37  54  76 101 137 184 237 293 342
#
# _framework density 20.596895
#
# number of rings (size 3 to 8) (size 9 to 14) (size 15 to 20)
#    0.000    1.867    2.000    2.000    8.400    0.533 
#    2.400    0.000    0.000    0.000    0.000    0.000 
#    0.000    4.267    0.000    0.000    0.000    3.200 
#
# Total GULP energy -334718.797654 kJ/mol
# GULP energy per Si atom -5578.646628 kJ/mol
# Density = 2.055002 g / cm^3
# Si number density = 20.596895 Si / 1000 Ang^3
#
#
#
# Elastic Constant Matrix: (Units=GPa)
#
#
# Indices 1 2 3 4 5 6 
#
# 1 100.0562 13.5631 2.0776 0.0000 0.0000 0.0000
# 2 13.5631 93.8810 15.7952 0.0000 0.0000 0.0000
# 3 2.0776 15.7952 84.9557 0.0000 0.0000 0.0000
# 4 0.0000 0.0000 0.0000 5.1449 0.0000 0.0000
# 5 0.0000 0.0000 0.0000 0.0000 15.8812 0.0000
# 6 0.0000 0.0000 0.0000 0.0000 0.0000 36.7094
#
#
#
# Elastic Compliance Matrix: (Units=1/GPa)
#
#
# Indices 1 2 3 4 5 6 
#
# 1 0.010194 -0.001477 0.000025 0.000000 0.000000 0.000000
# 2 -0.001477 0.011210 -0.002048 0.000000 0.000000 0.000000
# 3 0.000025 -0.002048 0.012151 0.000000 0.000000 0.000000
# 4 0.000000 0.000000 0.000000 0.194368 0.000000 0.000000
# 5 0.000000 0.000000 0.000000 0.000000 0.062967 0.000000
# 6 0.000000 0.000000 0.000000 0.000000 0.000000 0.027241
#
#
# Mechanical properties :
#
#
# Convention : Reuss Voigt Hill
#
# Bulk Modulus (GPa) = 37.65718 37.97386 37.81552
# Shear Modulus (GPa) = 14.97086 28.04424 21.50755
#
# Velocity S-wave (km/s) = 2.69894 3.69396 3.23493
# Velocity P-wave (km/s) = 5.29481 6.05562 5.68795
#
# Compressibility (1/GPa) = 0.02655536
#
# Stress axis : x y z
#
# Youngs Moduli (GPa) = 98.09619 89.20815 82.29778
#
# Poissons Ratio (x) = 0.13176 -0.00208
# Poissons Ratio (y) = 0.14489 0.16855
# Poissons Ratio (z) = -0.00248 0.18270
#
# Static dielectric constant tensor:
#      x y z
#    x 1.950230 0.000000 0.000000 
#    y 0.000000 1.827990 0.000000 
#    z 0.000000 0.000000 1.739650 
# 
# From -- ./inp_files/22446.got.cif
#   From: 2010.05.17/outbox.cif.g08.bks.cpg/sg55_12_cif.got.tgz:22446.got - 2010.06.03 13:27:54.
