data_PCOD9426990
_publ_section_title
;
Structure prediction by ZEFSAII (Michael W. Deem and Ramdas Pophale) SiO2 
 PCOD9426990
Probable space group: P B A M
;
_chemical_formula_sum "Si O2"
_cell_formula_units_Z 64
_cell_length_a 27.723080
_cell_length_b 12.637694
_cell_length_c 9.454319
_cell_angle_alpha 90.000000
_cell_angle_beta 90.000000
_cell_angle_gamma 90.000000
_cell_volume 3312.375514
_symmetry_space_group_name_H-M "P B A M"
_symmetry_group_IT_number 55
_symmetry_cell_setting 'orthorhombic'
loop_
_space_group_symop_operation_xyz
x,y,z
-x,-y,z
1/2+x,1/2-y,-z
1/2-x,1/2+y,-z
-x,-y,-z
x,y,-z
1/2-x,1/2+y,z
1/2+x,1/2-y,z
loop_
_atom_site_type_symbol
_atom_site_label
_atom_site_fract_x
_atom_site_fract_y
_atom_site_fract_z
Si Si1 0.383276 0.974576 0.164168
Si Si2 0.560214 0.400351 0.338408
Si Si3 0.188637 0.933825 0.166377
Si Si4 0.675554 0.360166 0.661818
Si Si5 0.706472 0.158437 0.835083
Si Si6 0.406031 0.376123 0.665898
Si Si7 0.944938 0.361421 0.334685
Si Si8 0.534982 0.197176 0.165825
O O1 0.405187 0.062389 0.266244
O O2 0.328026 0.942617 0.190574
O O3 0.415104 0.867534 0.180861
O O4 0.388557 0.008321 0.000000
O O5 0.541782 0.387103 0.500000
O O6 0.617601 0.374651 0.338403
O O7 0.559009 0.524566 0.297784
O O8 0.538149 0.312916 0.235849
O O9 0.237458 0.867520 0.182732
O O10 0.141941 0.883321 0.240482
O O11 0.196007 0.045670 0.243007
O O12 0.179400 0.948705 0.000000
O O13 0.692001 0.367787 0.500000
O O14 0.690099 0.250434 0.731557
O O15 0.698013 0.188794 0.000000
O O16 0.393369 0.393349 0.500000
O O17 0.428879 0.261025 0.678813
O O18 0.951954 0.385319 0.500000
O O19 0.994315 0.368810 0.247553
O O20 0.523722 0.204761 0.000000
#
# Coordination Sequence:
#
# PCOD9426990 Si02
#       8
#     8   8   8   8   8   8   8   8
#     4  10  22  40  59  82 117 153 192 243 293 347
#     4   9  18  35  59  83 110 146 190 236 285 343
#     4  10  21  36  59  87 116 152 193 238 291 349
#     4  10  20  35  57  83 114 150 188 237 290 342
#     4  10  21  38  59  85 115 151 194 240 291 346
#     4   9  21  41  59  82 118 157 194 240 297 348
#     4  11  24  40  59  83 118 158 195 240 293 353
#     4  11  22  37  60  87 115 151 193 243 295 346
#
# _framework density 19.321480000000001
#
# number of rings (size 3 to 8) (size 9 to 14) (size 15 to 20)
#    0.000    2.000    1.250    2.625    0.000    8.500 
#    0.000    6.250    0.000    0.000    0.000    0.000 
#    0.000    0.000    0.000    0.000    0.000    0.000 
#
# Total GULP energy -357505.475066 kJ/mol
# GULP energy per Si atom -5586.023048 kJ/mol
# Density = 1.927750 g / cm^3
# Si number density = 19.321480 Si / 1000 Ang^3
#
#
#
# Elastic Constant Matrix: (Units=GPa)
#
#
# Indices 1 2 3 4 5 6 
#
# 1 51.5509 5.2441 34.7281 0.0000 0.0000 0.0000
# 2 5.2441 68.5599 46.1900 0.0000 0.0000 0.0000
# 3 34.7281 46.1900 95.8571 0.0000 0.0000 0.0000
# 4 0.0000 0.0000 0.0000 18.0350 0.0000 0.0000
# 5 0.0000 0.0000 0.0000 0.0000 20.1607 0.0000
# 6 0.0000 0.0000 0.0000 0.0000 0.0000 18.4529
#
#
#
# Elastic Compliance Matrix: (Units=1/GPa)
#
#
# Indices 1 2 3 4 5 6 
#
# 1 0.027687 0.006871 -0.013341 0.000000 0.000000 0.000000
# 2 0.006871 0.023302 -0.013718 0.000000 0.000000 0.000000
# 3 -0.013341 -0.013718 0.021876 0.000000 0.000000 0.000000
# 4 0.000000 0.000000 0.000000 0.055448 0.000000 0.000000
# 5 0.000000 0.000000 0.000000 0.000000 0.049601 0.000000
# 6 0.000000 0.000000 0.000000 0.000000 0.000000 0.054192
#
#
# Mechanical properties :
#
#
# Convention : Reuss Voigt Hill
#
# Bulk Modulus (GPa) = 30.78067 43.14360 36.96214
# Shear Modulus (GPa) = 17.64840 19.98345 18.81592
#
# Velocity S-wave (km/s) = 3.02554 3.21948 3.12402
# Velocity P-wave (km/s) = 5.30760 6.01647 5.67312
#
# Compressibility (1/GPa) = 0.03248792
#
# Stress axis : x y z
#
# Youngs Moduli (GPa) = 36.11799 42.91480 45.71293
#
# Poissons Ratio (x) = -0.29485 0.60988
# Poissons Ratio (y) = -0.24815 0.62707
# Poissons Ratio (z) = 0.48187 0.58868
#
# Static dielectric constant tensor:
#      x y z
#    x 1.675620 0.000000 0.000000 
#    y 0.000000 1.674340 0.000000 
#    z 0.000000 0.000000 1.646610 
# 
# From -- ./inp_files/10788.got.cif
#   From: 2010.05.17/outbox.cif.g08.bks.cpg/sg55_6_cif.got.tgz:10788.got - 2010.06.03 13:27:54.
