data_PCOD9426925
_publ_section_title
;
Structure prediction by ZEFSAII (Michael W. Deem and Ramdas Pophale) SiO2 
 PCOD9426925
Probable space group: P B A M
;
_chemical_formula_sum "Si O2"
_cell_formula_units_Z 56
_cell_length_a 21.135261
_cell_length_b 14.880758
_cell_length_c 9.061417
_cell_angle_alpha 90.000000
_cell_angle_beta 90.000000
_cell_angle_gamma 90.000000
_cell_volume 2849.894519
_symmetry_space_group_name_H-M "P B A M"
_symmetry_group_IT_number 55
_symmetry_cell_setting 'orthorhombic'
loop_
_space_group_symop_operation_xyz
x,y,z
-x,-y,z
1/2+x,1/2-y,-z
1/2-x,1/2+y,-z
-x,-y,-z
x,y,-z
1/2-x,1/2+y,z
1/2+x,1/2-y,z
loop_
_atom_site_type_symbol
_atom_site_label
_atom_site_fract_x
_atom_site_fract_y
_atom_site_fract_z
Si Si1 0.131739 0.091465 0.675707
Si Si2 0.869309 0.094066 0.824469
Si Si3 0.779667 0.595674 0.176474
Si Si4 0.509494 0.103660 0.671686
Si Si5 0.886253 0.273276 0.672056
Si Si6 0.110877 0.273995 0.824466
Si Si7 0.218537 0.590024 0.323202
O O1 0.124192 0.088253 0.500000
O O2 0.100458 0.179849 0.743216
O O3 0.207102 0.100206 0.710236
O O4 0.109549 0.998257 0.747964
O O5 0.794380 0.105839 0.787428
O O6 0.900882 0.183791 0.762545
O O7 0.875811 0.086837 0.000000
O O8 0.822084 0.680598 0.219733
O O9 0.802871 0.503994 0.252426
O O10 0.784896 0.585239 0.000000
O O11 0.531356 0.106745 0.500000
O O12 0.443406 0.156404 0.679410
O O13 0.558780 0.154492 0.774547
O O14 0.500000 0.000000 0.712033
O O15 0.876459 0.248320 0.500000
O O16 0.824012 0.326419 0.727205
O O17 0.110588 0.260344 0.000000
O O18 0.211307 0.583769 0.500000
#
# Coordination Sequence:
#
# PCOD9426925 Si02
#       7
#     8   8   8   8   8   8   8
#     4  10  20  35  56  82 111 142 179 223 270 320
#     4  10  20  35  55  80 111 144 178 218 268 323
#     4   9  19  33  51  79 113 146 177 216 268 322
#     4  10  22  40  60  81 108 143 181 223 269 316
#     4  10  20  35  55  80 109 141 180 223 268 317
#     4  11  22  36  55  80 111 146 184 224 268 320
#     4   9  18  32  54  83 111 142 180 222 267 320
#
# _framework density 19.649851000000002
#
# number of rings (size 3 to 8) (size 9 to 14) (size 15 to 20)
#    0.000    2.143    0.000    3.000    0.000    4.857 
#    0.000    0.714    0.000    4.286    0.000    0.000 
#    0.000    0.000    0.000    0.000    0.000    0.000 
#
# Total GULP energy -312793.740272 kJ/mol
# GULP energy per Si atom -5585.602505 kJ/mol
# Density = 1.960513 g / cm^3
# Si number density = 19.649851 Si / 1000 Ang^3
#
#
#
# Elastic Constant Matrix: (Units=GPa)
#
#
# Indices 1 2 3 4 5 6 
#
# 1 10.8913 16.4067 15.4480 0.0000 0.0000 0.0000
# 2 16.4067 166.8791 53.9810 0.0000 0.0000 0.0000
# 3 15.4480 53.9810 39.0353 0.0000 0.0000 0.0000
# 4 0.0000 0.0000 0.0000 21.8831 0.0000 0.0000
# 5 0.0000 0.0000 0.0000 0.0000 21.1617 0.0000
# 6 0.0000 0.0000 0.0000 0.0000 0.0000 18.5652
#
#
#
# Elastic Compliance Matrix: (Units=1/GPa)
#
#
# Indices 1 2 3 4 5 6 
#
# 1 0.221655 0.011911 -0.104189 0.000000 0.000000 0.000000
# 2 0.011911 0.011482 -0.020592 0.000000 0.000000 0.000000
# 3 -0.104189 -0.020592 0.095327 0.000000 0.000000 0.000000
# 4 0.000000 0.000000 0.000000 0.045697 0.000000 0.000000
# 5 0.000000 0.000000 0.000000 0.000000 0.047255 0.000000
# 6 0.000000 0.000000 0.000000 0.000000 0.000000 0.053864
#
#
# Mechanical properties :
#
#
# Convention : Reuss Voigt Hill
#
# Bulk Modulus (GPa) = 9.73506 43.16412 26.44959
# Shear Modulus (GPa) = 6.80028 21.05334 13.92681
#
# Velocity S-wave (km/s) = 1.86232 3.27681 2.66512
# Velocity P-wave (km/s) = 3.09667 6.02752 4.79168
#
# Compressibility (1/GPa) = 0.10272151
#
# Stress axis : x y z
#
# Youngs Moduli (GPa) = 4.51152 87.08936 10.49021
#
# Poissons Ratio (x) = -1.03729 1.09297
# Poissons Ratio (y) = -0.05373 0.21602
# Poissons Ratio (z) = 0.47005 1.79338
#
# Static dielectric constant tensor:
#      x y z
#    x 1.710040 0.000000 0.000000 
#    y 0.000000 1.672490 0.000000 
#    z 0.000000 0.000000 1.659560 
# 
# From -- ./inp_files/8724.got.cif
#   From: 2010.05.17/outbox.cif.g08.bks.cpg/sg55_5_cif.got.tgz:8724.got - 2010.06.03 13:27:54.
