data_PCOD9426302
_publ_section_title
;
Structure prediction by ZEFSAII (Michael W. Deem and Ramdas Pophale) SiO2 
 PCOD9426302
Probable space group: P B A M
;
_chemical_formula_sum "Si O2"
_cell_formula_units_Z 48
_cell_length_a 18.968772
_cell_length_b 13.731682
_cell_length_c 7.644747
_cell_angle_alpha 90.000000
_cell_angle_beta 90.000000
_cell_angle_gamma 90.000000
_cell_volume 1991.251294
_symmetry_space_group_name_H-M "P B A M"
_symmetry_group_IT_number 55
_symmetry_cell_setting 'orthorhombic'
loop_
_space_group_symop_operation_xyz
x,y,z
-x,-y,z
1/2+x,1/2-y,-z
1/2-x,1/2+y,-z
-x,-y,-z
x,y,-z
1/2-x,1/2+y,z
1/2+x,1/2-y,z
loop_
_atom_site_type_symbol
_atom_site_label
_atom_site_fract_x
_atom_site_fract_y
_atom_site_fract_z
Si Si1 0.876265 0.770184 0.285405
Si Si2 0.489607 0.386185 0.300956
Si Si3 0.740829 0.424271 0.288902
Si Si4 0.629501 0.817314 0.204570
Si Si5 0.338063 0.384484 0.705283
Si Si6 0.477761 0.894625 0.706460
O O1 0.871186 0.766730 0.500000
O O2 0.808555 0.833546 0.226819
O O3 0.907780 0.664101 0.229989
O O4 0.941428 0.837917 0.227087
O O5 0.500000 0.500000 0.315662
O O6 0.484179 0.346398 0.500000
O O7 0.415038 0.379164 0.208643
O O8 0.737943 0.423751 0.500000
O O9 0.821974 0.410955 0.238866
O O10 0.710102 0.528710 0.226334
O O11 0.677228 0.729918 0.285493
O O12 0.549891 0.830879 0.274008
O O13 0.624756 0.802444 0.000000
O O14 0.347260 0.409018 0.500000
O O15 0.465198 0.908797 0.500000
O O16 0.500000 0.000000 0.782834
#
# Coordination Sequence:
#
# PCOD9426302 Si02
#       6
#     8   8   8   8   8   8
#     4   9  16  30  57  91 119 142 184 250 310 351
#     4   9  13  23  52  90 115 131 167 232 301 348
#     4  10  21  37  62  92 118 154 206 261 311 358
#     4  12  26  41  57  83 127 173 201 236 301 377
#     4  10  19  35  62  88 111 145 196 255 303 352
#     4  10  21  39  65  92 117 153 208 264 304 353
#
# _framework density 24.105443999999999
#
# number of rings (size 3 to 8) (size 9 to 14) (size 15 to 20)
#    0.000    2.000    3.333    1.500    0.000    2.333 
#    0.000    4.167    0.000    1.500    0.000    0.000 
#    0.000    0.000    0.000    0.000    0.000    0.000 
#
# Total GULP energy -267353.711567 kJ/mol
# GULP energy per Si atom -5569.868991 kJ/mol
# Density = 2.405058 g / cm^3
# Si number density = 24.105444 Si / 1000 Ang^3
#
#
#
# Elastic Constant Matrix: (Units=GPa)
#
#
# Indices 1 2 3 4 5 6 
#
# 1 49.8210 -0.8757 -14.7360 0.0000 0.0000 0.0000
# 2 -0.8757 92.9323 -2.3598 0.0000 0.0000 0.0000
# 3 -14.7360 -2.3598 54.7904 0.0000 0.0000 0.0000
# 4 0.0000 0.0000 0.0000 -11.5276 0.0000 0.0000
# 5 0.0000 0.0000 0.0000 0.0000 -17.7359 0.0000
# 6 0.0000 0.0000 0.0000 0.0000 0.0000 27.7943
#
#
#
# Elastic Compliance Matrix: (Units=1/GPa)
#
#
# Indices 1 2 3 4 5 6 
#
# 1 0.021818 0.000355 0.005883 0.000000 0.000000 0.000000
# 2 0.000355 0.010778 0.000560 0.000000 0.000000 0.000000
# 3 0.005883 0.000560 0.019858 0.000000 0.000000 0.000000
# 4 0.000000 0.000000 0.000000 -0.086748 0.000000 0.000000
# 5 0.000000 0.000000 0.000000 0.000000 -0.056383 0.000000
# 6 0.000000 0.000000 0.000000 0.000000 0.000000 0.035979
#
#
# Mechanical properties :
#
#
# Convention : Reuss Voigt Hill
#
# Bulk Modulus (GPa) = 15.14000 17.95564 16.54782
# Shear Modulus (GPa) = -108.04415 14.07382 -46.98516
#
# Velocity S-wave (km/s) = -6.70215 2.41891 -4.41971
# Velocity P-wave (km/s) = 7.32102 3.90723 4.37784
#
# Compressibility (1/GPa) = 0.06605019
#
# Stress axis : x y z
#
# Youngs Moduli (GPa) = 45.83317 92.78088 50.35800
#
# Poissons Ratio (x) = -0.03294 -0.29627
# Poissons Ratio (y) = -0.01627 -0.02818
# Poissons Ratio (z) = -0.26965 -0.05193
#
# Static dielectric constant tensor:
#      x y z
#    x 1.951370 0.000000 0.000000 
#    y 0.000000 2.199000 0.000000 
#    z 0.000000 0.000000 1.937770 
# 
# From -- ./inp_files/7419.got.cif
#   From: 2010.05.17/outbox.cif.g08.bks.cpg/sg55_4_cif.got.tgz:7419.got - 2010.06.03 13:27:54.
