data_PCOD9426550
_publ_section_title
;
Structure prediction by ZEFSAII (Michael W. Deem and Ramdas Pophale) SiO2 
 PCOD9426550
Probable space group: P B A M
;
_chemical_formula_sum "Si O2"
_cell_formula_units_Z 28
_cell_length_a 25.886737
_cell_length_b 5.127596
_cell_length_c 10.782468
_cell_angle_alpha 90.000000
_cell_angle_beta 90.000000
_cell_angle_gamma 90.000000
_cell_volume 1431.229534
_symmetry_space_group_name_H-M "P B A M"
_symmetry_group_IT_number 55
_symmetry_cell_setting 'orthorhombic'
loop_
_space_group_symop_operation_xyz
x,y,z
-x,-y,z
1/2+x,1/2-y,-z
1/2-x,1/2+y,-z
-x,-y,-z
x,y,-z
1/2-x,1/2+y,z
1/2+x,1/2-y,z
loop_
_atom_site_type_symbol
_atom_site_label
_atom_site_fract_x
_atom_site_fract_y
_atom_site_fract_z
Si Si1 0.620948 0.641882 0.202585
Si Si2 0.779009 0.679802 0.500000
Si Si3 0.374018 0.846180 0.640705
Si Si4 0.536223 0.750530 0.000000
Si Si5 0.787917 0.110321 0.000000
O O1 0.605327 0.366686 0.264192
O O2 0.574629 0.739019 0.116149
O O3 0.626860 0.863867 0.306461
O O4 0.672670 0.615141 0.118094
O O5 0.768026 0.374414 0.500000
O O6 0.814568 0.740472 0.382257
O O7 0.396276 0.838897 0.500000
O O8 0.500000 0.500000 0.000000
O O9 0.500000 0.000000 0.000000
O O10 0.749372 0.358168 0.000000
#
# Coordination Sequence:
#
# PCOD9426550 Si02
#       5
#     8   4   8   4   4
#     4  11  22  41  62  88 122 160 199 255 309 358
#     4  10  20  32  50  84 118 160 212 236 270 338
#     4  10  22  36  59  85 120 165 193 242 302 356
#     4  11  24  43  70  94 114 151 210 265 314 368
#     4  11  24  37  56  86 120 163 202 245 300 358
#
# _framework density 19.563597999999999
#
# number of rings (size 3 to 8) (size 9 to 14) (size 15 to 20)
#    0.857    0.571    0.000    6.000    0.000   11.429 
#    0.000    0.000    0.000   17.143    0.000    0.000 
#    0.000    0.000    0.000    0.000    0.000    0.000 
#
# Total GULP energy -156114.999284 kJ/mol
# GULP energy per Si atom -5575.535689 kJ/mol
# Density = 1.951907 g / cm^3
# Si number density = 19.563598 Si / 1000 Ang^3
#
#
#
# Elastic Constant Matrix: (Units=GPa)
#
#
# Indices 1 2 3 4 5 6 
#
# 1 64.6275 0.2199 11.3617 0.0000 0.0000 0.0000
# 2 0.2199 90.3795 8.7865 0.0000 0.0000 0.0000
# 3 11.3617 8.7865 75.1115 0.0000 0.0000 0.0000
# 4 0.0000 0.0000 0.0000 40.4933 0.0000 0.0000
# 5 0.0000 0.0000 0.0000 0.0000 9.7523 0.0000
# 6 0.0000 0.0000 0.0000 0.0000 0.0000 36.0643
#
#
#
# Elastic Compliance Matrix: (Units=1/GPa)
#
#
# Indices 1 2 3 4 5 6 
#
# 1 0.015899 0.000197 -0.002428 0.000000 0.000000 0.000000
# 2 0.000197 0.011194 -0.001339 0.000000 0.000000 0.000000
# 3 -0.002428 -0.001339 0.013838 0.000000 0.000000 0.000000
# 4 0.000000 0.000000 0.000000 0.024695 0.000000 0.000000
# 5 0.000000 0.000000 0.000000 0.000000 0.102540 0.000000
# 6 0.000000 0.000000 0.000000 0.000000 0.000000 0.027728
#
#
# Mechanical properties :
#
#
# Convention : Reuss Voigt Hill
#
# Bulk Modulus (GPa) = 29.59368 30.09496 29.84432
# Shear Modulus (GPa) = 23.33195 31.24535 27.28865
#
# Velocity S-wave (km/s) = 3.45718 4.00073 3.73885
# Velocity P-wave (km/s) = 5.57637 6.06281 5.82467
#
# Compressibility (1/GPa) = 0.03379100
#
# Stress axis : x y z
#
# Youngs Moduli (GPa) = 62.89515 89.33211 72.26736
#
# Poissons Ratio (x) = -0.01763 0.17547
# Poissons Ratio (y) = -0.01241 0.09679
# Poissons Ratio (z) = 0.15272 0.11965
#
# Static dielectric constant tensor:
#      x y z
#    x 1.673740 0.000000 0.000000 
#    y 0.000000 1.655650 0.000000 
#    z 0.000000 0.000000 1.680730 
# 
# From -- ./inp_files/15493.got.cif
#   From: 2010.05.17/outbox.cif.g08.bks.cpg/sg55_8_cif.got.tgz:15493.got - 2010.06.03 13:27:54.
