data_PCOD9426706
_publ_section_title
;
Structure prediction by ZEFSAII (Michael W. Deem and Ramdas Pophale) SiO2 
 PCOD9426706
Probable space group: P B A M
;
_chemical_formula_sum "Si O2"
_cell_formula_units_Z 64
_cell_length_a 11.397553
_cell_length_b 28.207295
_cell_length_c 10.084738
_cell_angle_alpha 90.000000
_cell_angle_beta 90.000000
_cell_angle_gamma 90.000000
_cell_volume 3242.184168
_symmetry_space_group_name_H-M "P B A M"
_symmetry_group_IT_number 55
_symmetry_cell_setting 'orthorhombic'
loop_
_space_group_symop_operation_xyz
x,y,z
-x,-y,z
1/2+x,1/2-y,-z
1/2-x,1/2+y,-z
-x,-y,-z
x,y,-z
1/2-x,1/2+y,z
1/2+x,1/2-y,z
loop_
_atom_site_type_symbol
_atom_site_label
_atom_site_fract_x
_atom_site_fract_y
_atom_site_fract_z
Si Si1 0.869753 0.510773 0.153994
Si Si2 0.337224 0.734860 0.141212
Si Si3 0.784861 0.875436 0.151097
Si Si4 0.417344 0.149449 0.345095
Si Si5 0.021638 0.755492 0.347742
Si Si6 0.850882 0.187759 0.854863
Si Si7 0.374248 0.876639 0.150441
Si Si8 0.882537 0.973329 0.841155
O O1 0.746841 0.489948 0.209330
O O2 0.000000 0.500000 0.212350
O O3 0.857179 0.567222 0.154483
O O4 0.875676 0.493795 0.000000
O O5 0.328201 0.678611 0.151382
O O6 0.404899 0.755517 0.265457
O O7 0.214254 0.761434 0.133883
O O8 0.397714 0.746849 0.000000
O O9 0.684977 0.876120 0.262687
O O10 0.880738 0.916311 0.176197
O O11 0.739166 0.884145 0.000000
O O12 0.422969 0.135790 0.500000
O O13 0.403069 0.206885 0.342706
O O14 0.534505 0.137865 0.263013
O O15 0.998758 0.765954 0.500000
O O16 0.069731 0.801544 0.270904
O O17 0.749567 0.149620 0.832051
O O18 0.904750 0.176865 0.000000
O O19 0.416198 0.864246 0.000000
O O20 0.880690 0.982889 0.000000
O O21 0.000000 0.000000 0.790203
#
# Coordination Sequence:
#
# PCOD9426706 Si02
#       8
#     8   8   8   8   8   8   8   8
#     4   9  17  31  54  86 117 145 183 234 287 339
#     4  10  20  34  53  78 107 140 179 224 271 326
#     4  10  20  35  58  82 106 144 189 231 282 339
#     4  11  22  34  52  80 112 146 185 231 279 336
#     4  11  23  35  51  75 109 151 186 226 276 330
#     4  10  20  34  52  77 108 142 178 223 272 329
#     4  10  20  34  56  81 109 146 184 226 284 341
#     4   9  18  33  56  87 117 144 185 244 296 336
#
# _framework density 19.73978
#
# number of rings (size 3 to 8) (size 9 to 14) (size 15 to 20)
#    0.000    2.000    2.500    1.500    0.000    5.500 
#    0.000    3.750    0.000    3.750    0.000    0.000 
#    0.000    0.000    0.000    0.000    0.000    0.000 
#
# Total GULP energy -356462.274419 kJ/mol
# GULP energy per Si atom -5569.723038 kJ/mol
# Density = 1.969485 g / cm^3
# Si number density = 19.739780 Si / 1000 Ang^3
#
#
#
# Elastic Constant Matrix: (Units=GPa)
#
#
# Indices 1 2 3 4 5 6 
#
# 1 47.7226 5.0375 14.2387 0.0000 0.0000 0.0000
# 2 5.0375 82.2982 0.1562 0.0000 0.0000 0.0000
# 3 14.2387 0.1562 115.3022 0.0000 0.0000 0.0000
# 4 0.0000 0.0000 0.0000 10.8806 0.0000 0.0000
# 5 0.0000 0.0000 0.0000 0.0000 5.1063 0.0000
# 6 0.0000 0.0000 0.0000 0.0000 0.0000 30.5316
#
#
#
# Elastic Compliance Matrix: (Units=1/GPa)
#
#
# Indices 1 2 3 4 5 6 
#
# 1 0.021902 -0.001335 -0.002703 0.000000 0.000000 0.000000
# 2 -0.001335 0.012232 0.000148 0.000000 0.000000 0.000000
# 3 -0.002703 0.000148 0.009006 0.000000 0.000000 0.000000
# 4 0.000000 0.000000 0.000000 0.091907 0.000000 0.000000
# 5 0.000000 0.000000 0.000000 0.000000 0.195838 0.000000
# 6 0.000000 0.000000 0.000000 0.000000 0.000000 0.032753
#
#
# Mechanical properties :
#
#
# Convention : Reuss Voigt Hill
#
# Bulk Modulus (GPa) = 28.27998 31.57642 29.92820
# Shear Modulus (GPa) = 13.04784 24.36308 18.70546
#
# Velocity S-wave (km/s) = 2.57377 3.51695 3.08165
# Velocity P-wave (km/s) = 4.81558 5.70289 5.27792
#
# Compressibility (1/GPa) = 0.03536070
#
# Stress axis : x y z
#
# Youngs Moduli (GPa) = 45.65826 81.75016 111.03176
#
# Poissons Ratio (x) = 0.10918 0.30010
# Poissons Ratio (y) = 0.06098 -0.01647
# Poissons Ratio (z) = 0.12341 -0.01213
#
# Static dielectric constant tensor:
#      x y z
#    x 1.772580 0.000000 0.000000 
#    y 0.000000 1.716220 0.000000 
#    z 0.000000 0.000000 1.700830 
# 
# From -- ./inp_files/4636.got.cif
#   From: 2010.05.17/outbox.cif.g08.bks.cpg/sg55_3_cif.got.tgz:4636.got - 2010.06.03 13:27:54.
