data_PCOD9426402
_publ_section_title
;
Structure prediction by ZEFSAII (Michael W. Deem and Ramdas Pophale) SiO2 
 PCOD9426402
Probable space group: P B A M
;
_chemical_formula_sum "Si O2"
_cell_formula_units_Z 48
_cell_length_a 10.467897
_cell_length_b 30.986666
_cell_length_c 7.931408
_cell_angle_alpha 90.000000
_cell_angle_beta 90.000000
_cell_angle_gamma 90.000000
_cell_volume 2572.672965
_symmetry_space_group_name_H-M "P B A M"
_symmetry_group_IT_number 55
_symmetry_cell_setting 'orthorhombic'
loop_
_space_group_symop_operation_xyz
x,y,z
-x,-y,z
1/2+x,1/2-y,-z
1/2-x,1/2+y,-z
-x,-y,-z
x,y,-z
1/2-x,1/2+y,z
1/2+x,1/2-y,z
loop_
_atom_site_type_symbol
_atom_site_label
_atom_site_fract_x
_atom_site_fract_y
_atom_site_fract_z
Si Si1 0.387914 0.035436 0.809780
Si Si2 0.949176 0.071738 0.500000
Si Si3 0.448582 0.883428 0.704396
Si Si4 0.162227 0.875295 0.802330
Si Si5 0.296268 0.516589 0.500000
Si Si6 0.218404 0.777222 0.195716
Si Si7 0.503259 0.214832 0.303849
O O1 0.452670 0.081309 0.769030
O O2 0.287062 0.024253 0.666348
O O3 0.500000 0.000000 0.801076
O O4 0.335130 0.035181 0.000000
O O5 0.923910 0.099584 0.668195
O O6 0.087535 0.050223 0.500000
O O7 0.850540 0.031791 0.500000
O O8 0.440093 0.885077 0.500000
O O9 0.307813 0.891756 0.778524
O O10 0.488404 0.834858 0.755166
O O11 0.169230 0.824677 0.751587
O O12 0.125635 0.879091 0.000000
O O13 0.352631 0.766992 0.284906
O O14 0.105567 0.743052 0.217353
O O15 0.252108 0.781119 0.000000
O O16 0.469870 0.214160 0.500000
#
# Coordination Sequence:
#
# PCOD9426402 Si02
#       7
#     8   4   8   8   4   8   8
#     4  11  23  39  63  92 121 154 196 248 302 357
#     4  11  24  42  64  83 119 162 197 242 297 350
#     4  10  19  36  62  89 118 152 195 247 301 352
#     4  10  21  38  63  90 116 155 204 244 288 358
#     4  11  25  42  60  89 122 157 193 246 300 355
#     4  10  21  38  59  86 121 157 201 250 299 357
#     4  10  21  36  59  87 117 157 200 246 298 358
#
# _framework density 18.657639
#
# number of rings (size 3 to 8) (size 9 to 14) (size 15 to 20)
#    0.000    1.667    1.667    2.750    2.333    4.667 
#    3.000    1.667    0.000    0.000    0.000    0.000 
#    0.000    0.000    0.000    0.000    0.000    0.000 
#
# Total GULP energy -268101.088875 kJ/mol
# GULP energy per Si atom -5585.439352 kJ/mol
# Density = 1.861517 g / cm^3
# Si number density = 18.657639 Si / 1000 Ang^3
#
#
#
# Elastic Constant Matrix: (Units=GPa)
#
#
# Indices 1 2 3 4 5 6 
#
# 1 62.8480 44.5248 34.9559 0.0000 0.0000 0.0000
# 2 44.5248 58.6397 33.1782 0.0000 0.0000 0.0000
# 3 34.9559 33.1782 96.4303 0.0000 0.0000 0.0000
# 4 0.0000 0.0000 0.0000 25.0464 0.0000 0.0000
# 5 0.0000 0.0000 0.0000 0.0000 7.7056 0.0000
# 6 0.0000 0.0000 0.0000 0.0000 0.0000 22.6218
#
#
#
# Elastic Compliance Matrix: (Units=1/GPa)
#
#
# Indices 1 2 3 4 5 6 
#
# 1 0.035954 -0.024742 -0.004521 0.000000 0.000000 0.000000
# 2 -0.024742 0.038202 -0.004175 0.000000 0.000000 0.000000
# 3 -0.004521 -0.004175 0.013445 0.000000 0.000000 0.000000
# 4 0.000000 0.000000 0.000000 0.039926 0.000000 0.000000
# 5 0.000000 0.000000 0.000000 0.000000 0.129775 0.000000
# 6 0.000000 0.000000 0.000000 0.000000 0.000000 0.044205
#
#
# Mechanical properties :
#
#
# Convention : Reuss Voigt Hill
#
# Bulk Modulus (GPa) = 48.24764 49.24844 48.74804
# Shear Modulus (GPa) = 13.32293 18.09204 15.70748
#
# Velocity S-wave (km/s) = 2.67512 3.11736 2.90466
# Velocity P-wave (km/s) = 5.95460 6.27777 6.11832
#
# Compressibility (1/GPa) = 0.02072640
#
# Stress axis : x y z
#
# Youngs Moduli (GPa) = 27.81294 26.17652 74.37542
#
# Poissons Ratio (x) = 0.64767 0.33622
# Poissons Ratio (y) = 0.68816 0.31051
# Poissons Ratio (z) = 0.12573 0.10928
#
# Static dielectric constant tensor:
#      x y z
#    x 1.606970 0.000000 0.000000 
#    y 0.000000 1.650490 0.000000 
#    z 0.000000 0.000000 1.658240 
# 
# From -- ./inp_files/3007.got.cif
#   From: 2010.05.17/outbox.cif.g08.bks.cpg/sg55_2_cif.got.tgz:3007.got - 2010.06.03 13:27:54.
