data_PCOD9426744
_publ_section_title
;
Structure prediction by ZEFSAII (Michael W. Deem and Ramdas Pophale) SiO2 
 PCOD9426744
Probable space group: P B A M
;
_chemical_formula_sum "Si O2"
_cell_formula_units_Z 56
_cell_length_a 20.709991
_cell_length_b 9.073951
_cell_length_c 15.186459
_cell_angle_alpha 90.000000
_cell_angle_beta 90.000000
_cell_angle_gamma 90.000000
_cell_volume 2853.861298
_symmetry_space_group_name_H-M "P B A M"
_symmetry_group_IT_number 55
_symmetry_cell_setting 'orthorhombic'
loop_
_space_group_symop_operation_xyz
x,y,z
-x,-y,z
1/2+x,1/2-y,-z
1/2-x,1/2+y,-z
-x,-y,-z
x,y,-z
1/2-x,1/2+y,z
1/2+x,1/2-y,z
loop_
_atom_site_type_symbol
_atom_site_label
_atom_site_fract_x
_atom_site_fract_y
_atom_site_fract_z
Si Si1 0.375567 0.332386 0.404658
Si Si2 0.699397 0.525186 0.275750
Si Si3 0.679489 0.976810 0.602073
Si Si4 0.744763 0.785025 0.843846
Si Si5 0.482194 0.673130 0.400524
Si Si6 0.346069 0.944338 0.097611
Si Si7 0.066967 0.407192 0.271958
O O1 0.367873 0.403340 0.500000
O O2 0.365102 0.452153 0.330221
O O3 0.445498 0.259031 0.401712
O O4 0.324402 0.201014 0.396004
O O5 0.757282 0.529136 0.346670
O O6 0.709850 0.377369 0.222102
O O7 0.705461 0.662671 0.210111
O O8 0.677817 0.022967 0.500000
O O9 0.618579 0.028221 0.658754
O O10 0.793538 0.688229 0.901701
O O11 0.695670 0.905912 0.883768
O O12 0.500000 0.500000 0.393926
O O13 0.454384 0.699001 0.500000
O O14 0.448512 0.749174 0.317426
O O15 0.396521 0.915515 0.177207
O O16 0.375467 0.954170 0.000000
O O17 0.000000 0.500000 0.267246
#
# Coordination Sequence:
#
# PCOD9426744 Si02
#       7
#     8   8   8   8   8   8   8
#     4  10  20  34  53  82 124 166 204 250 293 347
#     4  11  19  36  56  90 122 157 196 248 308 361
#     4  11  21  35  57  89 125 165 207 247 291 353
#     4  10  21  38  65  88 120 151 195 251 317 378
#     4  10  23  39  57  86 122 166 214 247 286 347
#     4  11  24  44  68  96 119 152 201 261 324 382
#     4  12  23  40  63  88 123 167 209 254 297 362
#
# _framework density 19.622537000000001
#
# number of rings (size 3 to 8) (size 9 to 14) (size 15 to 20)
#    0.000    1.286    5.714    1.286    2.000    0.857 
#    0.000    0.000    0.000    0.429    0.000    0.000 
#    0.000    0.000    0.000    0.000    0.000    0.000 
#
# Total GULP energy -312183.712254 kJ/mol
# GULP energy per Si atom -5574.709147 kJ/mol
# Density = 1.957788 g / cm^3
# Si number density = 19.622537 Si / 1000 Ang^3
#
#
#
# Elastic Constant Matrix: (Units=GPa)
#
#
# Indices 1 2 3 4 5 6 
#
# 1 68.5054 22.9440 44.7147 0.0000 0.0000 0.0000
# 2 22.9440 90.8649 42.4821 0.0000 0.0000 0.0000
# 3 44.7147 42.4821 140.7715 0.0000 0.0000 0.0000
# 4 0.0000 0.0000 0.0000 -0.7829 0.0000 0.0000
# 5 0.0000 0.0000 0.0000 0.0000 30.6927 0.0000
# 6 0.0000 0.0000 0.0000 0.0000 0.0000 25.2509
#
#
#
# Elastic Compliance Matrix: (Units=1/GPa)
#
#
# Indices 1 2 3 4 5 6 
#
# 1 0.018812 -0.002278 -0.005288 0.000000 0.000000 0.000000
# 2 -0.002278 0.013089 -0.003226 0.000000 0.000000 0.000000
# 3 -0.005288 -0.003226 0.009757 0.000000 0.000000 0.000000
# 4 0.000000 0.000000 0.000000 -1.277379 0.000000 0.000000
# 5 0.000000 0.000000 0.000000 0.000000 0.032581 0.000000
# 6 0.000000 0.000000 0.000000 0.000000 0.000000 0.039603
#
#
# Mechanical properties :
#
#
# Convention : Reuss Voigt Hill
#
# Bulk Modulus (GPa) = 49.81733 57.82480 53.82107
# Shear Modulus (GPa) = -4.40427 23.69888 9.64731
#
# Velocity S-wave (km/s) = -1.49979 3.47902 2.21971
# Velocity P-wave (km/s) = 4.73749 6.75801 5.83586
#
# Compressibility (1/GPa) = 0.02007334
#
# Stress axis : x y z
#
# Youngs Moduli (GPa) = 53.15803 76.40009 102.48970
#
# Poissons Ratio (x) = 0.17403 0.54196
# Poissons Ratio (y) = 0.12108 0.33068
# Poissons Ratio (z) = 0.28110 0.24650
#
# Static dielectric constant tensor:
#      x y z
#    x 1.732840 0.000000 0.000000 
#    y 0.000000 1.716430 0.000000 
#    z 0.000000 0.000000 1.700450 
# 
# From -- ./inp_files/19727.got.cif
#   From: 2010.05.17/outbox.cif.g08.bks.cpg/sg55_10_cif.got.tgz:19727.got - 2010.06.03 13:27:54.
