data_PCOD9426023
_publ_section_title
;
Structure prediction by ZEFSAII (Michael W. Deem and Ramdas Pophale) SiO2 
 PCOD9426023
Probable space group: P B A M
;
_chemical_formula_sum "Si O2"
_cell_formula_units_Z 56
_cell_length_a 14.528743
_cell_length_b 14.990020
_cell_length_c 14.352086
_cell_angle_alpha 90.000000
_cell_angle_beta 90.000000
_cell_angle_gamma 90.000000
_cell_volume 3125.685528
_symmetry_space_group_name_H-M "P B A M"
_symmetry_group_IT_number 55
_symmetry_cell_setting 'orthorhombic'
loop_
_space_group_symop_operation_xyz
x,y,z
-x,-y,z
1/2+x,1/2-y,-z
1/2-x,1/2+y,-z
-x,-y,-z
x,y,-z
1/2-x,1/2+y,z
1/2+x,1/2-y,z
loop_
_atom_site_type_symbol
_atom_site_label
_atom_site_fract_x
_atom_site_fract_y
_atom_site_fract_z
Si Si1 0.765075 0.252347 0.745281
Si Si2 0.124254 0.322652 0.391097
Si Si3 0.907725 0.310226 0.392736
Si Si4 0.279420 0.014495 0.606003
Si Si5 0.983281 0.893684 0.897025
Si Si6 0.810967 0.927987 0.211528
Si Si7 0.693150 0.612614 0.108189
O O1 0.680732 0.244843 0.673004
O O2 0.855810 0.247442 0.680958
O O3 0.761831 0.348058 0.795137
O O4 0.754131 0.175783 0.820992
O O5 0.136813 0.299813 0.500000
O O6 0.168756 0.420814 0.377057
O O7 0.015372 0.322761 0.372102
O O8 0.898702 0.278037 0.500000
O O9 0.853654 0.404921 0.388443
O O10 0.243175 0.013618 0.500000
O O11 0.203068 0.032482 0.684842
O O12 0.085745 0.858025 0.881563
O O13 0.908247 0.883880 0.816896
O O14 0.949645 0.864571 0.000000
O O15 0.000000 0.000000 0.902407
O O16 0.797105 0.010524 0.141617
O O17 0.717890 0.620909 0.000000
#
# Coordination Sequence:
#
# PCOD9426023 Si02
#       7
#     8   8   8   8   8   8   8
#     4  11  22  33  57  85 110 140 182 228 276 324
#     4  10  19  34  56  80 111 148 180 217 270 323
#     4   9  19  34  54  81 113 145 181 223 261 320
#     4   9  17  32  54  81 109 143 183 218 260 323
#     4   8  16  32  55  75  98 138 182 221 263 320
#     4  10  19  34  55  81 107 140 175 227 271 317
#     4  10  21  38  56  77 106 140 187 235 276 326
#
# _framework density 17.916069
#
# number of rings (size 3 to 8) (size 9 to 14) (size 15 to 20)
#    0.000    2.429    1.429    2.143    2.000    3.429 
#    0.000    0.000    0.000    3.857    0.000    2.000 
#    0.000    0.000    0.000    0.000    0.000    0.000 
#
# Total GULP energy -311881.743133 kJ/mol
# GULP energy per Si atom -5569.316842 kJ/mol
# Density = 1.787529 g / cm^3
# Si number density = 17.916069 Si / 1000 Ang^3
#
#
#
# Elastic Constant Matrix: (Units=GPa)
#
#
# Indices 1 2 3 4 5 6 
#
# 1 63.4824 -3.0698 54.0928 0.0000 0.0000 0.0000
# 2 -3.0698 44.4628 25.3722 0.0000 0.0000 0.0000
# 3 54.0928 25.3722 106.4933 0.0000 0.0000 0.0000
# 4 0.0000 0.0000 0.0000 12.2022 0.0000 0.0000
# 5 0.0000 0.0000 0.0000 0.0000 26.4477 0.0000
# 6 0.0000 0.0000 0.0000 0.0000 0.0000 15.6352
#
#
#
# Elastic Compliance Matrix: (Units=1/GPa)
#
#
# Indices 1 2 3 4 5 6 
#
# 1 0.034039 0.014139 -0.020659 0.000000 0.000000 0.000000
# 2 0.014139 0.031902 -0.014783 0.000000 0.000000 0.000000
# 3 -0.020659 -0.014783 0.023406 0.000000 0.000000 0.000000
# 4 0.000000 0.000000 0.000000 0.081952 0.000000 0.000000
# 5 0.000000 0.000000 0.000000 0.000000 0.037810 0.000000
# 6 0.000000 0.000000 0.000000 0.000000 0.000000 0.063958
#
#
# Mechanical properties :
#
#
# Convention : Reuss Voigt Hill
#
# Bulk Modulus (GPa) = 21.39383 40.80322 31.09852
# Shear Modulus (GPa) = 15.09417 20.05992 17.57704
#
# Velocity S-wave (km/s) = 2.90572 3.34976 3.13561
# Velocity P-wave (km/s) = 4.81920 6.14698 5.52313
#
# Compressibility (1/GPa) = 0.04674245
#
# Stress axis : x y z
#
# Youngs Moduli (GPa) = 29.37794 31.34562 42.72464
#
# Poissons Ratio (x) = -0.44319 0.88263
# Poissons Ratio (y) = -0.41537 0.63158
# Poissons Ratio (z) = 0.60691 0.46337
#
# Static dielectric constant tensor:
#      x y z
#    x 1.624940 0.000000 0.000000 
#    y 0.000000 1.628570 0.000000 
#    z 0.000000 0.000000 1.626120 
# 
# From -- ./inp_files/14210.got.cif
#   From: 2010.05.17/outbox.cif.g08.bks.cpg/sg55_8_cif.got.tgz:14210.got - 2010.06.03 13:27:54.
