data_PCOD9426040
_publ_section_title
;
Structure prediction by ZEFSAII (Michael W. Deem and Ramdas Pophale) SiO2 
 PCOD9426040
Probable space group: P B A M
;
_chemical_formula_sum "Si O2"
_cell_formula_units_Z 64
_cell_length_a 24.723135
_cell_length_b 13.648277
_cell_length_c 9.074894
_cell_angle_alpha 90.000000
_cell_angle_beta 90.000000
_cell_angle_gamma 90.000000
_cell_volume 3062.125100
_symmetry_space_group_name_H-M "P B A M"
_symmetry_group_IT_number 55
_symmetry_cell_setting 'orthorhombic'
loop_
_space_group_symop_operation_xyz
x,y,z
-x,-y,z
1/2+x,1/2-y,-z
1/2-x,1/2+y,-z
-x,-y,-z
x,y,-z
1/2-x,1/2+y,z
1/2+x,1/2-y,z
loop_
_atom_site_type_symbol
_atom_site_label
_atom_site_fract_x
_atom_site_fract_y
_atom_site_fract_z
Si Si1 0.671503 0.863098 0.330883
Si Si2 0.557715 0.181446 0.328426
Si Si3 0.831488 0.599189 0.669767
Si Si4 0.887642 0.886454 0.330381
Si Si5 0.443417 0.227353 0.321458
Si Si6 0.602799 0.590616 0.822451
Si Si7 0.721063 0.365337 0.832474
Si Si8 0.223269 0.896216 0.168216
O O1 0.681317 0.831215 0.500000
O O2 0.612320 0.827442 0.284591
O O3 0.721368 0.830533 0.229523
O O4 0.670530 0.981326 0.330745
O O5 0.556102 0.148544 0.500000
O O6 0.610914 0.130735 0.262392
O O7 0.570555 0.297292 0.324747
O O8 0.497142 0.170370 0.269723
O O9 0.830003 0.633980 0.500000
O O10 0.777290 0.635306 0.748863
O O11 0.880863 0.917405 0.500000
O O12 0.830462 0.845790 0.270019
O O13 0.904311 0.980173 0.234706
O O14 0.446403 0.236506 0.500000
O O15 0.438865 0.333711 0.247704
O O16 0.663302 0.624277 0.770809
O O17 0.601903 0.592394 0.000000
O O18 0.724615 0.484507 0.833699
O O19 0.710932 0.334207 0.000000
O O20 0.225244 0.862696 0.000000
#
# Coordination Sequence:
#
# PCOD9426040 Si02
#       8
#     8   8   8   8   8   8   8   8
#     4   9  18  32  54  81 106 137 177 218 260 310
#     4   9  20  36  53  76 105 137 176 220 264 310
#     4   9  17  32  54  79 106 135 169 212 259 308
#     4  10  19  34  56  79 105 138 175 217 265 318
#     4  10  21  37  54  75 104 139 181 222 261 311
#     4  10  21  37  55  78 107 138 173 216 268 319
#     4   9  17  31  52  78 109 140 170 212 265 317
#     4   8  16  31  50  74 103 132 164 205 257 315
#
# _framework density 20.900516
#
# number of rings (size 3 to 8) (size 9 to 14) (size 15 to 20)
#    0.000    2.750    0.000    1.875    0.000    6.000 
#    0.000   11.875    0.000    0.000    0.000    4.375 
#    0.000    0.000    0.000    0.000    0.000    0.000 
#
# Total GULP energy -357199.680790 kJ/mol
# GULP energy per Si atom -5581.245012 kJ/mol
# Density = 2.085295 g / cm^3
# Si number density = 20.900516 Si / 1000 Ang^3
#
#
#
# Elastic Constant Matrix: (Units=GPa)
#
#
# Indices 1 2 3 4 5 6 
#
# 1 89.2504 -6.8733 27.8221 0.0000 0.0000 0.0000
# 2 -6.8733 24.5723 0.1923 0.0000 0.0000 0.0000
# 3 27.8221 0.1923 43.9510 0.0000 0.0000 0.0000
# 4 0.0000 0.0000 0.0000 14.5094 0.0000 0.0000
# 5 0.0000 0.0000 0.0000 0.0000 3.8942 0.0000
# 6 0.0000 0.0000 0.0000 0.0000 0.0000 24.4443
#
#
#
# Elastic Compliance Matrix: (Units=1/GPa)
#
#
# Indices 1 2 3 4 5 6 
#
# 1 0.014358 0.004088 -0.009107 0.000000 0.000000 0.000000
# 2 0.004088 0.041861 -0.002771 0.000000 0.000000 0.000000
# 3 -0.009107 -0.002771 0.028530 0.000000 0.000000 0.000000
# 4 0.000000 0.000000 0.000000 0.068921 0.000000 0.000000
# 5 0.000000 0.000000 0.000000 0.000000 0.256794 0.000000
# 6 0.000000 0.000000 0.000000 0.000000 0.000000 0.040909
#
#
# Mechanical properties :
#
#
# Convention : Reuss Voigt Hill
#
# Bulk Modulus (GPa) = 14.45736 22.22842 18.34289
# Shear Modulus (GPa) = 10.20388 17.67842 13.94115
#
# Velocity S-wave (km/s) = 2.21195 2.91148 2.58548
# Velocity P-wave (km/s) = 3.66822 4.68623 4.20812
#
# Compressibility (1/GPa) = 0.06916891
#
# Stress axis : x y z
#
# Youngs Moduli (GPa) = 69.64694 23.88843 35.05120
#
# Poissons Ratio (x) = -0.09764 0.31921
# Poissons Ratio (y) = -0.28468 0.09711
# Poissons Ratio (z) = 0.63427 0.06619
#
# Static dielectric constant tensor:
#      x y z
#    x 1.760640 0.000000 0.000000 
#    y 0.000000 1.798200 0.000000 
#    z 0.000000 0.000000 1.724470 
# 
# From -- ./inp_files/9657.got.cif
#   From: 2010.05.17/outbox.cif.g08.bks.cpg/sg55_5_cif.got.tgz:9657.got - 2010.06.03 13:27:54.
