data_PCOD9426288
_publ_section_title
;
Structure prediction by ZEFSAII (Michael W. Deem and Ramdas Pophale) SiO2 
 PCOD9426288
Probable space group: P B A M
;
_chemical_formula_sum "Si O2"
_cell_formula_units_Z 48
_cell_length_a 30.307114
_cell_length_b 11.058227
_cell_length_c 7.683494
_cell_angle_alpha 90.000000
_cell_angle_beta 90.000000
_cell_angle_gamma 90.000000
_cell_volume 2575.068817
_symmetry_space_group_name_H-M "P B A M"
_symmetry_group_IT_number 55
_symmetry_cell_setting 'orthorhombic'
loop_
_space_group_symop_operation_xyz
x,y,z
-x,-y,z
1/2+x,1/2-y,-z
1/2-x,1/2+y,-z
-x,-y,-z
x,y,-z
1/2-x,1/2+y,z
1/2+x,1/2-y,z
loop_
_atom_site_type_symbol
_atom_site_label
_atom_site_fract_x
_atom_site_fract_y
_atom_site_fract_z
Si Si1 0.957175 0.060942 0.697425
Si Si2 0.845703 0.399787 0.204831
Si Si3 0.225656 0.638579 0.500000
Si Si4 0.362175 0.378085 0.194462
Si Si5 0.706596 0.582351 0.500000
Si Si6 0.571079 0.039389 0.209942
Si Si7 0.492401 0.186611 0.789160
O O1 0.952828 0.014378 0.500000
O O2 0.909147 0.056717 0.782232
O O3 0.971675 0.199684 0.697898
O O4 0.000000 0.000000 0.783497
O O5 0.803946 0.390054 0.329714
O O6 0.868793 0.267268 0.214773
O O7 0.880230 0.501869 0.267830
O O8 0.835081 0.419250 0.000000
O O9 0.264732 0.540018 0.500000
O O10 0.232319 0.786144 0.500000
O O11 0.326055 0.415483 0.334588
O O12 0.345504 0.398639 0.000000
O O13 0.542517 0.154869 0.266464
O O14 0.539032 0.926872 0.248332
O O15 0.573829 0.046866 0.000000
O O16 0.491687 0.203902 0.000000
#
# Coordination Sequence:
#
# PCOD9426288 Si02
#       7
#     8   8   4   8   4   8   8
#     4  11  22  34  48  73 111 150 189 228 259 306
#     4   9  17  32  56  85 111 139 184 229 271 331
#     4  10  22  38  62  84 111 146 177 232 296 343
#     4  10  19  35  61  83 106 146 188 227 270 326
#     4  10  22  42  61  87 114 139 183 234 288 347
#     4   8  14  27  48  74 105 135 168 220 267 306
#     4   9  16  28  47  71 103 141 177 215 262 305
#
# _framework density 18.640280000000001
#
# number of rings (size 3 to 8) (size 9 to 14) (size 15 to 20)
#    0.000    2.500    2.500    1.500    0.000    2.000 
#    1.500    2.500    0.000    2.000    0.000    0.000 
#    0.000    0.000    0.000    0.000    0.000    0.000 
#
# Total GULP energy -267290.487690 kJ/mol
# GULP energy per Si atom -5568.551827 kJ/mol
# Density = 1.859785 g / cm^3
# Si number density = 18.640280 Si / 1000 Ang^3
#
#
#
# Elastic Constant Matrix: (Units=GPa)
#
#
# Indices 1 2 3 4 5 6 
#
# 1 86.9448 39.5238 40.4589 0.0000 0.0000 0.0000
# 2 39.5238 35.7255 17.0580 0.0000 0.0000 0.0000
# 3 40.4589 17.0580 80.9975 0.0000 0.0000 0.0000
# 4 0.0000 0.0000 0.0000 10.8626 0.0000 0.0000
# 5 0.0000 0.0000 0.0000 0.0000 16.3365 0.0000
# 6 0.0000 0.0000 0.0000 0.0000 0.0000 38.8953
#
#
#
# Elastic Compliance Matrix: (Units=1/GPa)
#
#
# Indices 1 2 3 4 5 6 
#
# 1 0.027157 -0.026202 -0.008047 0.000000 0.000000 0.000000
# 2 -0.026202 0.056401 0.001210 0.000000 0.000000 0.000000
# 3 -0.008047 0.001210 0.016111 0.000000 0.000000 0.000000
# 4 0.000000 0.000000 0.000000 0.092059 0.000000 0.000000
# 5 0.000000 0.000000 0.000000 0.000000 0.061213 0.000000
# 6 0.000000 0.000000 0.000000 0.000000 0.000000 0.025710
#
#
# Mechanical properties :
#
#
# Convention : Reuss Voigt Hill
#
# Bulk Modulus (GPa) = 29.76985 44.19434 36.98209
# Shear Modulus (GPa) = 14.04783 20.32736 17.18759
#
# Velocity S-wave (km/s) = 2.74821 3.30587 3.03985
# Velocity P-wave (km/s) = 5.10642 6.19130 5.67485
#
# Compressibility (1/GPa) = 0.03359103
#
# Stress axis : x y z
#
# Youngs Moduli (GPa) = 36.82240 17.73003 62.07016
#
# Poissons Ratio (x) = 0.46457 0.49949
# Poissons Ratio (y) = 0.96483 -0.07512
# Poissons Ratio (z) = 0.29631 -0.02146
#
# Static dielectric constant tensor:
#      x y z
#    x 1.651140 0.000000 0.000000 
#    y 0.000000 1.670140 0.000000 
#    z 0.000000 0.000000 1.666230 
# 
# From -- ./inp_files/9466.got.cif
#   From: 2010.05.17/outbox.cif.g08.bks.cpg/sg55_5_cif.got.tgz:9466.got - 2010.06.03 13:27:54.
