data_PCOD9426939
_publ_section_title
;
Structure prediction by ZEFSAII (Michael W. Deem and Ramdas Pophale) SiO2 
 PCOD9426939
Probable space group: P B A M
;
_chemical_formula_sum "Si O2"
_cell_formula_units_Z 42
_cell_length_a 8.136330
_cell_length_b 23.746395
_cell_length_c 9.641377
_cell_angle_alpha 90.000000
_cell_angle_beta 90.000000
_cell_angle_gamma 90.000000
_cell_volume 1862.796046
_symmetry_space_group_name_H-M "P B A M"
_symmetry_group_IT_number 55
_symmetry_cell_setting 'orthorhombic'
loop_
_space_group_symop_operation_xyz
x,y,z
-x,-y,z
1/2+x,1/2-y,-z
1/2-x,1/2+y,-z
-x,-y,-z
x,y,-z
1/2-x,1/2+y,z
1/2+x,1/2-y,z
loop_
_atom_site_type_symbol
_atom_site_label
_atom_site_fract_x
_atom_site_fract_y
_atom_site_fract_z
Si Si1 0.856805 0.435978 0.731554
Si Si2 0.336786 0.861765 0.658861
Si Si3 0.505234 0.769599 0.837713
Si Si4 0.846428 0.838149 0.838528
Si Si5 0.500000 0.000000 0.000000
Si Si6 0.357077 0.463971 0.659049
O O1 0.703341 0.393309 0.753898
O O2 0.793059 0.492013 0.657950
O O3 0.998004 0.400132 0.658395
O O4 0.927882 0.457247 0.878474
O O5 0.296220 0.846794 0.500000
O O6 0.383416 0.808494 0.749860
O O7 0.201907 0.905010 0.720823
O O8 0.683144 0.798445 0.829690
O O9 0.489290 0.704623 0.791742
O O10 0.456976 0.770600 0.000000
O O11 0.872357 0.853619 0.000000
O O12 0.500000 0.500000 0.730785
O O13 0.406020 0.451795 0.500000
#
# Coordination Sequence:
#
# PCOD9426939 Si02
#       6
#     8   8   8   8   2   8
#     4  11  20  34  59  81 115 144 187 231 283 331
#     4  10  20  35  56  79 104 142 189 227 272 333
#     4   9  19  34  55  74 103 139 178 223 273 328
#     4   9  18  33  52  77 103 138 178 221 272 332
#     4  12  20  32  60  88 112 148 188 240 264 346
#     4  10  21  36  53  77 109 144 180 224 283 335
#
# _framework density 22.546752000000001
#
# number of rings (size 3 to 8) (size 9 to 14) (size 15 to 20)
#    0.000    2.095    2.857    0.571    1.333    3.048 
#    0.000    5.238    0.000    0.000    0.000    0.000 
#    0.000    0.000    0.000    0.000    0.000    0.000 
#
# Total GULP energy -233873.309206 kJ/mol
# GULP energy per Si atom -5568.412124 kJ/mol
# Density = 2.249543 g / cm^3
# Si number density = 22.546752 Si / 1000 Ang^3
#
#
#
# Elastic Constant Matrix: (Units=GPa)
#
#
# Indices 1 2 3 4 5 6 
#
# 1 38.3121 4.5355 -5.3432 0.0000 0.0000 0.0000
# 2 4.5355 119.5835 11.1187 0.0000 0.0000 0.0000
# 3 -5.3432 11.1187 51.0011 0.0000 0.0000 0.0000
# 4 0.0000 0.0000 0.0000 17.9978 0.0000 0.0000
# 5 0.0000 0.0000 0.0000 0.0000 6.3501 0.0000
# 6 0.0000 0.0000 0.0000 0.0000 0.0000 47.9957
#
#
#
# Elastic Compliance Matrix: (Units=1/GPa)
#
#
# Indices 1 2 3 4 5 6 
#
# 1 0.026684 -0.001298 0.003079 0.000000 0.000000 0.000000
# 2 -0.001298 0.008599 -0.002011 0.000000 0.000000 0.000000
# 3 0.003079 -0.002011 0.020368 0.000000 0.000000 0.000000
# 4 0.000000 0.000000 0.000000 0.055562 0.000000 0.000000
# 5 0.000000 0.000000 0.000000 0.000000 0.157479 0.000000
# 6 0.000000 0.000000 0.000000 0.000000 0.000000 0.020835
#
#
# Mechanical properties :
#
#
# Convention : Reuss Voigt Hill
#
# Bulk Modulus (GPa) = 18.11894 25.50209 21.81052
# Shear Modulus (GPa) = 16.21351 27.70777 21.96064
#
# Velocity S-wave (km/s) = 2.68452 3.50937 3.12429
# Velocity P-wave (km/s) = 4.20268 5.26842 4.76544
#
# Compressibility (1/GPa) = 0.05519085
#
# Stress axis : x y z
#
# Youngs Moduli (GPa) = 37.47498 116.29881 49.09595
#
# Poissons Ratio (x) = 0.15099 -0.15115
# Poissons Ratio (y) = 0.04865 0.09871
# Poissons Ratio (z) = -0.11537 0.23383
#
# Static dielectric constant tensor:
#      x y z
#    x 1.955330 0.000000 0.000000 
#    y 0.000000 1.832540 0.000000 
#    z 0.000000 0.000000 1.789360 
# 
# From -- ./inp_files/12168.got.cif
#   From: 2010.05.17/outbox.cif.g08.bks.cpg/sg55_7_cif.got.tgz:12168.got - 2010.06.03 13:27:54.
