data_PCOD9426148
_publ_section_title
;
Structure prediction by ZEFSAII (Michael W. Deem and Ramdas Pophale) SiO2 
 PCOD9426148
Probable space group: P B A M
;
_chemical_formula_sum "Si O2"
_cell_formula_units_Z 58
_cell_length_a 18.528958
_cell_length_b 14.090946
_cell_length_c 11.152392
_cell_angle_alpha 90.000000
_cell_angle_beta 90.000000
_cell_angle_gamma 90.000000
_cell_volume 2911.784123
_symmetry_space_group_name_H-M "P B A M"
_symmetry_group_IT_number 55
_symmetry_cell_setting 'orthorhombic'
loop_
_space_group_symop_operation_xyz
x,y,z
-x,-y,z
1/2+x,1/2-y,-z
1/2-x,1/2+y,-z
-x,-y,-z
x,y,-z
1/2-x,1/2+y,z
1/2+x,1/2-y,z
loop_
_atom_site_type_symbol
_atom_site_label
_atom_site_fract_x
_atom_site_fract_y
_atom_site_fract_z
Si Si1 0.250251 0.516256 0.250258
Si Si2 0.630509 0.119098 0.357765
Si Si3 0.858175 0.355215 0.136707
Si Si4 0.012645 0.858212 0.299261
Si Si5 0.142887 0.865088 0.861437
Si Si6 0.000000 0.000000 0.500000
Si Si7 0.466334 0.138795 0.641080
Si Si8 0.143747 0.162472 0.641937
O O1 0.186898 0.456098 0.310798
O O2 0.210453 0.576232 0.147100
O O3 0.308774 0.439641 0.209246
O O4 0.289341 0.594847 0.332487
O O5 0.631506 0.116523 0.500000
O O6 0.546505 0.100927 0.326267
O O7 0.653979 0.227006 0.326286
O O8 0.835509 0.245391 0.156395
O O9 0.911157 0.380309 0.249068
O O10 0.888875 0.361183 0.000000
O O11 0.060437 0.868709 0.182454
O O12 0.036977 0.934232 0.395986
O O13 0.024128 0.753150 0.353734
O O14 0.926876 0.869445 0.285221
O O15 0.149364 0.887403 0.000000
O O16 0.448416 0.113120 0.500000
O O17 0.123069 0.154312 0.500000
#
# Coordination Sequence:
#
# PCOD9426148 Si02
#       8
#     8   8   8   8   8   2   8   8
#     4  12  22  37  58  88 117 164 201 243 294 364
#     4   9  20  38  59  88 123 157 195 247 307 360
#     4  10  23  42  63  87 120 157 202 254 303 360
#     4  10  19  34  59  87 114 151 193 249 302 349
#     4  10  23  42  60  84 119 160 203 248 300 359
#     4  12  16  28  54  92 116 134 188 244 296 352
#     4   9  18  39  64  86 116 156 199 252 305 355
#     4  10  20  37  57  86 125 157 194 247 301 360
#
# _framework density 19.919060000000002
#
# number of rings (size 3 to 8) (size 9 to 14) (size 15 to 20)
#    0.000    1.931    1.379    3.310    0.000    1.655 
#    1.241    8.621    0.000    6.621    0.000    0.000 
#    0.000    0.000    0.000    0.000    0.000    0.000 
#
# Total GULP energy -322933.805256 kJ/mol
# GULP energy per Si atom -5567.824229 kJ/mol
# Density = 1.987372 g / cm^3
# Si number density = 19.919060 Si / 1000 Ang^3
#
#
#
# Elastic Constant Matrix: (Units=GPa)
#
#
# Indices 1 2 3 4 5 6 
#
# 1 88.2798 55.0006 40.7011 0.0000 0.0000 0.0000
# 2 55.0006 95.8119 24.5530 0.0000 0.0000 0.0000
# 3 40.7011 24.5530 51.6985 0.0000 0.0000 0.0000
# 4 0.0000 0.0000 0.0000 2.0877 0.0000 0.0000
# 5 0.0000 0.0000 0.0000 0.0000 19.4916 0.0000
# 6 0.0000 0.0000 0.0000 0.0000 0.0000 34.0507
#
#
#
# Elastic Compliance Matrix: (Units=1/GPa)
#
#
# Indices 1 2 3 4 5 6 
#
# 1 0.024321 -0.010309 -0.014251 0.000000 0.000000 0.000000
# 2 -0.010309 0.016253 0.000397 0.000000 0.000000 0.000000
# 3 -0.014251 0.000397 0.030374 0.000000 0.000000 0.000000
# 4 0.000000 0.000000 0.000000 0.479005 0.000000 0.000000
# 5 0.000000 0.000000 0.000000 0.000000 0.051304 0.000000
# 6 0.000000 0.000000 0.000000 0.000000 0.000000 0.029368
#
#
# Mechanical properties :
#
#
# Convention : Reuss Voigt Hill
#
# Bulk Modulus (GPa) = 44.20559 52.92217 48.56388
# Shear Modulus (GPa) = 7.28339 18.82834 13.05587
#
# Velocity S-wave (km/s) = 1.91427 3.07782 2.56295
# Velocity P-wave (km/s) = 5.20833 6.26553 5.76123
#
# Compressibility (1/GPa) = 0.02262157
#
# Stress axis : x y z
#
# Youngs Moduli (GPa) = 41.11638 61.52541 32.92280
#
# Poissons Ratio (x) = 0.63429 0.46919
# Poissons Ratio (y) = 0.42389 -0.01308
# Poissons Ratio (z) = 0.58596 -0.02444
#
# Static dielectric constant tensor:
#      x y z
#    x 1.734880 0.000000 0.000000 
#    y 0.000000 1.791830 0.000000 
#    z 0.000000 0.000000 1.667830 
# 
# From -- ./inp_files/14928.got.cif
#   From: 2010.05.17/outbox.cif.g08.bks.cpg/sg55_8_cif.got.tgz:14928.got - 2010.06.03 13:27:54.
