data_PCOD9426385
_publ_section_title
;
Structure prediction by ZEFSAII (Michael W. Deem and Ramdas Pophale) SiO2 
 PCOD9426385
Probable space group: P B A M
;
_chemical_formula_sum "Si O2"
_cell_formula_units_Z 40
_cell_length_a 8.657263
_cell_length_b 25.132844
_cell_length_c 7.817613
_cell_angle_alpha 90.000000
_cell_angle_beta 90.000000
_cell_angle_gamma 90.000000
_cell_volume 1700.969061
_symmetry_space_group_name_H-M "P B A M"
_symmetry_group_IT_number 55
_symmetry_cell_setting 'orthorhombic'
loop_
_space_group_symop_operation_xyz
x,y,z
-x,-y,z
1/2+x,1/2-y,-z
1/2-x,1/2+y,-z
-x,-y,-z
x,y,-z
1/2-x,1/2+y,z
1/2+x,1/2-y,z
loop_
_atom_site_type_symbol
_atom_site_label
_atom_site_fract_x
_atom_site_fract_y
_atom_site_fract_z
Si Si1 0.657632 0.324094 0.210609
Si Si2 0.164002 0.974693 0.207308
Si Si3 0.342567 0.075442 0.206347
Si Si4 0.158835 0.775280 0.803128
Si Si5 0.666211 0.127840 0.695577
O O1 0.712092 0.382412 0.262765
O O2 0.491902 0.303486 0.272413
O O3 0.782227 0.280272 0.269742
O O4 0.654539 0.324898 0.000000
O O5 0.202043 0.916423 0.274088
O O6 0.295712 0.016571 0.264033
O O7 0.165675 0.970949 0.000000
O O8 0.000000 0.000000 0.256337
O O9 0.506817 0.098919 0.258255
O O10 0.341619 0.073557 0.000000
O O11 0.294937 0.818910 0.798439
O O12 0.120536 0.763639 0.000000
O O13 0.662709 0.144136 0.500000
#
# Coordination Sequence:
#
# PCOD9426385 Si02
#       5
#     8   8   8   8   8
#     4   9  18  34  62  92 112 139 184 239 289 333
#     4  10  21  39  64  89 111 141 185 236 286 336
#     4  10  20  37  61  87 113 144 186 233 281 332
#     4  10  19  36  61  87 114 145 187 235 284 336
#     4  12  25  38  54  81 118 157 192 227 274 331
#
# _framework density 23.516005
#
# number of rings (size 3 to 8) (size 9 to 14) (size 15 to 20)
#    0.000    1.800    0.000    4.800    0.000   10.000 
#    0.000    7.000    0.000    0.000    0.000    0.000 
#    0.000    0.000    0.000    0.000    0.000    0.000 
#
# Total GULP energy -223718.426419 kJ/mol
# GULP energy per Si atom -5592.960660 kJ/mol
# Density = 2.346248 g / cm^3
# Si number density = 23.516005 Si / 1000 Ang^3
#
#
#
# Elastic Constant Matrix: (Units=GPa)
#
#
# Indices 1 2 3 4 5 6 
#
# 1 56.8496 -18.4217 -2.2515 0.0000 0.0000 0.0000
# 2 -18.4217 83.1477 -2.1778 0.0000 0.0000 0.0000
# 3 -2.2515 -2.1778 33.3746 0.0000 0.0000 0.0000
# 4 0.0000 0.0000 0.0000 -32.2424 0.0000 0.0000
# 5 0.0000 0.0000 0.0000 0.0000 -65.8740 0.0000
# 6 0.0000 0.0000 0.0000 0.0000 0.0000 37.5383
#
#
#
# Elastic Compliance Matrix: (Units=1/GPa)
#
#
# Indices 1 2 3 4 5 6 
#
# 1 0.019032 0.004257 0.001562 0.000000 0.000000 0.000000
# 2 0.004257 0.013000 0.001136 0.000000 0.000000 0.000000
# 3 0.001562 0.001136 0.030142 0.000000 0.000000 0.000000
# 4 0.000000 0.000000 0.000000 -0.031015 0.000000 0.000000
# 5 0.000000 0.000000 0.000000 0.000000 -0.015180 0.000000
# 6 0.000000 0.000000 0.000000 0.000000 0.000000 0.026639
#
#
# Mechanical properties :
#
#
# Convention : Reuss Voigt Hill
#
# Bulk Modulus (GPa) = 13.14348 14.18552 13.66450
# Shear Modulus (GPa) = 92.47372 0.96591 46.71981
#
# Velocity S-wave (km/s) = 6.27767 0.64159 4.46210
# Velocity P-wave (km/s) = 7.62540 2.56792 5.68951
#
# Compressibility (1/GPa) = 0.07608334
#
# Stress axis : x y z
#
# Youngs Moduli (GPa) = 52.54385 76.92425 33.17592
#
# Poissons Ratio (x) = -0.32750 -0.05181
# Poissons Ratio (y) = -0.22370 -0.03767
# Poissons Ratio (z) = -0.08206 -0.08735
#
# Static dielectric constant tensor:
#      x y z
#    x 1.919130 0.000000 0.000000 
#    y 0.000000 1.838510 0.000000 
#    z 0.000000 0.000000 1.897830 
# 
# From -- ./inp_files/2282.got.cif
#   From: 2010.05.17/outbox.cif.g08.bks.cpg/sg55_2_cif.got.tgz:2282.got - 2010.06.03 13:27:54.
