data_PCOD9426500
_publ_section_title
;
Structure prediction by ZEFSAII (Michael W. Deem and Ramdas Pophale) SiO2 
 PCOD9426500
Probable space group: P B A M
;
_chemical_formula_sum "Si O2"
_cell_formula_units_Z 22
_cell_length_a 5.313660
_cell_length_b 10.067738
_cell_length_c 15.445090
_cell_angle_alpha 90.000000
_cell_angle_beta 90.000000
_cell_angle_gamma 90.000000
_cell_volume 826.258824
_symmetry_space_group_name_H-M "P B A M"
_symmetry_group_IT_number 55
_symmetry_cell_setting 'orthorhombic'
loop_
_space_group_symop_operation_xyz
x,y,z
-x,-y,z
1/2+x,1/2-y,-z
1/2-x,1/2+y,-z
-x,-y,-z
x,y,-z
1/2-x,1/2+y,z
1/2+x,1/2-y,z
loop_
_atom_site_type_symbol
_atom_site_label
_atom_site_fract_x
_atom_site_fract_y
_atom_site_fract_z
Si Si1 0.249721 0.409831 0.814372
Si Si2 0.500000 0.500000 0.500000
Si Si3 0.234993 0.325270 0.377608
Si Si4 0.249847 0.908384 0.000000
O O1 0.500000 0.500000 0.810408
O O2 0.239561 0.328994 0.726183
O O3 0.252262 0.335379 0.907322
O O4 0.000000 0.500000 0.813308
O O5 0.292423 0.463533 0.423417
O O6 0.478550 0.241744 0.406256
O O7 0.500000 0.000000 0.000000
O O8 0.000000 0.000000 0.000000
#
# Coordination Sequence:
#
# PCOD9426500 Si02
#       4
#     8   2   8   4
#     4  10  19  39  65  96 135 180 216 272 333 393
#     4  12  28  50  72  90 138 180 218 288 358 396
#     4  12  27  45  69 103 131 172 231 280 337 414
#     4   8  16  30  60  94 128 175 225 252 320 406
#
# _framework density 26.626038000000001
#
# number of rings (size 3 to 8) (size 9 to 14) (size 15 to 20)
#    0.000    1.455    1.818    3.273    0.000    1.455 
#    0.000    1.818    0.000    0.000    0.000    0.000 
#    0.000    0.000    0.000    0.000    0.000    0.000 
#
# Total GULP energy -122722.910362 kJ/mol
# GULP energy per Si atom -5578.314107 kJ/mol
# Density = 2.656544 g / cm^3
# Si number density = 26.626038 Si / 1000 Ang^3
#
#
#
# Elastic Constant Matrix: (Units=GPa)
#
#
# Indices 1 2 3 4 5 6 
#
# 1 243.2673 57.7965 14.7775 0.0000 0.0000 0.0000
# 2 57.7965 32.7391 4.4259 0.0000 0.0000 0.0000
# 3 14.7775 4.4259 288.6348 0.0000 0.0000 0.0000
# 4 0.0000 0.0000 0.0000 46.5704 0.0000 0.0000
# 5 0.0000 0.0000 0.0000 0.0000 -142.7917 0.0000
# 6 0.0000 0.0000 0.0000 0.0000 0.0000 71.8083
#
#
#
# Elastic Compliance Matrix: (Units=1/GPa)
#
#
# Indices 1 2 3 4 5 6 
#
# 1 0.007089 -0.012491 -0.000171 0.000000 0.000000 0.000000
# 2 -0.012491 0.052619 -0.000167 0.000000 0.000000 0.000000
# 3 -0.000171 -0.000167 0.003476 0.000000 0.000000 0.000000
# 4 0.000000 0.000000 0.000000 0.021473 0.000000 0.000000
# 5 0.000000 0.000000 0.000000 0.000000 -0.007003 0.000000
# 6 0.000000 0.000000 0.000000 0.000000 0.000000 0.013926
#
#
# Mechanical properties :
#
#
# Convention : Reuss Voigt Hill
#
# Bulk Modulus (GPa) = 26.64991 79.84899 53.24945
# Shear Modulus (GPa) = 38.53662 27.62682 33.08172
#
# Velocity S-wave (km/s) = 3.80850 3.22465 3.52868
# Velocity P-wave (km/s) = 5.41944 6.62712 6.05347
#
# Compressibility (1/GPa) = 0.03752358
#
# Stress axis : x y z
#
# Youngs Moduli (GPa) = 141.06711 19.00467 287.69306
#
# Poissons Ratio (x) = 0.23739 0.04931
# Poissons Ratio (y) = 1.76210 0.04814
# Poissons Ratio (z) = 0.02418 0.00318
#
# Static dielectric constant tensor:
#      x y z
#    x 2.011660 0.000000 0.000000 
#    y 0.000000 2.190860 0.000000 
#    z 0.000000 0.000000 2.100310 
# 
# From -- ./inp_files/16306.got.cif
#   From: 2010.05.17/outbox.cif.g08.bks.cpg/sg55_9_cif.got.tgz:16306.got - 2010.06.03 13:27:54.
