data_PCOD9426443
_publ_section_title
;
Structure prediction by ZEFSAII (Michael W. Deem and Ramdas Pophale) SiO2 
 PCOD9426443
Probable space group: P B A M
;
_chemical_formula_sum "Si O2"
_cell_formula_units_Z 52
_cell_length_a 8.225590
_cell_length_b 14.749629
_cell_length_c 20.871771
_cell_angle_alpha 90.000000
_cell_angle_beta 90.000000
_cell_angle_gamma 90.000000
_cell_volume 2532.255110
_symmetry_space_group_name_H-M "P B A M"
_symmetry_group_IT_number 55
_symmetry_cell_setting 'orthorhombic'
loop_
_space_group_symop_operation_xyz
x,y,z
-x,-y,z
1/2+x,1/2-y,-z
1/2-x,1/2+y,-z
-x,-y,-z
x,y,-z
1/2-x,1/2+y,z
1/2+x,1/2-y,z
loop_
_atom_site_type_symbol
_atom_site_label
_atom_site_fract_x
_atom_site_fract_y
_atom_site_fract_z
Si Si1 0.300644 0.661762 0.927677
Si Si2 0.528654 0.208663 0.574807
Si Si3 0.500000 0.500000 0.882595
Si Si4 0.822217 0.547334 0.344641
Si Si5 0.178989 0.113287 0.574129
Si Si6 0.297698 0.377112 0.214332
Si Si7 0.984860 0.289756 0.159241
O O1 0.399225 0.569262 0.924948
O O2 0.418129 0.736970 0.896699
O O3 0.153940 0.655875 0.877471
O O4 0.250845 0.684380 0.000000
O O5 0.580434 0.206529 0.500000
O O6 0.633350 0.137169 0.615052
O O7 0.345499 0.172108 0.577016
O O8 0.546671 0.312962 0.596597
O O9 0.620883 0.555806 0.836685
O O10 0.716531 0.475513 0.385090
O O11 0.720725 0.576404 0.282664
O O12 0.000000 0.500000 0.330243
O O13 0.148355 0.088226 0.500000
O O14 0.402994 0.284410 0.206630
O O15 0.114872 0.350488 0.194965
#
# Coordination Sequence:
#
# PCOD9426443 Si02
#       7
#     8   8   4   8   8   8   8
#     4  10  19  37  62  90 118 153 197 244 298 361
#     4   9  18  35  56  82 114 147 193 247 300 354
#     4  10  23  38  56  86 123 158 190 246 300 346
#     4  10  21  35  58  86 112 159 204 244 297 362
#     4   9  18  36  58  82 114 151 193 249 305 353
#     4  10  22  41  58  84 119 160 198 246 292 362
#     4   9  21  39  62  85 118 158 197 246 299 350
#
# _framework density 20.535056000000001
#
# number of rings (size 3 to 8) (size 9 to 14) (size 15 to 20)
#    0.000    2.462    0.000    1.154    2.154    4.308 
#    8.308    3.077    0.000    3.692    0.000    0.000 
#    0.000    0.000    0.000    0.000    0.000    0.000 
#
# Total GULP energy -290411.474458 kJ/mol
# GULP energy per Si atom -5584.836047 kJ/mol
# Density = 2.048832 g / cm^3
# Si number density = 20.535056 Si / 1000 Ang^3
#
#
#
# Elastic Constant Matrix: (Units=GPa)
#
#
# Indices 1 2 3 4 5 6 
#
# 1 57.6372 23.6963 27.1772 0.0000 0.0000 0.0000
# 2 23.6963 76.1343 46.9222 0.0000 0.0000 0.0000
# 3 27.1772 46.9222 90.2757 0.0000 0.0000 0.0000
# 4 0.0000 0.0000 0.0000 13.3352 0.0000 0.0000
# 5 0.0000 0.0000 0.0000 0.0000 21.9384 0.0000
# 6 0.0000 0.0000 0.0000 0.0000 0.0000 47.3816
#
#
#
# Elastic Compliance Matrix: (Units=1/GPa)
#
#
# Indices 1 2 3 4 5 6 
#
# 1 0.020971 -0.003879 -0.004297 0.000000 0.000000 0.000000
# 2 -0.003879 0.020043 -0.009250 0.000000 0.000000 0.000000
# 3 -0.004297 -0.009250 0.017179 0.000000 0.000000 0.000000
# 4 0.000000 0.000000 0.000000 0.074989 0.000000 0.000000
# 5 0.000000 0.000000 0.000000 0.000000 0.045582 0.000000
# 6 0.000000 0.000000 0.000000 0.000000 0.000000 0.021105
#
#
# Mechanical properties :
#
#
# Convention : Reuss Voigt Hill
#
# Bulk Modulus (GPa) = 42.84367 46.62651 44.73509
# Shear Modulus (GPa) = 20.61854 24.94782 22.78318
#
# Velocity S-wave (km/s) = 3.17214 3.48931 3.33450
# Velocity P-wave (km/s) = 5.85880 6.24410 6.05452
#
# Compressibility (1/GPa) = 0.02334067
#
# Stress axis : x y z
#
# Youngs Moduli (GPa) = 47.68554 49.89364 58.21197
#
# Poissons Ratio (x) = 0.19352 0.25015
# Poissons Ratio (y) = 0.18495 0.53845
# Poissons Ratio (z) = 0.20492 0.46151
#
# Static dielectric constant tensor:
#      x y z
#    x 1.773250 0.000000 0.000000 
#    y 0.000000 1.730420 0.000000 
#    z 0.000000 0.000000 1.705070 
# 
# From -- ./inp_files/22577.got.cif
#   From: 2010.05.17/outbox.cif.g08.bks.cpg/sg55_12_cif.got.tgz:22577.got - 2010.06.03 13:27:54.
