data_PCOD9426659
_publ_section_title
;
Structure prediction by ZEFSAII (Michael W. Deem and Ramdas Pophale) SiO2 
 PCOD9426659
Probable space group: P B A M
;
_chemical_formula_sum "Si O2"
_cell_formula_units_Z 52
_cell_length_a 20.308473
_cell_length_b 8.894963
_cell_length_c 15.020980
_cell_angle_alpha 90.000000
_cell_angle_beta 90.000000
_cell_angle_gamma 90.000000
_cell_volume 2713.436631
_symmetry_space_group_name_H-M "P B A M"
_symmetry_group_IT_number 55
_symmetry_cell_setting 'orthorhombic'
loop_
_space_group_symop_operation_xyz
x,y,z
-x,-y,z
1/2+x,1/2-y,-z
1/2-x,1/2+y,-z
-x,-y,-z
x,y,-z
1/2-x,1/2+y,z
1/2+x,1/2-y,z
loop_
_atom_site_type_symbol
_atom_site_label
_atom_site_fract_x
_atom_site_fract_y
_atom_site_fract_z
Si Si1 0.145522 0.033992 0.722982
Si Si2 0.887009 0.721578 0.596332
Si Si3 0.388451 0.191760 0.275377
Si Si4 0.689421 0.304896 0.099887
Si Si5 0.280054 0.027112 0.606473
Si Si6 0.000000 0.500000 0.356887
Si Si7 0.667295 0.950120 0.900391
O O1 0.102143 0.155580 0.670953
O O2 0.158349 0.100383 0.820637
O O3 0.114560 0.870287 0.728644
O O4 0.213363 0.024789 0.664389
O O5 0.883433 0.795972 0.500000
O O6 0.818517 0.632683 0.612878
O O7 0.943898 0.596663 0.594782
O O8 0.457545 0.122720 0.304524
O O9 0.373270 0.116645 0.180484
O O10 0.331345 0.140192 0.345424
O O11 0.765297 0.355415 0.099281
O O12 0.682949 0.126294 0.116179
O O13 0.663166 0.336016 0.000000
O O14 0.271097 0.057528 0.500000
O O15 0.638116 0.938502 0.000000
#
# Coordination Sequence:
#
# PCOD9426659 Si02
#       7
#     8   8   8   8   8   4   8
#     4  12  22  34  59  92 122 147 190 241 301 353
#     4  10  22  40  61  84 117 159 200 244 288 346
#     4  11  23  38  60  85 115 157 196 243 290 348
#     4  10  20  33  55  87 124 156 186 229 288 355
#     4  10  21  37  57  85 121 155 186 231 297 357
#     4  10  23  44  61  76 112 162 209 244 289 336
#     4  10  20  36  57  85 119 157 194 233 286 348
#
# _framework density 19.163889999999999
#
# number of rings (size 3 to 8) (size 9 to 14) (size 15 to 20)
#    0.000    1.538    1.538    4.385    0.000    5.538 
#    0.000    1.154    0.000    0.923    0.000    4.308 
#    0.000    0.000    0.000    0.000    0.000    0.000 
#
# Total GULP energy -290235.460146 kJ/mol
# GULP energy per Si atom -5581.451157 kJ/mol
# Density = 1.912027 g / cm^3
# Si number density = 19.163890 Si / 1000 Ang^3
#
#
#
# Elastic Constant Matrix: (Units=GPa)
#
#
# Indices 1 2 3 4 5 6 
#
# 1 59.9721 38.0700 32.5290 0.0000 0.0000 0.0000
# 2 38.0700 103.8384 64.7331 0.0000 0.0000 0.0000
# 3 32.5290 64.7331 137.0013 0.0000 0.0000 0.0000
# 4 0.0000 0.0000 0.0000 31.0663 0.0000 0.0000
# 5 0.0000 0.0000 0.0000 0.0000 -16.9590 0.0000
# 6 0.0000 0.0000 0.0000 0.0000 0.0000 15.4011
#
#
#
# Elastic Compliance Matrix: (Units=1/GPa)
#
#
# Indices 1 2 3 4 5 6 
#
# 1 0.022117 -0.006854 -0.002013 0.000000 0.000000 0.000000
# 2 -0.006854 0.015775 -0.005827 0.000000 0.000000 0.000000
# 3 -0.002013 -0.005827 0.010530 0.000000 0.000000 0.000000
# 4 0.000000 0.000000 0.000000 0.032189 0.000000 0.000000
# 5 0.000000 0.000000 0.000000 0.000000 -0.058966 0.000000
# 6 0.000000 0.000000 0.000000 0.000000 0.000000 0.064930
#
#
# Mechanical properties :
#
#
# Convention : Reuss Voigt Hill
#
# Bulk Modulus (GPa) = 52.53201 63.49733 58.01467
# Shear Modulus (GPa) = 40.88024 16.93367 28.90696
#
# Velocity S-wave (km/s) = 4.62366 2.97581 3.88804
# Velocity P-wave (km/s) = 7.48170 6.70917 7.10594
#
# Compressibility (1/GPa) = 0.01903601
#
# Stress axis : x y z
#
# Youngs Moduli (GPa) = 45.21402 63.38969 94.96508
#
# Poissons Ratio (x) = 0.43446 0.19116
# Poissons Ratio (y) = 0.30989 0.55332
# Poissons Ratio (z) = 0.09101 0.36934
#
# Static dielectric constant tensor:
#      x y z
#    x 1.663780 0.000000 0.000000 
#    y 0.000000 1.662930 0.000000 
#    z 0.000000 0.000000 1.686780 
# 
# From -- ./inp_files/19701.got.cif
#   From: 2010.05.17/outbox.cif.g08.bks.cpg/sg55_10_cif.got.tgz:19701.got - 2010.06.03 13:27:54.
