data_PCOD9426721
_publ_section_title
;
Structure prediction by ZEFSAII (Michael W. Deem and Ramdas Pophale) SiO2 
 PCOD9426721
Probable space group: P B A M
;
_chemical_formula_sum "Si O2"
_cell_formula_units_Z 56
_cell_length_a 19.711721
_cell_length_b 19.190495
_cell_length_c 8.888180
_cell_angle_alpha 90.000000
_cell_angle_beta 90.000000
_cell_angle_gamma 90.000000
_cell_volume 3362.200139
_symmetry_space_group_name_H-M "P B A M"
_symmetry_group_IT_number 55
_symmetry_cell_setting 'orthorhombic'
loop_
_space_group_symop_operation_xyz
x,y,z
-x,-y,z
1/2+x,1/2-y,-z
1/2-x,1/2+y,-z
-x,-y,-z
x,y,-z
1/2-x,1/2+y,z
1/2+x,1/2-y,z
loop_
_atom_site_type_symbol
_atom_site_label
_atom_site_fract_x
_atom_site_fract_y
_atom_site_fract_z
Si Si1 0.322715 0.248263 0.821314
Si Si2 0.694070 0.984818 0.819813
Si Si3 0.110510 0.239086 0.679750
Si Si4 0.948366 0.436854 0.319888
Si Si5 0.974848 0.287002 0.179655
Si Si6 0.707741 0.146231 0.820692
Si Si7 0.226028 0.133798 0.679230
O O1 0.401972 0.247442 0.785226
O O2 0.281444 0.319319 0.793435
O O3 0.284128 0.188426 0.729566
O O4 0.316025 0.232114 0.000000
O O5 0.624848 0.955651 0.747989
O O6 0.755691 0.937789 0.760428
O O7 0.702906 0.065709 0.778078
O O8 0.689545 0.979316 0.000000
O O9 0.104706 0.241246 0.500000
O O10 0.153616 0.305868 0.735314
O O11 0.155486 0.171478 0.721409
O O12 0.037340 0.244041 0.754435
O O13 0.943379 0.429815 0.500000
O O14 0.973962 0.364438 0.249945
O O15 0.000000 0.500000 0.285795
O O16 0.981351 0.292769 0.000000
O O17 0.694203 0.151612 0.000000
O O18 0.227900 0.124878 0.500000
#
# Coordination Sequence:
#
# PCOD9426721 Si02
#       7
#     8   8   8   8   8   8   8
#     4   9  18  34  54  76 101 132 173 216 260 311
#     4  11  21  33  52  77 104 137 173 213 260 311
#     4  10  21  35  52  76 105 137 174 215 261 311
#     4  11  23  35  49  73 109 145 173 208 255 312
#     4  11  21  33  53  78 103 136 174 214 260 311
#     4   9  19  35  54  76 104 135 171 216 261 310
#     4  10  20  34  53  75 101 136 176 216 258 310
#
# _framework density 16.655760000000001
#
# number of rings (size 3 to 8) (size 9 to 14) (size 15 to 20)
#    0.000    1.857    1.429    3.000    0.000    6.857 
#    0.000    0.000    0.000    0.857    0.000    6.000 
#    0.000    0.000    0.000    0.000    0.000    0.000 
#
# Total GULP energy -312646.793843 kJ/mol
# GULP energy per Si atom -5582.978461 kJ/mol
# Density = 1.661785 g / cm^3
# Si number density = 16.655760 Si / 1000 Ang^3
#
#
#
# Elastic Constant Matrix: (Units=GPa)
#
#
# Indices 1 2 3 4 5 6 
#
# 1 85.7616 -1.5018 24.0089 0.0000 0.0000 0.0000
# 2 -1.5018 16.6984 4.1089 0.0000 0.0000 0.0000
# 3 24.0089 4.1089 31.5303 0.0000 0.0000 0.0000
# 4 0.0000 0.0000 0.0000 21.1737 0.0000 0.0000
# 5 0.0000 0.0000 0.0000 0.0000 25.7629 0.0000
# 6 0.0000 0.0000 0.0000 0.0000 0.0000 21.9612
#
#
#
# Elastic Compliance Matrix: (Units=1/GPa)
#
#
# Indices 1 2 3 4 5 6 
#
# 1 0.015116 0.004331 -0.012075 0.000000 0.000000 0.000000
# 2 0.004331 0.063111 -0.011522 0.000000 0.000000 0.000000
# 3 -0.012075 -0.011522 0.042411 0.000000 0.000000 0.000000
# 4 0.000000 0.000000 0.000000 0.047228 0.000000 0.000000
# 5 0.000000 0.000000 0.000000 0.000000 0.038815 0.000000
# 6 0.000000 0.000000 0.000000 0.000000 0.000000 0.045535
#
#
# Mechanical properties :
#
#
# Convention : Reuss Voigt Hill
#
# Bulk Modulus (GPa) = 12.17930 20.80246 16.49088
# Shear Modulus (GPa) = 15.71744 20.93786 18.32765
#
# Velocity S-wave (km/s) = 3.07524 3.54940 3.32079
# Velocity P-wave (km/s) = 4.46517 5.41428 4.96247
#
# Compressibility (1/GPa) = 0.08210654
#
# Stress axis : x y z
#
# Youngs Moduli (GPa) = 66.15321 15.84517 23.57853
#
# Poissons Ratio (x) = -0.06862 0.28471
# Poissons Ratio (y) = -0.28649 0.27167
# Poissons Ratio (z) = 0.79879 0.18257
#
# Static dielectric constant tensor:
#      x y z
#    x 1.559060 0.000000 0.000000 
#    y 0.000000 1.547540 0.000000 
#    z 0.000000 0.000000 1.556810 
# 
# From -- ./inp_files/7833.got.cif
#   From: 2010.05.17/outbox.cif.g08.bks.cpg/sg55_4_cif.got.tgz:7833.got - 2010.06.03 13:27:54.
