data_PCOD9426626
_publ_section_title
;
Structure prediction by ZEFSAII (Michael W. Deem and Ramdas Pophale) SiO2 
 PCOD9426626
Probable space group: P B A M
;
_chemical_formula_sum "Si O2"
_cell_formula_units_Z 58
_cell_length_a 8.324590
_cell_length_b 33.780757
_cell_length_c 9.068715
_cell_angle_alpha 90.000000
_cell_angle_beta 90.000000
_cell_angle_gamma 90.000000
_cell_volume 2550.221978
_symmetry_space_group_name_H-M "P B A M"
_symmetry_group_IT_number 55
_symmetry_cell_setting 'orthorhombic'
loop_
_space_group_symop_operation_xyz
x,y,z
-x,-y,z
1/2+x,1/2-y,-z
1/2-x,1/2+y,-z
-x,-y,-z
x,y,-z
1/2-x,1/2+y,z
1/2+x,1/2-y,z
loop_
_atom_site_type_symbol
_atom_site_label
_atom_site_fract_x
_atom_site_fract_y
_atom_site_fract_z
Si Si1 0.639159 0.024602 0.833231
Si Si2 0.847194 0.953034 0.228833
Si Si3 0.665903 0.736587 0.176806
Si Si4 0.842259 0.378671 0.323491
Si Si5 0.041906 0.164156 0.178785
Si Si6 0.520531 0.188310 0.179283
Si Si7 0.163753 0.905637 0.833696
Si Si8 0.000000 0.000000 0.500000
O O1 0.778790 0.992044 0.847429
O O2 0.500000 0.000000 0.753236
O O3 0.711465 0.063965 0.760356
O O4 0.583468 0.034714 0.000000
O O5 0.702529 0.921839 0.258163
O O6 0.994017 0.929156 0.157722
O O7 0.923415 0.970702 0.375230
O O8 0.510436 0.708996 0.203864
O O9 0.622387 0.780961 0.222608
O O10 0.819828 0.711834 0.228264
O O11 0.686269 0.738839 0.000000
O O12 0.855060 0.380727 0.500000
O O13 0.688786 0.352740 0.270771
O O14 0.989207 0.354346 0.251467
O O15 0.889674 0.136678 0.224441
O O16 0.068860 0.159338 0.000000
O O17 0.521440 0.184215 0.000000
O O18 0.221720 0.898596 0.000000
#
# Coordination Sequence:
#
# PCOD9426626 Si02
#       8
#     8   8   8   8   8   8   8   2
#     4  10  20  33  52  81 111 136 170 224 284 334
#     4  11  21  36  58  75 105 143 193 229 271 329
#     4   9  18  35  61  90 113 145 188 231 271 331
#     4  11  23  37  54  83 114 146 186 237 281 330
#     4   9  18  34  58  84 110 139 180 224 272 325
#     4  10  20  36  60  84 113 147 186 228 277 330
#     4   9  17  31  53  79 105 137 174 220 270 319
#     4  12  20  36  60  76  96 148 202 230 260 320
#
# _framework density 22.743119
#
# number of rings (size 3 to 8) (size 9 to 14) (size 15 to 20)
#    0.000    2.069    2.069    1.655    0.000    6.069 
#    0.000    6.552    0.000    0.000    0.000    0.000 
#    0.000    0.000    0.000    0.000    0.000    0.000 
#
# Total GULP energy -322904.041180 kJ/mol
# GULP energy per Si atom -5567.311055 kJ/mol
# Density = 2.269135 g / cm^3
# Si number density = 22.743119 Si / 1000 Ang^3
#
#
#
# Elastic Constant Matrix: (Units=GPa)
#
#
# Indices 1 2 3 4 5 6 
#
# 1 48.6986 2.6974 -4.4529 0.0000 0.0000 0.0000
# 2 2.6974 114.8454 5.0601 0.0000 0.0000 0.0000
# 3 -4.4529 5.0601 53.8093 0.0000 0.0000 0.0000
# 4 0.0000 0.0000 0.0000 2.5819 0.0000 0.0000
# 5 0.0000 0.0000 0.0000 0.0000 -100.5247 0.0000
# 6 0.0000 0.0000 0.0000 0.0000 0.0000 42.8815
#
#
#
# Elastic Compliance Matrix: (Units=1/GPa)
#
#
# Indices 1 2 3 4 5 6 
#
# 1 0.020727 -0.000565 0.001768 0.000000 0.000000 0.000000
# 2 -0.000565 0.008759 -0.000870 0.000000 0.000000 0.000000
# 3 0.001768 -0.000870 0.018812 0.000000 0.000000 0.000000
# 4 0.000000 0.000000 0.000000 0.387311 0.000000 0.000000
# 5 0.000000 0.000000 0.000000 0.000000 -0.009948 0.000000
# 6 0.000000 0.000000 0.000000 0.000000 0.000000 0.023320
#
#
# Mechanical properties :
#
#
# Convention : Reuss Voigt Hill
#
# Bulk Modulus (GPa) = 20.42268 24.88473 22.65371
# Shear Modulus (GPa) = 10.76108 3.25765 7.00937
#
# Velocity S-wave (km/s) = 2.17758 1.19811 1.75746
# Velocity P-wave (km/s) = 3.91429 3.58878 3.75507
#
# Compressibility (1/GPa) = 0.04896516
#
# Stress axis : x y z
#
# Youngs Moduli (GPa) = 48.24523 114.16868 53.15663
#
# Poissons Ratio (x) = 0.06448 -0.09400
# Poissons Ratio (y) = 0.02725 0.04627
# Poissons Ratio (z) = -0.08531 0.09937
#
# Static dielectric constant tensor:
#      x y z
#    x 1.976120 0.000000 0.000000 
#    y 0.000000 1.863530 0.000000 
#    z 0.000000 0.000000 1.787270 
# 
# From -- ./inp_files/12572.got.cif
#   From: 2010.05.17/outbox.cif.g08.bks.cpg/sg55_7_cif.got.tgz:12572.got - 2010.06.03 13:27:54.
