data_PCOD9426044
_publ_section_title
;
Structure prediction by ZEFSAII (Michael W. Deem and Ramdas Pophale) SiO2 
 PCOD9426044
Probable space group: P B A M
;
_chemical_formula_sum "Si O2"
_cell_formula_units_Z 48
_cell_length_a 15.666394
_cell_length_b 5.101886
_cell_length_c 30.369694
_cell_angle_alpha 90.000000
_cell_angle_beta 90.000000
_cell_angle_gamma 90.000000
_cell_volume 2427.393646
_symmetry_space_group_name_H-M "P B A M"
_symmetry_group_IT_number 55
_symmetry_cell_setting 'orthorhombic'
loop_
_space_group_symop_operation_xyz
x,y,z
-x,-y,z
1/2+x,1/2-y,-z
1/2-x,1/2+y,-z
-x,-y,-z
x,y,-z
1/2-x,1/2+y,z
1/2+x,1/2-y,z
loop_
_atom_site_type_symbol
_atom_site_label
_atom_site_fract_x
_atom_site_fract_y
_atom_site_fract_z
Si Si1 0.896684 0.494381 0.590044
Si Si2 0.805507 0.345007 0.500000
Si Si3 0.194177 0.201837 0.271499
Si Si4 0.561896 0.249064 0.000000
Si Si5 0.693307 0.365245 0.827321
Si Si6 0.897452 0.993135 0.357685
Si Si7 0.561628 0.250424 0.095874
O O1 0.859121 0.409560 0.543577
O O2 0.869364 0.280254 0.626635
O O3 0.000000 0.500000 0.587572
O O4 0.868504 0.780706 0.605999
O O5 0.725993 0.546319 0.500000
O O6 0.225706 0.500732 0.274664
O O7 0.157726 0.165299 0.222316
O O8 0.134401 0.110014 0.310925
O O9 0.500000 0.500000 0.000000
O O10 0.606934 0.241725 0.952447
O O11 0.500000 0.000000 0.000000
O O12 0.728110 0.660533 0.831291
O O13 0.627173 0.285895 0.864665
O O14 0.000000 0.000000 0.357115
O O15 0.500000 0.500000 0.095863
O O16 0.500000 0.000000 0.100824
#
# Coordination Sequence:
#
# PCOD9426044 Si02
#       7
#     8   4   8   4   8   8   8
#     4  10  22  40  58  78 110 144 170 209 268 315
#     4  12  25  38  57  86 110 136 178 220 251 302
#     4  10  21  36  55  77 107 144 175 212 269 319
#     4   8  16  30  50  76 106 136 176 228 278 322
#     4  10  21  37  53  77 113 147 179 223 278 332
#     4  10  21  37  58  82 105 136 179 220 257 309
#     4  10  19  34  56  80 105 142 187 229 272 325
#
# _framework density 19.774297000000001
#
# number of rings (size 3 to 8) (size 9 to 14) (size 15 to 20)
#    0.000    2.000    0.000    3.250    0.000    4.667 
#    0.000    6.667    0.000    0.000    0.000    0.000 
#    0.000    0.000    0.000    0.000    0.000    0.000 
#
# Total GULP energy -267947.741810 kJ/mol
# GULP energy per Si atom -5582.244621 kJ/mol
# Density = 1.972929 g / cm^3
# Si number density = 19.774297 Si / 1000 Ang^3
#
#
#
# Elastic Constant Matrix: (Units=GPa)
#
#
# Indices 1 2 3 4 5 6 
#
# 1 12.9927 0.9802 32.1059 0.0000 0.0000 0.0000
# 2 0.9802 88.9713 5.8108 0.0000 0.0000 0.0000
# 3 32.1059 5.8108 160.1836 0.0000 0.0000 0.0000
# 4 0.0000 0.0000 0.0000 23.1459 0.0000 0.0000
# 5 0.0000 0.0000 0.0000 0.0000 45.0537 0.0000
# 6 0.0000 0.0000 0.0000 0.0000 0.0000 21.6853
#
#
#
# Elastic Compliance Matrix: (Units=1/GPa)
#
#
# Indices 1 2 3 4 5 6 
#
# 1 0.152503 0.000317 -0.030578 0.000000 0.000000 0.000000
# 2 0.000317 0.011267 -0.000472 0.000000 0.000000 0.000000
# 3 -0.030578 -0.000472 0.012389 0.000000 0.000000 0.000000
# 4 0.000000 0.000000 0.000000 0.043204 0.000000 0.000000
# 5 0.000000 0.000000 0.000000 0.000000 0.022196 0.000000
# 6 0.000000 0.000000 0.000000 0.000000 0.000000 0.046114
#
#
# Mechanical properties :
#
#
# Convention : Reuss Voigt Hill
#
# Bulk Modulus (GPa) = 8.71899 37.77126 23.24512
# Shear Modulus (GPa) = 12.90756 32.86035 22.88396
#
# Velocity S-wave (km/s) = 2.55766 4.08091 3.40554
# Velocity P-wave (km/s) = 3.62505 6.43022 5.21961
#
# Compressibility (1/GPa) = 0.11469222
#
# Stress axis : x y z
#
# Youngs Moduli (GPa) = 6.55725 88.75531 80.71839
#
# Poissons Ratio (x) = -0.02814 2.46820
# Poissons Ratio (y) = -0.00208 0.03812
# Poissons Ratio (z) = 0.20051 0.04192
#
# Static dielectric constant tensor:
#      x y z
#    x 1.666440 0.000000 0.000000 
#    y 0.000000 1.677490 0.000000 
#    z 0.000000 0.000000 1.712380 
# 
# From -- ./inp_files/23988.got.cif
#   From: 2010.05.17/outbox.cif.g08.bks.cpg/sg55_12_cif.got.tgz:23988.got - 2010.06.03 13:27:54.
