data_PCOD9426325
_publ_section_title
;
Structure prediction by ZEFSAII (Michael W. Deem and Ramdas Pophale) SiO2 
 PCOD9426325
Probable space group: P B A M
;
_chemical_formula_sum "Si O2"
_cell_formula_units_Z 56
_cell_length_a 19.803216
_cell_length_b 9.950766
_cell_length_c 12.592309
_cell_angle_alpha 90.000000
_cell_angle_beta 90.000000
_cell_angle_gamma 90.000000
_cell_volume 2481.404756
_symmetry_space_group_name_H-M "P B A M"
_symmetry_group_IT_number 55
_symmetry_cell_setting 'orthorhombic'
loop_
_space_group_symop_operation_xyz
x,y,z
-x,-y,z
1/2+x,1/2-y,-z
1/2-x,1/2+y,-z
-x,-y,-z
x,y,-z
1/2-x,1/2+y,z
1/2+x,1/2-y,z
loop_
_atom_site_type_symbol
_atom_site_label
_atom_site_fract_x
_atom_site_fract_y
_atom_site_fract_z
Si Si1 0.418421 0.334196 0.881847
Si Si2 0.184066 0.029907 0.205174
Si Si3 0.505598 0.659349 0.334767
Si Si4 0.072289 0.570732 0.383799
Si Si5 0.328501 0.103940 0.219381
Si Si6 0.282914 0.321827 0.381062
Si Si7 0.643980 0.273980 0.379842
O O1 0.370436 0.465449 0.872116
O O2 0.475181 0.341052 0.790440
O O3 0.367260 0.210425 0.854968
O O4 0.445903 0.321150 0.000000
O O5 0.184221 0.931121 0.306767
O O6 0.261901 0.039348 0.167265
O O7 0.159357 0.162729 0.263390
O O8 0.500000 0.500000 0.365966
O O9 0.561021 0.766689 0.377190
O O10 0.436378 0.728800 0.372326
O O11 0.101576 0.537937 0.500000
O O12 0.112634 0.523664 0.279213
O O13 0.000000 0.500000 0.379636
O O14 0.297067 0.182098 0.321762
O O15 0.307309 0.324423 0.500000
O O16 0.201994 0.338994 0.382510
O O17 0.656581 0.338064 0.500000
#
# Coordination Sequence:
#
# PCOD9426325 Si02
#       7
#     8   8   8   8   8   8   8
#     4  10  22  41  61  82 109 146 197 253 309 355
#     4  10  19  36  56  85 112 148 188 244 294 344
#     4  11  22  40  58  86 119 158 197 249 295 341
#     4  10  22  37  57  87 121 163 200 231 278 346
#     4   9  20  36  56  79 115 150 187 239 294 350
#     4   9  18  31  52  82 117 154 188 224 276 346
#     4  10  20  33  52  84 121 156 190 227 281 349
#
# _framework density 22.567862999999999
#
# number of rings (size 3 to 8) (size 9 to 14) (size 15 to 20)
#    0.000    2.143    1.429    1.286    2.000    3.714 
#    0.000    0.000    0.000    7.714    0.000    0.000 
#    0.000    0.000    0.000    0.000    0.000    0.000 
#
# Total GULP energy -311748.806631 kJ/mol
# GULP energy per Si atom -5566.942976 kJ/mol
# Density = 2.251650 g / cm^3
# Si number density = 22.567863 Si / 1000 Ang^3
#
#
#
# Elastic Constant Matrix: (Units=GPa)
#
#
# Indices 1 2 3 4 5 6 
#
# 1 67.0723 -4.5329 6.9389 0.0000 0.0000 0.0000
# 2 -4.5329 37.1498 5.4968 0.0000 0.0000 0.0000
# 3 6.9389 5.4968 94.7481 0.0000 0.0000 0.0000
# 4 0.0000 0.0000 0.0000 9.3326 0.0000 0.0000
# 5 0.0000 0.0000 0.0000 0.0000 21.2537 0.0000
# 6 0.0000 0.0000 0.0000 0.0000 0.0000 32.0412
#
#
#
# Elastic Compliance Matrix: (Units=1/GPa)
#
#
# Indices 1 2 3 4 5 6 
#
# 1 0.015174 0.002033 -0.001229 0.000000 0.000000 0.000000
# 2 0.002033 0.027424 -0.001740 0.000000 0.000000 0.000000
# 3 -0.001229 -0.001740 0.010745 0.000000 0.000000 0.000000
# 4 0.000000 0.000000 0.000000 0.107152 0.000000 0.000000
# 5 0.000000 0.000000 0.000000 0.000000 0.047051 0.000000
# 6 0.000000 0.000000 0.000000 0.000000 0.000000 0.031210
#
#
# Mechanical properties :
#
#
# Convention : Reuss Voigt Hill
#
# Bulk Modulus (GPa) = 19.42837 23.86400 21.64618
# Shear Modulus (GPa) = 19.39613 25.26331 22.32972
#
# Velocity S-wave (km/s) = 2.93483 3.34943 3.14896
# Velocity P-wave (km/s) = 4.48463 5.05525 4.77846
#
# Compressibility (1/GPa) = 0.05147112
#
# Stress axis : x y z
#
# Youngs Moduli (GPa) = 65.90276 36.46501 93.06431
#
# Poissons Ratio (x) = -0.07415 0.11440
# Poissons Ratio (y) = -0.13400 0.16192
# Poissons Ratio (z) = 0.08101 0.06344
#
# Static dielectric constant tensor:
#      x y z
#    x 1.953740 0.000000 0.000000 
#    y 0.000000 1.978260 0.000000 
#    z 0.000000 0.000000 1.821240 
# 
# From -- ./inp_files/13405.got.cif
#   From: 2010.05.17/outbox.cif.g08.bks.cpg/sg55_7_cif.got.tgz:13405.got - 2010.06.03 13:27:54.
