data_PCOD9426570
_publ_section_title
;
Structure prediction by ZEFSAII (Michael W. Deem and Ramdas Pophale) SiO2 
 PCOD9426570
Probable space group: P B A M
;
_chemical_formula_sum "Si O2"
_cell_formula_units_Z 64
_cell_length_a 14.873463
_cell_length_b 31.196020
_cell_length_c 8.172099
_cell_angle_alpha 90.000000
_cell_angle_beta 90.000000
_cell_angle_gamma 90.000000
_cell_volume 3791.795499
_symmetry_space_group_name_H-M "P B A M"
_symmetry_group_IT_number 55
_symmetry_cell_setting 'orthorhombic'
loop_
_space_group_symop_operation_xyz
x,y,z
-x,-y,z
1/2+x,1/2-y,-z
1/2-x,1/2+y,-z
-x,-y,-z
x,y,-z
1/2-x,1/2+y,z
1/2+x,1/2-y,z
loop_
_atom_site_type_symbol
_atom_site_label
_atom_site_fract_x
_atom_site_fract_y
_atom_site_fract_z
Si Si1 0.394706 0.047290 0.696887
Si Si2 0.185690 0.632127 0.196484
Si Si3 0.315831 0.864611 0.689457
Si Si4 0.177606 0.204024 0.801474
Si Si5 0.701793 0.713565 0.807803
Si Si6 0.491563 0.265492 0.311674
Si Si7 0.997510 0.672165 0.810188
Si Si8 0.100874 0.449951 0.300020
O O1 0.396828 0.047301 0.500000
O O2 0.324269 0.082907 0.752573
O O3 0.497125 0.058353 0.752517
O O4 0.375980 0.998450 0.749788
O O5 0.267387 0.661965 0.253221
O O6 0.092530 0.654287 0.250177
O O7 0.187037 0.633982 0.000000
O O8 0.287951 0.866196 0.500000
O O9 0.251769 0.831428 0.780944
O O10 0.415583 0.844909 0.704376
O O11 0.331125 0.912876 0.754600
O O12 0.233810 0.246919 0.752437
O O13 0.077475 0.205824 0.731802
O O14 0.172860 0.204461 0.000000
O O15 0.605925 0.714472 0.719705
O O16 0.685706 0.720508 0.000000
O O17 0.498074 0.252102 0.500000
O O18 0.499178 0.223207 0.201342
O O19 0.983484 0.659536 0.000000
O O20 0.100459 0.448560 0.500000
#
# Coordination Sequence:
#
# PCOD9426570 Si02
#       8
#     8   8   8   8   8   8   8   8
#     4   9  16  30  49  71 100 136 169 203 250 301
#     4  10  20  33  49  72 100 135 174 208 245 297
#     4  11  20  32  50  76 102 134 177 216 247 291
#     4  10  21  37  53  70 100 138 171 204 252 308
#     4  11  22  37  54  72 101 140 171 204 254 308
#     4  12  24  36  52  75 101 130 174 222 251 288
#     4  11  20  32  48  70 104 141 172 205 254 303
#     4   8  16  29  47  71 103 136 166 203 253 301
#
# _framework density 16.878547999999999
#
# number of rings (size 3 to 8) (size 9 to 14) (size 15 to 20)
#    0.000    1.750    3.750    3.000    0.000    1.500 
#    0.000    2.500    0.000    0.000    0.000    0.875 
#    0.000    7.000    0.000    0.000    0.000    0.000 
#
# Total GULP energy -357071.774461 kJ/mol
# GULP energy per Si atom -5579.246476 kJ/mol
# Density = 1.684013 g / cm^3
# Si number density = 16.878548 Si / 1000 Ang^3
#
#
#
# Elastic Constant Matrix: (Units=GPa)
#
#
# Indices 1 2 3 4 5 6 
#
# 1 70.8358 27.8996 8.0242 0.0000 0.0000 0.0000
# 2 27.8996 99.6442 -2.5580 0.0000 0.0000 0.0000
# 3 8.0242 -2.5580 23.0233 0.0000 0.0000 0.0000
# 4 0.0000 0.0000 0.0000 23.3991 0.0000 0.0000
# 5 0.0000 0.0000 0.0000 0.0000 13.8449 0.0000
# 6 0.0000 0.0000 0.0000 0.0000 0.0000 21.6009
#
#
#
# Elastic Compliance Matrix: (Units=1/GPa)
#
#
# Indices 1 2 3 4 5 6 
#
# 1 0.016751 -0.004854 -0.006378 0.000000 0.000000 0.000000
# 2 -0.004854 0.011471 0.002966 0.000000 0.000000 0.000000
# 3 -0.006378 0.002966 0.045986 0.000000 0.000000 0.000000
# 4 0.000000 0.000000 0.000000 0.042737 0.000000 0.000000
# 5 0.000000 0.000000 0.000000 0.000000 0.072229 0.000000
# 6 0.000000 0.000000 0.000000 0.000000 0.000000 0.046294
#
#
# Mechanical properties :
#
#
# Convention : Reuss Voigt Hill
#
# Bulk Modulus (GPa) = 17.33759 28.91498 23.12628
# Shear Modulus (GPa) = 18.43488 22.44484 20.43986
#
# Velocity S-wave (km/s) = 3.30844 3.65058 3.48371
# Velocity P-wave (km/s) = 4.98885 5.91078 5.46928
#
# Compressibility (1/GPa) = 0.05767815
#
# Stress axis : x y z
#
# Youngs Moduli (GPa) = 59.69653 87.17696 21.74552
#
# Poissons Ratio (x) = 0.42315 0.13868
# Poissons Ratio (y) = 0.28977 -0.06450
# Poissons Ratio (z) = 0.38072 -0.25858
#
# Static dielectric constant tensor:
#      x y z
#    x 1.554790 0.000000 0.000000 
#    y 0.000000 1.597130 0.000000 
#    z 0.000000 0.000000 1.590920 
# 
# From -- ./inp_files/6928.got.cif
#   From: 2010.05.17/outbox.cif.g08.bks.cpg/sg55_4_cif.got.tgz:6928.got - 2010.06.03 13:27:54.
