data_PCOD9426256
_publ_section_title
;
Structure prediction by ZEFSAII (Michael W. Deem and Ramdas Pophale) SiO2 
 PCOD9426256
Probable space group: P B A M
;
_chemical_formula_sum "Si O2"
_cell_formula_units_Z 48
_cell_length_a 20.657473
_cell_length_b 14.518038
_cell_length_c 7.810984
_cell_angle_alpha 90.000000
_cell_angle_beta 90.000000
_cell_angle_gamma 90.000000
_cell_volume 2342.560796
_symmetry_space_group_name_H-M "P B A M"
_symmetry_group_IT_number 55
_symmetry_cell_setting 'orthorhombic'
loop_
_space_group_symop_operation_xyz
x,y,z
-x,-y,z
1/2+x,1/2-y,-z
1/2-x,1/2+y,-z
-x,-y,-z
x,y,-z
1/2-x,1/2+y,z
1/2+x,1/2-y,z
loop_
_atom_site_type_symbol
_atom_site_label
_atom_site_fract_x
_atom_site_fract_y
_atom_site_fract_z
Si Si1 0.802674 0.048928 0.699830
Si Si2 0.565706 0.451389 0.290832
Si Si3 0.678640 0.940867 0.802888
Si Si4 0.440941 0.941748 0.301319
Si Si5 0.111979 0.248098 0.707251
Si Si6 0.735751 0.749620 0.795155
O O1 0.795668 0.023683 0.500000
O O2 0.794967 0.157775 0.718933
O O3 0.871312 0.010052 0.760203
O O4 0.743514 0.001504 0.796360
O O5 0.500000 0.500000 0.231563
O O6 0.563925 0.450785 0.500000
O O7 0.577102 0.345882 0.235643
O O8 0.699024 0.841141 0.733597
O O9 0.622524 0.994692 0.706359
O O10 0.657664 0.931337 0.000000
O O11 0.458340 0.924120 0.500000
O O12 0.421492 0.841974 0.227302
O O13 0.500000 0.000000 0.223170
O O14 0.110088 0.250161 0.500000
O O15 0.187810 0.245697 0.754615
O O16 0.729659 0.746028 0.000000
#
# Coordination Sequence:
#
# PCOD9426256 Si02
#       6
#     8   8   8   8   8   8
#     4  11  21  35  60  89 115 149 196 247 293 343
#     4   9  19  35  57  87 119 151 191 240 295 348
#     4  11  23  38  58  85 118 156 197 241 291 351
#     4  10  22  38  59  89 121 155 198 247 294 348
#     4  10  19  35  59  84 115 155 196 238 293 351
#     4  11  23  37  57  86 120 156 197 242 292 347
#
# _framework density 20.490396
#
# number of rings (size 3 to 8) (size 9 to 14) (size 15 to 20)
#    0.000    1.667    3.333    1.500    0.000    3.667 
#    0.000    3.333    0.000    4.500    0.000    0.000 
#    0.000    0.000    0.000    0.000    0.000    0.000 
#
# Total GULP energy -268139.377346 kJ/mol
# GULP energy per Si atom -5586.237028 kJ/mol
# Density = 2.044376 g / cm^3
# Si number density = 20.490396 Si / 1000 Ang^3
#
#
#
# Elastic Constant Matrix: (Units=GPa)
#
#
# Indices 1 2 3 4 5 6 
#
# 1 137.8108 72.4012 -4.8205 0.0000 0.0000 0.0000
# 2 72.4012 167.1216 -7.9144 0.0000 0.0000 0.0000
# 3 -4.8205 -7.9144 33.4178 0.0000 0.0000 0.0000
# 4 0.0000 0.0000 0.0000 -45.0608 0.0000 0.0000
# 5 0.0000 0.0000 0.0000 0.0000 1932.8864 0.0000
# 6 0.0000 0.0000 0.0000 0.0000 0.0000 29.7430
#
#
#
# Elastic Compliance Matrix: (Units=1/GPa)
#
#
# Indices 1 2 3 4 5 6 
#
# 1 0.009400 -0.004053 0.000396 0.000000 0.000000 0.000000
# 2 -0.004053 0.007800 0.001262 0.000000 0.000000 0.000000
# 3 0.000396 0.001262 0.030280 0.000000 0.000000 0.000000
# 4 0.000000 0.000000 0.000000 -0.022192 0.000000 0.000000
# 5 0.000000 0.000000 0.000000 0.000000 0.000517 0.000000
# 6 0.000000 0.000000 0.000000 0.000000 0.000000 0.033621
#
#
# Mechanical properties :
#
#
# Convention : Reuss Voigt Hill
#
# Bulk Modulus (GPa) = 23.42503 50.85363 37.13933
# Shear Modulus (GPa) = 63.73825 402.09266 232.91545
#
# Velocity S-wave (km/s) = 5.58336 14.02358 10.67321
# Velocity P-wave (km/s) = 7.28164 16.94363 13.04049
#
# Compressibility (1/GPa) = 0.04268937
#
# Stress axis : x y z
#
# Youngs Moduli (GPa) = 106.38625 128.21328 33.02482
#
# Poissons Ratio (x) = 0.51970 -0.01308
# Poissons Ratio (y) = 0.43123 -0.04169
# Poissons Ratio (z) = -0.04212 -0.16187
#
# Static dielectric constant tensor:
#      x y z
#    x 1.681310 0.000000 0.000000 
#    y 0.000000 1.748310 0.000000 
#    z 0.000000 0.000000 1.750130 
# 
# From -- ./inp_files/5604.got.cif
#   From: 2010.05.17/outbox.cif.g08.bks.cpg/sg55_3_cif.got.tgz:5604.got - 2010.06.03 13:27:54.
