data_PCOD9426782
_publ_section_title
;
Structure prediction by ZEFSAII (Michael W. Deem and Ramdas Pophale) SiO2 
 PCOD9426782
Probable space group: P B A M
;
_chemical_formula_sum "Si O2"
_cell_formula_units_Z 56
_cell_length_a 15.241626
_cell_length_b 22.070732
_cell_length_c 8.025146
_cell_angle_alpha 90.000000
_cell_angle_beta 90.000000
_cell_angle_gamma 90.000000
_cell_volume 2699.609701
_symmetry_space_group_name_H-M "P B A M"
_symmetry_group_IT_number 55
_symmetry_cell_setting 'orthorhombic'
loop_
_space_group_symop_operation_xyz
x,y,z
-x,-y,z
1/2+x,1/2-y,-z
1/2-x,1/2+y,-z
-x,-y,-z
x,y,-z
1/2-x,1/2+y,z
1/2+x,1/2-y,z
loop_
_atom_site_type_symbol
_atom_site_label
_atom_site_fract_x
_atom_site_fract_y
_atom_site_fract_z
Si Si1 0.788282 0.898971 0.702602
Si Si2 0.725003 0.767772 0.695171
Si Si3 0.638782 0.987379 0.307053
Si Si4 0.019695 0.409039 0.806201
Si Si5 0.485337 0.567819 0.200064
Si Si6 0.590451 0.220669 0.202345
Si Si7 0.559043 0.689403 0.199514
O O1 0.788739 0.897531 0.500000
O O2 0.745601 0.835469 0.763026
O O3 0.726298 0.954766 0.755322
O O4 0.886945 0.909264 0.762953
O O5 0.708696 0.774968 0.500000
O O6 0.813574 0.730429 0.726453
O O7 0.643795 0.729765 0.764193
O O8 0.650123 0.004319 0.500000
O O9 0.560761 0.937893 0.293348
O O10 0.601697 0.045283 0.210950
O O11 0.047595 0.342958 0.748744
O O12 0.993361 0.406331 0.000000
O O13 0.500000 0.500000 0.267805
O O14 0.551801 0.620296 0.262423
O O15 0.495386 0.564304 0.000000
O O16 0.526315 0.274069 0.260156
O O17 0.596104 0.221509 0.000000
O O18 0.552080 0.686428 0.000000
#
# Coordination Sequence:
#
# PCOD9426782 Si02
#       7
#     8   8   8   8   8   8   8
#     4  10  22  39  58  84 115 153 197 239 289 355
#     4  11  23  37  59  88 116 150 195 243 294 351
#     4  10  20  35  55  80 115 153 189 230 287 349
#     4  10  20  34  54  83 114 146 192 239 286 340
#     4  10  22  40  63  88 115 152 198 246 295 350
#     4  10  21  38  59  83 113 151 190 238 291 345
#     4  10  21  39  61  86 118 154 195 243 299 354
#
# _framework density 20.743739999999999
#
# number of rings (size 3 to 8) (size 9 to 14) (size 15 to 20)
#    0.000    1.857    1.429    3.000    0.000    5.429 
#    0.000    4.286    0.000    0.000    0.000    0.000 
#    0.000    0.000    0.000    0.000    0.000    0.000 
#
# Total GULP energy -312748.098449 kJ/mol
# GULP energy per Si atom -5584.787472 kJ/mol
# Density = 2.069653 g / cm^3
# Si number density = 20.743740 Si / 1000 Ang^3
#
#
#
# Elastic Constant Matrix: (Units=GPa)
#
#
# Indices 1 2 3 4 5 6 
#
# 1 83.5855 36.9127 -12.0748 0.0000 0.0000 0.0000
# 2 36.9127 125.3621 -0.4445 0.0000 0.0000 0.0000
# 3 -12.0748 -0.4445 7.9905 0.0000 0.0000 0.0000
# 4 0.0000 0.0000 0.0000 16.7878 0.0000 0.0000
# 5 0.0000 0.0000 0.0000 0.0000 29.4059 0.0000
# 6 0.0000 0.0000 0.0000 0.0000 0.0000 16.4616
#
#
#
# Elastic Compliance Matrix: (Units=1/GPa)
#
#
# Indices 1 2 3 4 5 6 
#
# 1 0.018228 -0.005271 0.027252 0.000000 0.000000 0.000000
# 2 -0.005271 0.009502 -0.007436 0.000000 0.000000 0.000000
# 3 0.027252 -0.007436 0.165917 0.000000 0.000000 0.000000
# 4 0.000000 0.000000 0.000000 0.059567 0.000000 0.000000
# 5 0.000000 0.000000 0.000000 0.000000 0.034007 0.000000
# 6 0.000000 0.000000 0.000000 0.000000 0.000000 0.060748
#
#
# Mechanical properties :
#
#
# Convention : Reuss Voigt Hill
#
# Bulk Modulus (GPa) = 4.48956 29.52500 17.00728
# Shear Modulus (GPa) = 12.71861 25.36738 19.04300
#
# Velocity S-wave (km/s) = 2.47883 3.50078 3.03316
# Velocity P-wave (km/s) = 3.21898 5.53216 4.52585
#
# Compressibility (1/GPa) = 0.22273919
#
# Stress axis : x y z
#
# Youngs Moduli (GPa) = 54.85984 105.23586 6.02710
#
# Poissons Ratio (x) = 0.55466 -0.16425
# Poissons Ratio (y) = 0.28915 0.04482
# Poissons Ratio (z) = -1.49506 0.78255
#
# Static dielectric constant tensor:
#      x y z
#    x 1.706360 0.000000 0.000000 
#    y 0.000000 1.769970 0.000000 
#    z 0.000000 0.000000 1.852520 
# 
# From -- ./inp_files/5994.got.cif
#   From: 2010.05.17/outbox.cif.g08.bks.cpg/sg55_3_cif.got.tgz:5994.got - 2010.06.03 13:27:54.
