data_PCOD9426469
_publ_section_title
;
Structure prediction by ZEFSAII (Michael W. Deem and Ramdas Pophale) SiO2 
 PCOD9426469
Probable space group: P B A M
;
_chemical_formula_sum "Si O2"
_cell_formula_units_Z 48
_cell_length_a 16.646408
_cell_length_b 9.830161
_cell_length_c 15.469160
_cell_angle_alpha 90.000000
_cell_angle_beta 90.000000
_cell_angle_gamma 90.000000
_cell_volume 2531.324935
_symmetry_space_group_name_H-M "P B A M"
_symmetry_group_IT_number 55
_symmetry_cell_setting 'orthorhombic'
loop_
_space_group_symop_operation_xyz
x,y,z
-x,-y,z
1/2+x,1/2-y,-z
1/2-x,1/2+y,-z
-x,-y,-z
x,y,-z
1/2-x,1/2+y,z
1/2+x,1/2-y,z
loop_
_atom_site_type_symbol
_atom_site_label
_atom_site_fract_x
_atom_site_fract_y
_atom_site_fract_z
Si Si1 0.907654 0.032269 0.220153
Si Si2 0.799909 0.688894 0.345240
Si Si3 0.590000 0.058352 0.789736
Si Si4 0.654127 0.297260 0.098255
Si Si5 0.688405 0.785913 0.185100
Si Si6 0.831397 0.984170 0.405449
O O1 0.884097 0.179756 0.185253
O O2 0.859674 0.922682 0.163273
O O3 0.883853 0.019777 0.321030
O O4 0.000000 0.000000 0.209741
O O5 0.879317 0.630517 0.298478
O O6 0.741874 0.743463 0.268301
O O7 0.817101 0.822442 0.400663
O O8 0.751069 0.569197 0.392167
O O9 0.652516 0.935702 0.806627
O O10 0.500000 0.000000 0.785433
O O11 0.603642 0.170690 0.864103
O O12 0.749184 0.267055 0.107253
O O13 0.632419 0.327998 0.000000
O O14 0.865116 0.020004 0.500000
#
# Coordination Sequence:
#
# PCOD9426469 Si02
#       6
#     8   8   8   8   8   8
#     4  11  23  40  62  90 125 161 196 249 312 358
#     4  10  19  38  59  89 119 160 201 247 296 350
#     4  11  21  37  62  89 122 159 198 248 304 362
#     4  11  23  41  63  89 119 156 205 251 298 364
#     4  10  20  37  62  85 116 159 203 241 292 356
#     4  11  21  37  64  92 122 160 209 250 292 357
#
# _framework density 18.962402000000001
#
# number of rings (size 3 to 8) (size 9 to 14) (size 15 to 20)
#    0.000    1.333    5.000    3.500    0.000    3.667 
#    0.000    1.667    0.000    2.000    0.000    0.000 
#    0.000    0.000    0.000    0.000    0.000    0.000 
#
# Total GULP energy -267892.848875 kJ/mol
# GULP energy per Si atom -5581.101018 kJ/mol
# Density = 1.891924 g / cm^3
# Si number density = 18.962402 Si / 1000 Ang^3
#
#
#
# Elastic Constant Matrix: (Units=GPa)
#
#
# Indices 1 2 3 4 5 6 
#
# 1 47.4992 -15.1946 2.5514 0.0000 0.0000 0.0000
# 2 -15.1946 75.9253 16.4596 0.0000 0.0000 0.0000
# 3 2.5514 16.4596 98.2195 0.0000 0.0000 0.0000
# 4 0.0000 0.0000 0.0000 -6.0547 0.0000 0.0000
# 5 0.0000 0.0000 0.0000 0.0000 6.5694 0.0000
# 6 0.0000 0.0000 0.0000 0.0000 0.0000 23.4492
#
#
#
# Elastic Compliance Matrix: (Units=1/GPa)
#
#
# Indices 1 2 3 4 5 6 
#
# 1 0.022677 0.004842 -0.001400 0.000000 0.000000 0.000000
# 2 0.004842 0.014701 -0.002589 0.000000 0.000000 0.000000
# 3 -0.001400 -0.002589 0.010652 0.000000 0.000000 0.000000
# 4 0.000000 0.000000 0.000000 -0.165161 0.000000 0.000000
# 5 0.000000 0.000000 0.000000 0.000000 0.152220 0.000000
# 6 0.000000 0.000000 0.000000 0.000000 0.000000 0.042645
#
#
# Mechanical properties :
#
#
# Convention : Reuss Voigt Hill
#
# Bulk Modulus (GPa) = 20.10704 25.47520 22.79112
# Shear Modulus (GPa) = 53.99058 19.31462 36.65260
#
# Velocity S-wave (km/s) = 5.34175 3.19497 4.40126
# Velocity P-wave (km/s) = 6.97656 5.20329 6.15413
#
# Compressibility (1/GPa) = 0.04973383
#
# Stress axis : x y z
#
# Youngs Moduli (GPa) = 44.09740 68.02184 93.88276
#
# Poissons Ratio (x) = -0.32935 0.13148
# Poissons Ratio (y) = -0.21351 0.24310
# Poissons Ratio (z) = 0.06176 0.17613
#
# Static dielectric constant tensor:
#      x y z
#    x 1.664380 0.000000 0.000000 
#    y 0.000000 1.688730 0.000000 
#    z 0.000000 0.000000 1.670850 
# 
# From -- ./inp_files/19344.got.cif
#   From: 2010.05.17/outbox.cif.g08.bks.cpg/sg55_10_cif.got.tgz:19344.got - 2010.06.03 13:27:54.
