data_PCOD9426518
_publ_section_title
;
Structure prediction by ZEFSAII (Michael W. Deem and Ramdas Pophale) SiO2 
 PCOD9426518
Probable space group: P B A M
;
_chemical_formula_sum "Si O2"
_cell_formula_units_Z 24
_cell_length_a 11.883530
_cell_length_b 15.449219
_cell_length_c 5.356174
_cell_angle_alpha 90.000000
_cell_angle_beta 90.000000
_cell_angle_gamma 90.000000
_cell_volume 983.346720
_symmetry_space_group_name_H-M "P B A M"
_symmetry_group_IT_number 55
_symmetry_cell_setting 'orthorhombic'
loop_
_space_group_symop_operation_xyz
x,y,z
-x,-y,z
1/2+x,1/2-y,-z
1/2-x,1/2+y,-z
-x,-y,-z
x,y,-z
1/2-x,1/2+y,z
1/2+x,1/2-y,z
loop_
_atom_site_type_symbol
_atom_site_label
_atom_site_fract_x
_atom_site_fract_y
_atom_site_fract_z
Si Si1 0.054564 0.181024 0.000000
Si Si2 0.475007 0.132330 0.000000
Si Si3 0.790964 0.092250 0.500000
Si Si4 0.354399 0.069561 0.500000
Si Si5 0.402613 0.584941 0.500000
Si Si6 0.273534 0.825307 0.000000
O O1 0.048352 0.124695 0.752071
O O2 0.970174 0.262573 0.000000
O O3 0.177007 0.228824 0.000000
O O4 0.419556 0.095637 0.250007
O O5 0.609563 0.118653 0.000000
O O6 0.678679 0.031904 0.500000
O O7 0.887319 0.018908 0.500000
O O8 0.788988 0.148504 0.748446
O O9 0.230618 0.112895 0.500000
#
# Coordination Sequence:
#
# PCOD9426518 Si02
#       6
#     4   4   4   4   4   4
#     4  10  20  34  49  66 101 136 164 202 238 276
#     4  10  20  31  48  72 102 133 164 190 236 293
#     4  10  20  31  48  72 102 133 164 190 236 293
#     4  10  20  31  48  72 102 133 164 190 236 293
#     4  10  20  34  49  66 101 136 164 202 238 276
#     4  10  20  31  48  72 102 133 164 190 236 293
#
# _framework density 24.406448999999999
#
# number of rings (size 3 to 8) (size 9 to 14) (size 15 to 20)
#    2.000    0.000    0.000    6.000    0.000    4.000 
#    0.000    0.000    0.000    0.000    0.000    0.000 
#    0.000   93.333    0.000    0.000    0.000    0.000 
#
# Total GULP energy -134292.338983 kJ/mol
# GULP energy per Si atom -5595.514124 kJ/mol
# Density = 2.435090 g / cm^3
# Si number density = 24.406449 Si / 1000 Ang^3
#
#
#
# Elastic Constant Matrix: (Units=GPa)
#
#
# Indices 1 2 3 4 5 6 
#
# 1 101.2351 24.6317 51.9123 0.0000 0.0000 0.0000
# 2 24.6317 142.2682 99.7962 0.0000 0.0000 0.0000
# 3 51.9123 99.7962 270.4314 0.0000 0.0000 0.0000
# 4 0.0000 0.0000 0.0000 61.1531 0.0000 0.0000
# 5 0.0000 0.0000 0.0000 0.0000-2310.7131 0.0000
# 6 0.0000 0.0000 0.0000 0.0000 0.0000 61.7948
#
#
#
# Elastic Compliance Matrix: (Units=1/GPa)
#
#
# Indices 1 2 3 4 5 6 
#
# 1 0.010991 -0.000571 -0.001899 0.000000 0.000000 0.000000
# 2 -0.000571 0.009514 -0.003401 0.000000 0.000000 0.000000
# 3 -0.001899 -0.003401 0.005318 0.000000 0.000000 0.000000
# 4 0.000000 0.000000 0.000000 0.016352 0.000000 0.000000
# 5 0.000000 0.000000 0.000000 0.000000 -0.000433 0.000000
# 6 0.000000 0.000000 0.000000 0.000000 0.000000 0.016183
#
#
# Mechanical properties :
#
#
# Convention : Reuss Voigt Hill
#
# Bulk Modulus (GPa) = 71.02435 96.29057 83.65746
# Shear Modulus (GPa) = 67.24089 -415.04674 -173.90293
#
# Velocity S-wave (km/s) = 5.25455 -13.05471 -8.45030
# Velocity P-wave (km/s) = 8.12265 13.70019 7.80121
#
# Compressibility (1/GPa) = 0.01407968
#
# Stress axis : x y z
#
# Youngs Moduli (GPa) = 90.98570 105.11242 188.05801
#
# Poissons Ratio (x) = 0.05998 0.35716
# Poissons Ratio (y) = 0.05192 0.63963
# Poissons Ratio (z) = 0.17280 0.35751
#
# Static dielectric constant tensor:
#      x y z
#    x 2.093950 0.000000 0.000000 
#    y 0.000000 1.926240 0.000000 
#    z 0.000000 0.000000 1.787370 
# 
# From -- ./inp_files/611.got.cif
#   From: 2010.05.17/outbox.cif.g08.bks.cpg/sg55_1_cif.got.tgz:611.got - 2010.06.03 13:27:54.
