data_PCOD9426185
_publ_section_title
;
Structure prediction by ZEFSAII (Michael W. Deem and Ramdas Pophale) SiO2 
 PCOD9426185
Probable space group: P B A M
;
_chemical_formula_sum "Si O2"
_cell_formula_units_Z 48
_cell_length_a 15.401268
_cell_length_b 19.978047
_cell_length_c 8.945049
_cell_angle_alpha 90.000000
_cell_angle_beta 90.000000
_cell_angle_gamma 90.000000
_cell_volume 2752.277581
_symmetry_space_group_name_H-M "P B A M"
_symmetry_group_IT_number 55
_symmetry_cell_setting 'orthorhombic'
loop_
_space_group_symop_operation_xyz
x,y,z
-x,-y,z
1/2+x,1/2-y,-z
1/2-x,1/2+y,-z
-x,-y,-z
x,y,-z
1/2-x,1/2+y,z
1/2+x,1/2-y,z
loop_
_atom_site_type_symbol
_atom_site_label
_atom_site_fract_x
_atom_site_fract_y
_atom_site_fract_z
Si Si1 0.621061 0.189404 0.179717
Si Si2 0.302964 0.330726 0.678915
Si Si3 0.015490 0.803961 0.178805
Si Si4 0.268470 0.485743 0.679514
Si Si5 0.437230 0.563610 0.678272
Si Si6 0.588152 0.035462 0.820254
O O1 0.713960 0.199943 0.257554
O O2 0.548704 0.243488 0.221890
O O3 0.590229 0.114230 0.218687
O O4 0.632919 0.192156 0.000000
O O5 0.305156 0.325822 0.500000
O O6 0.389563 0.299673 0.748079
O O7 0.299773 0.410255 0.719114
O O8 0.972122 0.872778 0.234227
O O9 0.024354 0.804136 0.000000
O O10 0.261263 0.487344 0.500000
O O11 0.341423 0.539117 0.723675
O O12 0.174902 0.496119 0.751736
O O13 0.500000 0.500000 0.700743
O O14 0.437963 0.578208 0.500000
O O15 0.500000 0.000000 0.769437
O O16 0.592641 0.030308 0.000000
#
# Coordination Sequence:
#
# PCOD9426185 Si02
#       6
#     8   8   8   8   8   8
#     4   9  20  38  55  77 109 142 178 223 270 318
#     4  10  19  35  58  79 103 141 184 220 266 322
#     4  11  22  35  54  80 112 146 180 222 273 329
#     4   9  18  33  54  78 105 137 171 220 270 310
#     4  10  19  35  55  78 111 142 175 223 272 317
#     4   9  18  35  58  79 102 137 179 220 265 320
#
# _framework density 17.440100999999999
#
# number of rings (size 3 to 8) (size 9 to 14) (size 15 to 20)
#    0.000    2.333    1.667    1.000    0.000    3.333 
#    3.000    0.000    0.000    0.000    0.000    0.000 
#    0.000    0.000    0.000    0.000    0.000    0.000 
#
# Total GULP energy -267830.828554 kJ/mol
# GULP energy per Si atom -5579.808928 kJ/mol
# Density = 1.740041 g / cm^3
# Si number density = 17.440101 Si / 1000 Ang^3
#
#
#
# Elastic Constant Matrix: (Units=GPa)
#
#
# Indices 1 2 3 4 5 6 
#
# 1 198.3640 74.8314 56.4088 0.0000 0.0000 0.0000
# 2 74.8314 57.2503 30.4690 0.0000 0.0000 0.0000
# 3 56.4088 30.4690 29.2978 0.0000 0.0000 0.0000
# 4 0.0000 0.0000 0.0000 19.6970 0.0000 0.0000
# 5 0.0000 0.0000 0.0000 0.0000 27.3375 0.0000
# 6 0.0000 0.0000 0.0000 0.0000 0.0000 32.3639
#
#
#
# Elastic Compliance Matrix: (Units=1/GPa)
#
#
# Indices 1 2 3 4 5 6 
#
# 1 0.012574 -0.007952 -0.015939 0.000000 0.000000 0.000000
# 2 -0.007952 0.044148 -0.030602 0.000000 0.000000 0.000000
# 3 -0.015939 -0.030602 0.096645 0.000000 0.000000 0.000000
# 4 0.000000 0.000000 0.000000 0.050769 0.000000 0.000000
# 5 0.000000 0.000000 0.000000 0.000000 0.036580 0.000000
# 6 0.000000 0.000000 0.000000 0.000000 0.000000 0.030899
#
#
# Mechanical properties :
#
#
# Convention : Reuss Voigt Hill
#
# Bulk Modulus (GPa) = 22.53217 67.59228 45.06222
# Shear Modulus (GPa) = 12.64564 24.09321 18.36942
#
# Velocity S-wave (km/s) = 2.69567 3.72086 3.24896
# Velocity P-wave (km/s) = 4.75780 7.56972 6.32208
#
# Compressibility (1/GPa) = 0.04438099
#
# Stress axis : x y z
#
# Youngs Moduli (GPa) = 79.53164 22.65102 10.34717
#
# Poissons Ratio (x) = 0.18013 0.16492
# Poissons Ratio (y) = 0.63246 0.31664
# Poissons Ratio (z) = 1.26762 0.69317
#
# Static dielectric constant tensor:
#      x y z
#    x 1.582550 0.000000 0.000000 
#    y 0.000000 1.577720 0.000000 
#    z 0.000000 0.000000 1.583640 
# 
# From -- ./inp_files/5643.got.cif
#   From: 2010.05.17/outbox.cif.g08.bks.cpg/sg55_3_cif.got.tgz:5643.got - 2010.06.03 13:27:54.
