data_PCOD9426657
_publ_section_title
;
Structure prediction by ZEFSAII (Michael W. Deem and Ramdas Pophale) SiO2 
 PCOD9426657
Probable space group: P B A M
;
_chemical_formula_sum "Si O2"
_cell_formula_units_Z 64
_cell_length_a 11.155199
_cell_length_b 32.104530
_cell_length_c 9.873578
_cell_angle_alpha 90.000000
_cell_angle_beta 90.000000
_cell_angle_gamma 90.000000
_cell_volume 3536.048393
_symmetry_space_group_name_H-M "P B A M"
_symmetry_group_IT_number 55
_symmetry_cell_setting 'orthorhombic'
loop_
_space_group_symop_operation_xyz
x,y,z
-x,-y,z
1/2+x,1/2-y,-z
1/2-x,1/2+y,-z
-x,-y,-z
x,y,-z
1/2-x,1/2+y,z
1/2+x,1/2-y,z
loop_
_atom_site_type_symbol
_atom_site_label
_atom_site_fract_x
_atom_site_fract_y
_atom_site_fract_z
Si Si1 0.424523 0.755230 0.841851
Si Si2 0.940562 0.605823 0.849736
Si Si3 0.640172 0.318587 0.341183
Si Si4 0.734131 0.675858 0.151690
Si Si5 0.569193 0.623178 0.341478
Si Si6 0.886866 0.027864 0.335491
Si Si7 0.630598 0.824472 0.843715
Si Si8 0.614283 0.029065 0.662662
O O1 0.431027 0.717562 0.738185
O O2 0.301326 0.781024 0.816307
O O3 0.533618 0.787595 0.826034
O O4 0.422857 0.742250 0.000000
O O5 0.839185 0.641365 0.853455
O O6 0.909834 0.572543 0.736772
O O7 0.061776 0.631712 0.827121
O O8 0.944450 0.586237 0.000000
O O9 0.651964 0.308794 0.500000
O O10 0.567824 0.361922 0.329920
O O11 0.765088 0.321127 0.263922
O O12 0.643622 0.657114 0.258655
O O13 0.681596 0.679452 0.000000
O O14 0.602839 0.625101 0.500000
O O15 0.593546 0.576111 0.293796
O O16 0.891132 0.027011 0.500000
O O17 0.750189 0.014708 0.298067
O O18 0.000000 0.000000 0.288020
O O19 0.673726 0.821881 0.000000
O O20 0.615219 0.034163 0.500000
O O21 0.500000 0.000000 0.696414
#
# Coordination Sequence:
#
# PCOD9426657 Si02
#       8
#     8   8   8   8   8   8   8   8
#     4   9  20  38  58  79 105 145 191 231 276 336
#     4   9  18  35  58  81 106 139 180 229 281 332
#     4  11  24  36  51  82 118 147 184 236 289 339
#     4   9  18  34  58  82 103 136 184 229 270 328
#     4  10  21  36  55  81 112 148 187 229 284 342
#     4   9  18  35  57  79 111 154 193 232 286 351
#     4   9  20  39  58  77 106 146 190 230 279 343
#     4  10  20  33  55  87 113 143 192 240 285 347
#
# _framework density 18.099301000000001
#
# number of rings (size 3 to 8) (size 9 to 14) (size 15 to 20)
#    0.000    2.500    1.250    1.875    1.750    3.750 
#    0.000    5.000    0.000    1.500    0.000    0.000 
#    0.000    0.000    0.000    0.000    0.000    0.000 
#
# Total GULP energy -356724.656977 kJ/mol
# GULP energy per Si atom -5573.822765 kJ/mol
# Density = 1.805811 g / cm^3
# Si number density = 18.099301 Si / 1000 Ang^3
#
#
#
# Elastic Constant Matrix: (Units=GPa)
#
#
# Indices 1 2 3 4 5 6 
#
# 1 109.4733 47.0634 50.4450 0.0000 0.0000 0.0000
# 2 47.0634 64.7849 30.0471 0.0000 0.0000 0.0000
# 3 50.4450 30.0471 51.7237 0.0000 0.0000 0.0000
# 4 0.0000 0.0000 0.0000 21.8726 0.0000 0.0000
# 5 0.0000 0.0000 0.0000 0.0000 0.3808 0.0000
# 6 0.0000 0.0000 0.0000 0.0000 0.0000 20.9022
#
#
#
# Elastic Compliance Matrix: (Units=1/GPa)
#
#
# Indices 1 2 3 4 5 6 
#
# 1 0.018653 -0.006999 -0.014126 0.000000 0.000000 0.000000
# 2 -0.006999 0.023754 -0.006974 0.000000 0.000000 0.000000
# 3 -0.014126 -0.006974 0.037161 0.000000 0.000000 0.000000
# 4 0.000000 0.000000 0.000000 0.045719 0.000000 0.000000
# 5 0.000000 0.000000 0.000000 0.000000 2.626074 0.000000
# 6 0.000000 0.000000 0.000000 0.000000 0.000000 0.047842
#
#
# Mechanical properties :
#
#
# Convention : Reuss Voigt Hill
#
# Bulk Modulus (GPa) = 42.78645 53.45476 48.12061
# Shear Modulus (GPa) = 1.74630 15.19290 8.46960
#
# Velocity S-wave (km/s) = 0.98333 2.90042 2.16557
# Velocity P-wave (km/s) = 4.99804 6.38865 5.73564
#
# Compressibility (1/GPa) = 0.02337188
#
# Stress axis : x y z
#
# Youngs Moduli (GPa) = 53.61193 42.09769 26.90987
#
# Poissons Ratio (x) = 0.29463 0.38012
# Poissons Ratio (y) = 0.37522 0.18766
# Poissons Ratio (z) = 0.75731 0.29357
#
# Static dielectric constant tensor:
#      x y z
#    x 1.660840 0.000000 0.000000 
#    y 0.000000 1.614870 0.000000 
#    z 0.000000 0.000000 1.599500 
# 
# From -- ./inp_files/4500.got.cif
#   From: 2010.05.17/outbox.cif.g08.bks.cpg/sg55_3_cif.got.tgz:4500.got - 2010.06.03 13:27:54.
