data_PCOD9426138
_publ_section_title
;
Structure prediction by ZEFSAII (Michael W. Deem and Ramdas Pophale) SiO2 
 PCOD9426138
Probable space group: P B A M
;
_chemical_formula_sum "Si O2"
_cell_formula_units_Z 64
_cell_length_a 25.195811
_cell_length_b 14.664091
_cell_length_c 8.791281
_cell_angle_alpha 90.000000
_cell_angle_beta 90.000000
_cell_angle_gamma 90.000000
_cell_volume 3248.146814
_symmetry_space_group_name_H-M "P B A M"
_symmetry_group_IT_number 55
_symmetry_cell_setting 'orthorhombic'
loop_
_space_group_symop_operation_xyz
x,y,z
-x,-y,z
1/2+x,1/2-y,-z
1/2-x,1/2+y,-z
-x,-y,-z
x,y,-z
1/2-x,1/2+y,z
1/2+x,1/2-y,z
loop_
_atom_site_type_symbol
_atom_site_label
_atom_site_fract_x
_atom_site_fract_y
_atom_site_fract_z
Si Si1 0.895443 0.368567 0.320185
Si Si2 0.308232 0.770334 0.815240
Si Si3 0.395674 0.624729 0.817938
Si Si4 0.379864 0.424505 0.316853
Si Si5 0.004902 0.389005 0.825534
Si Si6 0.880371 0.568359 0.184191
Si Si7 0.504953 0.611055 0.675341
Si Si8 0.187986 0.772230 0.182539
O O1 0.890566 0.359725 0.500000
O O2 0.882622 0.471386 0.265322
O O3 0.853744 0.302212 0.240409
O O4 0.956645 0.350968 0.272294
O O5 0.351436 0.696311 0.764675
O O6 0.330218 0.870131 0.773908
O O7 0.248202 0.752443 0.766167
O O8 0.308596 0.767628 0.000000
O O9 0.382579 0.526496 0.746431
O O10 0.455792 0.649029 0.769483
O O11 0.393897 0.618588 0.000000
O O12 0.379143 0.426246 0.500000
O O13 0.434999 0.373831 0.270505
O O14 0.331447 0.368213 0.249707
O O15 0.065760 0.375504 0.777886
O O16 0.000000 0.500000 0.823678
O O17 0.998110 0.359006 0.000000
O O18 0.881643 0.554386 0.000000
O O19 0.500000 0.500000 0.677761
O O20 0.499902 0.639955 0.500000
O O21 0.186984 0.775413 0.000000
#
# Coordination Sequence:
#
# PCOD9426138 Si02
#       8
#     8   8   8   8   8   8   8   8
#     4  11  22  36  55  83 117 147 178 222 276 331
#     4   9  21  39  58  81 108 141 186 236 275 315
#     4  10  19  34  58  87 114 143 183 225 269 327
#     4  10  21  38  57  81 115 148 179 224 280 328
#     4   8  15  30  55  84 111 142 179 219 268 327
#     4   9  18  37  61  83 110 144 183 228 276 323
#     4   8  16  32  53  79 113 147 175 214 273 329
#     4  11  23  40  59  78 104 144 193 234 271 322
#
# _framework density 19.703543
#
# number of rings (size 3 to 8) (size 9 to 14) (size 15 to 20)
#    0.000    2.500    0.000    3.750    0.000    7.000 
#    0.000   11.250    0.000    0.000    0.000    0.000 
#    0.000    0.000    0.000    0.000    0.000    0.000 
#
# Total GULP energy -357283.186089 kJ/mol
# GULP energy per Si atom -5582.549783 kJ/mol
# Density = 1.965870 g / cm^3
# Si number density = 19.703543 Si / 1000 Ang^3
#
#
#
# Elastic Constant Matrix: (Units=GPa)
#
#
# Indices 1 2 3 4 5 6 
#
# 1 103.6892 12.6576 28.4053 0.0000 0.0000 0.0000
# 2 12.6576 38.5877 11.1393 0.0000 0.0000 0.0000
# 3 28.4053 11.1393 51.7573 0.0000 0.0000 0.0000
# 4 0.0000 0.0000 0.0000 -28.1761 0.0000 0.0000
# 5 0.0000 0.0000 0.0000 0.0000 8.8594 0.0000
# 6 0.0000 0.0000 0.0000 0.0000 0.0000 30.4335
#
#
#
# Elastic Compliance Matrix: (Units=1/GPa)
#
#
# Indices 1 2 3 4 5 6 
#
# 1 0.011505 -0.002080 -0.005867 0.000000 0.000000 0.000000
# 2 -0.002080 0.028008 -0.004886 0.000000 0.000000 0.000000
# 3 -0.005867 -0.004886 0.023592 0.000000 0.000000 0.000000
# 4 0.000000 0.000000 0.000000 -0.035491 0.000000 0.000000
# 5 0.000000 0.000000 0.000000 0.000000 0.112875 0.000000
# 6 0.000000 0.000000 0.000000 0.000000 0.000000 0.032859
#
#
# Mechanical properties :
#
#
# Convention : Reuss Voigt Hill
#
# Bulk Modulus (GPa) = 26.71000 33.15986 29.93493
# Shear Modulus (GPa) = 23.64140 11.67883 17.66011
#
# Velocity S-wave (km/s) = 3.46765 2.43724 2.99706
# Velocity P-wave (km/s) = 5.44226 4.97857 5.21557
#
# Compressibility (1/GPa) = 0.03743916
#
# Stress axis : x y z
#
# Youngs Moduli (GPa) = 86.91649 35.70421 42.38690
#
# Poissons Ratio (x) = 0.07428 0.24866
# Poissons Ratio (y) = 0.18083 0.20711
# Poissons Ratio (z) = 0.50990 0.17445
#
# Static dielectric constant tensor:
#      x y z
#    x 1.708950 0.000000 0.000000 
#    y 0.000000 1.710610 0.000000 
#    z 0.000000 0.000000 1.658680 
# 
# From -- ./inp_files/9704.got.cif
#   From: 2010.05.17/outbox.cif.g08.bks.cpg/sg55_5_cif.got.tgz:9704.got - 2010.06.03 13:27:54.
