data_PCOD9426059
_publ_section_title
;
Structure prediction by ZEFSAII (Michael W. Deem and Ramdas Pophale) SiO2 
 PCOD9426059
Probable space group: P B A M
;
_chemical_formula_sum "Si O2"
_cell_formula_units_Z 64
_cell_length_a 14.829657
_cell_length_b 25.826107
_cell_length_c 8.627528
_cell_angle_alpha 90.000000
_cell_angle_beta 90.000000
_cell_angle_gamma 90.000000
_cell_volume 3304.276865
_symmetry_space_group_name_H-M "P B A M"
_symmetry_group_IT_number 55
_symmetry_cell_setting 'orthorhombic'
loop_
_space_group_symop_operation_xyz
x,y,z
-x,-y,z
1/2+x,1/2-y,-z
1/2-x,1/2+y,-z
-x,-y,-z
x,y,-z
1/2-x,1/2+y,z
1/2+x,1/2-y,z
loop_
_atom_site_type_symbol
_atom_site_label
_atom_site_fract_x
_atom_site_fract_y
_atom_site_fract_z
Si Si1 0.045152 0.716471 0.319087
Si Si2 0.532058 0.898381 0.688696
Si Si3 0.840539 0.565078 0.687248
Si Si4 0.139643 0.123983 0.815870
Si Si5 0.737033 0.276873 0.680233
Si Si6 0.245185 0.833231 0.185941
Si Si7 0.962106 0.173729 0.814158
Si Si8 0.216610 0.547747 0.687070
O O1 0.020126 0.720393 0.500000
O O2 0.154417 0.716667 0.309119
O O3 0.012242 0.767976 0.235133
O O4 0.015491 0.660517 0.257212
O O5 0.536990 0.895711 0.500000
O O6 0.446676 0.933654 0.727877
O O7 0.627619 0.920885 0.741580
O O8 0.834771 0.568304 0.500000
O O9 0.795550 0.615769 0.758189
O O10 0.794309 0.511665 0.737411
O O11 0.191613 0.177073 0.774572
O O12 0.194634 0.077028 0.742322
O O13 0.037555 0.133575 0.758363
O O14 0.138389 0.116998 0.000000
O O15 0.711766 0.281668 0.500000
O O16 0.715613 0.219630 0.742241
O O17 0.140116 0.836436 0.238368
O O18 0.247404 0.829126 0.000000
O O19 0.961637 0.171876 0.000000
O O20 0.215048 0.548514 0.500000
#
# Coordination Sequence:
#
# PCOD9426059 Si02
#       8
#     8   8   8   8   8   8   8   8
#     4   9  17  31  53  81 111 142 178 218 268 330
#     4   9  17  33  55  83 113 145 183 223 273 331
#     4  10  21  36  59  85 110 146 190 234 277 328
#     4  11  22  36  56  83 112 146 189 232 279 330
#     4  10  19  34  56  82 112 144 181 225 275 331
#     4  10  21  39  58  79 112 149 186 231 281 330
#     4   9  21  38  54  76 111 149 185 226 277 332
#     4  10  20  38  59  82 113 148 188 231 276 329
#
# _framework density 19.368838
#
# number of rings (size 3 to 8) (size 9 to 14) (size 15 to 20)
#    0.000    2.250    1.250    1.500    1.750    4.000 
#    0.000    1.250    0.000    5.250    0.000    0.000 
#    0.000    0.000    0.000    0.000    0.000    0.000 
#
# Total GULP energy -357305.758278 kJ/mol
# GULP energy per Si atom -5582.902473 kJ/mol
# Density = 1.932475 g / cm^3
# Si number density = 19.368838 Si / 1000 Ang^3
#
#
#
# Elastic Constant Matrix: (Units=GPa)
#
#
# Indices 1 2 3 4 5 6 
#
# 1 25.5732 1.2675 3.0701 0.0000 0.0000 0.0000
# 2 1.2675 74.4384 3.8540 0.0000 0.0000 0.0000
# 3 3.0701 3.8540 6.3143 0.0000 0.0000 0.0000
# 4 0.0000 0.0000 0.0000 -4.5504 0.0000 0.0000
# 5 0.0000 0.0000 0.0000 0.0000 18.3591 0.0000
# 6 0.0000 0.0000 0.0000 0.0000 0.0000 30.2520
#
#
#
# Elastic Compliance Matrix: (Units=1/GPa)
#
#
# Indices 1 2 3 4 5 6 
#
# 1 0.041536 0.000349 -0.020409 0.000000 0.000000 0.000000
# 2 0.000349 0.013875 -0.008639 0.000000 0.000000 0.000000
# 3 -0.020409 -0.008639 0.173567 0.000000 0.000000 0.000000
# 4 0.000000 0.000000 0.000000 -0.219760 0.000000 0.000000
# 5 0.000000 0.000000 0.000000 0.000000 0.054469 0.000000
# 6 0.000000 0.000000 0.000000 0.000000 0.000000 0.033056
#
#
# Mechanical properties :
#
#
# Convention : Reuss Voigt Hill
#
# Bulk Modulus (GPa) = 5.82812 13.63435 9.73124
# Shear Modulus (GPa) = 23.65917 15.35440 19.50679
#
# Velocity S-wave (km/s) = 3.49880 2.81861 3.17696
# Velocity P-wave (km/s) = 4.39746 4.20088 4.30029
#
# Compressibility (1/GPa) = 0.17158193
#
# Stress axis : x y z
#
# Youngs Moduli (GPa) = 24.07535 72.07074 5.76146
#
# Poissons Ratio (x) = -0.02518 0.11759
# Poissons Ratio (y) = -0.00841 0.04977
# Poissons Ratio (z) = 0.49135 0.62261
#
# Static dielectric constant tensor:
#      x y z
#    x 1.709700 0.000000 0.000000 
#    y 0.000000 1.656260 0.000000 
#    z 0.000000 0.000000 1.658090 
# 
# From -- ./inp_files/6557.got.cif
#   From: 2010.05.17/outbox.cif.g08.bks.cpg/sg55_4_cif.got.tgz:6557.got - 2010.06.03 13:27:54.
