data_PCOD9426386
_publ_section_title
;
Structure prediction by ZEFSAII (Michael W. Deem and Ramdas Pophale) SiO2 
 PCOD9426386
Probable space group: P B A M
;
_chemical_formula_sum "Si O2"
_cell_formula_units_Z 64
_cell_length_a 30.537256
_cell_length_b 11.563239
_cell_length_c 8.510039
_cell_angle_alpha 90.000000
_cell_angle_beta 90.000000
_cell_angle_gamma 90.000000
_cell_volume 3004.976378
_symmetry_space_group_name_H-M "P B A M"
_symmetry_group_IT_number 55
_symmetry_cell_setting 'orthorhombic'
loop_
_space_group_symop_operation_xyz
x,y,z
-x,-y,z
1/2+x,1/2-y,-z
1/2-x,1/2+y,-z
-x,-y,-z
x,y,-z
1/2-x,1/2+y,z
1/2+x,1/2-y,z
loop_
_atom_site_type_symbol
_atom_site_label
_atom_site_fract_x
_atom_site_fract_y
_atom_site_fract_z
Si Si1 0.228570 0.914203 0.688649
Si Si2 0.760366 0.836629 0.181471
Si Si3 0.564769 0.452136 0.319014
Si Si4 0.630364 0.631158 0.688557
Si Si5 0.415483 0.165939 0.188936
Si Si6 0.149896 0.213973 0.321967
Si Si7 0.491496 0.741768 0.188206
Si Si8 0.408680 0.897755 0.811204
O O1 0.231054 0.917287 0.500000
O O2 0.244277 0.785880 0.742915
O O3 0.177202 0.917213 0.737973
O O4 0.250521 0.034341 0.750168
O O5 0.812687 0.825852 0.205227
O O6 0.747455 0.835559 0.000000
O O7 0.552970 0.474209 0.500000
O O8 0.587645 0.564356 0.244536
O O9 0.606897 0.366171 0.316484
O O10 0.525174 0.383743 0.240810
O O11 0.628607 0.618650 0.500000
O O12 0.623988 0.762741 0.736894
O O13 0.461829 0.215990 0.248965
O O14 0.412851 0.031506 0.224778
O O15 0.413957 0.178595 0.000000
O O16 0.167405 0.209155 0.500000
O O17 0.131895 0.339127 0.275682
O O18 0.453335 0.831683 0.235139
O O19 0.493483 0.743422 0.000000
O O20 0.403474 0.882468 0.000000
#
# Coordination Sequence:
#
# PCOD9426386 Si02
#       8
#     8   8   8   8   8   8   8   8
#     4  11  24  46  70  93 126 171 213 254 312 385
#     4  12  25  42  67 101 132 161 204 262 317 374
#     4   9  18  35  57  81 109 146 194 243 287 344
#     4  10  22  40  60  81 112 153 197 241 293 356
#     4  10  21  35  53  80 117 155 196 247 303 359
#     4  10  19  36  61  87 115 153 198 240 291 362
#     4   9  18  33  54  81 111 152 199 245 299 357
#     4   9  18  34  55  81 115 156 200 250 300 354
#
# _framework density 21.298006000000001
#
# number of rings (size 3 to 8) (size 9 to 14) (size 15 to 20)
#    0.000    2.000    1.250    2.250    0.000    6.000 
#    0.000    5.000    0.000    3.750    0.000    0.000 
#    0.000    0.000    0.000    0.000    0.000    0.000 
#
# Total GULP energy -357112.014761 kJ/mol
# GULP energy per Si atom -5579.875231 kJ/mol
# Density = 2.124953 g / cm^3
# Si number density = 21.298006 Si / 1000 Ang^3
#
#
#
# Elastic Constant Matrix: (Units=GPa)
#
#
# Indices 1 2 3 4 5 6 
#
# 1 21.6979 34.8535 4.9175 0.0000 0.0000 0.0000
# 2 34.8535 149.1203 31.1589 0.0000 0.0000 0.0000
# 3 4.9175 31.1589 27.8104 0.0000 0.0000 0.0000
# 4 0.0000 0.0000 0.0000 27.1435 0.0000 0.0000
# 5 0.0000 0.0000 0.0000 0.0000 10.5844 0.0000
# 6 0.0000 0.0000 0.0000 0.0000 0.0000 29.5863
#
#
#
# Elastic Compliance Matrix: (Units=1/GPa)
#
#
# Indices 1 2 3 4 5 6 
#
# 1 0.075250 -0.019334 0.008356 0.000000 0.000000 0.000000
# 2 -0.019334 0.013723 -0.011957 0.000000 0.000000 0.000000
# 3 0.008356 -0.011957 0.047877 0.000000 0.000000 0.000000
# 4 0.000000 0.000000 0.000000 0.036841 0.000000 0.000000
# 5 0.000000 0.000000 0.000000 0.000000 0.094479 0.000000
# 6 0.000000 0.000000 0.000000 0.000000 0.000000 0.033799
#
#
# Mechanical properties :
#
#
# Convention : Reuss Voigt Hill
#
# Bulk Modulus (GPa) = 10.99141 37.83206 24.41173
# Shear Modulus (GPa) = 13.22170 21.97608 17.59889
#
# Velocity S-wave (km/s) = 2.49428 3.21571 2.87769
# Velocity P-wave (km/s) = 3.66977 5.62045 4.74640
#
# Compressibility (1/GPa) = 0.09098017
#
# Stress axis : x y z
#
# Youngs Moduli (GPa) = 13.28908 72.86877 20.88690
#
# Poissons Ratio (x) = 1.40884 -0.17453
# Poissons Ratio (y) = 0.25693 0.24974
# Poissons Ratio (z) = -0.11104 0.87129
#
# Static dielectric constant tensor:
#      x y z
#    x 1.776760 0.000000 0.000000 
#    y 0.000000 1.802090 0.000000 
#    z 0.000000 0.000000 1.746270 
# 
# From -- ./inp_files/10800.got.cif
#   From: 2010.05.17/outbox.cif.g08.bks.cpg/sg55_6_cif.got.tgz:10800.got - 2010.06.03 13:27:54.
