data_PCOD9426571
_publ_section_title
;
Structure prediction by ZEFSAII (Michael W. Deem and Ramdas Pophale) SiO2 
 PCOD9426571
Probable space group: P B A M
;
_chemical_formula_sum "Si O2"
_cell_formula_units_Z 48
_cell_length_a 16.349673
_cell_length_b 9.288420
_cell_length_c 13.848035
_cell_angle_alpha 90.000000
_cell_angle_beta 90.000000
_cell_angle_gamma 90.000000
_cell_volume 2102.999011
_symmetry_space_group_name_H-M "P B A M"
_symmetry_group_IT_number 55
_symmetry_cell_setting 'orthorhombic'
loop_
_space_group_symop_operation_xyz
x,y,z
-x,-y,z
1/2+x,1/2-y,-z
1/2-x,1/2+y,-z
-x,-y,-z
x,y,-z
1/2-x,1/2+y,z
1/2+x,1/2-y,z
loop_
_atom_site_type_symbol
_atom_site_label
_atom_site_fract_x
_atom_site_fract_y
_atom_site_fract_z
Si Si1 0.637339 0.668147 0.762073
Si Si2 0.591705 0.429256 0.888100
Si Si3 0.196971 0.600816 0.389765
Si Si4 0.380826 0.523309 0.605579
Si Si5 0.002227 0.340770 0.180861
Si Si6 0.437953 0.848453 0.392385
O O1 0.656361 0.526330 0.827561
O O2 0.688222 0.778681 0.694214
O O3 0.581835 0.583749 0.682776
O O4 0.584941 0.766015 0.834182
O O5 0.500000 0.500000 0.880107
O O6 0.574513 0.266446 0.851615
O O7 0.614159 0.427567 0.000000
O O8 0.194984 0.663069 0.500000
O O9 0.283059 0.518389 0.381263
O O10 0.128285 0.476541 0.384865
O O11 0.404964 0.473415 0.500000
O O12 0.398222 0.691250 0.613095
O O13 0.008093 0.354596 0.297045
O O14 0.000000 0.500000 0.138463
O O15 0.476337 0.855272 0.500000
#
# Coordination Sequence:
#
# PCOD9426571 Si02
#       6
#     8   8   8   8   8   8
#     4  11  20  34  59  80 109 147 186 231 284 337
#     4   9  20  38  59  83 107 135 178 235 289 335
#     4  10  20  34  53  80 114 152 190 226 266 326
#     4  10  20  34  53  79 110 150 196 229 264 326
#     4  11  21  36  55  81 114 146 186 229 285 346
#     4  10  20  33  49  76 116 149 181 228 274 326
#
# _framework density 22.824546000000002
#
# number of rings (size 3 to 8) (size 9 to 14) (size 15 to 20)
#    0.000    1.833    3.333    1.500    0.000    4.667 
#    0.000    1.667    0.000    1.000    0.000    0.000 
#    0.000    0.000    0.000    0.000    0.000    0.000 
#
# Total GULP energy -267542.496190 kJ/mol
# GULP energy per Si atom -5573.802004 kJ/mol
# Density = 2.277260 g / cm^3
# Si number density = 22.824546 Si / 1000 Ang^3
#
#
#
# Elastic Constant Matrix: (Units=GPa)
#
#
# Indices 1 2 3 4 5 6 
#
# 1 39.6780 14.9069 -2.1982 0.0000 0.0000 0.0000
# 2 14.9069 160.9576 33.1157 0.0000 0.0000 0.0000
# 3 -2.1982 33.1157 101.4272 0.0000 0.0000 0.0000
# 4 0.0000 0.0000 0.0000 9.4007 0.0000 0.0000
# 5 0.0000 0.0000 0.0000 0.0000 17.5595 0.0000
# 6 0.0000 0.0000 0.0000 0.0000 0.0000 30.9463
#
#
#
# Elastic Compliance Matrix: (Units=1/GPa)
#
#
# Indices 1 2 3 4 5 6 
#
# 1 0.026313 -0.002738 0.001464 0.000000 0.000000 0.000000
# 2 -0.002738 0.006945 -0.002327 0.000000 0.000000 0.000000
# 3 0.001464 -0.002327 0.010651 0.000000 0.000000 0.000000
# 4 0.000000 0.000000 0.000000 0.106375 0.000000 0.000000
# 5 0.000000 0.000000 0.000000 0.000000 0.056949 0.000000
# 6 0.000000 0.000000 0.000000 0.000000 0.000000 0.032314
#
#
# Mechanical properties :
#
#
# Convention : Reuss Voigt Hill
#
# Bulk Modulus (GPa) = 27.24280 43.74574 35.49427
# Shear Modulus (GPa) = 19.30619 28.66386 23.98502
#
# Velocity S-wave (km/s) = 2.91151 3.54762 3.24519
# Velocity P-wave (km/s) = 4.82329 5.99904 5.44301
#
# Compressibility (1/GPa) = 0.03670694
#
# Stress axis : x y z
#
# Youngs Moduli (GPa) = 38.00446 143.98530 93.89011
#
# Poissons Ratio (x) = 0.39426 -0.13748
# Poissons Ratio (y) = 0.10406 0.21847
# Poissons Ratio (z) = -0.05565 0.33504
#
# Static dielectric constant tensor:
#      x y z
#    x 1.918330 0.000000 0.000000 
#    y 0.000000 1.969500 0.000000 
#    z 0.000000 0.000000 1.857730 
# 
# From -- ./inp_files/12237.got.cif
#   From: 2010.05.17/outbox.cif.g08.bks.cpg/sg55_7_cif.got.tgz:12237.got - 2010.06.03 13:27:54.
