data_PCOD9426091
_publ_section_title
;
Structure prediction by ZEFSAII (Michael W. Deem and Ramdas Pophale) SiO2 
 PCOD9426091
Probable space group: P B A M
;
_chemical_formula_sum "Si O2"
_cell_formula_units_Z 40
_cell_length_a 21.873292
_cell_length_b 10.545344
_cell_length_c 7.603349
_cell_angle_alpha 90.000000
_cell_angle_beta 90.000000
_cell_angle_gamma 90.000000
_cell_volume 1753.799038
_symmetry_space_group_name_H-M "P B A M"
_symmetry_group_IT_number 55
_symmetry_cell_setting 'orthorhombic'
loop_
_space_group_symop_operation_xyz
x,y,z
-x,-y,z
1/2+x,1/2-y,-z
1/2-x,1/2+y,-z
-x,-y,-z
x,y,-z
1/2-x,1/2+y,z
1/2+x,1/2-y,z
loop_
_atom_site_type_symbol
_atom_site_label
_atom_site_fract_x
_atom_site_fract_y
_atom_site_fract_z
Si Si1 0.052676 0.176374 0.799154
Si Si2 0.714028 0.696455 0.714883
Si Si3 0.935234 0.540077 0.297292
Si Si4 0.581741 0.604636 0.295773
Si Si5 0.197097 0.524763 0.284360
O O1 0.069086 0.307770 0.707659
O O2 0.979212 0.157362 0.793929
O O3 0.079716 0.048078 0.717265
O O4 0.072966 0.183925 0.000000
O O5 0.713744 0.692138 0.500000
O O6 0.645910 0.656464 0.771715
O O7 0.763458 0.594716 0.775195
O O8 0.725862 0.840989 0.766738
O O9 0.937141 0.495435 0.500000
O O10 0.872871 0.484061 0.221714
O O11 0.000000 0.500000 0.215176
O O12 0.575971 0.641158 0.500000
O O13 0.195748 0.520748 0.500000
#
# Coordination Sequence:
#
# PCOD9426091 Si02
#       5
#     8   8   8   8   8
#     4  11  22  35  54  82 114 149 189 232 287 342
#     4   9  18  31  52  83 116 145 180 232 287 340
#     4  10  20  35  57  83 113 147 190 239 286 336
#     4  10  19  34  57  83 111 146 190 235 287 339
#     4   9  18  31  51  83 118 146 180 231 289 338
#
# _framework density 22.807628999999999
#
# number of rings (size 3 to 8) (size 9 to 14) (size 15 to 20)
#    0.000    2.200    0.000    4.800    2.800    3.600 
#    0.000    0.000    0.000    2.400    0.000    0.000 
#    0.000    0.000    0.000    0.000    0.000    0.000 
#
# Total GULP energy -223605.519621 kJ/mol
# GULP energy per Si atom -5590.137991 kJ/mol
# Density = 2.275572 g / cm^3
# Si number density = 22.807629 Si / 1000 Ang^3
#
#
#
# Elastic Constant Matrix: (Units=GPa)
#
#
# Indices 1 2 3 4 5 6 
#
# 1 95.6483 72.0698 -0.9206 0.0000 0.0000 0.0000
# 2 72.0698 148.9809 -11.0578 0.0000 0.0000 0.0000
# 3 -0.9206 -11.0578 59.0740 0.0000 0.0000 0.0000
# 4 0.0000 0.0000 0.0000 -26.9925 0.0000 0.0000
# 5 0.0000 0.0000 0.0000 0.0000 568.6860 0.0000
# 6 0.0000 0.0000 0.0000 0.0000 0.0000 29.6073
#
#
#
# Elastic Compliance Matrix: (Units=1/GPa)
#
#
# Indices 1 2 3 4 5 6 
#
# 1 0.016543 -0.008096 -0.001258 0.000000 0.000000 0.000000
# 2 -0.008096 0.010769 0.001890 0.000000 0.000000 0.000000
# 3 -0.001258 0.001890 0.017262 0.000000 0.000000 0.000000
# 4 0.000000 0.000000 0.000000 -0.037047 0.000000 0.000000
# 5 0.000000 0.000000 0.000000 0.000000 0.001758 0.000000
# 6 0.000000 0.000000 0.000000 0.000000 0.000000 0.033776
#
#
# Mechanical properties :
#
#
# Convention : Reuss Voigt Hill
#
# Bulk Modulus (GPa) = 33.73143 47.09843 40.41493
# Shear Modulus (GPa) = 73.66882 130.50095 102.08489
#
# Velocity S-wave (km/s) = 5.68948 7.57247 6.69748
# Velocity P-wave (km/s) = 7.61459 9.85655 8.80720
#
# Compressibility (1/GPa) = 0.02964594
#
# Stress axis : x y z
#
# Youngs Moduli (GPa) = 60.44767 92.85853 57.93054
#
# Poissons Ratio (x) = 0.75180 0.07286
# Poissons Ratio (y) = 0.48939 -0.10947
# Poissons Ratio (z) = 0.07602 -0.17547
#
# Static dielectric constant tensor:
#      x y z
#    x 1.828840 0.000000 0.000000 
#    y 0.000000 1.829430 0.000000 
#    z 0.000000 0.000000 1.821180 
# 
# From -- ./inp_files/10000.got.cif
#   From: 2010.05.17/outbox.cif.g08.bks.cpg/sg55_5_cif.got.tgz:10000.got - 2010.06.03 13:27:54.
