data_PCOD9426252
_publ_section_title
;
Structure prediction by ZEFSAII (Michael W. Deem and Ramdas Pophale) SiO2 
 PCOD9426252
Probable space group: P B A M
;
_chemical_formula_sum "Si O2"
_cell_formula_units_Z 56
_cell_length_a 14.070640
_cell_length_b 19.666636
_cell_length_c 7.743894
_cell_angle_alpha 90.000000
_cell_angle_beta 90.000000
_cell_angle_gamma 90.000000
_cell_volume 2142.907037
_symmetry_space_group_name_H-M "P B A M"
_symmetry_group_IT_number 55
_symmetry_cell_setting 'orthorhombic'
loop_
_space_group_symop_operation_xyz
x,y,z
-x,-y,z
1/2+x,1/2-y,-z
1/2-x,1/2+y,-z
-x,-y,-z
x,y,-z
1/2-x,1/2+y,z
1/2+x,1/2-y,z
loop_
_atom_site_type_symbol
_atom_site_label
_atom_site_fract_x
_atom_site_fract_y
_atom_site_fract_z
Si Si1 0.397616 0.571655 0.802321
Si Si2 0.966789 0.430035 0.298105
Si Si3 0.919842 0.140450 0.701197
Si Si4 0.214844 0.500890 0.788872
Si Si5 0.785323 0.796458 0.298739
Si Si6 0.064332 0.711843 0.290159
Si Si7 0.705082 0.146277 0.802548
O O1 0.500183 0.583790 0.720717
O O2 0.321687 0.517845 0.729356
O O3 0.342357 0.644215 0.794905
O O4 0.414101 0.553274 0.000000
O O5 0.993128 0.430628 0.500000
O O6 0.853152 0.441026 0.284331
O O7 0.987433 0.355678 0.223648
O O8 0.000000 0.500000 0.210724
O O9 0.893762 0.147114 0.500000
O O10 0.966797 0.212628 0.757938
O O11 0.820303 0.136054 0.798208
O O12 0.175689 0.427344 0.728802
O O13 0.213555 0.502254 0.000000
O O14 0.789247 0.814600 0.500000
O O15 0.675521 0.792565 0.240240
O O16 0.819551 0.717943 0.283828
O O17 0.060058 0.707947 0.500000
O O18 0.675953 0.151092 0.000000
#
# Coordination Sequence:
#
# PCOD9426252 Si02
#       7
#     8   8   8   8   8   8   8
#     4  11  22  37  58  86 117 155 201 242 296 356
#     4  10  20  35  58  86 115 150 190 237 292 352
#     4  10  21  37  57  84 116 153 199 247 295 345
#     4  10  23  40  58  83 118 158 196 240 294 357
#     4  10  19  35  59  83 110 149 194 244 294 347
#     4   8  16  33  54  78 109 141 180 231 286 339
#     4  10  21  39  59  83 119 156 195 244 297 352
#
# _framework density 26.132725000000001
#
# number of rings (size 3 to 8) (size 9 to 14) (size 15 to 20)
#    0.000    2.143    1.429    2.571    0.000    3.714 
#    0.000    5.000    0.000    0.000    0.000    0.000 
#    0.000    0.000    0.000    0.000    0.000    0.000 
#
# Total GULP energy -313195.093075 kJ/mol
# GULP energy per Si atom -5592.769519 kJ/mol
# Density = 2.607325 g / cm^3
# Si number density = 26.132725 Si / 1000 Ang^3
#
#
#
# Elastic Constant Matrix: (Units=GPa)
#
#
# Indices 1 2 3 4 5 6 
#
# 1 74.0285 8.9085 12.7543 0.0000 0.0000 0.0000
# 2 8.9085 129.4339 -2.8225 0.0000 0.0000 0.0000
# 3 12.7543 -2.8225 72.0101 0.0000 0.0000 0.0000
# 4 0.0000 0.0000 0.0000 8.9786 0.0000 0.0000
# 5 0.0000 0.0000 0.0000 0.0000 27.3588 0.0000
# 6 0.0000 0.0000 0.0000 0.0000 0.0000 53.9109
#
#
#
# Elastic Compliance Matrix: (Units=1/GPa)
#
#
# Indices 1 2 3 4 5 6 
#
# 1 0.014068 -0.001023 -0.002532 0.000000 0.000000 0.000000
# 2 -0.001023 0.007807 0.000487 0.000000 0.000000 0.000000
# 3 -0.002532 0.000487 0.014354 0.000000 0.000000 0.000000
# 4 0.000000 0.000000 0.000000 0.111375 0.000000 0.000000
# 5 0.000000 0.000000 0.000000 0.000000 0.036551 0.000000
# 6 0.000000 0.000000 0.000000 0.000000 0.000000 0.018549
#
#
# Mechanical properties :
#
#
# Convention : Reuss Voigt Hill
#
# Bulk Modulus (GPa) = 33.22999 34.79478 34.01239
# Shear Modulus (GPa) = 22.84441 35.15848 29.00145
#
# Velocity S-wave (km/s) = 2.95984 3.67192 3.33494
# Velocity P-wave (km/s) = 4.94210 5.59651 5.27945
#
# Compressibility (1/GPa) = 0.03009330
#
# Stress axis : x y z
#
# Youngs Moduli (GPa) = 71.08498 128.08990 69.66476
#
# Poissons Ratio (x) = 0.13109 0.17637
# Poissons Ratio (y) = 0.07275 -0.03395
# Poissons Ratio (z) = 0.17997 -0.06241
#
# Static dielectric constant tensor:
#      x y z
#    x 2.154010 0.000000 0.000000 
#    y 0.000000 2.078730 0.000000 
#    z 0.000000 0.000000 1.914290 
# 
# From -- ./inp_files/5997.got.cif
#   From: 2010.05.17/outbox.cif.g08.bks.cpg/sg55_3_cif.got.tgz:5997.got - 2010.06.03 13:27:54.
