data_PCOD9426745
_publ_section_title
;
Structure prediction by ZEFSAII (Michael W. Deem and Ramdas Pophale) SiO2 
 PCOD9426745
Probable space group: P B A M
;
_chemical_formula_sum "Si O2"
_cell_formula_units_Z 64
_cell_length_a 8.511309
_cell_length_b 10.996818
_cell_length_c 31.038071
_cell_angle_alpha 90.000000
_cell_angle_beta 90.000000
_cell_angle_gamma 90.000000
_cell_volume 2905.080140
_symmetry_space_group_name_H-M "P B A M"
_symmetry_group_IT_number 55
_symmetry_cell_setting 'orthorhombic'
loop_
_space_group_symop_operation_xyz
x,y,z
-x,-y,z
1/2+x,1/2-y,-z
1/2-x,1/2+y,-z
-x,-y,-z
x,y,-z
1/2-x,1/2+y,z
1/2+x,1/2-y,z
loop_
_atom_site_type_symbol
_atom_site_label
_atom_site_fract_x
_atom_site_fract_y
_atom_site_fract_z
Si Si1 0.511048 0.641535 0.547749
Si Si2 0.505246 0.141057 0.669587
Si Si3 0.470652 0.765690 0.951435
Si Si4 0.565146 0.859319 0.235404
Si Si5 0.817257 0.067385 0.047831
Si Si6 0.748100 0.250368 0.608927
Si Si7 0.355248 0.082474 0.879404
Si Si8 0.106167 0.126641 0.195974
O O1 0.500000 0.500000 0.541990
O O2 0.498238 0.700187 0.500000
O O3 0.379348 0.676270 0.582171
O O4 0.671202 0.671363 0.572039
O O5 0.476048 0.192931 0.717136
O O6 0.666816 0.178035 0.647470
O O7 0.376885 0.171128 0.633469
O O8 0.500000 0.000000 0.677068
O O9 0.508268 0.622813 0.948691
O O10 0.291535 0.808674 0.950939
O O11 0.552685 0.823007 0.909692
O O12 0.524426 0.804194 0.000000
O O13 0.754097 0.872608 0.231497
O O14 0.495304 0.752047 0.203280
O O15 0.500000 0.000000 0.230473
O O16 0.743050 0.996657 0.086818
O O17 0.788977 0.016794 0.000000
O O18 0.222231 0.128050 0.846103
O O19 0.500000 0.000000 0.860790
O O20 0.000000 0.000000 0.195998
#
# Coordination Sequence:
#
# PCOD9426745 Si02
#       8
#     8   8   8   8   8   8   8   8
#     4  10  20  34  53  82 125 173 215 256 306 366
#     4  10  21  39  63  90 120 156 205 265 326 384
#     4   9  18  33  56  85 119 160 204 251 306 368
#     4  11  25  47  71  98 132 170 214 271 340 407
#     4   9  18  34  55  83 119 158 201 250 303 362
#     4  10  20  35  58  89 121 160 211 265 315 370
#     4  10  22  39  62  90 124 166 209 259 314 382
#     4  12  27  46  70  99 131 170 217 266 328 405
#
# _framework density 22.030373000000001
#
# number of rings (size 3 to 8) (size 9 to 14) (size 15 to 20)
#    0.000    1.875    0.000    3.375    0.000    7.500 
#    0.000    3.125    0.000    9.750    0.000    0.000 
#    0.000    1.500    0.000    0.000    0.000    0.000 
#
# Total GULP energy -356706.654061 kJ/mol
# GULP energy per Si atom -5573.541470 kJ/mol
# Density = 2.198023 g / cm^3
# Si number density = 22.030373 Si / 1000 Ang^3
#
#
#
# Elastic Constant Matrix: (Units=GPa)
#
#
# Indices 1 2 3 4 5 6 
#
# 1 86.6375 28.6895 12.8972 0.0000 0.0000 0.0000
# 2 28.6895 75.1937 27.6033 0.0000 0.0000 0.0000
# 3 12.8972 27.6033 124.2783 0.0000 0.0000 0.0000
# 4 0.0000 0.0000 0.0000 41.6829 0.0000 0.0000
# 5 0.0000 0.0000 0.0000 0.0000 44.6152 0.0000
# 6 0.0000 0.0000 0.0000 0.0000 0.0000 30.3975
#
#
#
# Elastic Compliance Matrix: (Units=1/GPa)
#
#
# Indices 1 2 3 4 5 6 
#
# 1 0.013220 -0.004943 -0.000274 0.000000 0.000000 0.000000
# 2 -0.004943 0.016328 -0.003114 0.000000 0.000000 0.000000
# 3 -0.000274 -0.003114 0.008766 0.000000 0.000000 0.000000
# 4 0.000000 0.000000 0.000000 0.023991 0.000000 0.000000
# 5 0.000000 0.000000 0.000000 0.000000 0.022414 0.000000
# 6 0.000000 0.000000 0.000000 0.000000 0.000000 0.032897
#
#
# Mechanical properties :
#
#
# Convention : Reuss Voigt Hill
#
# Bulk Modulus (GPa) = 46.18371 47.16550 46.67460
# Shear Modulus (GPa) = 35.33661 37.80040 36.56851
#
# Velocity S-wave (km/s) = 4.00934 4.14675 4.07862
# Velocity P-wave (km/s) = 6.51477 6.66207 6.58883
#
# Compressibility (1/GPa) = 0.02165266
#
# Stress axis : x y z
#
# Youngs Moduli (GPa) = 75.64227 61.24412 114.07131
#
# Poissons Ratio (x) = 0.30276 0.03125
# Poissons Ratio (y) = 0.37393 0.35517
# Poissons Ratio (z) = 0.02072 0.19069
#
# Static dielectric constant tensor:
#      x y z
#    x 1.819640 0.000000 0.000000 
#    y 0.000000 1.860870 0.000000 
#    z 0.000000 0.000000 1.839630 
# 
# From -- ./inp_files/24154.got.cif
#   From: 2010.05.17/outbox.cif.g08.bks.cpg/sg55_13_cif.got.tgz:24154.got - 2010.06.03 13:27:54.
