data_PCOD9426900
_publ_section_title
;
Structure prediction by ZEFSAII (Michael W. Deem and Ramdas Pophale) SiO2 
 PCOD9426900
Probable space group: P B A M
;
_chemical_formula_sum "Si O2"
_cell_formula_units_Z 64
_cell_length_a 21.071783
_cell_length_b 19.884556
_cell_length_c 8.558609
_cell_angle_alpha 90.000000
_cell_angle_beta 90.000000
_cell_angle_gamma 90.000000
_cell_volume 3586.083267
_symmetry_space_group_name_H-M "P B A M"
_symmetry_group_IT_number 55
_symmetry_cell_setting 'orthorhombic'
loop_
_space_group_symop_operation_xyz
x,y,z
-x,-y,z
1/2+x,1/2-y,-z
1/2-x,1/2+y,-z
-x,-y,-z
x,y,-z
1/2-x,1/2+y,z
1/2+x,1/2-y,z
loop_
_atom_site_type_symbol
_atom_site_label
_atom_site_fract_x
_atom_site_fract_y
_atom_site_fract_z
Si Si1 0.812550 0.538552 0.186830
Si Si2 0.489565 0.174586 0.688007
Si Si3 0.136206 0.174182 0.689938
Si Si4 0.136957 0.325378 0.688692
Si Si5 0.688415 0.465706 0.313401
Si Si6 0.435413 0.461372 0.813894
Si Si7 0.988318 0.172532 0.688607
Si Si8 0.562319 0.959488 0.811743
O O1 0.820756 0.614489 0.247363
O O2 0.748998 0.502415 0.242457
O O3 0.873991 0.496255 0.243329
O O4 0.813803 0.539877 0.000000
O O5 0.488350 0.170827 0.500000
O O6 0.563201 0.163542 0.736867
O O7 0.471635 0.250808 0.731518
O O8 0.445870 0.116761 0.756823
O O9 0.137129 0.174545 0.500000
O O10 0.154784 0.249557 0.739970
O O11 0.062428 0.162537 0.733781
O O12 0.178139 0.111338 0.742956
O O13 0.138564 0.326782 0.500000
O O14 0.694937 0.464560 0.500000
O O15 0.624781 0.505710 0.268580
O O16 0.500000 0.500000 0.766419
O O17 0.445872 0.384141 0.766643
O O18 0.428078 0.467902 0.000000
O O19 0.984638 0.166401 0.500000
O O20 0.500000 0.000000 0.756289
O O21 0.562236 0.960851 0.000000
#
# Coordination Sequence:
#
# PCOD9426900 Si02
#       8
#     8   8   8   8   8   8   8   8
#     4  11  23  38  54  79 115 149 184 229 274 331
#     4   9  18  31  54  85 112 138 181 237 279 319
#     4   8  16  32  56  82 107 137 181 230 271 321
#     4   9  17  33  56  82 108 139 182 229 275 326
#     4  11  22  38  60  82 108 148 188 227 276 329
#     4  11  22  35  54  84 116 144 179 224 271 324
#     4   9  17  33  55  82 112 143 182 229 278 324
#     4  10  20  35  54  77 109 148 185 220 274 337
#
# _framework density 17.846768999999998
#
# number of rings (size 3 to 8) (size 9 to 14) (size 15 to 20)
#    0.000    2.250    2.500    2.625    0.000    2.250 
#    0.000    4.375    0.000    4.500    0.000    0.000 
#    0.000    0.000    0.000    0.000    0.000    0.000 
#
# Total GULP energy -357072.965200 kJ/mol
# GULP energy per Si atom -5579.265081 kJ/mol
# Density = 1.780615 g / cm^3
# Si number density = 17.846769 Si / 1000 Ang^3
#
#
#
# Elastic Constant Matrix: (Units=GPa)
#
#
# Indices 1 2 3 4 5 6 
#
# 1 89.3164 66.6681 17.2693 0.0000 0.0000 0.0000
# 2 66.6681 160.5741 19.9220 0.0000 0.0000 0.0000
# 3 17.2693 19.9220 15.5953 0.0000 0.0000 0.0000
# 4 0.0000 0.0000 0.0000 -8.5125 0.0000 0.0000
# 5 0.0000 0.0000 0.0000 0.0000 14.6544 0.0000
# 6 0.0000 0.0000 0.0000 0.0000 0.0000 29.1324
#
#
#
# Elastic Compliance Matrix: (Units=1/GPa)
#
#
# Indices 1 2 3 4 5 6 
#
# 1 0.018029 -0.005952 -0.012361 0.000000 0.000000 0.000000
# 2 -0.005952 0.009365 -0.005373 0.000000 0.000000 0.000000
# 3 -0.012361 -0.005373 0.084674 0.000000 0.000000 0.000000
# 4 0.000000 0.000000 0.000000 -0.117475 0.000000 0.000000
# 5 0.000000 0.000000 0.000000 0.000000 0.068239 0.000000
# 6 0.000000 0.000000 0.000000 0.000000 0.000000 0.034326
#
#
# Mechanical properties :
#
#
# Convention : Reuss Voigt Hill
#
# Bulk Modulus (GPa) = 15.45689 52.57827 34.01758
# Shear Modulus (GPa) = 30.10336 17.82995 23.96665
#
# Velocity S-wave (km/s) = 4.11148 3.16422 3.66855
# Velocity P-wave (km/s) = 5.58737 6.54787 6.08660
#
# Compressibility (1/GPa) = 0.06469605
#
# Stress axis : x y z
#
# Youngs Moduli (GPa) = 55.46742 106.77698 11.81006
#
# Poissons Ratio (x) = 0.63550 0.14598
# Poissons Ratio (y) = 0.33012 0.06346
# Poissons Ratio (z) = 0.68563 0.57372
#
# Static dielectric constant tensor:
#      x y z
#    x 1.583750 0.000000 0.000000 
#    y 0.000000 1.622020 0.000000 
#    z 0.000000 0.000000 1.603160 
# 
# From -- ./inp_files/8935.got.cif
#   From: 2010.05.17/outbox.cif.g08.bks.cpg/sg55_5_cif.got.tgz:8935.got - 2010.06.03 13:27:54.
