data_PCOD9426748
_publ_section_title
;
Structure prediction by ZEFSAII (Michael W. Deem and Ramdas Pophale) SiO2 
 PCOD9426748
Probable space group: P B A M
;
_chemical_formula_sum "Si O2"
_cell_formula_units_Z 58
_cell_length_a 8.350958
_cell_length_b 33.860695
_cell_length_c 9.711395
_cell_angle_alpha 90.000000
_cell_angle_beta 90.000000
_cell_angle_gamma 90.000000
_cell_volume 2746.083801
_symmetry_space_group_name_H-M "P B A M"
_symmetry_group_IT_number 55
_symmetry_cell_setting 'orthorhombic'
loop_
_space_group_symop_operation_xyz
x,y,z
-x,-y,z
1/2+x,1/2-y,-z
1/2-x,1/2+y,-z
-x,-y,-z
x,y,-z
1/2-x,1/2+y,z
1/2+x,1/2-y,z
loop_
_atom_site_type_symbol
_atom_site_label
_atom_site_fract_x
_atom_site_fract_y
_atom_site_fract_z
Si Si1 0.334204 0.115522 0.339383
Si Si2 0.000000 0.000000 0.500000
Si Si3 0.338084 0.404980 0.842015
Si Si4 0.994637 0.690388 0.330997
Si Si5 0.643585 0.024232 0.841629
Si Si6 0.357336 0.545125 0.765514
Si Si7 0.507681 0.658984 0.657384
Si Si8 0.176130 0.764778 0.664615
O O1 0.365268 0.105786 0.500000
O O2 0.468830 0.145765 0.285780
O O3 0.287983 0.076102 0.258458
O O4 0.170734 0.141821 0.335058
O O5 0.073631 0.029459 0.379358
O O6 0.204167 0.434590 0.780289
O O7 0.500985 0.431120 0.838479
O O8 0.379276 0.366909 0.753899
O O9 0.300286 0.395387 0.000000
O O10 0.996298 0.688979 0.500000
O O11 0.130923 0.721478 0.284384
O O12 0.829950 0.710928 0.286173
O O13 0.500000 0.000000 0.772265
O O14 0.789385 0.993262 0.840445
O O15 0.598292 0.032772 0.000000
O O16 0.563172 0.653354 0.500000
O O17 0.527167 0.705312 0.686268
O O18 0.198534 0.760234 0.500000
#
# Coordination Sequence:
#
# PCOD9426748 Si02
#       8
#     8   2   8   8   8   8   8   8
#     4   9  17  28  43  68  96 130 161 204 248 302
#     4  12  20  32  56  80 104 140 180 224 268 336
#     4  10  20  34  54  76  98 133 177 215 255 309
#     4   9  16  26  43  65 101 130 166 200 246 302
#     4  10  21  36  52  71  96 131 175 220 262 307
#     4  11  20  33  55  73 105 135 181 216 271 317
#     4   9  18  30  49  72 100 128 162 203 255 301
#     4   9  16  27  43  68  96 133 162 199 247 304
#
# _framework density 21.120985999999998
#
# number of rings (size 3 to 8) (size 9 to 14) (size 15 to 20)
#    0.000    2.345    2.069    1.241    0.966    5.517 
#    0.000    0.345    0.000    0.000    0.000    9.655 
#    0.000    0.000    0.000    0.000    0.000    0.000 
#
# Total GULP energy -322880.413752 kJ/mol
# GULP energy per Si atom -5566.903685 kJ/mol
# Density = 2.107291 g / cm^3
# Si number density = 21.120986 Si / 1000 Ang^3
#
#
#
# Elastic Constant Matrix: (Units=GPa)
#
#
# Indices 1 2 3 4 5 6 
#
# 1 38.3251 -1.5394 -6.4882 0.0000 0.0000 0.0000
# 2 -1.5394 89.4742 4.9140 0.0000 0.0000 0.0000
# 3 -6.4882 4.9140 32.0779 0.0000 0.0000 0.0000
# 4 0.0000 0.0000 0.0000 7.2572 0.0000 0.0000
# 5 0.0000 0.0000 0.0000 0.0000 3.8097 0.0000
# 6 0.0000 0.0000 0.0000 0.0000 0.0000 35.9324
#
#
#
# Elastic Compliance Matrix: (Units=1/GPa)
#
#
# Indices 1 2 3 4 5 6 
#
# 1 0.027020 0.000166 0.005440 0.000000 0.000000 0.000000
# 2 0.000166 0.011272 -0.001693 0.000000 0.000000 0.000000
# 3 0.005440 -0.001693 0.032534 0.000000 0.000000 0.000000
# 4 0.000000 0.000000 0.000000 0.137795 0.000000 0.000000
# 5 0.000000 0.000000 0.000000 0.000000 0.262487 0.000000
# 6 0.000000 0.000000 0.000000 0.000000 0.000000 0.027830
#
#
# Mechanical properties :
#
#
# Convention : Reuss Voigt Hill
#
# Bulk Modulus (GPa) = 12.71432 17.07223 14.89328
# Shear Modulus (GPa) = 9.66501 20.26589 14.96545
#
# Velocity S-wave (km/s) = 2.14148 3.10096 2.66476
# Velocity P-wave (km/s) = 3.48532 4.57405 4.06628
#
# Compressibility (1/GPa) = 0.07865148
#
# Stress axis : x y z
#
# Youngs Moduli (GPa) = 37.00939 88.71337 30.73733
#
# Poissons Ratio (x) = -0.01474 -0.16720
# Poissons Ratio (y) = -0.00615 0.05204
# Poissons Ratio (z) = -0.20132 0.15021
#
# Static dielectric constant tensor:
#      x y z
#    x 1.866890 0.000000 0.000000 
#    y 0.000000 1.773510 0.000000 
#    z 0.000000 0.000000 1.711110 
# 
# From -- ./inp_files/12570.got.cif
#   From: 2010.05.17/outbox.cif.g08.bks.cpg/sg55_7_cif.got.tgz:12570.got - 2010.06.03 13:27:54.
