data_PCOD9426228
_publ_section_title
;
Structure prediction by ZEFSAII (Michael W. Deem and Ramdas Pophale) SiO2 
 PCOD9426228
Probable space group: P B A M
;
_chemical_formula_sum "Si O2"
_cell_formula_units_Z 64
_cell_length_a 14.607313
_cell_length_b 24.638982
_cell_length_c 8.969816
_cell_angle_alpha 90.000000
_cell_angle_beta 90.000000
_cell_angle_gamma 90.000000
_cell_volume 3228.320396
_symmetry_space_group_name_H-M "P B A M"
_symmetry_group_IT_number 55
_symmetry_cell_setting 'orthorhombic'
loop_
_space_group_symop_operation_xyz
x,y,z
-x,-y,z
1/2+x,1/2-y,-z
1/2-x,1/2+y,-z
-x,-y,-z
x,y,-z
1/2-x,1/2+y,z
1/2+x,1/2-y,z
loop_
_atom_site_type_symbol
_atom_site_label
_atom_site_fract_x
_atom_site_fract_y
_atom_site_fract_z
Si Si1 0.046041 0.430721 0.167211
Si Si2 0.137005 0.343466 0.664064
Si Si3 0.666045 0.599449 0.673134
Si Si4 0.735076 0.001931 0.826546
Si Si5 0.650845 0.284766 0.671732
Si Si6 0.152275 0.704341 0.821446
Si Si7 0.962941 0.186681 0.821087
Si Si8 0.130123 0.589082 0.675276
O O1 0.081615 0.370509 0.203231
O O2 0.137720 0.466035 0.180509
O O3 0.964397 0.440823 0.280923
O O4 0.009113 0.435956 0.000000
O O5 0.103043 0.362613 0.500000
O O6 0.241008 0.364333 0.676338
O O7 0.131505 0.279490 0.668024
O O8 0.640099 0.592897 0.500000
O O9 0.693272 0.541661 0.745149
O O10 0.592059 0.634412 0.762341
O O11 0.713178 0.944774 0.748697
O O12 0.758600 0.994943 0.000000
O O13 0.664171 0.303091 0.500000
O O14 0.743480 0.290379 0.765343
O O15 0.562765 0.311634 0.747007
O O16 0.093654 0.758093 0.779633
O O17 0.120196 0.648857 0.744492
O O18 0.148409 0.699097 0.000000
O O19 0.969574 0.185646 0.000000
O O20 0.142361 0.591674 0.500000
#
# Coordination Sequence:
#
# PCOD9426228 Si02
#       8
#     8   8   8   8   8   8   8   8
#     4  10  20  33  53  81 114 152 194 239 288 346
#     4   9  18  32  52  79 112 149 187 232 284 341
#     4  10  19  35  58  84 113 147 190 238 287 339
#     4  10  21  37  57  82 114 153 195 242 293 348
#     4  11  22  37  58  85 118 156 196 243 297 352
#     4  11  24  41  61  86 120 159 199 245 295 353
#     4  11  23  38  59  88 119 156 198 242 294 352
#     4  12  24  37  55  80 114 154 197 242 293 352
#
# _framework density 19.824551
#
# number of rings (size 3 to 8) (size 9 to 14) (size 15 to 20)
#    0.000    1.500    1.250    4.500    0.000    8.000 
#    0.000    0.000    0.000    0.750    0.000    5.250 
#    0.000    0.000    0.000    0.000    0.000    0.000 
#
# Total GULP energy -357492.190338 kJ/mol
# GULP energy per Si atom -5585.815474 kJ/mol
# Density = 1.977943 g / cm^3
# Si number density = 19.824551 Si / 1000 Ang^3
#
#
#
# Elastic Constant Matrix: (Units=GPa)
#
#
# Indices 1 2 3 4 5 6 
#
# 1 48.5533 -9.3269 13.7748 0.0000 0.0000 0.0000
# 2 -9.3269 22.8677 10.4746 0.0000 0.0000 0.0000
# 3 13.7748 10.4746 98.3736 0.0000 0.0000 0.0000
# 4 0.0000 0.0000 0.0000 24.9060 0.0000 0.0000
# 5 0.0000 0.0000 0.0000 0.0000 26.1217 0.0000
# 6 0.0000 0.0000 0.0000 0.0000 0.0000 20.0840
#
#
#
# Elastic Compliance Matrix: (Units=1/GPa)
#
#
# Indices 1 2 3 4 5 6 
#
# 1 0.024232 0.012024 -0.004673 0.000000 0.000000 0.000000
# 2 0.012024 0.051938 -0.007214 0.000000 0.000000 0.000000
# 3 -0.004673 -0.007214 0.011588 0.000000 0.000000 0.000000
# 4 0.000000 0.000000 0.000000 0.040151 0.000000 0.000000
# 5 0.000000 0.000000 0.000000 0.000000 0.038282 0.000000
# 6 0.000000 0.000000 0.000000 0.000000 0.000000 0.049791
#
#
# Mechanical properties :
#
#
# Convention : Reuss Voigt Hill
#
# Bulk Modulus (GPa) = 11.35966 22.18217 16.77092
# Shear Modulus (GPa) = 20.40380 24.54713 22.47547
#
# Velocity S-wave (km/s) = 3.21162 3.52265 3.37073
# Velocity P-wave (km/s) = 4.41534 5.26868 4.86077
#
# Compressibility (1/GPa) = 0.08803079
#
# Stress axis : x y z
#
# Youngs Moduli (GPa) = 41.26859 19.25361 86.29738
#
# Poissons Ratio (x) = -0.23150 0.40329
# Poissons Ratio (y) = -0.49621 0.62254
# Poissons Ratio (z) = 0.19286 0.13889
#
# Static dielectric constant tensor:
#      x y z
#    x 1.701070 0.000000 0.000000 
#    y 0.000000 1.712110 0.000000 
#    z 0.000000 0.000000 1.685890 
# 
# From -- ./inp_files/6585.got.cif
#   From: 2010.05.17/outbox.cif.g08.bks.cpg/sg55_4_cif.got.tgz:6585.got - 2010.06.03 13:27:54.
