data_PCOD9426186
_publ_section_title
;
Structure prediction by ZEFSAII (Michael W. Deem and Ramdas Pophale) SiO2 
 PCOD9426186
Probable space group: P B A M
;
_chemical_formula_sum "Si O2"
_cell_formula_units_Z 64
_cell_length_a 15.273530
_cell_length_b 25.169049
_cell_length_c 7.522313
_cell_angle_alpha 90.000000
_cell_angle_beta 90.000000
_cell_angle_gamma 90.000000
_cell_volume 2891.729256
_symmetry_space_group_name_H-M "P B A M"
_symmetry_group_IT_number 55
_symmetry_cell_setting 'orthorhombic'
loop_
_space_group_symop_operation_xyz
x,y,z
-x,-y,z
1/2+x,1/2-y,-z
1/2-x,1/2+y,-z
-x,-y,-z
x,y,-z
1/2-x,1/2+y,z
1/2+x,1/2-y,z
loop_
_atom_site_type_symbol
_atom_site_label
_atom_site_fract_x
_atom_site_fract_y
_atom_site_fract_z
Si Si1 0.247992 0.933786 0.290079
Si Si2 0.360260 0.743039 0.217652
Si Si3 0.440355 0.952281 0.288216
Si Si4 0.097181 0.017542 0.214879
Si Si5 0.440442 0.631251 0.213908
Si Si6 0.630901 0.657731 0.708597
Si Si7 0.663440 0.772336 0.798493
Si Si8 0.503692 0.167221 0.785099
O O1 0.259583 0.924114 0.500000
O O2 0.341408 0.950692 0.215132
O O3 0.209125 0.878468 0.217532
O O4 0.174111 0.978521 0.271439
O O5 0.405638 0.688089 0.275120
O O6 0.259644 0.738504 0.279458
O O7 0.417510 0.793766 0.276491
O O8 0.359274 0.745245 0.000000
O O9 0.433318 0.961347 0.500000
O O10 0.480064 0.893783 0.261127
O O11 0.500000 0.000000 0.215982
O O12 0.110494 0.078611 0.272731
O O13 0.095975 0.016155 0.000000
O O14 0.000000 0.000000 0.274692
O O15 0.541211 0.625778 0.268435
O O16 0.437409 0.632267 0.000000
O O17 0.643956 0.668114 0.500000
O O18 0.620701 0.713998 0.801958
O O19 0.590135 0.810832 0.717986
O O20 0.679102 0.791654 0.000000
O O21 0.501688 0.171695 0.000000
#
# Coordination Sequence:
#
# PCOD9426186 Si02
#       8
#     8   8   8   8   8   8   8   8
#     4  10  22  38  57  81 112 151 193 236 283 335
#     4   9  18  34  56  83 112 145 181 221 276 336
#     4  10  23  43  62  80 109 152 194 236 285 333
#     4  10  20  33  55  86 114 146 186 227 277 334
#     4  10  19  35  55  78 114 149 181 225 276 335
#     4  11  21  33  53  82 111 144 187 229 276 328
#     4  10  20  35  57  82 112 147 182 225 279 335
#     4  10  20  36  60  88 112 143 187 232 281 332
#
# _framework density 22.132086999999999
#
# number of rings (size 3 to 8) (size 9 to 14) (size 15 to 20)
#    0.000    2.000    2.500    1.125    0.000    3.500 
#    0.000    1.875    0.000    0.000    0.000    0.000 
#    0.000    0.000    0.000    0.000    0.000    0.000 
#
# Total GULP energy -357428.881873 kJ/mol
# GULP energy per Si atom -5584.826279 kJ/mol
# Density = 2.208171 g / cm^3
# Si number density = 22.132087 Si / 1000 Ang^3
#
#
#
# Elastic Constant Matrix: (Units=GPa)
#
#
# Indices 1 2 3 4 5 6 
#
# 1 129.0363 61.8033 -12.0316 0.0000 0.0000 0.0000
# 2 61.8033 137.6741 -12.0404 0.0000 0.0000 0.0000
# 3 -12.0316 -12.0404 49.1382 0.0000 0.0000 0.0000
# 4 0.0000 0.0000 0.0000 16.2231 0.0000 0.0000
# 5 0.0000 0.0000 0.0000 0.0000 -15.2981 0.0000
# 6 0.0000 0.0000 0.0000 0.0000 0.0000 27.8116
#
#
#
# Elastic Compliance Matrix: (Units=1/GPa)
#
#
# Indices 1 2 3 4 5 6 
#
# 1 0.009962 -0.004352 0.001373 0.000000 0.000000 0.000000
# 2 -0.004352 0.009324 0.001219 0.000000 0.000000 0.000000
# 3 0.001373 0.001219 0.020986 0.000000 0.000000 0.000000
# 4 0.000000 0.000000 0.000000 0.061641 0.000000 0.000000
# 5 0.000000 0.000000 0.000000 0.000000 -0.065368 0.000000
# 6 0.000000 0.000000 0.000000 0.000000 0.000000 0.035956
#
#
# Mechanical properties :
#
#
# Convention : Reuss Voigt Hill
#
# Bulk Modulus (GPa) = 27.20990 43.47902 35.34446
# Shear Modulus (GPa) = 56.64323 24.28847 40.46585
#
# Velocity S-wave (km/s) = 5.06447 3.31635 4.28059
# Velocity P-wave (km/s) = 6.82052 5.86107 6.35891
#
# Compressibility (1/GPa) = 0.03675133
#
# Stress axis : x y z
#
# Youngs Moduli (GPa) = 100.37893 107.25194 47.65168
#
# Poissons Ratio (x) = 0.46677 -0.06542
# Poissons Ratio (y) = 0.43686 -0.05809
# Poissons Ratio (z) = -0.13781 -0.13074
#
# Static dielectric constant tensor:
#      x y z
#    x 1.841070 0.000000 0.000000 
#    y 0.000000 1.795670 0.000000 
#    z 0.000000 0.000000 1.850550 
# 
# From -- ./inp_files/6622.got.cif
#   From: 2010.05.17/outbox.cif.g08.bks.cpg/sg55_4_cif.got.tgz:6622.got - 2010.06.03 13:27:54.
