data_PCOD9426811
_publ_section_title
;
Structure prediction by ZEFSAII (Michael W. Deem and Ramdas Pophale) SiO2 
 PCOD9426811
Probable space group: P B A M
;
_chemical_formula_sum "Si O2"
_cell_formula_units_Z 56
_cell_length_a 16.246281
_cell_length_b 20.140645
_cell_length_c 8.867449
_cell_angle_alpha 90.000000
_cell_angle_beta 90.000000
_cell_angle_gamma 90.000000
_cell_volume 2901.523114
_symmetry_space_group_name_H-M "P B A M"
_symmetry_group_IT_number 55
_symmetry_cell_setting 'orthorhombic'
loop_
_space_group_symop_operation_xyz
x,y,z
-x,-y,z
1/2+x,1/2-y,-z
1/2-x,1/2+y,-z
-x,-y,-z
x,y,-z
1/2-x,1/2+y,z
1/2+x,1/2-y,z
loop_
_atom_site_type_symbol
_atom_site_label
_atom_site_fract_x
_atom_site_fract_y
_atom_site_fract_z
Si Si1 0.555350 0.256009 0.175586
Si Si2 0.619447 0.370728 0.334863
Si Si3 0.129619 0.714179 0.181314
Si Si4 0.742479 0.055417 0.824821
Si Si5 0.197668 0.587189 0.677139
Si Si6 0.595616 0.490703 0.161882
Si Si7 0.778812 0.697410 0.679768
O O1 0.568963 0.333733 0.207237
O O2 0.462941 0.237394 0.222151
O O3 0.633000 0.226253 0.265945
O O4 0.565047 0.239554 0.000000
O O5 0.595966 0.346668 0.500000
O O6 0.717388 0.370067 0.316058
O O7 0.604894 0.447919 0.311020
O O8 0.137440 0.638296 0.240080
O O9 0.201328 0.762225 0.248084
O O10 0.138074 0.715503 0.000000
O O11 0.719919 0.120824 0.733143
O O12 0.711106 0.984727 0.755804
O O13 0.842339 0.051529 0.823159
O O14 0.716063 0.060609 0.000000
O O15 0.178370 0.577581 0.500000
O O16 0.500000 0.500000 0.148204
O O17 0.624325 0.459004 0.000000
O O18 0.772153 0.702608 0.500000
#
# Coordination Sequence:
#
# PCOD9426811 Si02
#       7
#     8   8   8   8   8   8   8
#     4  11  24  41  63  90 122 161 210 257 306 369
#     4  10  20  34  55  84 118 156 195 242 302 358
#     4  11  24  41  65  93 123 165 211 256 309 373
#     4  10  21  38  61  86 120 165 208 255 309 370
#     4  10  20  38  62  90 122 160 203 252 307 366
#     4   9  19  34  53  80 115 157 203 244 294 361
#     4  12  25  42  64  93 129 164 204 261 318 370
#
# _framework density 19.300208000000001
#
# number of rings (size 3 to 8) (size 9 to 14) (size 15 to 20)
#    0.000    1.571    1.429    3.429    2.000    4.286 
#    0.000    0.714    0.000    4.286    0.000    0.000 
#    0.000    0.000    0.000    0.000    0.000    0.000 
#
# Total GULP energy -311869.712875 kJ/mol
# GULP energy per Si atom -5569.102016 kJ/mol
# Density = 1.925628 g / cm^3
# Si number density = 19.300208 Si / 1000 Ang^3
#
#
#
# Elastic Constant Matrix: (Units=GPa)
#
#
# Indices 1 2 3 4 5 6 
#
# 1 88.3403 24.3895 51.1177 0.0000 0.0000 0.0000
# 2 24.3895 62.5653 34.2346 0.0000 0.0000 0.0000
# 3 51.1177 34.2346 103.3137 0.0000 0.0000 0.0000
# 4 0.0000 0.0000 0.0000 41.3543 0.0000 0.0000
# 5 0.0000 0.0000 0.0000 0.0000 14.9484 0.0000
# 6 0.0000 0.0000 0.0000 0.0000 0.0000 14.4573
#
#
#
# Elastic Compliance Matrix: (Units=1/GPa)
#
#
# Indices 1 2 3 4 5 6 
#
# 1 0.016138 -0.002348 -0.007207 0.000000 0.000000 0.000000
# 2 -0.002348 0.019865 -0.005421 0.000000 0.000000 0.000000
# 3 -0.007207 -0.005421 0.015041 0.000000 0.000000 0.000000
# 4 0.000000 0.000000 0.000000 0.024181 0.000000 0.000000
# 5 0.000000 0.000000 0.000000 0.000000 0.066897 0.000000
# 6 0.000000 0.000000 0.000000 0.000000 0.000000 0.069169
#
#
# Mechanical properties :
#
#
# Convention : Reuss Voigt Hill
#
# Bulk Modulus (GPa) = 47.40819 52.63366 50.02093
# Shear Modulus (GPa) = 20.13904 23.78383 21.96143
#
# Velocity S-wave (km/s) = 3.23377 3.51423 3.37692
# Velocity P-wave (km/s) = 6.20966 6.61791 6.41703
#
# Compressibility (1/GPa) = 0.02109340
#
# Stress axis : x y z
#
# Youngs Moduli (GPa) = 61.96436 50.34063 66.48277
#
# Poissons Ratio (x) = 0.11818 0.47914
# Poissons Ratio (y) = 0.14546 0.36040
# Poissons Ratio (z) = 0.44658 0.27289
#
# Static dielectric constant tensor:
#      x y z
#    x 1.712690 0.000000 0.000000 
#    y 0.000000 1.700530 0.000000 
#    z 0.000000 0.000000 1.724640 
# 
# From -- ./inp_files/6005.got.cif
#   From: 2010.05.17/outbox.cif.g08.bks.cpg/sg55_4_cif.got.tgz:6005.got - 2010.06.03 13:27:54.
