data_PCOD9426636
_publ_section_title
;
Structure prediction by ZEFSAII (Michael W. Deem and Ramdas Pophale) SiO2 
 PCOD9426636
Probable space group: P B A M
;
_chemical_formula_sum "Si O2"
_cell_formula_units_Z 48
_cell_length_a 11.224308
_cell_length_b 24.145064
_cell_length_c 7.569931
_cell_angle_alpha 90.000000
_cell_angle_beta 90.000000
_cell_angle_gamma 90.000000
_cell_volume 2051.539377
_symmetry_space_group_name_H-M "P B A M"
_symmetry_group_IT_number 55
_symmetry_cell_setting 'orthorhombic'
loop_
_space_group_symop_operation_xyz
x,y,z
-x,-y,z
1/2+x,1/2-y,-z
1/2-x,1/2+y,-z
-x,-y,-z
x,y,-z
1/2-x,1/2+y,z
1/2+x,1/2-y,z
loop_
_atom_site_type_symbol
_atom_site_label
_atom_site_fract_x
_atom_site_fract_y
_atom_site_fract_z
Si Si1 0.408551 0.420011 0.699783
Si Si2 0.183369 0.684682 0.784159
Si Si3 0.057737 0.376178 0.215969
Si Si4 0.679044 0.016990 0.199407
Si Si5 0.323269 0.582608 0.213427
Si Si6 0.794370 0.189637 0.213531
O O1 0.379061 0.434570 0.500000
O O2 0.304546 0.449066 0.810236
O O3 0.544302 0.435266 0.736617
O O4 0.393554 0.354164 0.727158
O O5 0.291825 0.644859 0.730906
O O6 0.190229 0.747776 0.722935
O O7 0.063556 0.652911 0.729401
O O8 0.182465 0.686587 0.000000
O O9 0.086451 0.438794 0.277707
O O10 0.168682 0.337375 0.268186
O O11 0.057511 0.378873 0.000000
O O12 0.721831 0.959435 0.281488
O O13 0.638700 0.004366 0.000000
O O14 0.318160 0.580727 0.000000
O O15 0.796542 0.190533 0.000000
#
# Coordination Sequence:
#
# PCOD9426636 Si02
#       6
#     8   8   8   8   8   8
#     4  11  22  35  53  77 105 142 181 221 265 310
#     4   9  18  30  52  83 108 136 174 216 262 314
#     4   8  15  29  49  77 107 135 168 209 261 311
#     4   9  18  34  55  78 108 140 173 219 266 313
#     4  10  20  33  53  82 109 137 175 218 266 313
#     4   9  18  33  55  78 104 136 174 221 264 311
#
# _framework density 23.397065000000001
#
# number of rings (size 3 to 8) (size 9 to 14) (size 15 to 20)
#    0.000    2.667    0.000    3.000    2.333    3.333 
#    0.000    4.167    0.000    4.000    0.000    5.833 
#    0.000    0.000    0.000    0.000    0.000    0.000 
#
# Total GULP energy -268127.569894 kJ/mol
# GULP energy per Si atom -5585.991039 kJ/mol
# Density = 2.334381 g / cm^3
# Si number density = 23.397065 Si / 1000 Ang^3
#
#
#
# Elastic Constant Matrix: (Units=GPa)
#
#
# Indices 1 2 3 4 5 6 
#
# 1 78.2156 9.3510 1.7461 0.0000 0.0000 0.0000
# 2 9.3510 124.7228 1.7307 0.0000 0.0000 0.0000
# 3 1.7461 1.7307 67.0501 0.0000 0.0000 0.0000
# 4 0.0000 0.0000 0.0000 -37.2075 0.0000 0.0000
# 5 0.0000 0.0000 0.0000 0.0000 -87.8785 0.0000
# 6 0.0000 0.0000 0.0000 0.0000 0.0000 28.6459
#
#
#
# Elastic Compliance Matrix: (Units=1/GPa)
#
#
# Indices 1 2 3 4 5 6 
#
# 1 0.012907 -0.000963 -0.000311 0.000000 0.000000 0.000000
# 2 -0.000963 0.008093 -0.000184 0.000000 0.000000 0.000000
# 3 -0.000311 -0.000184 0.014927 0.000000 0.000000 0.000000
# 4 0.000000 0.000000 0.000000 -0.026876 0.000000 0.000000
# 5 0.000000 0.000000 0.000000 0.000000 -0.011379 0.000000
# 6 0.000000 0.000000 0.000000 0.000000 0.000000 0.034909
#
#
# Mechanical properties :
#
#
# Convention : Reuss Voigt Hill
#
# Bulk Modulus (GPa) = 30.29382 32.84933 31.57157
# Shear Modulus (GPa) = 107.52576 -2.14397 52.69090
#
# Velocity S-wave (km/s) = 6.78651 -0.95829 4.75070
# Velocity P-wave (km/s) = 8.62466 3.58413 6.60419
#
# Compressibility (1/GPa) = 0.03301004
#
# Stress axis : x y z
#
# Youngs Moduli (GPa) = 77.47556 123.57033 66.99241
#
# Poissons Ratio (x) = 0.11905 0.02085
# Poissons Ratio (y) = 0.07464 0.01231
# Poissons Ratio (z) = 0.02411 0.02271
#
# Static dielectric constant tensor:
#      x y z
#    x 1.845120 0.000000 0.000000 
#    y 0.000000 1.895220 0.000000 
#    z 0.000000 0.000000 1.893670 
# 
# From -- ./inp_files/4051.got.cif
#   From: 2010.05.17/outbox.cif.g08.bks.cpg/sg55_3_cif.got.tgz:4051.got - 2010.06.03 13:27:54.
