data_PCOD9426625
_publ_section_title
;
Structure prediction by ZEFSAII (Michael W. Deem and Ramdas Pophale) SiO2 
 PCOD9426625
Probable space group: P B A M
;
_chemical_formula_sum "Si O2"
_cell_formula_units_Z 58
_cell_length_a 15.146115
_cell_length_b 24.775541
_cell_length_c 8.874817
_cell_angle_alpha 90.000000
_cell_angle_beta 90.000000
_cell_angle_gamma 90.000000
_cell_volume 3330.303418
_symmetry_space_group_name_H-M "P B A M"
_symmetry_group_IT_number 55
_symmetry_cell_setting 'orthorhombic'
loop_
_space_group_symop_operation_xyz
x,y,z
-x,-y,z
1/2+x,1/2-y,-z
1/2-x,1/2+y,-z
-x,-y,-z
x,y,-z
1/2-x,1/2+y,z
1/2+x,1/2-y,z
loop_
_atom_site_type_symbol
_atom_site_label
_atom_site_fract_x
_atom_site_fract_y
_atom_site_fract_z
Si Si1 0.500000 0.500000 0.500000
Si Si2 0.610349 0.295423 0.819383
Si Si3 0.762563 0.885345 0.317654
Si Si4 0.906103 0.319784 0.680634
Si Si5 0.890263 0.679060 0.680859
Si Si6 0.234588 0.886111 0.819862
Si Si7 0.683345 0.503677 0.332919
Si Si8 0.404575 0.295159 0.819383
O O1 0.579184 0.500788 0.370946
O O2 0.669862 0.342789 0.753444
O O3 0.634811 0.237576 0.748446
O O4 0.507177 0.305379 0.780331
O O5 0.618762 0.292615 0.000000
O O6 0.772312 0.883416 0.500000
O O7 0.664416 0.865300 0.277507
O O8 0.784478 0.946241 0.270819
O O9 0.904679 0.314490 0.500000
O O10 0.878809 0.262259 0.749529
O O11 0.007397 0.330828 0.724993
O O12 0.884446 0.680955 0.500000
O O13 0.824962 0.634585 0.746437
O O14 0.207955 0.945436 0.766900
O O15 0.158674 0.843565 0.770253
O O16 0.241446 0.883668 0.000000
O O17 0.725905 0.511217 0.500000
O O18 0.399134 0.290733 0.000000
#
# Coordination Sequence:
#
# PCOD9426625 Si02
#       8
#     2   8   8   8   8   8   8   8
#     4   8  20  40  58  80 106 148 182 224 264 318
#     4  10  20  33  52  80 112 141 174 214 267 324
#     4  10  20  35  55  78 106 139 179 225 265 318
#     4   9  19  35  54  78 104 135 177 219 265 314
#     4  10  20  36  55  78 105 141 178 220 266 318
#     4  11  22  36  55  80 110 142 182 226 270 322
#     4   9  21  37  57  79 107 139 183 220 266 316
#     4   9  20  34  50  76 109 142 172 211 266 323
#
# _framework density 17.41583
#
# number of rings (size 3 to 8) (size 9 to 14) (size 15 to 20)
#    0.414    1.931    0.000    2.069    1.931    5.517 
#    0.000    1.034    0.000    4.138    0.000    0.000 
#    0.000    0.000    0.000    0.000    0.000    0.000 
#
# Total GULP energy -322951.502532 kJ/mol
# GULP energy per Si atom -5568.129354 kJ/mol
# Density = 1.737619 g / cm^3
# Si number density = 17.415830 Si / 1000 Ang^3
#
#
#
# Elastic Constant Matrix: (Units=GPa)
#
#
# Indices 1 2 3 4 5 6 
#
# 1 104.1944 95.0985 35.0295 0.0000 0.0000 0.0000
# 2 95.0985 146.9727 39.4265 0.0000 0.0000 0.0000
# 3 35.0295 39.4265 31.3628 0.0000 0.0000 0.0000
# 4 0.0000 0.0000 0.0000 -73.1166 0.0000 0.0000
# 5 0.0000 0.0000 0.0000 0.0000 19.0256 0.0000
# 6 0.0000 0.0000 0.0000 0.0000 0.0000 6.3472
#
#
#
# Elastic Compliance Matrix: (Units=1/GPa)
#
#
# Indices 1 2 3 4 5 6 
#
# 1 0.026108 -0.013686 -0.011956 0.000000 0.000000 0.000000
# 2 -0.013686 0.017440 -0.006638 0.000000 0.000000 0.000000
# 3 -0.011956 -0.006638 0.053583 0.000000 0.000000 0.000000
# 4 0.000000 0.000000 0.000000 -0.013677 0.000000 0.000000
# 5 0.000000 0.000000 0.000000 0.000000 0.052561 0.000000
# 6 0.000000 0.000000 0.000000 0.000000 0.000000 0.157550
#
#
# Mechanical properties :
#
#
# Convention : Reuss Voigt Hill
#
# Bulk Modulus (GPa) = 30.70134 69.07101 49.88617
# Shear Modulus (GPa) = 13.55076 -2.01709 5.76683
#
# Velocity S-wave (km/s) = 2.79242 -1.07736 1.82166
# Velocity P-wave (km/s) = 5.29750 6.18048 5.75595
#
# Compressibility (1/GPa) = 0.03257187
#
# Stress axis : x y z
#
# Youngs Moduli (GPa) = 38.30210 57.33842 18.66252
#
# Poissons Ratio (x) = 0.78474 0.22312
# Poissons Ratio (y) = 0.52421 0.12389
# Poissons Ratio (z) = 0.45793 0.38062
#
# Static dielectric constant tensor:
#      x y z
#    x 1.601810 0.000000 0.000000 
#    y 0.000000 1.567820 0.000000 
#    z 0.000000 0.000000 1.591830 
# 
# From -- ./inp_files/6472.got.cif
#   From: 2010.05.17/outbox.cif.g08.bks.cpg/sg55_4_cif.got.tgz:6472.got - 2010.06.03 13:27:54.
