data_PCOD9426018
_publ_section_title
;
Structure prediction by ZEFSAII (Michael W. Deem and Ramdas Pophale) SiO2 
 PCOD9426018
Probable space group: P B A M
;
_chemical_formula_sum "Si O2"
_cell_formula_units_Z 64
_cell_length_a 9.481004
_cell_length_b 23.261045
_cell_length_c 14.985029
_cell_angle_alpha 90.000000
_cell_angle_beta 90.000000
_cell_angle_gamma 90.000000
_cell_volume 3304.769235
_symmetry_space_group_name_H-M "P B A M"
_symmetry_group_IT_number 55
_symmetry_cell_setting 'orthorhombic'
loop_
_space_group_symop_operation_xyz
x,y,z
-x,-y,z
1/2+x,1/2-y,-z
1/2-x,1/2+y,-z
-x,-y,-z
x,y,-z
1/2-x,1/2+y,z
1/2+x,1/2-y,z
loop_
_atom_site_type_symbol
_atom_site_label
_atom_site_fract_x
_atom_site_fract_y
_atom_site_fract_z
Si Si1 0.087443 0.916636 0.897776
Si Si2 0.711700 0.712259 0.901013
Si Si3 0.848432 0.971459 0.397831
Si Si4 0.958939 0.752952 0.211353
Si Si5 0.105157 0.447187 0.400878
Si Si6 0.981160 0.368878 0.751677
Si Si7 0.385753 0.949842 0.893363
Si Si8 0.851395 0.879075 0.243654
O O1 0.168294 0.854858 0.900245
O O2 0.218014 0.959444 0.873450
O O3 0.955880 0.908770 0.830210
O O4 0.040260 0.928607 0.000000
O O5 0.614887 0.738049 0.824713
O O6 0.865539 0.733505 0.873617
O O7 0.679077 0.733735 0.000000
O O8 0.803011 0.956825 0.500000
O O9 0.856062 0.917038 0.333255
O O10 0.744984 0.021976 0.363811
O O11 0.000000 0.000000 0.402214
O O12 0.968192 0.695681 0.269085
O O13 0.905047 0.813037 0.250891
O O14 0.134098 0.422934 0.500000
O O15 0.029592 0.405049 0.333397
O O16 0.000000 0.500000 0.410190
O O17 0.062857 0.396131 0.835458
O O18 0.815912 0.374727 0.775622
O O19 0.500000 0.000000 0.872211
O O20 0.393294 0.939764 0.000000
#
# Coordination Sequence:
#
# PCOD9426018 Si02
#       8
#     8   8   8   8   8   8   8   8
#     4   9  20  38  57  84 124 168 209 255 312 369
#     4  10  19  34  55  79 115 162 209 261 306 348
#     4  10  23  43  69  99 124 154 201 255 314 380
#     4  11  22  37  53  90 123 158 210 259 308 381
#     4  10  21  40  67  95 120 151 201 256 305 373
#     4  12  23  38  63  89 123 167 210 253 319 373
#     4  10  22  38  59  88 123 166 213 260 312 374
#     4  11  24  39  62  93 125 164 207 262 318 367
#
# _framework density 19.365952
#
# number of rings (size 3 to 8) (size 9 to 14) (size 15 to 20)
#    0.000    1.625    3.750    0.750    1.750    1.500 
#    0.000    0.625    0.000    2.625    0.000    0.000 
#    0.000    0.000    0.000    0.000    0.000    0.000 
#
# Total GULP energy -356616.331546 kJ/mol
# GULP energy per Si atom -5572.130180 kJ/mol
# Density = 1.932187 g / cm^3
# Si number density = 19.365952 Si / 1000 Ang^3
#
#
#
# Elastic Constant Matrix: (Units=GPa)
#
#
# Indices 1 2 3 4 5 6 
#
# 1 107.3022 37.8413 39.7492 0.0000 0.0000 0.0000
# 2 37.8413 89.5834 47.6200 0.0000 0.0000 0.0000
# 3 39.7492 47.6200 75.1062 0.0000 0.0000 0.0000
# 4 0.0000 0.0000 0.0000 2.8488 0.0000 0.0000
# 5 0.0000 0.0000 0.0000 0.0000 24.1357 0.0000
# 6 0.0000 0.0000 0.0000 0.0000 0.0000 29.4862
#
#
#
# Elastic Compliance Matrix: (Units=1/GPa)
#
#
# Indices 1 2 3 4 5 6 
#
# 1 0.011965 -0.002546 -0.004718 0.000000 0.000000 0.000000
# 2 -0.002546 0.017380 -0.009672 0.000000 0.000000 0.000000
# 3 -0.004718 -0.009672 0.021944 0.000000 0.000000 0.000000
# 4 0.000000 0.000000 0.000000 0.351022 0.000000 0.000000
# 5 0.000000 0.000000 0.000000 0.000000 0.041432 0.000000
# 6 0.000000 0.000000 0.000000 0.000000 0.000000 0.033914
#
#
# Mechanical properties :
#
#
# Convention : Reuss Voigt Hill
#
# Bulk Modulus (GPa) = 57.41706 58.04587 57.73147
# Shear Modulus (GPa) = 9.66492 21.07956 15.37224
#
# Velocity S-wave (km/s) = 2.23641 3.30280 2.82046
# Velocity P-wave (km/s) = 6.03171 6.67704 6.36256
#
# Compressibility (1/GPa) = 0.01741643
#
# Stress axis : x y z
#
# Youngs Moduli (GPa) = 83.57569 57.53892 45.57136
#
# Poissons Ratio (x) = 0.14651 0.21501
# Poissons Ratio (y) = 0.21281 0.44075
# Poissons Ratio (z) = 0.39431 0.55650
#
# Static dielectric constant tensor:
#      x y z
#    x 1.611420 0.000000 0.000000 
#    y 0.000000 1.713200 0.000000 
#    z 0.000000 0.000000 1.676310 
# 
# From -- ./inp_files/17856.got.cif
#   From: 2010.05.17/outbox.cif.g08.bks.cpg/sg55_9_cif.got.tgz:17856.got - 2010.06.03 13:27:54.
