data_PCOD9426759
_publ_section_title
;
Structure prediction by ZEFSAII (Michael W. Deem and Ramdas Pophale) SiO2 
 PCOD9426759
Probable space group: P B A M
;
_chemical_formula_sum "Si O2"
_cell_formula_units_Z 64
_cell_length_a 19.918965
_cell_length_b 20.796052
_cell_length_c 8.821948
_cell_angle_alpha 90.000000
_cell_angle_beta 90.000000
_cell_angle_gamma 90.000000
_cell_volume 3654.366969
_symmetry_space_group_name_H-M "P B A M"
_symmetry_group_IT_number 55
_symmetry_cell_setting 'orthorhombic'
loop_
_space_group_symop_operation_xyz
x,y,z
-x,-y,z
1/2+x,1/2-y,-z
1/2-x,1/2+y,-z
-x,-y,-z
x,y,-z
1/2-x,1/2+y,z
1/2+x,1/2-y,z
loop_
_atom_site_type_symbol
_atom_site_label
_atom_site_fract_x
_atom_site_fract_y
_atom_site_fract_z
Si Si1 0.193791 0.427030 0.818745
Si Si2 0.224242 0.568608 0.178940
Si Si3 0.778953 0.199742 0.818291
Si Si4 0.081438 0.770135 0.677757
Si Si5 0.694236 0.317282 0.680420
Si Si6 0.088909 0.614846 0.323019
Si Si7 0.561516 0.120989 0.681300
Si Si8 0.061139 0.236318 0.819039
O O1 0.231319 0.493407 0.784079
O O2 0.237742 0.364608 0.779704
O O3 0.122728 0.422748 0.734233
O O4 0.181322 0.425650 0.000000
O O5 0.272872 0.615714 0.269806
O O6 0.147814 0.586879 0.221767
O O7 0.234870 0.578399 0.000000
O O8 0.854331 0.198244 0.755657
O O9 0.741474 0.260581 0.745243
O O10 0.779354 0.207088 0.000000
O O11 0.077969 0.786019 0.500000
O O12 0.090415 0.692571 0.688392
O O13 0.011448 0.785544 0.759072
O O14 0.691513 0.312186 0.500000
O O15 0.621133 0.305736 0.751081
O O16 0.100501 0.597962 0.500000
O O17 0.012967 0.595570 0.280086
O O18 0.562561 0.130321 0.500000
O O19 0.570709 0.190512 0.759578
O O20 0.063689 0.236160 0.000000
#
# Coordination Sequence:
#
# PCOD9426759 Si02
#       8
#     8   8   8   8   8   8   8   8
#     4  10  23  39  55  80 115 151 193 236 281 337
#     4  11  23  38  56  80 112 153 194 236 283 336
#     4  11  21  36  59  85 112 148 190 235 283 335
#     4  10  20  35  56  85 117 146 182 231 284 336
#     4  12  23  37  58  85 114 147 189 239 286 336
#     4   9  19  34  51  77 113 150 187 230 276 331
#     4  10  20  34  54  79 112 150 190 232 280 332
#     4  11  21  35  57  85 115 147 186 232 282 337
#
# _framework density 17.513293000000001
#
# number of rings (size 3 to 8) (size 9 to 14) (size 15 to 20)
#    0.000    1.500    2.500    4.500    0.000    4.500 
#    0.000    2.500    0.000    0.750    0.000    5.250 
#    0.000    0.000    0.000    0.000    0.000    0.000 
#
# Total GULP energy -357623.757880 kJ/mol
# GULP energy per Si atom -5587.871217 kJ/mol
# Density = 1.747343 g / cm^3
# Si number density = 17.513293 Si / 1000 Ang^3
#
#
#
# Elastic Constant Matrix: (Units=GPa)
#
#
# Indices 1 2 3 4 5 6 
#
# 1 87.5004 6.5455 27.0185 0.0000 0.0000 0.0000
# 2 6.5455 24.0921 12.6657 0.0000 0.0000 0.0000
# 3 27.0185 12.6657 74.7041 0.0000 0.0000 0.0000
# 4 0.0000 0.0000 0.0000 2.8222 0.0000 0.0000
# 5 0.0000 0.0000 0.0000 0.0000 34.1581 0.0000
# 6 0.0000 0.0000 0.0000 0.0000 0.0000 16.7100
#
#
#
# Elastic Compliance Matrix: (Units=1/GPa)
#
#
# Indices 1 2 3 4 5 6 
#
# 1 0.012894 -0.001154 -0.004468 0.000000 0.000000 0.000000
# 2 -0.001154 0.045672 -0.007326 0.000000 0.000000 0.000000
# 3 -0.004468 -0.007326 0.016244 0.000000 0.000000 0.000000
# 4 0.000000 0.000000 0.000000 0.354335 0.000000 0.000000
# 5 0.000000 0.000000 0.000000 0.000000 0.029276 0.000000
# 6 0.000000 0.000000 0.000000 0.000000 0.000000 0.059844
#
#
# Mechanical properties :
#
#
# Convention : Reuss Voigt Hill
#
# Bulk Modulus (GPa) = 20.44384 30.97289 25.70837
# Shear Modulus (GPa) = 8.92112 20.07585 14.49849
#
# Velocity S-wave (km/s) = 2.25942 3.38941 2.88037
# Velocity P-wave (km/s) = 4.30178 5.74815 5.07674
#
# Compressibility (1/GPa) = 0.04891449
#
# Stress axis : x y z
#
# Youngs Moduli (GPa) = 77.55259 21.89502 61.56062
#
# Poissons Ratio (x) = 0.02528 0.27504
# Poissons Ratio (y) = 0.08953 0.45100
# Poissons Ratio (z) = 0.34649 0.16040
#
# Static dielectric constant tensor:
#      x y z
#    x 1.591540 0.000000 0.000000 
#    y 0.000000 1.589890 0.000000 
#    z 0.000000 0.000000 1.582890 
# 
# From -- ./inp_files/8075.got.cif
#   From: 2010.05.17/outbox.cif.g08.bks.cpg/sg55_5_cif.got.tgz:8075.got - 2010.06.03 13:27:54.
