data_PCOD9426683
_publ_section_title
;
Structure prediction by ZEFSAII (Michael W. Deem and Ramdas Pophale) SiO2 
 PCOD9426683
Probable space group: P B A M
;
_chemical_formula_sum "Si O2"
_cell_formula_units_Z 44
_cell_length_a 5.011617
_cell_length_b 30.479013
_cell_length_c 15.207537
_cell_angle_alpha 90.000000
_cell_angle_beta 90.000000
_cell_angle_gamma 90.000000
_cell_volume 2322.938194
_symmetry_space_group_name_H-M "P B A M"
_symmetry_group_IT_number 55
_symmetry_cell_setting 'orthorhombic'
loop_
_space_group_symop_operation_xyz
x,y,z
-x,-y,z
1/2+x,1/2-y,-z
1/2-x,1/2+y,-z
-x,-y,-z
x,y,-z
1/2-x,1/2+y,z
1/2+x,1/2-y,z
loop_
_atom_site_type_symbol
_atom_site_label
_atom_site_fract_x
_atom_site_fract_y
_atom_site_fract_z
Si Si1 0.597653 0.084254 0.327581
Si Si2 0.368803 0.953649 0.860688
Si Si3 0.742326 0.779848 0.399095
Si Si4 0.246732 0.467978 0.500000
Si Si5 0.869242 0.898096 0.096567
Si Si6 0.410208 0.638105 0.713648
O O1 0.633420 0.051682 0.244967
O O2 0.707620 0.061781 0.414440
O O3 0.293105 0.101008 0.324934
O O4 0.788481 0.125875 0.311171
O O5 0.572278 0.917223 0.896576
O O6 0.075289 0.939079 0.891379
O O7 0.500000 0.000000 0.885151
O O8 0.773243 0.796723 0.500000
O O9 0.446506 0.760723 0.389568
O O10 0.817595 0.816799 0.329278
O O11 0.500000 0.500000 0.500000
O O12 0.000000 0.500000 0.500000
O O13 0.899962 0.866511 0.180552
O O14 0.915487 0.878846 0.000000
#
# Coordination Sequence:
#
# PCOD9426683 Si02
#       6
#     8   8   8   4   8   8
#     4  10  22  35  53  77 104 149 186 223 266 322
#     4  10  20  34  51  74 106 140 182 233 280 316
#     4  10  21  36  58  87 112 138 170 216 270 325
#     4  12  24  36  52  76 108 146 192 232 264 306
#     4  10  21  35  53  78 104 140 185 225 274 322
#     4  10  21  38  57  79 110 143 178 219 271 327
#
# _framework density 18.94153
#
# number of rings (size 3 to 8) (size 9 to 14) (size 15 to 20)
#    0.000    1.818    0.000    3.818    2.545    5.091 
#    0.000    0.000    0.000    1.091    0.000    0.000 
#    0.000    0.000    0.000    0.000    0.000    0.000 
#
# Total GULP energy -245573.036671 kJ/mol
# GULP energy per Si atom -5581.205379 kJ/mol
# Density = 1.889842 g / cm^3
# Si number density = 18.941530 Si / 1000 Ang^3
#
#
#
# Elastic Constant Matrix: (Units=GPa)
#
#
# Indices 1 2 3 4 5 6 
#
# 1 77.8215 -11.7555 4.5486 0.0000 0.0000 0.0000
# 2 -11.7555 43.0323 43.8048 0.0000 0.0000 0.0000
# 3 4.5486 43.8048 146.6895 0.0000 0.0000 0.0000
# 4 0.0000 0.0000 0.0000 -1.9646 0.0000 0.0000
# 5 0.0000 0.0000 0.0000 0.0000 21.1788 0.0000
# 6 0.0000 0.0000 0.0000 0.0000 0.0000 20.8508
#
#
#
# Elastic Compliance Matrix: (Units=1/GPa)
#
#
# Indices 1 2 3 4 5 6 
#
# 1 0.013901 0.006086 -0.002249 0.000000 0.000000 0.000000
# 2 0.006086 0.036052 -0.010955 0.000000 0.000000 0.000000
# 3 -0.002249 -0.010955 0.010158 0.000000 0.000000 0.000000
# 4 0.000000 0.000000 0.000000 -0.509012 0.000000 0.000000
# 5 0.000000 0.000000 0.000000 0.000000 0.047217 0.000000
# 6 0.000000 0.000000 0.000000 0.000000 0.000000 0.047960
#
#
# Mechanical properties :
#
#
# Convention : Reuss Voigt Hill
#
# Bulk Modulus (GPa) = 21.79734 37.85989 29.82861
# Shear Modulus (GPa) = -15.42270 23.40937 3.99334
#
# Velocity S-wave (km/s) = -2.85656 3.51932 1.45355
# Velocity P-wave (km/s) = 0.80793 6.04527 4.31266
#
# Compressibility (1/GPa) = 0.04587717
#
# Stress axis : x y z
#
# Youngs Moduli (GPa) = 71.93878 27.73743 98.44284
#
# Poissons Ratio (x) = -0.16882 0.22135
# Poissons Ratio (y) = -0.43784 1.07842
# Poissons Ratio (z) = 0.16176 0.30386
#
# Static dielectric constant tensor:
#      x y z
#    x 1.641800 0.000000 0.000000 
#    y 0.000000 1.624360 0.000000 
#    z 0.000000 0.000000 1.679860 
# 
# From -- ./inp_files/16617.got.cif
#   From: 2010.05.17/outbox.cif.g08.bks.cpg/sg55_9_cif.got.tgz:16617.got - 2010.06.03 13:27:54.
