data_PCOD9426248
_publ_section_title
;
Structure prediction by ZEFSAII (Michael W. Deem and Ramdas Pophale) SiO2 
 PCOD9426248
Probable space group: P B A M
;
_chemical_formula_sum "Si O2"
_cell_formula_units_Z 64
_cell_length_a 15.817229
_cell_length_b 24.529296
_cell_length_c 8.258002
_cell_angle_alpha 90.000000
_cell_angle_beta 90.000000
_cell_angle_gamma 90.000000
_cell_volume 3203.984969
_symmetry_space_group_name_H-M "P B A M"
_symmetry_group_IT_number 55
_symmetry_cell_setting 'orthorhombic'
loop_
_space_group_symop_operation_xyz
x,y,z
-x,-y,z
1/2+x,1/2-y,-z
1/2-x,1/2+y,-z
-x,-y,-z
x,y,-z
1/2-x,1/2+y,z
1/2+x,1/2-y,z
loop_
_atom_site_type_symbol
_atom_site_label
_atom_site_fract_x
_atom_site_fract_y
_atom_site_fract_z
Si Si1 0.108524 0.453072 0.686031
Si Si2 0.123980 0.687604 0.303268
Si Si3 0.039284 0.898600 0.305869
Si Si4 0.431442 0.070375 0.186743
Si Si5 0.010699 0.224126 0.302595
Si Si6 0.690496 0.306686 0.692846
Si Si7 0.141081 0.074138 0.807447
Si Si8 0.291968 0.457335 0.193834
O O1 0.092358 0.439151 0.500000
O O2 0.099421 0.518229 0.712250
O O3 0.203053 0.437686 0.735383
O O4 0.032838 0.427469 0.790276
O O5 0.123745 0.687185 0.500000
O O6 0.108602 0.626535 0.243594
O O7 0.049413 0.727426 0.246848
O O8 0.216342 0.707418 0.246038
O O9 0.033921 0.902753 0.500000
O O10 0.027112 0.835098 0.260262
O O11 0.127972 0.921938 0.247459
O O12 0.958629 0.929874 0.231954
O O13 0.410343 0.059638 0.000000
O O14 0.012537 0.226254 0.500000
O O15 0.107686 0.224471 0.243104
O O16 0.691479 0.298184 0.500000
O O17 0.674109 0.370809 0.724605
O O18 0.188728 0.019639 0.752906
O O19 0.152101 0.079907 0.000000
O O20 0.286390 0.457404 0.000000
#
# Coordination Sequence:
#
# PCOD9426248 Si02
#       8
#     8   8   8   8   8   8   8   8
#     4  11  22  38  59  83 111 146 188 226 272 332
#     4  10  19  35  59  83 108 144 192 236 278 334
#     4  10  20  35  54  78 110 147 190 235 279 328
#     4  11  22  38  58  82 115 146 177 226 286 334
#     4   8  17  35  54  78 110 142 186 239 284 324
#     4   9  18  33  55  80 106 141 183 234 285 330
#     4  10  20  33  52  77 108 146 184 227 280 335
#     4  11  22  35  52  80 116 150 184 224 281 341
#
# _framework density 19.975124999999998
#
# number of rings (size 3 to 8) (size 9 to 14) (size 15 to 20)
#    0.000    2.000    0.000    6.000    0.000    6.000 
#    2.250    3.125    0.000    0.000    0.000    0.000 
#    0.000    0.000    0.000    0.000    0.000    0.000 
#
# Total GULP energy -357478.016008 kJ/mol
# GULP energy per Si atom -5585.594000 kJ/mol
# Density = 1.992966 g / cm^3
# Si number density = 19.975125 Si / 1000 Ang^3
#
#
#
# Elastic Constant Matrix: (Units=GPa)
#
#
# Indices 1 2 3 4 5 6 
#
# 1 137.0099 26.2352 -5.3363 0.0000 0.0000 0.0000
# 2 26.2352 21.7857 -6.7646 0.0000 0.0000 0.0000
# 3 -5.3363 -6.7646 17.5560 0.0000 0.0000 0.0000
# 4 0.0000 0.0000 0.0000 -730.9446 0.0000 0.0000
# 5 0.0000 0.0000 0.0000 0.0000 19.4466 0.0000
# 6 0.0000 0.0000 0.0000 0.0000 0.0000 14.4906
#
#
#
# Elastic Compliance Matrix: (Units=1/GPa)
#
#
# Indices 1 2 3 4 5 6 
#
# 1 0.009532 -0.012017 -0.001733 0.000000 0.000000 0.000000
# 2 -0.012017 0.067290 0.022275 0.000000 0.000000 0.000000
# 3 -0.001733 0.022275 0.065017 0.000000 0.000000 0.000000
# 4 0.000000 0.000000 0.000000 -0.001368 0.000000 0.000000
# 5 0.000000 0.000000 0.000000 0.000000 0.051423 0.000000
# 6 0.000000 0.000000 0.000000 0.000000 0.000000 0.069010
#
#
# Mechanical properties :
#
#
# Convention : Reuss Voigt Hill
#
# Bulk Modulus (GPa) = 6.29375 22.73558 14.51466
# Shear Modulus (GPa) = 16.84538 -128.58700 -55.87081
#
# Velocity S-wave (km/s) = 2.90714 -8.03202 -5.29442
# Velocity P-wave (km/s) = 3.79819 8.63777 5.48565
#
# Compressibility (1/GPa) = 0.15888772
#
# Stress axis : x y z
#
# Youngs Moduli (GPa) = 104.90578 14.86110 15.38071
#
# Poissons Ratio (x) = 0.17859 0.02665
# Poissons Ratio (y) = 1.26069 -0.34260
# Poissons Ratio (z) = 0.18180 -0.33103
#
# Static dielectric constant tensor:
#      x y z
#    x 1.729750 0.000000 0.000000 
#    y 0.000000 1.672440 0.000000 
#    z 0.000000 0.000000 1.684890 
# 
# From -- ./inp_files/6679.got.cif
#   From: 2010.05.17/outbox.cif.g08.bks.cpg/sg55_4_cif.got.tgz:6679.got - 2010.06.03 13:27:54.
