data_PCOD9426122
_publ_section_title
;
Structure prediction by ZEFSAII (Michael W. Deem and Ramdas Pophale) SiO2 
 PCOD9426122
Probable space group: P B A M
;
_chemical_formula_sum "Si O2"
_cell_formula_units_Z 64
_cell_length_a 19.991309
_cell_length_b 21.051841
_cell_length_c 8.770447
_cell_angle_alpha 90.000000
_cell_angle_beta 90.000000
_cell_angle_gamma 90.000000
_cell_volume 3691.076460
_symmetry_space_group_name_H-M "P B A M"
_symmetry_group_IT_number 55
_symmetry_cell_setting 'orthorhombic'
loop_
_space_group_symop_operation_xyz
x,y,z
-x,-y,z
1/2+x,1/2-y,-z
1/2-x,1/2+y,-z
-x,-y,-z
x,y,-z
1/2-x,1/2+y,z
1/2+x,1/2-y,z
loop_
_atom_site_type_symbol
_atom_site_label
_atom_site_fract_x
_atom_site_fract_y
_atom_site_fract_z
Si Si1 0.791782 0.189195 0.683340
Si Si2 0.791178 0.806753 0.819190
Si Si3 0.215956 0.574187 0.318188
Si Si4 0.437257 0.886624 0.318543
Si Si5 0.928275 0.765398 0.319938
Si Si6 0.070784 0.769617 0.180563
Si Si7 0.706363 0.067320 0.685504
Si Si8 0.578912 0.882648 0.820593
O O1 0.793745 0.190480 0.500000
O O2 0.750615 0.250094 0.741024
O O3 0.866187 0.194476 0.748922
O O4 0.752872 0.125693 0.733945
O O5 0.760542 0.873079 0.763542
O O6 0.867654 0.797907 0.768350
O O7 0.784198 0.801193 0.000000
O O8 0.223986 0.580240 0.500000
O O9 0.231791 0.502075 0.270451
O O10 0.138835 0.587009 0.274263
O O11 0.446218 0.897144 0.500000
O O12 0.424613 0.811064 0.296776
O O13 0.370305 0.921721 0.264500
O O14 0.505595 0.904002 0.233957
O O15 0.921643 0.777120 0.500000
O O16 0.000764 0.785997 0.259921
O O17 0.081892 0.693763 0.203772
O O18 0.066492 0.780369 0.000000
O O19 0.704331 0.069201 0.500000
O O20 0.588073 0.894770 0.000000
#
# Coordination Sequence:
#
# PCOD9426122 Si02
#       8
#     8   8   8   8   8   8   8   8
#     4  11  20  36  60  84 109 143 188 232 275 328
#     4  12  23  36  55  83 115 145 182 231 281 327
#     4  11  22  37  57  78 107 149 190 228 275 326
#     4   9  17  33  54  77 107 144 186 226 266 321
#     4  10  19  34  58  84 109 143 186 227 275 329
#     4  10  20  34  53  83 118 145 177 225 280 328
#     4   9  20  37  56  81 109 141 187 236 273 320
#     4  10  20  33  49  76 114 148 183 224 268 324
#
# _framework density 17.339116000000001
#
# number of rings (size 3 to 8) (size 9 to 14) (size 15 to 20)
#    0.000    1.750    2.500    3.000    0.000    2.000 
#    0.000    6.250    0.000    0.750    0.000    5.250 
#    0.000    0.000    0.000    0.000    0.000    0.000 
#
# Total GULP energy -357477.388186 kJ/mol
# GULP energy per Si atom -5585.584190 kJ/mol
# Density = 1.729965 g / cm^3
# Si number density = 17.339116 Si / 1000 Ang^3
#
#
#
# Elastic Constant Matrix: (Units=GPa)
#
#
# Indices 1 2 3 4 5 6 
#
# 1 73.3217 22.1769 6.8914 0.0000 0.0000 0.0000
# 2 22.1769 59.7634 21.6977 0.0000 0.0000 0.0000
# 3 6.8914 21.6977 37.1680 0.0000 0.0000 0.0000
# 4 0.0000 0.0000 0.0000 6.8574 0.0000 0.0000
# 5 0.0000 0.0000 0.0000 0.0000 7.0812 0.0000
# 6 0.0000 0.0000 0.0000 0.0000 0.0000 16.9194
#
#
#
# Elastic Compliance Matrix: (Units=1/GPa)
#
#
# Indices 1 2 3 4 5 6 
#
# 1 0.015374 -0.005926 0.000609 0.000000 0.000000 0.000000
# 2 -0.005926 0.023517 -0.012630 0.000000 0.000000 0.000000
# 3 0.000609 -0.012630 0.034165 0.000000 0.000000 0.000000
# 4 0.000000 0.000000 0.000000 0.145829 0.000000 0.000000
# 5 0.000000 0.000000 0.000000 0.000000 0.141220 0.000000
# 6 0.000000 0.000000 0.000000 0.000000 0.000000 0.059104
#
#
# Mechanical properties :
#
#
# Convention : Reuss Voigt Hill
#
# Bulk Modulus (GPa) = 26.90929 30.19834 28.55381
# Shear Modulus (GPa) = 10.69544 14.13739 12.41642
#
# Velocity S-wave (km/s) = 2.48632 2.85853 2.67889
# Velocity P-wave (km/s) = 4.87806 5.32438 5.10610
#
# Compressibility (1/GPa) = 0.03716189
#
# Stress axis : x y z
#
# Youngs Moduli (GPa) = 65.04642 42.52240 29.26979
#
# Poissons Ratio (x) = 0.25198 -0.01782
# Poissons Ratio (y) = 0.38546 0.36967
# Poissons Ratio (z) = -0.03961 0.53705
#
# Static dielectric constant tensor:
#      x y z
#    x 1.574630 0.000000 0.000000 
#    y 0.000000 1.584640 0.000000 
#    z 0.000000 0.000000 1.579520 
# 
# From -- ./inp_files/8012.got.cif
#   From: 2010.05.17/outbox.cif.g08.bks.cpg/sg55_5_cif.got.tgz:8012.got - 2010.06.03 13:27:54.
