data_PCOD9426010
_publ_section_title
;
Structure prediction by ZEFSAII (Michael W. Deem and Ramdas Pophale) SiO2 
 PCOD9426010
Probable space group: P B A M
;
_chemical_formula_sum "Si O2"
_cell_formula_units_Z 64
_cell_length_a 19.797787
_cell_length_b 18.159157
_cell_length_c 7.423263
_cell_angle_alpha 90.000000
_cell_angle_beta 90.000000
_cell_angle_gamma 90.000000
_cell_volume 2668.745613
_symmetry_space_group_name_H-M "P B A M"
_symmetry_group_IT_number 55
_symmetry_cell_setting 'orthorhombic'
loop_
_space_group_symop_operation_xyz
x,y,z
-x,-y,z
1/2+x,1/2-y,-z
1/2-x,1/2+y,-z
-x,-y,-z
x,y,-z
1/2-x,1/2+y,z
1/2+x,1/2-y,z
loop_
_atom_site_type_symbol
_atom_site_label
_atom_site_fract_x
_atom_site_fract_y
_atom_site_fract_z
Si Si1 0.760307 0.079502 0.289211
Si Si2 0.701328 0.227446 0.719928
Si Si3 0.487974 0.619878 0.781201
Si Si4 0.556795 0.766175 0.789228
Si Si5 0.101682 0.999070 0.215674
Si Si6 0.631294 0.988302 0.719652
Si Si7 0.932720 0.636387 0.283214
Si Si8 0.189738 0.663561 0.294681
O O1 0.747626 0.087845 0.500000
O O2 0.752054 0.161854 0.219362
O O3 0.828073 0.035238 0.266675
O O4 0.699394 0.030242 0.224188
O O5 0.698890 0.233462 0.500000
O O6 0.627346 0.194363 0.775472
O O7 0.740667 0.301678 0.781806
O O8 0.512929 0.698057 0.714483
O O9 0.545399 0.560752 0.732621
O O10 0.419242 0.580351 0.718605
O O11 0.484442 0.625513 0.000000
O O12 0.506024 0.834469 0.768499
O O13 0.629865 0.776063 0.702309
O O14 0.569724 0.753359 0.000000
O O15 0.099667 0.002303 0.000000
O O16 0.622758 0.982493 0.500000
O O17 0.648706 0.906065 0.785804
O O18 0.577864 0.051395 0.776554
O O19 0.928068 0.635701 0.500000
O O20 0.206718 0.641941 0.500000
#
# Coordination Sequence:
#
# PCOD9426010 Si02
#       8
#     8   8   8   8   8   8   8   8
#     4   9  16  29  48  73 100 123 149 197 253 292
#     4   8  16  31  53  76 100 128 164 206 249 294
#     4   8  17  32  47  64  95 132 163 191 234 293
#     4  11  22  35  50  74 104 133 165 210 256 293
#     4   9  16  30  50  69  91 129 167 192 226 291
#     4   8  17  33  52  71  96 128 164 200 244 297
#     4   9  18  36  56  74  98 134 171 204 244 299
#     4  10  19  34  55  77  98 130 171 208 244 294
#
# _framework density 23.981304999999999
#
# number of rings (size 3 to 8) (size 9 to 14) (size 15 to 20)
#    0.000    3.000    0.000    3.375    0.000    1.500 
#    0.000   11.250    0.000    0.000    0.000    0.000 
#    0.000    0.000    0.000    0.000    0.000    0.000 
#
# Total GULP energy -356511.622109 kJ/mol
# GULP energy per Si atom -5570.494095 kJ/mol
# Density = 2.392672 g / cm^3
# Si number density = 23.981305 Si / 1000 Ang^3
#
#
#
# Elastic Constant Matrix: (Units=GPa)
#
#
# Indices 1 2 3 4 5 6 
#
# 1 60.0355 4.1699 -12.6342 0.0000 0.0000 0.0000
# 2 4.1699 70.2302 -0.9648 0.0000 0.0000 0.0000
# 3 -12.6342 -0.9648 72.9581 0.0000 0.0000 0.0000
# 4 0.0000 0.0000 0.0000 3.6715 0.0000 0.0000
# 5 0.0000 0.0000 0.0000 0.0000 -4.5176 0.0000
# 6 0.0000 0.0000 0.0000 0.0000 0.0000 38.7521
#
#
#
# Elastic Compliance Matrix: (Units=1/GPa)
#
#
# Indices 1 2 3 4 5 6 
#
# 1 0.017355 -0.000989 0.002992 0.000000 0.000000 0.000000
# 2 -0.000989 0.014298 0.000018 0.000000 0.000000 0.000000
# 3 0.002992 0.000018 0.014225 0.000000 0.000000 0.000000
# 4 0.000000 0.000000 0.000000 0.272366 0.000000 0.000000
# 5 0.000000 0.000000 0.000000 0.000000 -0.221355 0.000000
# 6 0.000000 0.000000 0.000000 0.000000 0.000000 0.025805
#
#
# Mechanical properties :
#
#
# Convention : Reuss Voigt Hill
#
# Bulk Modulus (GPa) = 20.03227 20.48509 20.25868
# Shear Modulus (GPa) = 36.95714 21.75806 29.35760
#
# Velocity S-wave (km/s) = 3.92992 3.01540 3.50263
# Velocity P-wave (km/s) = 5.38180 4.54798 4.98237
#
# Compressibility (1/GPa) = 0.04991945
#
# Stress axis : x y z
#
# Youngs Moduli (GPa) = 57.61948 69.94048 70.29923
#
# Poissons Ratio (x) = 0.06920 -0.21036
# Poissons Ratio (y) = 0.05701 -0.00125
# Poissons Ratio (z) = -0.17242 -0.00124
#
# Static dielectric constant tensor:
#      x y z
#    x 1.951040 0.000000 0.000000 
#    y 0.000000 2.013170 0.000000 
#    z 0.000000 0.000000 1.948560 
# 
# From -- ./inp_files/9054.got.cif
#   From: 2010.05.17/outbox.cif.g08.bks.cpg/sg55_5_cif.got.tgz:9054.got - 2010.06.03 13:27:54.
