data_PCOD9426104
_publ_section_title
;
Structure prediction by ZEFSAII (Michael W. Deem and Ramdas Pophale) SiO2 
 PCOD9426104
Probable space group: P B A M
;
_chemical_formula_sum "Si O2"
_cell_formula_units_Z 48
_cell_length_a 19.043087
_cell_length_b 15.515576
_cell_length_c 7.453188
_cell_angle_alpha 90.000000
_cell_angle_beta 90.000000
_cell_angle_gamma 90.000000
_cell_volume 2202.152195
_symmetry_space_group_name_H-M "P B A M"
_symmetry_group_IT_number 55
_symmetry_cell_setting 'orthorhombic'
loop_
_space_group_symop_operation_xyz
x,y,z
-x,-y,z
1/2+x,1/2-y,-z
1/2-x,1/2+y,-z
-x,-y,-z
x,y,-z
1/2-x,1/2+y,z
1/2+x,1/2-y,z
loop_
_atom_site_type_symbol
_atom_site_label
_atom_site_fract_x
_atom_site_fract_y
_atom_site_fract_z
Si Si1 0.090925 0.750053 0.792094
Si Si2 0.256143 0.305545 0.219719
Si Si3 0.989460 0.904387 0.292861
Si Si4 0.437101 0.061120 0.219312
Si Si5 0.282856 0.997402 0.781310
Si Si6 0.169990 0.140328 0.782767
O O1 0.166500 0.777406 0.716550
O O2 0.059318 0.660752 0.719926
O O3 0.037483 0.829259 0.786135
O O4 0.106028 0.730597 0.000000
O O5 0.236483 0.401407 0.278155
O O6 0.200274 0.232909 0.272887
O O7 0.256917 0.307380 0.000000
O O8 0.011341 0.909324 0.500000
O O9 0.908196 0.879061 0.280209
O O10 0.000000 0.000000 0.213545
O O11 0.500000 0.000000 0.282154
O O12 0.360805 0.025469 0.272648
O O13 0.440173 0.059309 0.000000
O O14 0.224715 0.066746 0.724139
O O15 0.282261 0.997963 0.000000
O O16 0.168285 0.139239 0.000000
#
# Coordination Sequence:
#
# PCOD9426104 Si02
#       6
#     8   8   8   8   8   8
#     4  10  19  35  58  86 113 142 185 230 274 330
#     4   9  17  29  51  83 113 138 172 224 278 323
#     4  11  25  41  55  76 110 150 189 230 280 333
#     4   9  17  28  47  81 118 147 175 216 274 333
#     4   9  16  28  48  78 114 142 170 218 275 325
#     4  10  19  34  57  85 110 138 183 231 274 325
#
# _framework density 21.796855999999998
#
# number of rings (size 3 to 8) (size 9 to 14) (size 15 to 20)
#    0.000    2.333    1.667    1.500    2.333    2.667 
#    0.000    0.833    0.000    1.500    0.000    0.000 
#    0.000    0.000    0.000    0.000    0.000    0.000 
#
# Total GULP energy -268207.871352 kJ/mol
# GULP energy per Si atom -5587.663986 kJ/mol
# Density = 2.174725 g / cm^3
# Si number density = 21.796856 Si / 1000 Ang^3
#
#
#
# Elastic Constant Matrix: (Units=GPa)
#
#
# Indices 1 2 3 4 5 6 
#
# 1 110.5592 48.5026 -14.9481 0.0000 0.0000 0.0000
# 2 48.5026 176.1577 -3.5331 0.0000 0.0000 0.0000
# 3 -14.9481 -3.5331 60.5802 0.0000 0.0000 0.0000
# 4 0.0000 0.0000 0.0000 -70.8567 0.0000 0.0000
# 5 0.0000 0.0000 0.0000 0.0000 -2.4250 0.0000
# 6 0.0000 0.0000 0.0000 0.0000 0.0000 39.7153
#
#
#
# Elastic Compliance Matrix: (Units=1/GPa)
#
#
# Indices 1 2 3 4 5 6 
#
# 1 0.010641 -0.002881 0.002458 0.000000 0.000000 0.000000
# 2 -0.002881 0.006463 -0.000334 0.000000 0.000000 0.000000
# 3 0.002458 -0.000334 0.017094 0.000000 0.000000 0.000000
# 4 0.000000 0.000000 0.000000 -0.014113 0.000000 0.000000
# 5 0.000000 0.000000 0.000000 0.000000 -0.412374 0.000000
# 6 0.000000 0.000000 0.000000 0.000000 0.000000 0.025179
#
#
# Mechanical properties :
#
#
# Convention : Reuss Voigt Hill
#
# Bulk Modulus (GPa) = 30.59545 45.25998 37.92772
# Shear Modulus (GPa) = -14.09638 14.43845 0.17103
#
# Velocity S-wave (km/s) = -2.54582 2.57652 0.28042
# Velocity P-wave (km/s) = 2.32927 5.44618 4.18846
#
# Compressibility (1/GPa) = 0.03268459
#
# Stress axis : x y z
#
# Youngs Moduli (GPa) = 93.97690 154.72326 58.50009
#
# Poissons Ratio (x) = 0.44569 -0.14377
# Poissons Ratio (y) = 0.27070 0.01953
# Poissons Ratio (z) = -0.23096 0.05165
#
# Static dielectric constant tensor:
#      x y z
#    x 1.721070 0.000000 0.000000 
#    y 0.000000 1.764570 0.000000 
#    z 0.000000 0.000000 1.851750 
# 
# From -- ./inp_files/5573.got.cif
#   From: 2010.05.17/outbox.cif.g08.bks.cpg/sg55_3_cif.got.tgz:5573.got - 2010.06.03 13:27:54.
