data_PCOD9426142
_publ_section_title
;
Structure prediction by ZEFSAII (Michael W. Deem and Ramdas Pophale) SiO2 
 PCOD9426142
Probable space group: P B A M
;
_chemical_formula_sum "Si O2"
_cell_formula_units_Z 58
_cell_length_a 15.007397
_cell_length_b 23.182207
_cell_length_c 7.628079
_cell_angle_alpha 90.000000
_cell_angle_beta 90.000000
_cell_angle_gamma 90.000000
_cell_volume 2653.843650
_symmetry_space_group_name_H-M "P B A M"
_symmetry_group_IT_number 55
_symmetry_cell_setting 'orthorhombic'
loop_
_space_group_symop_operation_xyz
x,y,z
-x,-y,z
1/2+x,1/2-y,-z
1/2-x,1/2+y,-z
-x,-y,-z
x,y,-z
1/2-x,1/2+y,z
1/2+x,1/2-y,z
loop_
_atom_site_type_symbol
_atom_site_label
_atom_site_fract_x
_atom_site_fract_y
_atom_site_fract_z
Si Si1 0.461218 0.780688 0.711487
Si Si2 0.500000 0.000000 0.000000
Si Si3 0.492443 0.911946 0.287700
Si Si4 0.801184 0.397561 0.286567
Si Si5 0.059111 0.916639 0.796747
Si Si6 0.370485 0.294612 0.205740
Si Si7 0.870700 0.960401 0.298031
Si Si8 0.211733 0.219554 0.298289
O O1 0.461240 0.777608 0.500000
O O2 0.454291 0.848331 0.751243
O O3 0.553708 0.753581 0.771830
O O4 0.380132 0.741970 0.781604
O O5 0.454653 0.959706 0.157805
O O6 0.484889 0.922851 0.500000
O O7 0.597628 0.908863 0.232821
O O8 0.807090 0.395788 0.500000
O O9 0.727297 0.444339 0.231657
O O10 0.761224 0.336446 0.223147
O O11 0.091217 0.855298 0.725732
O O12 0.952641 0.925679 0.786200
O O13 0.104628 0.972438 0.712211
O O14 0.083528 0.919392 0.000000
O O15 0.281546 0.271764 0.294647
O O16 0.351539 0.300630 0.000000
O O17 0.872484 0.942544 0.500000
O O18 0.191998 0.204182 0.500000
#
# Coordination Sequence:
#
# PCOD9426142 Si02
#       8
#     8   2   8   8   8   8   8   8
#     4  10  21  39  66  92 123 163 201 261 322 378
#     4  12  26  44  68  94 112 174 218 258 320 378
#     4  10  22  44  66  92 128 162 211 271 321 374
#     4   9  18  36  61  88 119 154 203 265 311 367
#     4  10  21  37  51  80 123 162 187 243 315 366
#     4  11  23  37  57  87 125 161 198 249 309 378
#     4  10  19  34  59  85 110 151 207 250 294 371
#     4  10  20  37  62  91 118 156 205 250 315 379
#
# _framework density 21.855091999999999
#
# number of rings (size 3 to 8) (size 9 to 14) (size 15 to 20)
#    0.000    1.931    1.379    3.103    0.966    3.862 
#    4.966    0.000    0.000    0.000    0.000    0.000 
#    0.000    0.000    0.000    0.000    0.000    0.000 
#
# Total GULP energy -323318.464995 kJ/mol
# GULP energy per Si atom -5574.456293 kJ/mol
# Density = 2.180535 g / cm^3
# Si number density = 21.855092 Si / 1000 Ang^3
#
#
#
# Elastic Constant Matrix: (Units=GPa)
#
#
# Indices 1 2 3 4 5 6 
#
# 1 48.7839 -15.4872 -4.2196 0.0000 0.0000 0.0000
# 2 -15.4872 59.7757 14.1903 0.0000 0.0000 0.0000
# 3 -4.2196 14.1903 61.7671 0.0000 0.0000 0.0000
# 4 0.0000 0.0000 0.0000 11.2321 0.0000 0.0000
# 5 0.0000 0.0000 0.0000 0.0000 9.8849 0.0000
# 6 0.0000 0.0000 0.0000 0.0000 0.0000 28.4956
#
#
#
# Elastic Compliance Matrix: (Units=1/GPa)
#
#
# Indices 1 2 3 4 5 6 
#
# 1 0.022338 0.005738 0.000208 0.000000 0.000000 0.000000
# 2 0.005738 0.019168 -0.004012 0.000000 0.000000 0.000000
# 3 0.000208 -0.004012 0.017126 0.000000 0.000000 0.000000
# 4 0.000000 0.000000 0.000000 0.089031 0.000000 0.000000
# 5 0.000000 0.000000 0.000000 0.000000 0.101164 0.000000
# 6 0.000000 0.000000 0.000000 0.000000 0.000000 0.035093
#
#
# Mechanical properties :
#
#
# Convention : Reuss Voigt Hill
#
# Bulk Modulus (GPa) = 15.99979 17.69930 16.84955
# Shear Modulus (GPa) = 16.61765 21.64542 19.13153
#
# Velocity S-wave (km/s) = 2.76045 3.15049 2.96189
# Velocity P-wave (km/s) = 4.18292 4.62062 4.40721
#
# Compressibility (1/GPa) = 0.06250081
#
# Stress axis : x y z
#
# Youngs Moduli (GPa) = 44.76629 52.16957 58.39187
#
# Poissons Ratio (x) = -0.29936 -0.01213
# Poissons Ratio (y) = -0.25688 0.23425
# Poissons Ratio (z) = -0.00930 0.20929
#
# Static dielectric constant tensor:
#      x y z
#    x 1.791560 0.000000 0.000000 
#    y 0.000000 1.832040 0.000000 
#    z 0.000000 0.000000 1.826100 
# 
# From -- ./inp_files/6414.got.cif
#   From: 2010.05.17/outbox.cif.g08.bks.cpg/sg55_4_cif.got.tgz:6414.got - 2010.06.03 13:27:54.
