data_PCOD9426281
_publ_section_title
;
Structure prediction by ZEFSAII (Michael W. Deem and Ramdas Pophale) SiO2 
 PCOD9426281
Probable space group: P B A M
;
_chemical_formula_sum "Si O2"
_cell_formula_units_Z 64
_cell_length_a 10.804547
_cell_length_b 26.189410
_cell_length_c 11.717419
_cell_angle_alpha 90.000000
_cell_angle_beta 90.000000
_cell_angle_gamma 90.000000
_cell_volume 3315.616084
_symmetry_space_group_name_H-M "P B A M"
_symmetry_group_IT_number 55
_symmetry_cell_setting 'orthorhombic'
loop_
_space_group_symop_operation_xyz
x,y,z
-x,-y,z
1/2+x,1/2-y,-z
1/2-x,1/2+y,-z
-x,-y,-z
x,y,-z
1/2-x,1/2+y,z
1/2+x,1/2-y,z
loop_
_atom_site_type_symbol
_atom_site_label
_atom_site_fract_x
_atom_site_fract_y
_atom_site_fract_z
Si Si1 0.268209 0.291489 0.865321
Si Si2 0.968684 0.758037 0.763233
Si Si3 0.285482 0.017754 0.867152
Si Si4 0.583844 0.950357 0.630858
Si Si5 0.707667 0.594029 0.135828
Si Si6 0.062056 0.661530 0.367396
Si Si7 0.847255 0.850726 0.364775
Si Si8 0.043667 0.053307 0.757618
O O1 0.400295 0.271472 0.820662
O O2 0.247714 0.350262 0.824069
O O3 0.152505 0.255189 0.837237
O O4 0.278080 0.293814 0.000000
O O5 0.991270 0.705791 0.695620
O O6 0.931275 0.806408 0.687338
O O7 0.347187 0.042282 0.753539
O O8 0.142513 0.035864 0.853897
O O9 0.291396 0.956448 0.847246
O O10 0.326128 0.028303 0.000000
O O11 0.645114 0.946359 0.500000
O O12 0.513772 0.896330 0.642376
O O13 0.500000 0.000000 0.623042
O O14 0.576208 0.580858 0.191651
O O15 0.689774 0.596724 0.000000
O O16 0.063750 0.675315 0.500000
O O17 0.205093 0.658042 0.327669
O O18 0.851668 0.847738 0.500000
O O19 0.891792 0.906000 0.323872
O O20 0.000000 0.000000 0.701483
#
# Coordination Sequence:
#
# PCOD9426281 Si02
#       8
#     8   8   8   8   8   8   8   8
#     4  11  24  41  64  91 126 166 210 263 324 382
#     4  12  23  43  64  91 125 164 216 264 315 383
#     4  10  20  35  60  92 121 158 209 256 314 380
#     4  10  22  40  61  85 121 165 206 250 318 387
#     4   9  19  36  57  84 122 162 199 253 313 370
#     4  10  22  42  64  88 120 165 211 264 322 382
#     4  11  22  39  62  90 124 168 212 263 323 380
#     4  10  19  35  60  89 123 160 203 256 311 378
#
# _framework density 19.302595
#
# number of rings (size 3 to 8) (size 9 to 14) (size 15 to 20)
#    0.000    1.625    3.750    1.125    1.750    2.000 
#    0.000    4.375    0.000    0.000    0.000    0.000 
#    0.000    0.000    0.000    0.000    0.000    0.000 
#
# Total GULP energy -356403.463609 kJ/mol
# GULP energy per Si atom -5568.804119 kJ/mol
# Density = 1.925866 g / cm^3
# Si number density = 19.302595 Si / 1000 Ang^3
#
#
#
# Elastic Constant Matrix: (Units=GPa)
#
#
# Indices 1 2 3 4 5 6 
#
# 1 29.6663 27.0438 19.7241 0.0000 0.0000 0.0000
# 2 27.0438 131.3632 42.6570 0.0000 0.0000 0.0000
# 3 19.7241 42.6570 80.0908 0.0000 0.0000 0.0000
# 4 0.0000 0.0000 0.0000 6.7778 0.0000 0.0000
# 5 0.0000 0.0000 0.0000 0.0000 -1.9230 0.0000
# 6 0.0000 0.0000 0.0000 0.0000 0.0000 35.9918
#
#
#
# Elastic Compliance Matrix: (Units=1/GPa)
#
#
# Indices 1 2 3 4 5 6 
#
# 1 0.044861 -0.006829 -0.007411 0.000000 0.000000 0.000000
# 2 -0.006829 0.010244 -0.003774 0.000000 0.000000 0.000000
# 3 -0.007411 -0.003774 0.016321 0.000000 0.000000 0.000000
# 4 0.000000 0.000000 0.000000 0.147540 0.000000 0.000000
# 5 0.000000 0.000000 0.000000 0.000000 -0.520025 0.000000
# 6 0.000000 0.000000 0.000000 0.000000 0.000000 0.027784
#
#
# Mechanical properties :
#
#
# Convention : Reuss Voigt Hill
#
# Bulk Modulus (GPa) = 28.25030 46.66332 37.45681
# Shear Modulus (GPa) = -22.17813 18.28235 -1.94789
#
# Velocity S-wave (km/s) = -3.39333 3.08091 -1.00565
# Velocity P-wave (km/s) = 0.82802 6.07315 4.25426
#
# Compressibility (1/GPa) = 0.03539785
#
# Stress axis : x y z
#
# Youngs Moduli (GPa) = 22.29116 97.61840 61.27052
#
# Poissons Ratio (x) = 0.66664 0.45406
# Poissons Ratio (y) = 0.15223 0.23125
# Poissons Ratio (z) = 0.16519 0.36843
#
# Static dielectric constant tensor:
#      x y z
#    x 1.745820 0.000000 0.000000 
#    y 0.000000 1.690450 0.000000 
#    z 0.000000 0.000000 1.660310 
# 
# From -- ./inp_files/13606.got.cif
#   From: 2010.05.17/outbox.cif.g08.bks.cpg/sg55_7_cif.got.tgz:13606.got - 2010.06.03 13:27:54.
