data_PCOD9426719
_publ_section_title
;
Structure prediction by ZEFSAII (Michael W. Deem and Ramdas Pophale) SiO2 
 PCOD9426719
Probable space group: P B A M
;
_chemical_formula_sum "Si O2"
_cell_formula_units_Z 56
_cell_length_a 22.733705
_cell_length_b 15.073232
_cell_length_c 7.668937
_cell_angle_alpha 90.000000
_cell_angle_beta 90.000000
_cell_angle_gamma 90.000000
_cell_volume 2627.917784
_symmetry_space_group_name_H-M "P B A M"
_symmetry_group_IT_number 55
_symmetry_cell_setting 'orthorhombic'
loop_
_space_group_symop_operation_xyz
x,y,z
-x,-y,z
1/2+x,1/2-y,-z
1/2-x,1/2+y,-z
-x,-y,-z
x,y,-z
1/2-x,1/2+y,z
1/2+x,1/2-y,z
loop_
_atom_site_type_symbol
_atom_site_label
_atom_site_fract_x
_atom_site_fract_y
_atom_site_fract_z
Si Si1 0.602406 0.327346 0.805658
Si Si2 0.530511 0.642411 0.710845
Si Si3 0.349043 0.850523 0.302129
Si Si4 0.781789 0.175237 0.713432
Si Si5 0.116957 0.697422 0.712066
Si Si6 0.568081 0.992476 0.285939
Si Si7 0.367254 0.483626 0.289846
O O1 0.534701 0.353791 0.781396
O O2 0.618488 0.243608 0.690197
O O3 0.639074 0.416365 0.771953
O O4 0.612740 0.295624 0.000000
O O5 0.526538 0.638984 0.500000
O O6 0.566823 0.730836 0.758516
O O7 0.570715 0.559717 0.767143
O O8 0.337194 0.881900 0.500000
O O9 0.284799 0.832666 0.223016
O O10 0.392218 0.924758 0.225698
O O11 0.781346 0.179690 0.500000
O O12 0.821052 0.259676 0.770425
O O13 0.817473 0.086425 0.762389
O O14 0.118627 0.695153 0.500000
O O15 0.098165 0.599861 0.769900
O O16 0.566625 0.993188 0.500000
O O17 0.500000 0.000000 0.230054
O O18 0.368164 0.485707 0.500000
#
# Coordination Sequence:
#
# PCOD9426719 Si02
#       7
#     8   8   8   8   8   8   8
#     4  12  24  34  47  72 106 142 176 209 249 297
#     4   9  17  32  55  79 103 131 162 203 258 314
#     4  10  20  34  53  75 100 133 173 216 259 303
#     4   8  16  31  52  79 103 125 161 209 260 312
#     4   8  14  27  50  79 105 124 153 207 266 313
#     4   9  16  26  45  74 101 126 161 205 253 301
#     4   9  18  34  56  80 104 130 164 209 261 314
#
# _framework density 21.309646999999998
#
# number of rings (size 3 to 8) (size 9 to 14) (size 15 to 20)
#    0.000    2.714    0.000    4.286    0.000    5.714 
#    0.000    5.000    0.000    4.714    0.000    0.000 
#    0.000    0.000    0.000    0.000    0.000    0.000 
#
# Total GULP energy -312509.347982 kJ/mol
# GULP energy per Si atom -5580.524071 kJ/mol
# Density = 2.126115 g / cm^3
# Si number density = 21.309647 Si / 1000 Ang^3
#
#
#
# Elastic Constant Matrix: (Units=GPa)
#
#
# Indices 1 2 3 4 5 6 
#
# 1 140.2425 72.1970 6.0623 0.0000 0.0000 0.0000
# 2 72.1970 166.6746 2.2531 0.0000 0.0000 0.0000
# 3 6.0623 2.2531 41.1690 0.0000 0.0000 0.0000
# 4 0.0000 0.0000 0.0000 -109.8421 0.0000 0.0000
# 5 0.0000 0.0000 0.0000 0.0000 23.7681 0.0000
# 6 0.0000 0.0000 0.0000 0.0000 0.0000 16.6631
#
#
#
# Elastic Compliance Matrix: (Units=1/GPa)
#
#
# Indices 1 2 3 4 5 6 
#
# 1 0.009230 -0.003983 -0.001141 0.000000 0.000000 0.000000
# 2 -0.003983 0.007723 0.000164 0.000000 0.000000 0.000000
# 3 -0.001141 0.000164 0.024449 0.000000 0.000000 0.000000
# 4 0.000000 0.000000 0.000000 -0.009104 0.000000 0.000000
# 5 0.000000 0.000000 0.000000 0.000000 0.042073 0.000000
# 6 0.000000 0.000000 0.000000 0.000000 0.000000 0.060013
#
#
# Mechanical properties :
#
#
# Convention : Reuss Voigt Hill
#
# Bulk Modulus (GPa) = 31.76441 56.56790 44.16615
# Shear Modulus (GPa) = 32.30012 3.95608 18.12810
#
# Velocity S-wave (km/s) = 3.89749 1.36400 2.91984
# Velocity P-wave (km/s) = 5.93232 5.39296 5.66905
#
# Compressibility (1/GPa) = 0.03148178
#
# Stress axis : x y z
#
# Youngs Moduli (GPa) = 108.34067 129.48907 40.90116
#
# Poissons Ratio (x) = 0.51572 0.04668
# Poissons Ratio (y) = 0.43149 -0.00670
# Poissons Ratio (z) = 0.12364 -0.02121
#
# Static dielectric constant tensor:
#      x y z
#    x 1.754480 0.000000 0.000000 
#    y 0.000000 1.745790 0.000000 
#    z 0.000000 0.000000 1.798530 
# 
# From -- ./inp_files/8787.got.cif
#   From: 2010.05.17/outbox.cif.g08.bks.cpg/sg55_5_cif.got.tgz:8787.got - 2010.06.03 13:27:54.
