data_PCOD9426970
_publ_section_title
;
Structure prediction by ZEFSAII (Michael W. Deem and Ramdas Pophale) SiO2 
 PCOD9426970
Probable space group: P B A M
;
_chemical_formula_sum "Si O2"
_cell_formula_units_Z 64
_cell_length_a 9.772882
_cell_length_b 31.348666
_cell_length_c 11.141805
_cell_angle_alpha 90.000000
_cell_angle_beta 90.000000
_cell_angle_gamma 90.000000
_cell_volume 3413.479296
_symmetry_space_group_name_H-M "P B A M"
_symmetry_group_IT_number 55
_symmetry_cell_setting 'orthorhombic'
loop_
_space_group_symop_operation_xyz
x,y,z
-x,-y,z
1/2+x,1/2-y,-z
1/2-x,1/2+y,-z
-x,-y,-z
x,y,-z
1/2-x,1/2+y,z
1/2+x,1/2-y,z
loop_
_atom_site_type_symbol
_atom_site_label
_atom_site_fract_x
_atom_site_fract_y
_atom_site_fract_z
Si Si1 0.214846 0.750617 0.732237
Si Si2 0.548880 0.884755 0.207059
Si Si3 0.643018 0.974108 0.135840
Si Si4 0.207782 0.405303 0.361670
Si Si5 0.470907 0.790840 0.865698
Si Si6 0.279059 0.659967 0.638117
Si Si7 0.418712 0.335455 0.643238
Si Si8 0.335398 0.498975 0.639742
O O1 0.354640 0.771861 0.778938
O O2 0.116128 0.730871 0.834082
O O3 0.246130 0.710284 0.648348
O O4 0.129182 0.787923 0.670203
O O5 0.607100 0.923950 0.132122
O O6 0.429362 0.905155 0.286671
O O7 0.489420 0.841892 0.146183
O O8 0.669002 0.866679 0.290256
O O9 0.500000 0.000000 0.157453
O O10 0.748021 0.980950 0.248752
O O11 0.691812 0.986816 0.000000
O O12 0.174397 0.394743 0.500000
O O13 0.307402 0.368817 0.311619
O O14 0.285536 0.450016 0.360091
O O15 0.429820 0.780002 0.000000
O O16 0.276879 0.646887 0.500000
O O17 0.430726 0.654879 0.691232
O O18 0.426683 0.340739 0.500000
O O19 0.500000 0.500000 0.658864
O O20 0.310284 0.515145 0.500000
#
# Coordination Sequence:
#
# PCOD9426970 Si02
#       8
#     8   8   8   8   8   8   8   8
#     4  11  20  38  57  80 113 151 199 243 302 354
#     4  11  22  39  61  87 121 157 202 250 305 365
#     4  11  24  43  67  94 128 167 209 260 315 375
#     4  10  20  36  59  90 121 155 195 244 303 368
#     4  11  23  38  58  80 112 155 205 254 295 352
#     4  10  22  36  57  87 119 156 195 245 305 363
#     4  10  20  35  56  84 119 151 188 241 296 358
#     4  10  23  42  67  96 129 166 205 255 316 380
#
# _framework density 18.749198
#
# number of rings (size 3 to 8) (size 9 to 14) (size 15 to 20)
#    0.000    1.500    3.750    1.500    1.750    1.500 
#    0.000    0.000    0.000    0.000    0.000    0.000 
#    0.000    0.000    0.000    0.000    0.000    0.000 
#
# Total GULP energy -356809.070052 kJ/mol
# GULP energy per Si atom -5575.141720 kJ/mol
# Density = 1.870652 g / cm^3
# Si number density = 18.749198 Si / 1000 Ang^3
#
#
#
# Elastic Constant Matrix: (Units=GPa)
#
#
# Indices 1 2 3 4 5 6 
#
# 1 98.6804 23.9816 52.4481 0.0000 0.0000 0.0000
# 2 23.9816 77.2428 18.6836 0.0000 0.0000 0.0000
# 3 52.4481 18.6836 83.0367 0.0000 0.0000 0.0000
# 4 0.0000 0.0000 0.0000 7.5141 0.0000 0.0000
# 5 0.0000 0.0000 0.0000 0.0000 16.8710 0.0000
# 6 0.0000 0.0000 0.0000 0.0000 0.0000 32.9064
#
#
#
# Elastic Compliance Matrix: (Units=1/GPa)
#
#
# Indices 1 2 3 4 5 6 
#
# 1 0.015743 -0.002625 -0.009353 0.000000 0.000000 0.000000
# 2 -0.002625 0.014129 -0.001521 0.000000 0.000000 0.000000
# 3 -0.009353 -0.001521 0.018292 0.000000 0.000000 0.000000
# 4 0.000000 0.000000 0.000000 0.133084 0.000000 0.000000
# 5 0.000000 0.000000 0.000000 0.000000 0.059273 0.000000
# 6 0.000000 0.000000 0.000000 0.000000 0.000000 0.030389
#
#
# Mechanical properties :
#
#
# Convention : Reuss Voigt Hill
#
# Bulk Modulus (GPa) = 47.24480 49.90961 48.57720
# Shear Modulus (GPa) = 16.39537 22.38140 19.38839
#
# Velocity S-wave (km/s) = 2.96033 3.45878 3.21922
# Velocity P-wave (km/s) = 6.07764 6.52903 6.30738
#
# Compressibility (1/GPa) = 0.02116635
#
# Stress axis : x y z
#
# Youngs Moduli (GPa) = 63.52159 70.77561 54.66724
#
# Poissons Ratio (x) = 0.18581 0.51129
# Poissons Ratio (y) = 0.16677 0.08314
# Poissons Ratio (z) = 0.59410 0.10764
#
# Static dielectric constant tensor:
#      x y z
#    x 1.648900 0.000000 0.000000 
#    y 0.000000 1.641290 0.000000 
#    z 0.000000 0.000000 1.651790 
# 
# From -- ./inp_files/12597.got.cif
#   From: 2010.05.17/outbox.cif.g08.bks.cpg/sg55_7_cif.got.tgz:12597.got - 2010.06.03 13:27:54.
