data_PCOD9426654
_publ_section_title
;
Structure prediction by ZEFSAII (Michael W. Deem and Ramdas Pophale) SiO2 
 PCOD9426654
Probable space group: P B A M
;
_chemical_formula_sum "Si O2"
_cell_formula_units_Z 48
_cell_length_a 28.815576
_cell_length_b 9.779205
_cell_length_c 7.413362
_cell_angle_alpha 90.000000
_cell_angle_beta 90.000000
_cell_angle_gamma 90.000000
_cell_volume 2089.036668
_symmetry_space_group_name_H-M "P B A M"
_symmetry_group_IT_number 55
_symmetry_cell_setting 'orthorhombic'
loop_
_space_group_symop_operation_xyz
x,y,z
-x,-y,z
1/2+x,1/2-y,-z
1/2-x,1/2+y,-z
-x,-y,-z
x,y,-z
1/2-x,1/2+y,z
1/2+x,1/2-y,z
loop_
_atom_site_type_symbol
_atom_site_label
_atom_site_fract_x
_atom_site_fract_y
_atom_site_fract_z
Si Si1 0.357134 0.987999 0.718743
Si Si2 0.275206 0.196853 0.209127
Si Si3 0.117755 0.193547 0.284624
Si Si4 0.802912 0.003039 0.215910
Si Si5 0.013024 0.150563 0.279556
Si Si6 0.957356 0.404914 0.719367
O O1 0.354885 0.990501 0.500000
O O2 0.317347 0.089177 0.783532
O O3 0.407285 0.044485 0.777753
O O4 0.355265 0.829717 0.779544
O O5 0.231867 0.113655 0.289680
O O6 0.290186 0.345055 0.284960
O O7 0.263497 0.222205 0.000000
O O8 0.114789 0.207475 0.500000
O O9 0.145651 0.054771 0.248136
O O10 0.064685 0.191645 0.218766
O O11 0.797193 0.008072 0.000000
O O12 0.014143 0.153018 0.500000
O O13 0.972990 0.254899 0.224530
O O14 0.000000 0.000000 0.221446
O O15 0.956114 0.410266 0.500000
O O16 0.000000 0.500000 0.776217
#
# Coordination Sequence:
#
# PCOD9426654 Si02
#       6
#     8   8   8   8   8   8
#     4  10  20  33  55  85 113 142 178 221 268 313
#     4  10  22  40  60  80 103 138 181 222 268 327
#     4  10  20  34  54  84 115 142 177 222 268 314
#     4  10  22  40  60  79 103 139 181 221 269 326
#     4   9  17  28  46  75 110 145 179 214 258 312
#     4   9  15  28  48  73 108 145 178 213 254 308
#
# _framework density 22.977097000000001
#
# number of rings (size 3 to 8) (size 9 to 14) (size 15 to 20)
#    0.000    2.333    1.667    1.000    2.333    3.333 
#    0.000    0.000    0.000    2.000    0.000    0.000 
#    0.000    0.000    0.000    0.000    0.000    0.000 
#
# Total GULP energy -268150.546983 kJ/mol
# GULP energy per Si atom -5586.469729 kJ/mol
# Density = 2.292480 g / cm^3
# Si number density = 22.977097 Si / 1000 Ang^3
#
#
#
# Elastic Constant Matrix: (Units=GPa)
#
#
# Indices 1 2 3 4 5 6 
#
# 1 67.6276 6.4653 -8.0489 0.0000 0.0000 0.0000
# 2 6.4653 131.4615 0.5037 0.0000 0.0000 0.0000
# 3 -8.0489 0.5037 76.9619 0.0000 0.0000 0.0000
# 4 0.0000 0.0000 0.0000 11.6996 0.0000 0.0000
# 5 0.0000 0.0000 0.0000 0.0000 14.4965 0.0000
# 6 0.0000 0.0000 0.0000 0.0000 0.0000 40.2811
#
#
#
# Elastic Compliance Matrix: (Units=1/GPa)
#
#
# Indices 1 2 3 4 5 6 
#
# 1 0.015046 -0.000746 0.001578 0.000000 0.000000 0.000000
# 2 -0.000746 0.007644 -0.000128 0.000000 0.000000 0.000000
# 3 0.001578 -0.000128 0.013159 0.000000 0.000000 0.000000
# 4 0.000000 0.000000 0.000000 0.085473 0.000000 0.000000
# 5 0.000000 0.000000 0.000000 0.000000 0.068982 0.000000
# 6 0.000000 0.000000 0.000000 0.000000 0.000000 0.024826
#
#
# Mechanical properties :
#
#
# Convention : Reuss Voigt Hill
#
# Bulk Modulus (GPa) = 26.83978 30.43236 28.63607
# Shear Modulus (GPa) = 22.11012 31.77084 26.94048
#
# Velocity S-wave (km/s) = 3.10541 3.72253 3.42788
# Velocity P-wave (km/s) = 4.95626 5.63468 5.30633
#
# Compressibility (1/GPa) = 0.03725813
#
# Stress axis : x y z
#
# Youngs Moduli (GPa) = 66.46266 130.82211 75.99157
#
# Poissons Ratio (x) = 0.09759 -0.11995
# Poissons Ratio (y) = 0.04958 0.00973
# Poissons Ratio (z) = -0.10491 0.01675
#
# Static dielectric constant tensor:
#      x y z
#    x 1.819680 0.000000 0.000000 
#    y 0.000000 1.861430 0.000000 
#    z 0.000000 0.000000 1.899500 
# 
# From -- ./inp_files/2787.got.cif
#   From: 2010.05.17/outbox.cif.g08.bks.cpg/sg55_2_cif.got.tgz:2787.got - 2010.06.03 13:27:54.
