data_PCOD9426619
_publ_section_title
;
Structure prediction by ZEFSAII (Michael W. Deem and Ramdas Pophale) SiO2 
 PCOD9426619
Probable space group: P B A M
;
_chemical_formula_sum "Si O2"
_cell_formula_units_Z 40
_cell_length_a 5.672144
_cell_length_b 33.832207
_cell_length_c 9.925493
_cell_angle_alpha 90.000000
_cell_angle_beta 90.000000
_cell_angle_gamma 90.000000
_cell_volume 1904.713520
_symmetry_space_group_name_H-M "P B A M"
_symmetry_group_IT_number 55
_symmetry_cell_setting 'orthorhombic'
loop_
_space_group_symop_operation_xyz
x,y,z
-x,-y,z
1/2+x,1/2-y,-z
1/2-x,1/2+y,-z
-x,-y,-z
x,y,-z
1/2-x,1/2+y,z
1/2+x,1/2-y,z
loop_
_atom_site_type_symbol
_atom_site_label
_atom_site_fract_x
_atom_site_fract_y
_atom_site_fract_z
Si Si1 0.564803 0.767290 0.161349
Si Si2 0.014546 0.576048 0.150589
Si Si3 0.371089 0.387579 0.348050
Si Si4 0.690020 0.465620 0.648798
Si Si5 0.673517 0.346267 0.148962
O O1 0.304334 0.754949 0.212344
O O2 0.630908 0.813276 0.179010
O O3 0.553815 0.760005 0.000000
O O4 0.131424 0.539622 0.228758
O O5 0.205361 0.611130 0.137332
O O6 0.824081 0.594437 0.250376
O O7 0.926366 0.566907 0.000000
O O8 0.290011 0.378261 0.500000
O O9 0.556862 0.423569 0.359353
O O10 0.487982 0.350987 0.268964
O O11 0.500000 0.500000 0.671010
O O12 0.798136 0.471766 0.500000
O O13 0.568662 0.336746 0.000000
#
# Coordination Sequence:
#
# PCOD9426619 Si02
#       5
#     8   8   8   8   8
#     4   9  18  31  52  83 114 144 183 232 284 335
#     4  10  20  33  52  78 107 140 176 223 277 330
#     4  10  20  34  54  77 102 138 179 220 269 328
#     4   9  19  36  54  73 101 137 180 226 271 328
#     4   9  19  34  54  78 106 138 176 223 270 321
#
# _framework density 21.000536
#
# number of rings (size 3 to 8) (size 9 to 14) (size 15 to 20)
#    0.000    2.600    0.000    1.200    2.800    2.800 
#    0.000    4.000    0.000    1.200    0.000    0.000 
#    0.000    0.000    0.000    0.000    0.000    0.000 
#
# Total GULP energy -222924.882116 kJ/mol
# GULP energy per Si atom -5573.122053 kJ/mol
# Density = 2.095274 g / cm^3
# Si number density = 21.000536 Si / 1000 Ang^3
#
#
#
# Elastic Constant Matrix: (Units=GPa)
#
#
# Indices 1 2 3 4 5 6 
#
# 1 44.2358 -0.2525 38.7374 0.0000 0.0000 0.0000
# 2 -0.2525 64.4088 4.0416 0.0000 0.0000 0.0000
# 3 38.7374 4.0416 131.5159 0.0000 0.0000 0.0000
# 4 0.0000 0.0000 0.0000 18.0360 0.0000 0.0000
# 5 0.0000 0.0000 0.0000 0.0000 27.4626 0.0000
# 6 0.0000 0.0000 0.0000 0.0000 0.0000 30.5364
#
#
#
# Elastic Compliance Matrix: (Units=1/GPa)
#
#
# Indices 1 2 3 4 5 6 
#
# 1 0.030494 0.000684 -0.009003 0.000000 0.000000 0.000000
# 2 0.000684 0.015571 -0.000680 0.000000 0.000000 0.000000
# 3 -0.009003 -0.000680 0.010276 0.000000 0.000000 0.000000
# 4 0.000000 0.000000 0.000000 0.055445 0.000000 0.000000
# 5 0.000000 0.000000 0.000000 0.000000 0.036413 0.000000
# 6 0.000000 0.000000 0.000000 0.000000 0.000000 0.032748
#
#
# Mechanical properties :
#
#
# Convention : Reuss Voigt Hill
#
# Bulk Modulus (GPa) = 26.07947 36.13483 31.10715
# Shear Modulus (GPa) = 23.61548 28.38260 25.99904
#
# Velocity S-wave (km/s) = 3.35702 3.68029 3.52236
# Velocity P-wave (km/s) = 5.24133 5.94166 5.60245
#
# Compressibility (1/GPa) = 0.03834433
#
# Stress axis : x y z
#
# Youngs Moduli (GPa) = 32.79344 64.22122 97.31124
#
# Poissons Ratio (x) = -0.04396 0.87608
# Poissons Ratio (y) = -0.02245 0.06618
# Poissons Ratio (z) = 0.29524 0.04368
#
# Static dielectric constant tensor:
#      x y z
#    x 1.815890 0.000000 0.000000 
#    y 0.000000 1.757480 0.000000 
#    z 0.000000 0.000000 1.794690 
# 
# From -- ./inp_files/11396.got.cif
#   From: 2010.05.17/outbox.cif.g08.bks.cpg/sg55_6_cif.got.tgz:11396.got - 2010.06.03 13:27:54.
