data_PCOD9426436
_publ_section_title
;
Structure prediction by ZEFSAII (Michael W. Deem and Ramdas Pophale) SiO2 
 PCOD9426436
Probable space group: P B A M
;
_chemical_formula_sum "Si O2"
_cell_formula_units_Z 46
_cell_length_a 12.069355
_cell_length_b 13.148879
_cell_length_c 10.840818
_cell_angle_alpha 90.000000
_cell_angle_beta 90.000000
_cell_angle_gamma 90.000000
_cell_volume 1720.421431
_symmetry_space_group_name_H-M "P B A M"
_symmetry_group_IT_number 55
_symmetry_cell_setting 'orthorhombic'
loop_
_space_group_symop_operation_xyz
x,y,z
-x,-y,z
1/2+x,1/2-y,-z
1/2-x,1/2+y,-z
-x,-y,-z
x,y,-z
1/2-x,1/2+y,z
1/2+x,1/2-y,z
loop_
_atom_site_type_symbol
_atom_site_label
_atom_site_fract_x
_atom_site_fract_y
_atom_site_fract_z
Si Si1 0.887997 0.077177 0.500000
Si Si2 0.500000 0.500000 0.000000
Si Si3 0.734320 0.893495 0.500000
Si Si4 0.820897 0.745658 0.301823
Si Si5 0.910180 0.361853 0.858807
Si Si6 0.367571 0.895529 0.500000
Si Si7 0.667309 0.069298 0.139288
Si Si8 0.469761 0.352556 0.230192
O O1 0.848554 0.959447 0.500000
O O2 0.765180 0.124846 0.500000
O O3 0.942471 0.105803 0.631672
O O4 0.452214 0.424941 0.112647
O O5 0.745321 0.817594 0.385344
O O6 0.635658 0.980476 0.500000
O O7 0.903646 0.672740 0.385180
O O8 0.773583 0.654363 0.218545
O O9 0.898931 0.822330 0.226744
O O10 0.838633 0.455937 0.806857
O O11 0.038219 0.397411 0.866536
O O12 0.913471 0.256256 0.791725
O O13 0.871585 0.347237 0.000000
O O14 0.708029 0.064849 0.000000
#
# Coordination Sequence:
#
# PCOD9426436 Si02
#       8
#     4   2   4   8   8   4   8   8
#     4  10  22  41  57  89 128 169 207 270 335 375
#     4  12  24  34  64 106 132 170 216 274 346 398
#     4   9  20  38  56  76 116 161 201 266 314 365
#     4  10  19  37  62  86 115 162 217 255 319 399
#     4   8  14  30  49  83 124 156 180 244 312 366
#     4   9  22  41  56  79 116 172 213 264 318 385
#     4   8  15  28  55  83 115 148 194 241 302 374
#     4  11  21  36  64  98 131 167 217 274 328 407
#
# _framework density 26.737634
#
# number of rings (size 3 to 8) (size 9 to 14) (size 15 to 20)
#    0.522    2.087    0.870    3.130    1.217    1.043 
#    6.261    0.870    1.913   11.478    0.000    0.000 
#    0.000    0.000    0.000    0.000    0.000    0.000 
#
# Total GULP energy -256256.229665 kJ/mol
# GULP energy per Si atom -5570.787601 kJ/mol
# Density = 2.667678 g / cm^3
# Si number density = 26.737634 Si / 1000 Ang^3
#
#
#
# Elastic Constant Matrix: (Units=GPa)
#
#
# Indices 1 2 3 4 5 6 
#
# 1 44.5644 57.4914 32.4931 0.0000 0.0000 0.0000
# 2 57.4914 206.5811 98.4580 0.0000 0.0000 0.0000
# 3 32.4931 98.4580 188.6906 0.0000 0.0000 0.0000
# 4 0.0000 0.0000 0.0000 93.5423 0.0000 0.0000
# 5 0.0000 0.0000 0.0000 0.0000 22.3852 0.0000
# 6 0.0000 0.0000 0.0000 0.0000 0.0000 28.2333
#
#
#
# Elastic Compliance Matrix: (Units=1/GPa)
#
#
# Indices 1 2 3 4 5 6 
#
# 1 0.035234 -0.009202 -0.001266 0.000000 0.000000 0.000000
# 2 -0.009202 0.008847 -0.003031 0.000000 0.000000 0.000000
# 3 -0.001266 -0.003031 0.007099 0.000000 0.000000 0.000000
# 4 0.000000 0.000000 0.000000 0.010690 0.000000 0.000000
# 5 0.000000 0.000000 0.000000 0.000000 0.044672 0.000000
# 6 0.000000 0.000000 0.000000 0.000000 0.000000 0.035419
#
#
# Mechanical properties :
#
#
# Convention : Reuss Voigt Hill
#
# Bulk Modulus (GPa) = 41.35467 90.74678 66.05073
# Shear Modulus (GPa) = 28.24522 45.59172 36.91847
#
# Velocity S-wave (km/s) = 3.25373 4.13383 3.71990
# Velocity P-wave (km/s) = 5.44207 7.53645 6.57321
#
# Compressibility (1/GPa) = 0.02418106
#
# Stress axis : x y z
#
# Youngs Moduli (GPa) = 28.38169 113.03886 140.85698
#
# Poissons Ratio (x) = 1.04023 0.17827
# Poissons Ratio (y) = 0.26118 0.42699
# Poissons Ratio (z) = 0.03592 0.34267
#
# Static dielectric constant tensor:
#      x y z
#    x 2.210450 0.000000 0.000000 
#    y 0.000000 2.051410 0.000000 
#    z 0.000000 0.000000 2.110390 
# 
# From -- ./inp_files/14838.got.cif
#   From: 2010.05.17/outbox.cif.g08.bks.cpg/sg55_8_cif.got.tgz:14838.got - 2010.06.03 13:27:54.
