data_PCOD9426519
_publ_section_title
;
Structure prediction by ZEFSAII (Michael W. Deem and Ramdas Pophale) SiO2 
 PCOD9426519
Probable space group: P B A M
;
_chemical_formula_sum "Si O2"
_cell_formula_units_Z 48
_cell_length_a 18.616331
_cell_length_b 8.639001
_cell_length_c 11.435682
_cell_angle_alpha 90.000000
_cell_angle_beta 90.000000
_cell_angle_gamma 90.000000
_cell_volume 1839.160735
_symmetry_space_group_name_H-M "P B A M"
_symmetry_group_IT_number 55
_symmetry_cell_setting 'orthorhombic'
loop_
_space_group_symop_operation_xyz
x,y,z
-x,-y,z
1/2+x,1/2-y,-z
1/2-x,1/2+y,-z
-x,-y,-z
x,y,-z
1/2-x,1/2+y,z
1/2+x,1/2-y,z
loop_
_atom_site_type_symbol
_atom_site_label
_atom_site_fract_x
_atom_site_fract_y
_atom_site_fract_z
Si Si1 0.703665 0.054088 0.628928
Si Si2 0.585393 0.474552 0.624804
Si Si3 0.746317 0.319607 0.212301
Si Si4 0.606153 0.416099 0.877214
Si Si5 0.089024 0.719012 0.871313
Si Si6 0.572682 0.825925 0.372763
O O1 0.720780 0.114644 0.500000
O O2 0.755285 0.913092 0.665258
O O3 0.626590 0.970519 0.623351
O O4 0.715282 0.157304 0.743598
O O5 0.500000 0.500000 0.619230
O O6 0.608236 0.407097 0.500000
O O7 0.592722 0.373879 0.741684
O O8 0.612228 0.654957 0.631249
O O9 0.692050 0.398849 0.123453
O O10 0.826788 0.310779 0.161443
O O11 0.581682 0.594713 0.878428
O O12 0.579204 0.344228 0.000000
O O13 0.042564 0.666417 0.759101
O O14 0.074009 0.653910 0.000000
O O15 0.533989 0.825225 0.500000
#
# Coordination Sequence:
#
# PCOD9426519 Si02
#       6
#     8   8   8   8   8   8
#     4  10  20  31  48  73 107 143 176 213 255 306
#     4   9  18  34  57  81 104 133 173 226 279 322
#     4  11  19  33  46  73 104 145 180 209 252 304
#     4  10  20  33  50  76 106 139 176 218 263 310
#     4   9  17  30  46  68  99 136 170 202 243 295
#     4   8  16  31  49  73 101 130 167 212 260 310
#
# _framework density 26.098862
#
# number of rings (size 3 to 8) (size 9 to 14) (size 15 to 20)
#    0.000    2.500    1.667    1.000    0.000    2.333 
#    0.000    0.833    0.000    1.000    0.000    5.833 
#    0.000    0.000    0.000    0.000    0.000    0.000 
#
# Total GULP energy -267283.287321 kJ/mol
# GULP energy per Si atom -5568.401819 kJ/mol
# Density = 2.603946 g / cm^3
# Si number density = 26.098862 Si / 1000 Ang^3
#
#
#
# Elastic Constant Matrix: (Units=GPa)
#
#
# Indices 1 2 3 4 5 6 
#
# 1 51.4564 13.0486 24.2354 0.0000 0.0000 0.0000
# 2 13.0486 39.6378 7.3789 0.0000 0.0000 0.0000
# 3 24.2354 7.3789 296.7479 0.0000 0.0000 0.0000
# 4 0.0000 0.0000 0.0000 -5.0153 0.0000 0.0000
# 5 0.0000 0.0000 0.0000 0.0000 18.7689 0.0000
# 6 0.0000 0.0000 0.0000 0.0000 0.0000 35.1272
#
#
#
# Elastic Compliance Matrix: (Units=1/GPa)
#
#
# Indices 1 2 3 4 5 6 
#
# 1 0.021953 -0.006925 -0.001621 0.000000 0.000000 0.000000
# 2 -0.006925 0.027530 -0.000119 0.000000 0.000000 0.000000
# 3 -0.001621 -0.000119 0.003505 0.000000 0.000000 0.000000
# 4 0.000000 0.000000 0.000000 -0.199391 0.000000 0.000000
# 5 0.000000 0.000000 0.000000 0.000000 0.053280 0.000000
# 6 0.000000 0.000000 0.000000 0.000000 0.000000 0.028468
#
#
# Mechanical properties :
#
#
# Convention : Reuss Voigt Hill
#
# Bulk Modulus (GPa) = 28.04340 53.01865 40.53103
# Shear Modulus (GPa) = -141.09184 32.65478 -54.21853
#
# Velocity S-wave (km/s) = -7.36056 3.54106 -4.56283
# Velocity P-wave (km/s) = 7.84020 6.08913 3.49223
#
# Compressibility (1/GPa) = 0.03565901
#
# Stress axis : x y z
#
# Youngs Moduli (GPa) = 45.55098 36.32353 285.29145
#
# Poissons Ratio (x) = 0.25155 0.46238
# Poissons Ratio (y) = 0.31545 0.03394
# Poissons Ratio (z) = 0.07383 0.00432
#
# Static dielectric constant tensor:
#      x y z
#    x 2.135160 0.000000 0.000000 
#    y 0.000000 2.068140 0.000000 
#    z 0.000000 0.000000 2.127370 
# 
# From -- ./inp_files/12315.got.cif
#   From: 2010.05.17/outbox.cif.g08.bks.cpg/sg55_7_cif.got.tgz:12315.got - 2010.06.03 13:27:54.
