data_PCOD9426242
_publ_section_title
;
Structure prediction by ZEFSAII (Michael W. Deem and Ramdas Pophale) SiO2 
 PCOD9426242
Probable space group: P B A M
;
_chemical_formula_sum "Si O2"
_cell_formula_units_Z 64
_cell_length_a 21.541151
_cell_length_b 19.055583
_cell_length_c 8.449716
_cell_angle_alpha 90.000000
_cell_angle_beta 90.000000
_cell_angle_gamma 90.000000
_cell_volume 3468.432586
_symmetry_space_group_name_H-M "P B A M"
_symmetry_group_IT_number 55
_symmetry_cell_setting 'orthorhombic'
loop_
_space_group_symop_operation_xyz
x,y,z
-x,-y,z
1/2+x,1/2-y,-z
1/2-x,1/2+y,-z
-x,-y,-z
x,y,-z
1/2-x,1/2+y,z
1/2+x,1/2-y,z
loop_
_atom_site_type_symbol
_atom_site_label
_atom_site_fract_x
_atom_site_fract_y
_atom_site_fract_z
Si Si1 0.402281 0.836771 0.817941
Si Si2 0.968109 0.072498 0.691859
Si Si3 0.631680 0.768810 0.309971
Si Si4 0.168361 0.886802 0.307928
Si Si5 0.496152 0.723482 0.809768
Si Si6 0.355297 0.088367 0.186441
Si Si7 0.009379 0.582444 0.325126
Si Si8 0.199457 0.443063 0.689380
O O1 0.433046 0.763796 0.758037
O O2 0.462761 0.886343 0.802012
O O3 0.348343 0.880079 0.731044
O O4 0.383636 0.828171 0.000000
O O5 0.969962 0.076359 0.500000
O O6 0.895825 0.076461 0.741844
O O7 0.000516 0.142746 0.756788
O O8 0.000000 0.000000 0.741193
O O9 0.632793 0.775424 0.500000
O O10 0.662620 0.694812 0.263330
O O11 0.559126 0.759970 0.257385
O O12 0.668167 0.833967 0.232492
O O13 0.169359 0.888742 0.500000
O O14 0.231934 0.921747 0.253610
O O15 0.498974 0.728599 0.000000
O O16 0.419760 0.090410 0.280489
O O17 0.320323 0.017864 0.238062
O O18 0.366210 0.085054 0.000000
O O19 0.995395 0.612429 0.500000
O O20 0.000000 0.500000 0.332501
O O21 0.199147 0.451111 0.500000
#
# Coordination Sequence:
#
# PCOD9426242 Si02
#       8
#     8   8   8   8   8   8   8   8
#     4  11  22  34  50  76 114 149 182 224 272 322
#     4   9  18  36  63  89 109 134 178 236 290 336
#     4  10  19  35  59  81 104 136 181 231 277 326
#     4   8  18  37  59  82 106 137 180 232 279 326
#     4  10  20  33  52  81 114 143 172 218 279 333
#     4  12  23  34  51  79 112 144 183 227 275 324
#     4  11  21  32  50  76 106 144 187 224 266 314
#     4  11  22  37  55  76 109 152 193 225 269 331
#
# _framework density 18.45214
#
# number of rings (size 3 to 8) (size 9 to 14) (size 15 to 20)
#    0.000    1.750    2.500    3.750    0.000    2.250 
#    0.000    7.500    0.000    6.000    0.000    0.000 
#    0.000    0.000    0.000    0.000    0.000    0.000 
#
# Total GULP energy -356815.729832 kJ/mol
# GULP energy per Si atom -5575.245779 kJ/mol
# Density = 1.841014 g / cm^3
# Si number density = 18.452140 Si / 1000 Ang^3
#
#
#
# Elastic Constant Matrix: (Units=GPa)
#
#
# Indices 1 2 3 4 5 6 
#
# 1 78.4167 64.2564 -3.2805 0.0000 0.0000 0.0000
# 2 64.2564 147.7942 18.0166 0.0000 0.0000 0.0000
# 3 -3.2805 18.0166 33.9251 0.0000 0.0000 0.0000
# 4 0.0000 0.0000 0.0000 22.7449 0.0000 0.0000
# 5 0.0000 0.0000 0.0000 0.0000 -0.5153 0.0000
# 6 0.0000 0.0000 0.0000 0.0000 0.0000 17.9918
#
#
#
# Elastic Compliance Matrix: (Units=1/GPa)
#
#
# Indices 1 2 3 4 5 6 
#
# 1 0.021465 -0.010249 0.007519 0.000000 0.000000 0.000000
# 2 -0.010249 0.012128 -0.007432 0.000000 0.000000 0.000000
# 3 0.007519 -0.007432 0.034151 0.000000 0.000000 0.000000
# 4 0.000000 0.000000 0.000000 0.043966 0.000000 0.000000
# 5 0.000000 0.000000 0.000000 0.000000 -1.940758 0.000000
# 6 0.000000 0.000000 0.000000 0.000000 0.000000 0.055581
#
#
# Mechanical properties :
#
#
# Convention : Reuss Voigt Hill
#
# Bulk Modulus (GPa) = 21.08850 46.45788 33.77319
# Shear Modulus (GPa) = -2.87797 20.12053 8.62128
#
# Velocity S-wave (km/s) = -1.25023 3.30573 2.16388
# Velocity P-wave (km/s) = 3.06096 6.30893 4.95843
#
# Compressibility (1/GPa) = 0.04741920
#
# Stress axis : x y z
#
# Youngs Moduli (GPa) = 46.58729 82.45351 29.28206
#
# Poissons Ratio (x) = 0.84506 -0.22016
# Poissons Ratio (y) = 0.47747 0.21762
# Poissons Ratio (z) = -0.35027 0.61279
#
# Static dielectric constant tensor:
#      x y z
#    x 1.581150 0.000000 0.000000 
#    y 0.000000 -6.249140 0.000000 
#    z 0.000000 0.000000 1.642150 
# 
# From -- ./inp_files/8938.got.cif
#   From: 2010.05.17/outbox.cif.g08.bks.cpg/sg55_5_cif.got.tgz:8938.got - 2010.06.03 13:27:54.
