data_PCOD9426114
_publ_section_title
;
Structure prediction by ZEFSAII (Michael W. Deem and Ramdas Pophale) SiO2 
 PCOD9426114
Probable space group: P B A M
;
_chemical_formula_sum "Si O2"
_cell_formula_units_Z 64
_cell_length_a 29.682573
_cell_length_b 12.115548
_cell_length_c 9.098024
_cell_angle_alpha 90.000000
_cell_angle_beta 90.000000
_cell_angle_gamma 90.000000
_cell_volume 3271.837195
_symmetry_space_group_name_H-M "P B A M"
_symmetry_group_IT_number 55
_symmetry_cell_setting 'orthorhombic'
loop_
_space_group_symop_operation_xyz
x,y,z
-x,-y,z
1/2+x,1/2-y,-z
1/2-x,1/2+y,-z
-x,-y,-z
x,y,-z
1/2-x,1/2+y,z
1/2+x,1/2-y,z
loop_
_atom_site_type_symbol
_atom_site_label
_atom_site_fract_x
_atom_site_fract_y
_atom_site_fract_z
Si Si1 0.719073 0.478501 0.826519
Si Si2 0.522806 0.765467 0.825732
Si Si3 0.182430 0.448119 0.826454
Si Si4 0.667193 0.277584 0.675743
Si Si5 0.436935 0.445023 0.330360
Si Si6 0.839228 0.153757 0.329798
Si Si7 0.436902 0.699770 0.324411
Si Si8 0.884245 0.363177 0.176758
O O1 0.772787 0.478779 0.805652
O O2 0.694791 0.376972 0.747751
O O3 0.699326 0.591535 0.759293
O O4 0.709536 0.474974 0.000000
O O5 0.541920 0.646400 0.774423
O O6 0.474422 0.775644 0.750149
O O7 0.563154 0.848951 0.782797
O O8 0.517460 0.769285 0.000000
O O9 0.185764 0.338884 0.730754
O O10 0.138741 0.520673 0.788131
O O11 0.180380 0.418932 0.000000
O O12 0.669111 0.288315 0.500000
O O13 0.614533 0.280526 0.721495
O O14 0.451387 0.424200 0.500000
O O15 0.383113 0.426412 0.326927
O O16 0.447283 0.570799 0.291305
O O17 0.826769 0.170797 0.500000
O O18 0.856277 0.266603 0.256508
O O19 0.439358 0.712121 0.500000
O O20 0.880832 0.346888 0.000000
#
# Coordination Sequence:
#
# PCOD9426114 Si02
#       8
#     8   8   8   8   8   8   8   8
#     4  11  23  39  62  89 120 156 196 240 299 367
#     4  10  20  32  53  86 116 150 200 250 294 347
#     4  10  24  44  64  85 116 160 202 242 298 361
#     4  11  24  43  64  90 122 154 200 254 299 350
#     4   9  17  32  51  75 115 158 190 231 294 355
#     4  10  19  34  57  87 119 154 196 241 293 349
#     4  10  20  36  55  79 117 160 194 239 303 359
#     4   9  20  40  60  83 120 159 200 249 297 355
#
# _framework density 19.560874999999999
#
# number of rings (size 3 to 8) (size 9 to 14) (size 15 to 20)
#    0.000    2.000    1.250    1.875    1.750    5.500 
#    0.000    0.625    0.000    3.750    0.000    0.000 
#    0.000    0.000    0.000    0.000    0.000    0.000 
#
# Total GULP energy -357440.340450 kJ/mol
# GULP energy per Si atom -5585.005320 kJ/mol
# Density = 1.951635 g / cm^3
# Si number density = 19.560875 Si / 1000 Ang^3
#
#
#
# Elastic Constant Matrix: (Units=GPa)
#
#
# Indices 1 2 3 4 5 6 
#
# 1 81.5580 13.8305 32.3888 0.0000 0.0000 0.0000
# 2 13.8305 41.7399 19.9181 0.0000 0.0000 0.0000
# 3 32.3888 19.9181 43.6703 0.0000 0.0000 0.0000
# 4 0.0000 0.0000 0.0000 19.6362 0.0000 0.0000
# 5 0.0000 0.0000 0.0000 0.0000 25.9053 0.0000
# 6 0.0000 0.0000 0.0000 0.0000 0.0000 14.0687
#
#
#
# Elastic Compliance Matrix: (Units=1/GPa)
#
#
# Indices 1 2 3 4 5 6 
#
# 1 0.017389 0.000502 -0.013125 0.000000 0.000000 0.000000
# 2 0.000502 0.030637 -0.014346 0.000000 0.000000 0.000000
# 3 -0.013125 -0.014346 0.039177 0.000000 0.000000 0.000000
# 4 0.000000 0.000000 0.000000 0.050926 0.000000 0.000000
# 5 0.000000 0.000000 0.000000 0.000000 0.038602 0.000000
# 6 0.000000 0.000000 0.000000 0.000000 0.000000 0.071080
#
#
# Mechanical properties :
#
#
# Convention : Reuss Voigt Hill
#
# Bulk Modulus (GPa) = 30.06289 33.24922 31.65605
# Shear Modulus (GPa) = 15.98273 18.64410 17.31341
#
# Velocity S-wave (km/s) = 2.86156 3.09063 2.97830
# Velocity P-wave (km/s) = 5.13033 5.45626 5.29580
#
# Compressibility (1/GPa) = 0.03326360
#
# Stress axis : x y z
#
# Youngs Moduli (GPa) = 57.50917 32.63983 25.52541
#
# Poissons Ratio (x) = -0.01637 0.33503
# Poissons Ratio (y) = -0.02885 0.36618
# Poissons Ratio (z) = 0.75483 0.46825
#
# Static dielectric constant tensor:
#      x y z
#    x 1.725260 0.000000 0.000000 
#    y 0.000000 1.650630 0.000000 
#    z 0.000000 0.000000 1.655010 
# 
# From -- ./inp_files/10828.got.cif
#   From: 2010.05.17/outbox.cif.g08.bks.cpg/sg55_6_cif.got.tgz:10828.got - 2010.06.03 13:27:54.
