data_PCOD9426235
_publ_section_title
;
Structure prediction by ZEFSAII (Michael W. Deem and Ramdas Pophale) SiO2 
 PCOD9426235
Probable space group: P B A M
;
_chemical_formula_sum "Si O2"
_cell_formula_units_Z 54
_cell_length_a 5.146190
_cell_length_b 32.787988
_cell_length_c 16.715016
_cell_angle_alpha 90.000000
_cell_angle_beta 90.000000
_cell_angle_gamma 90.000000
_cell_volume 2820.378405
_symmetry_space_group_name_H-M "P B A M"
_symmetry_group_IT_number 55
_symmetry_cell_setting 'orthorhombic'
loop_
_space_group_symop_operation_xyz
x,y,z
-x,-y,z
1/2+x,1/2-y,-z
1/2-x,1/2+y,-z
-x,-y,-z
x,y,-z
1/2-x,1/2+y,z
1/2+x,1/2-y,z
loop_
_atom_site_type_symbol
_atom_site_label
_atom_site_fract_x
_atom_site_fract_y
_atom_site_fract_z
Si Si1 0.750385 0.471008 0.088059
Si Si2 0.235728 0.222735 0.000000
Si Si3 0.728978 0.050646 0.358791
Si Si4 0.751602 0.340267 0.311217
Si Si5 0.372998 0.722320 0.171614
Si Si6 0.270975 0.566079 0.259104
Si Si7 0.748473 0.145811 0.592262
Si Si8 0.500000 0.500000 0.500000
O O1 0.500000 0.500000 0.094116
O O2 0.761223 0.443168 0.166052
O O3 0.000000 0.500000 0.089990
O O4 0.742633 0.450553 0.000000
O O5 0.174682 0.201826 0.084460
O O6 0.530816 0.239155 0.000000
O O7 0.453532 0.046157 0.314376
O O8 0.730479 0.096755 0.395329
O O9 0.952694 0.050592 0.291388
O O10 0.813873 0.020748 0.429554
O O11 0.683282 0.307982 0.243520
O O12 0.745432 0.385631 0.274285
O O13 0.531666 0.340416 0.379381
O O14 0.031675 0.334401 0.351060
O O15 0.660606 0.741231 0.175106
O O16 0.701016 0.155092 0.500000
#
# Coordination Sequence:
#
# PCOD9426235 Si02
#       8
#     8   4   8   8   8   8   8   2
#     4  10  21  37  58  79 106 146 191 231 274 325
#     4   8  16  30  52  80 114 142 166 205 265 330
#     4  10  23  35  56  78 112 142 180 233 272 344
#     4  10  21  35  59  82 108 146 184 224 273 337
#     4  10  19  35  58  86 114 143 180 221 272 333
#     4  10  22  39  54  82 111 146 185 226 285 326
#     4  10  19  38  55  77 107 148 187 218 273 328
#     4  12  24  38  52  90 110 142 188 230 304 322
#
# _framework density 19.146366
#
# number of rings (size 3 to 8) (size 9 to 14) (size 15 to 20)
#    0.000    2.074    0.741    2.222    3.111    1.185 
#    1.333    0.000    0.000    8.889    0.000    0.000 
#    0.000    0.000    0.000    0.000    0.000    0.000 
#
# Total GULP energy -300964.172300 kJ/mol
# GULP energy per Si atom -5573.410598 kJ/mol
# Density = 1.910279 g / cm^3
# Si number density = 19.146366 Si / 1000 Ang^3
#
#
#
# Elastic Constant Matrix: (Units=GPa)
#
#
# Indices 1 2 3 4 5 6 
#
# 1 86.8636 -5.6315 -6.7588 0.0000 0.0000 0.0000
# 2 -5.6315 18.6946 16.2272 0.0000 0.0000 0.0000
# 3 -6.7588 16.2272 129.1766 0.0000 0.0000 0.0000
# 4 0.0000 0.0000 0.0000 16.7217 0.0000 0.0000
# 5 0.0000 0.0000 0.0000 0.0000 12.0730 0.0000
# 6 0.0000 0.0000 0.0000 0.0000 0.0000 13.3972
#
#
#
# Elastic Compliance Matrix: (Units=1/GPa)
#
#
# Indices 1 2 3 4 5 6 
#
# 1 0.011746 0.003373 0.000191 0.000000 0.000000 0.000000
# 2 0.003373 0.061006 -0.007487 0.000000 0.000000 0.000000
# 3 0.000191 -0.007487 0.008692 0.000000 0.000000 0.000000
# 4 0.000000 0.000000 0.000000 0.059803 0.000000 0.000000
# 5 0.000000 0.000000 0.000000 0.000000 0.082830 0.000000
# 6 0.000000 0.000000 0.000000 0.000000 0.000000 0.074642
#
#
# Mechanical properties :
#
#
# Convention : Reuss Voigt Hill
#
# Bulk Modulus (GPa) = 13.58756 26.93428 20.26092
# Shear Modulus (GPa) = 15.10126 23.83157 19.46641
#
# Velocity S-wave (km/s) = 2.81148 3.53186 3.19206
# Velocity P-wave (km/s) = 4.20134 5.54348 4.91841
#
# Compressibility (1/GPa) = 0.07359673
#
# Stress axis : x y z
#
# Youngs Moduli (GPa) = 85.13676 16.39172 115.05003
#
# Poissons Ratio (x) = -0.05528 -0.02196
# Poissons Ratio (y) = -0.28713 0.86140
# Poissons Ratio (z) = -0.01625 0.12273
#
# Static dielectric constant tensor:
#      x y z
#    x 1.658410 0.000000 0.000000 
#    y 0.000000 1.656470 0.000000 
#    z 0.000000 0.000000 1.661540 
# 
# From -- ./inp_files/16784.got.cif
#   From: 2010.05.17/outbox.cif.g08.bks.cpg/sg55_9_cif.got.tgz:16784.got - 2010.06.03 13:27:54.
