data_PCOD9426348
_publ_section_title
;
Structure prediction by ZEFSAII (Michael W. Deem and Ramdas Pophale) SiO2 
 PCOD9426348
Probable space group: P B A M
;
_chemical_formula_sum "Si O2"
_cell_formula_units_Z 48
_cell_length_a 8.402537
_cell_length_b 29.757519
_cell_length_c 7.629156
_cell_angle_alpha 90.000000
_cell_angle_beta 90.000000
_cell_angle_gamma 90.000000
_cell_volume 1907.583901
_symmetry_space_group_name_H-M "P B A M"
_symmetry_group_IT_number 55
_symmetry_cell_setting 'orthorhombic'
loop_
_space_group_symop_operation_xyz
x,y,z
-x,-y,z
1/2+x,1/2-y,-z
1/2-x,1/2+y,-z
-x,-y,-z
x,y,-z
1/2-x,1/2+y,z
1/2+x,1/2-y,z
loop_
_atom_site_type_symbol
_atom_site_label
_atom_site_fract_x
_atom_site_fract_y
_atom_site_fract_z
Si Si1 0.580125 0.266110 0.298720
Si Si2 0.579679 0.432800 0.214442
Si Si3 0.746470 0.519630 0.789961
Si Si4 0.929377 0.602751 0.707393
Si Si5 0.749289 0.347775 0.203128
Si Si6 0.729847 0.683461 0.715051
O O1 0.538771 0.257344 0.500000
O O2 0.731008 0.299923 0.293889
O O3 0.633604 0.218473 0.224754
O O4 0.434654 0.294679 0.221382
O O5 0.411048 0.453012 0.269908
O O6 0.714908 0.468805 0.270813
O O7 0.620629 0.383266 0.277824
O O8 0.580486 0.431312 0.000000
O O9 0.895241 0.550632 0.744083
O O10 0.742337 0.517615 0.000000
O O11 0.941719 0.607985 0.500000
O O12 0.781600 0.633812 0.771711
O O13 0.086413 0.625362 0.783723
O O14 0.717655 0.339078 0.000000
O O15 0.724771 0.683043 0.500000
#
# Coordination Sequence:
#
# PCOD9426348 Si02
#       6
#     8   8   8   8   8   8
#     4  10  19  36  59  81 103 135 174 214 258 313
#     4   8  17  34  57  79 104 139 179 217 269 331
#     4   9  17  35  59  80 102 137 180 224 269 321
#     4  11  22  36  53  79 111 145 181 220 263 314
#     4  11  22  36  53  78 108 141 177 218 263 314
#     4   9  19  35  58  81 106 139 175 211 260 319
#
# _framework density 25.16272
#
# number of rings (size 3 to 8) (size 9 to 14) (size 15 to 20)
#    0.000    2.333    0.000    4.000    0.000    3.333 
#    0.000   12.500    0.000    0.000    0.000    0.000 
#    0.000    0.000    0.000    0.000    0.000    0.000 
#
# Total GULP energy -268325.292827 kJ/mol
# GULP energy per Si atom -5590.110267 kJ/mol
# Density = 2.510545 g / cm^3
# Si number density = 25.162720 Si / 1000 Ang^3
#
#
#
# Elastic Constant Matrix: (Units=GPa)
#
#
# Indices 1 2 3 4 5 6 
#
# 1 53.8455 -14.3713 -5.7852 0.0000 0.0000 0.0000
# 2 -14.3713 106.2772 -0.5490 0.0000 0.0000 0.0000
# 3 -5.7852 -0.5490 63.2802 0.0000 0.0000 0.0000
# 4 0.0000 0.0000 0.0000 14.7267 0.0000 0.0000
# 5 0.0000 0.0000 0.0000 0.0000 4.3776 0.0000
# 6 0.0000 0.0000 0.0000 0.0000 0.0000 41.6321
#
#
#
# Elastic Compliance Matrix: (Units=1/GPa)
#
#
# Indices 1 2 3 4 5 6 
#
# 1 0.019471 0.002642 0.001803 0.000000 0.000000 0.000000
# 2 0.002642 0.009768 0.000326 0.000000 0.000000 0.000000
# 3 0.001803 0.000326 0.015970 0.000000 0.000000 0.000000
# 4 0.000000 0.000000 0.000000 0.067904 0.000000 0.000000
# 5 0.000000 0.000000 0.000000 0.000000 0.228437 0.000000
# 6 0.000000 0.000000 0.000000 0.000000 0.000000 0.024020
#
#
# Mechanical properties :
#
#
# Convention : Reuss Voigt Hill
#
# Bulk Modulus (GPa) = 18.26407 20.22130 19.24268
# Shear Modulus (GPa) = 13.35906 28.42118 20.89012
#
# Velocity S-wave (km/s) = 2.30664 3.36444 2.88445
# Velocity P-wave (km/s) = 3.79055 4.81106 4.33097
#
# Compressibility (1/GPa) = 0.05475231
#
# Stress axis : x y z
#
# Youngs Moduli (GPa) = 51.35953 102.37157 62.61587
#
# Poissons Ratio (x) = -0.27049 -0.11289
# Poissons Ratio (y) = -0.13570 -0.02043
# Poissons Ratio (z) = -0.09260 -0.03340
#
# Static dielectric constant tensor:
#      x y z
#    x 2.076890 0.000000 0.000000 
#    y 0.000000 1.957190 0.000000 
#    z 0.000000 0.000000 1.930680 
# 
# From -- ./inp_files/2761.got.cif
#   From: 2010.05.17/outbox.cif.g08.bks.cpg/sg55_2_cif.got.tgz:2761.got - 2010.06.03 13:27:54.
