data_PCOD9426175
_publ_section_title
;
Structure prediction by ZEFSAII (Michael W. Deem and Ramdas Pophale) SiO2 
 PCOD9426175
Probable space group: P B A M
;
_chemical_formula_sum "Si O2"
_cell_formula_units_Z 48
_cell_length_a 17.738654
_cell_length_b 14.787810
_cell_length_c 11.223215
_cell_angle_alpha 90.000000
_cell_angle_beta 90.000000
_cell_angle_gamma 90.000000
_cell_volume 2944.027126
_symmetry_space_group_name_H-M "P B A M"
_symmetry_group_IT_number 55
_symmetry_cell_setting 'orthorhombic'
loop_
_space_group_symop_operation_xyz
x,y,z
-x,-y,z
1/2+x,1/2-y,-z
1/2-x,1/2+y,-z
-x,-y,-z
x,y,-z
1/2-x,1/2+y,z
1/2+x,1/2-y,z
loop_
_atom_site_type_symbol
_atom_site_label
_atom_site_fract_x
_atom_site_fract_y
_atom_site_fract_z
Si Si1 0.807358 0.298176 0.500000
Si Si2 0.682092 0.561064 0.752200
Si Si3 0.987478 0.102886 0.704718
Si Si4 0.520133 0.752345 0.500000
Si Si5 0.283616 0.782066 0.285550
Si Si6 0.750725 0.999604 0.500000
Si Si7 0.137233 0.123714 0.140237
Si Si8 0.877362 0.640424 0.500000
O O1 0.896455 0.292257 0.500000
O O2 0.779986 0.250345 0.379105
O O3 0.765193 0.393897 0.500000
O O4 0.597864 0.601862 0.753922
O O5 0.745499 0.634669 0.784077
O O6 0.703579 0.530701 0.616809
O O7 0.678852 0.470821 0.830387
O O8 0.992923 0.183934 0.610457
O O9 0.054099 0.116091 0.800586
O O10 0.000000 0.000000 0.654924
O O11 0.464932 0.838321 0.500000
O O12 0.316398 0.703714 0.203675
O O13 0.347487 0.813394 0.378616
O O14 0.668140 0.046519 0.500000
O O15 0.131461 0.137928 0.000000
#
# Coordination Sequence:
#
# PCOD9426175 Si02
#       8
#     4   8   8   4   8   4   8   4
#     4  11  20  31  59  80 112 130 175 223 273 333
#     4  10  20  35  57  78 111 137 178 221 276 324
#     4  10  21  32  51  81 112 138 169 218 271 330
#     4  12  18  33  53  85 109 136 171 211 280 340
#     4  10  19  36  53  81 106 142 175 224 273 322
#     4  10  19  35  53  84 107 141 168 222 278 326
#     4  11  23  37  54  76 107 149 190 223 262 307
#     4   9  20  31  54  78 109 136 171 214 277 332
#
# _framework density 16.304196999999998
#
# number of rings (size 3 to 8) (size 9 to 14) (size 15 to 20)
#    0.000    1.667    5.000    1.250    0.000    6.000 
#    0.000    0.000    0.000    0.000    0.000    0.000 
#    0.000    8.000    0.000    0.000    0.000    0.000 
#
# Total GULP energy -267472.992639 kJ/mol
# GULP energy per Si atom -5572.354013 kJ/mol
# Density = 1.626709 g / cm^3
# Si number density = 16.304197 Si / 1000 Ang^3
#
#
#
# Elastic Constant Matrix: (Units=GPa)
#
#
# Indices 1 2 3 4 5 6 
#
# 1 90.8440 21.5718 22.0366 0.0000 0.0000 0.0000
# 2 21.5718 63.6336 22.5456 0.0000 0.0000 0.0000
# 3 22.0366 22.5456 67.4155 0.0000 0.0000 0.0000
# 4 0.0000 0.0000 0.0000 -1.8533 0.0000 0.0000
# 5 0.0000 0.0000 0.0000 0.0000 7.8033 0.0000
# 6 0.0000 0.0000 0.0000 0.0000 0.0000 26.8005
#
#
#
# Elastic Compliance Matrix: (Units=1/GPa)
#
#
# Indices 1 2 3 4 5 6 
#
# 1 0.012493 -0.003163 -0.003026 0.000000 0.000000 0.000000
# 2 -0.003163 0.018628 -0.005196 0.000000 0.000000 0.000000
# 3 -0.003026 -0.005196 0.017560 0.000000 0.000000 0.000000
# 4 0.000000 0.000000 0.000000 -0.539588 0.000000 0.000000
# 5 0.000000 0.000000 0.000000 0.000000 0.128151 0.000000
# 6 0.000000 0.000000 0.000000 0.000000 0.000000 0.037313
#
#
# Mechanical properties :
#
#
# Convention : Reuss Voigt Hill
#
# Bulk Modulus (GPa) = 38.59256 39.35569 38.97412
# Shear Modulus (GPa) = -17.00465 16.93272 -0.03597
#
# Velocity S-wave (km/s) = -3.23300 3.22615 -0.14869
# Velocity P-wave (km/s) = 3.12816 6.16994 4.89150
#
# Compressibility (1/GPa) = 0.02591173
#
# Stress axis : x y z
#
# Youngs Moduli (GPa) = 80.04488 53.68218 56.94732
#
# Poissons Ratio (x) = 0.16980 0.17231
# Poissons Ratio (y) = 0.25319 0.29589
# Poissons Ratio (z) = 0.24220 0.27892
#
# Static dielectric constant tensor:
#      x y z
#    x 1.540680 0.000000 0.000000 
#    y 0.000000 1.561960 0.000000 
#    z 0.000000 0.000000 1.526110 
# 
# From -- ./inp_files/14204.got.cif
#   From: 2010.05.17/outbox.cif.g08.bks.cpg/sg55_8_cif.got.tgz:14204.got - 2010.06.03 13:27:54.
