data_PCOD9426222
_publ_section_title
;
Structure prediction by ZEFSAII (Michael W. Deem and Ramdas Pophale) SiO2 
 PCOD9426222
Probable space group: P B A M
;
_chemical_formula_sum "Si O2"
_cell_formula_units_Z 48
_cell_length_a 9.226868
_cell_length_b 31.633174
_cell_length_c 7.680844
_cell_angle_alpha 90.000000
_cell_angle_beta 90.000000
_cell_angle_gamma 90.000000
_cell_volume 2241.847271
_symmetry_space_group_name_H-M "P B A M"
_symmetry_group_IT_number 55
_symmetry_cell_setting 'orthorhombic'
loop_
_space_group_symop_operation_xyz
x,y,z
-x,-y,z
1/2+x,1/2-y,-z
1/2-x,1/2+y,-z
-x,-y,-z
x,y,-z
1/2-x,1/2+y,z
1/2+x,1/2-y,z
loop_
_atom_site_type_symbol
_atom_site_label
_atom_site_fract_x
_atom_site_fract_y
_atom_site_fract_z
Si Si1 0.933085 0.709866 0.713228
Si Si2 0.924526 0.543821 0.713056
Si Si3 0.599537 0.705900 0.710474
Si Si4 0.901495 0.036795 0.699904
Si Si5 0.061169 0.119138 0.200473
Si Si6 0.601539 0.874088 0.710424
O O1 0.932871 0.709975 0.500000
O O2 0.766173 0.707430 0.769737
O O3 0.010700 0.752987 0.770045
O O4 0.023090 0.668803 0.769804
O O5 0.925214 0.545757 0.500000
O O6 0.758384 0.543944 0.774936
O O7 0.000000 0.500000 0.763290
O O8 0.014611 0.584616 0.772304
O O9 0.601565 0.707040 0.500000
O O10 0.520557 0.662868 0.762349
O O11 0.873948 0.023008 0.500000
O O12 0.989280 0.080356 0.698400
O O13 0.000000 0.000000 0.781467
O O14 0.230780 0.124156 0.239258
O O15 0.042414 0.108095 0.000000
O O16 0.596348 0.873914 0.500000
#
# Coordination Sequence:
#
# PCOD9426222 Si02
#       6
#     8   8   8   8   8   8
#     4   9  18  33  60  90 110 137 183 238 285 327
#     4   9  17  31  56  89 115 136 173 225 276 328
#     4  10  19  36  60  85 111 141 183 232 283 334
#     4  10  20  37  63  89 111 141 182 228 278 329
#     4  12  25  38  53  79 115 153 189 225 272 328
#     4  10  19  35  58  82 110 145 186 231 276 323
#
# _framework density 21.410913999999998
#
# number of rings (size 3 to 8) (size 9 to 14) (size 15 to 20)
#    0.000    2.000    0.000    4.500    0.000    8.333 
#    0.000    6.667    0.000    2.000    0.000    0.000 
#    0.000    0.000    0.000    0.000    0.000    0.000 
#
# Total GULP energy -268319.083309 kJ/mol
# GULP energy per Si atom -5589.980902 kJ/mol
# Density = 2.136218 g / cm^3
# Si number density = 21.410914 Si / 1000 Ang^3
#
#
#
# Elastic Constant Matrix: (Units=GPa)
#
#
# Indices 1 2 3 4 5 6 
#
# 1 216.6842 98.0898 -4.5532 0.0000 0.0000 0.0000
# 2 98.0898 172.8178 -8.7046 0.0000 0.0000 0.0000
# 3 -4.5532 -8.7046 41.5273 0.0000 0.0000 0.0000
# 4 0.0000 0.0000 0.0000 -54.7592 0.0000 0.0000
# 5 0.0000 0.0000 0.0000 0.0000 214.4170 0.0000
# 6 0.0000 0.0000 0.0000 0.0000 0.0000 43.8551
#
#
#
# Elastic Compliance Matrix: (Units=1/GPa)
#
#
# Indices 1 2 3 4 5 6 
#
# 1 0.006211 -0.003528 -0.000059 0.000000 0.000000 0.000000
# 2 -0.003528 0.007852 0.001259 0.000000 0.000000 0.000000
# 3 -0.000059 0.001259 0.024338 0.000000 0.000000 0.000000
# 4 0.000000 0.000000 0.000000 -0.018262 0.000000 0.000000
# 5 0.000000 0.000000 0.000000 0.000000 0.004664 0.000000
# 6 0.000000 0.000000 0.000000 0.000000 0.000000 0.022802
#
#
# Mechanical properties :
#
#
# Convention : Reuss Voigt Hill
#
# Bulk Modulus (GPa) = 29.63306 66.74368 48.18837
# Shear Modulus (GPa) = 78.72789 63.78242 71.25515
#
# Velocity S-wave (km/s) = 6.07040 5.46391 5.77513
# Velocity P-wave (km/s) = 7.93746 8.42889 8.18686
#
# Compressibility (1/GPa) = 0.03374609
#
# Stress axis : x y z
#
# Youngs Moduli (GPa) = 161.00563 127.34870 41.08796
#
# Poissons Ratio (x) = 0.44932 0.00241
# Poissons Ratio (y) = 0.56807 -0.05173
# Poissons Ratio (z) = 0.00943 -0.16035
#
# Static dielectric constant tensor:
#      x y z
#    x 1.736250 0.000000 0.000000 
#    y 0.000000 1.725800 0.000000 
#    z 0.000000 0.000000 1.798130 
# 
# From -- ./inp_files/2858.got.cif
#   From: 2010.05.17/outbox.cif.g08.bks.cpg/sg55_2_cif.got.tgz:2858.got - 2010.06.03 13:27:54.
