data_PCOD9426887
_publ_section_title
;
Structure prediction by ZEFSAII (Michael W. Deem and Ramdas Pophale) SiO2 
 PCOD9426887
Probable space group: P B A M
;
_chemical_formula_sum "Si O2"
_cell_formula_units_Z 58
_cell_length_a 12.284009
_cell_length_b 28.293693
_cell_length_c 7.470175
_cell_angle_alpha 90.000000
_cell_angle_beta 90.000000
_cell_angle_gamma 90.000000
_cell_volume 2596.333870
_symmetry_space_group_name_H-M "P B A M"
_symmetry_group_IT_number 55
_symmetry_cell_setting 'orthorhombic'
loop_
_space_group_symop_operation_xyz
x,y,z
-x,-y,z
1/2+x,1/2-y,-z
1/2-x,1/2+y,-z
-x,-y,-z
x,y,-z
1/2-x,1/2+y,z
1/2+x,1/2-y,z
loop_
_atom_site_type_symbol
_atom_site_label
_atom_site_fract_x
_atom_site_fract_y
_atom_site_fract_z
Si Si1 0.578446 0.789082 0.781880
Si Si2 0.160053 0.000468 0.693344
Si Si3 0.447151 0.882070 0.781570
Si Si4 0.000000 0.000000 0.000000
Si Si5 0.152338 0.562023 0.784336
Si Si6 0.475488 0.316467 0.780991
Si Si7 0.198702 0.894284 0.781957
Si Si8 0.714330 0.345062 0.217597
O O1 0.498762 0.831762 0.726970
O O2 0.544510 0.737243 0.721850
O O3 0.700155 0.804418 0.728610
O O4 0.076459 0.711326 0.000000
O O5 0.124200 0.016565 0.500000
O O6 0.155134 0.944144 0.714115
O O7 0.285642 0.015730 0.720286
O O8 0.082857 0.020411 0.845679
O O9 0.531520 0.923109 0.724821
O O10 0.323286 0.887644 0.724587
O O11 0.446853 0.882449 0.000000
O O12 0.231252 0.605435 0.729455
O O13 0.149218 0.559873 0.000000
O O14 0.378478 0.351320 0.727603
O O15 0.592539 0.335630 0.721116
O O16 0.476394 0.316121 0.000000
O O17 0.195657 0.897533 0.000000
O O18 0.712550 0.345397 0.000000
#
# Coordination Sequence:
#
# PCOD9426887 Si02
#       8
#     8   8   8   2   8   8   8   8
#     4   8  14  25  40  72 110 151 207 262 309 377
#     4  12  26  42  66  96 123 166 214 257 316 370
#     4   8  16  30  53  80 118 167 212 259 321 380
#     4  12  26  48  68  88 132 164 202 256 306 378
#     4   9  17  35  58  80 116 164 209 262 313 371
#     4   9  17  24  43  71 111 158 201 260 323 369
#     4  10  20  35  53  84 124 164 209 261 320 375
#     4   8  15  25  43  69 104 151 201 251 316 371
#
# _framework density 22.339193000000002
#
# number of rings (size 3 to 8) (size 9 to 14) (size 15 to 20)
#    0.000    2.759    1.379    1.862    3.862    0.552 
#    0.000    3.448    0.000    0.000    0.000    4.828 
#    0.000    0.000    0.000    0.000    0.000    0.000 
#
# Total GULP energy -323519.731074 kJ/mol
# GULP energy per Si atom -5577.926398 kJ/mol
# Density = 2.228835 g / cm^3
# Si number density = 22.339193 Si / 1000 Ang^3
#
#
#
# Elastic Constant Matrix: (Units=GPa)
#
#
# Indices 1 2 3 4 5 6 
#
# 1 130.0955 4.8018 22.9739 0.0000 0.0000 0.0000
# 2 4.8018 38.4295 4.7134 0.0000 0.0000 0.0000
# 3 22.9739 4.7134 97.8985 0.0000 0.0000 0.0000
# 4 0.0000 0.0000 0.0000 -2.3287 0.0000 0.0000
# 5 0.0000 0.0000 0.0000 0.0000 -23.4316 0.0000
# 6 0.0000 0.0000 0.0000 0.0000 0.0000 19.3663
#
#
#
# Elastic Compliance Matrix: (Units=1/GPa)
#
#
# Indices 1 2 3 4 5 6 
#
# 1 0.008042 -0.000778 -0.001850 0.000000 0.000000 0.000000
# 2 -0.000778 0.026252 -0.001081 0.000000 0.000000 0.000000
# 3 -0.001850 -0.001081 0.010701 0.000000 0.000000 0.000000
# 4 0.000000 0.000000 0.000000 -0.429419 0.000000 0.000000
# 5 0.000000 0.000000 0.000000 0.000000 -0.042677 0.000000
# 6 0.000000 0.000000 0.000000 0.000000 0.000000 0.051636
#
#
# Mechanical properties :
#
#
# Convention : Reuss Voigt Hill
#
# Bulk Modulus (GPa) = 26.61258 36.82241 31.71750
# Shear Modulus (GPa) = -14.06380 14.31682 0.12651
#
# Velocity S-wave (km/s) = -2.51182 2.53431 0.23823
# Velocity P-wave (km/s) = 1.87790 5.00827 3.78215
#
# Compressibility (1/GPa) = 0.03757621
#
# Stress axis : x y z
#
# Youngs Moduli (GPa) = 124.34665 38.09302 93.45091
#
# Poissons Ratio (x) = 0.02964 0.17286
# Poissons Ratio (y) = 0.09674 0.10105
# Poissons Ratio (z) = 0.23001 0.04119
#
# Static dielectric constant tensor:
#      x y z
#    x 1.819990 0.000000 0.000000 
#    y 0.000000 1.792890 0.000000 
#    z 0.000000 0.000000 1.863420 
# 
# From -- ./inp_files/4438.got.cif
#   From: 2010.05.17/outbox.cif.g08.bks.cpg/sg55_3_cif.got.tgz:4438.got - 2010.06.03 13:27:54.
