data_PCOD9426219
_publ_section_title
;
Structure prediction by ZEFSAII (Michael W. Deem and Ramdas Pophale) SiO2 
 PCOD9426219
Probable space group: P B A M
;
_chemical_formula_sum "Si O2"
_cell_formula_units_Z 44
_cell_length_a 8.646932
_cell_length_b 28.684328
_cell_length_c 7.444738
_cell_angle_alpha 90.000000
_cell_angle_beta 90.000000
_cell_angle_gamma 90.000000
_cell_volume 1846.529040
_symmetry_space_group_name_H-M "P B A M"
_symmetry_group_IT_number 55
_symmetry_cell_setting 'orthorhombic'
loop_
_space_group_symop_operation_xyz
x,y,z
-x,-y,z
1/2+x,1/2-y,-z
1/2-x,1/2+y,-z
-x,-y,-z
x,y,-z
1/2-x,1/2+y,z
1/2+x,1/2-y,z
loop_
_atom_site_type_symbol
_atom_site_label
_atom_site_fract_x
_atom_site_fract_y
_atom_site_fract_z
Si Si1 0.732552 0.633016 0.285269
Si Si2 0.846277 0.029946 0.281038
Si Si3 0.500000 0.000000 0.745418
Si Si4 0.064757 0.598464 0.207194
Si Si5 0.955094 0.224657 0.789850
Si Si6 0.723660 0.812750 0.779122
O O1 0.741204 0.633928 0.500000
O O2 0.639772 0.585310 0.236704
O O3 0.664121 0.682081 0.224389
O O4 0.903930 0.626144 0.210308
O O5 0.827546 0.025964 0.500000
O O6 0.680924 0.013402 0.197754
O O7 0.000000 0.000000 0.232655
O O8 0.542055 0.948319 0.682914
O O9 0.189581 0.634734 0.276049
O O10 0.094956 0.583986 0.000000
O O11 0.897326 0.273788 0.717215
O O12 0.113228 0.205521 0.713169
O O13 0.983565 0.233254 0.000000
O O14 0.720973 0.814175 0.000000
#
# Coordination Sequence:
#
# PCOD9426219 Si02
#       6
#     8   8   4   8   8   8
#     4  10  21  36  55  81 111 144 186 230 281 335
#     4   9  19  35  54  78 113 156 195 231 281 351
#     4  10  20  32  58  86 117 148 197 248 297 326
#     4  10  20  37  58  83 116 152 190 234 288 342
#     4  10  19  35  58  81 107 142 185 230 278 337
#     4   9  19  34  57  83 107 144 188 225 275 347
#
# _framework density 23.828493000000002
#
# number of rings (size 3 to 8) (size 9 to 14) (size 15 to 20)
#    0.000    2.364    0.000    2.182    2.545    3.636 
#    0.000    4.545    0.000    3.273    0.000    0.000 
#    0.000    0.000    0.000    0.000    0.000    0.000 
#
# Total GULP energy -245167.861849 kJ/mol
# GULP energy per Si atom -5571.996860 kJ/mol
# Density = 2.377426 g / cm^3
# Si number density = 23.828493 Si / 1000 Ang^3
#
#
#
# Elastic Constant Matrix: (Units=GPa)
#
#
# Indices 1 2 3 4 5 6 
#
# 1 63.4901 38.9862 -0.6471 0.0000 0.0000 0.0000
# 2 38.9862 147.1557 5.8814 0.0000 0.0000 0.0000
# 3 -0.6471 5.8814 87.2078 0.0000 0.0000 0.0000
# 4 0.0000 0.0000 0.0000 -438.1471 0.0000 0.0000
# 5 0.0000 0.0000 0.0000 0.0000 19.6649 0.0000
# 6 0.0000 0.0000 0.0000 0.0000 0.0000 45.6630
#
#
#
# Elastic Compliance Matrix: (Units=1/GPa)
#
#
# Indices 1 2 3 4 5 6 
#
# 1 0.018830 -0.005008 0.000477 0.000000 0.000000 0.000000
# 2 -0.005008 0.008146 -0.000587 0.000000 0.000000 0.000000
# 3 0.000477 -0.000587 0.011510 0.000000 0.000000 0.000000
# 4 0.000000 0.000000 0.000000 -0.002282 0.000000 0.000000
# 5 0.000000 0.000000 0.000000 0.000000 0.050852 0.000000
# 6 0.000000 0.000000 0.000000 0.000000 0.000000 0.021900
#
#
# Mechanical properties :
#
#
# Convention : Reuss Voigt Hill
#
# Bulk Modulus (GPa) = 35.39535 42.92161 39.15848
# Shear Modulus (GPa) = 38.87821 -57.65498 -9.38839
#
# Velocity S-wave (km/s) = 4.04367 -4.92426 -1.98709
# Velocity P-wave (km/s) = 6.05707 3.77880 3.34730
#
# Compressibility (1/GPa) = 0.02825230
#
# Stress axis : x y z
#
# Youngs Moduli (GPa) = 53.10546 122.76399 86.88122
#
# Poissons Ratio (x) = 0.61479 -0.04148
# Poissons Ratio (y) = 0.26595 0.05096
# Poissons Ratio (z) = -0.02536 0.07200
#
# Static dielectric constant tensor:
#      x y z
#    x 1.900900 0.000000 0.000000 
#    y 0.000000 1.854870 0.000000 
#    z 0.000000 0.000000 2.003390 
# 
# From -- ./inp_files/2682.got.cif
#   From: 2010.05.17/outbox.cif.g08.bks.cpg/sg55_2_cif.got.tgz:2682.got - 2010.06.03 13:27:54.
