data_PCOD9426056
_publ_section_title
;
Structure prediction by ZEFSAII (Michael W. Deem and Ramdas Pophale) SiO2 
 PCOD9426056
Probable space group: P B A M
;
_chemical_formula_sum "Si O2"
_cell_formula_units_Z 48
_cell_length_a 15.527777
_cell_length_b 19.614040
_cell_length_c 7.589135
_cell_angle_alpha 90.000000
_cell_angle_beta 90.000000
_cell_angle_gamma 90.000000
_cell_volume 2311.365467
_symmetry_space_group_name_H-M "P B A M"
_symmetry_group_IT_number 55
_symmetry_cell_setting 'orthorhombic'
loop_
_space_group_symop_operation_xyz
x,y,z
-x,-y,z
1/2+x,1/2-y,-z
1/2-x,1/2+y,-z
-x,-y,-z
x,y,-z
1/2-x,1/2+y,z
1/2+x,1/2-y,z
loop_
_atom_site_type_symbol
_atom_site_label
_atom_site_fract_x
_atom_site_fract_y
_atom_site_fract_z
Si Si1 0.616118 0.820709 0.205122
Si Si2 0.967700 0.925764 0.712709
Si Si3 0.472253 0.924068 0.784410
Si Si4 0.371970 0.331452 0.789920
Si Si5 0.277551 0.931422 0.213584
Si Si6 0.225897 0.086203 0.293241
O O1 0.540358 0.868226 0.280394
O O2 0.626108 0.745257 0.282476
O O3 0.704467 0.863054 0.212377
O O4 0.593183 0.810821 0.000000
O O5 0.963091 0.929642 0.500000
O O6 0.871551 0.909622 0.777516
O O7 0.038029 0.869649 0.760545
O O8 0.000000 0.000000 0.775940
O O9 0.373888 0.911556 0.731190
O O10 0.500000 0.000000 0.729123
O O11 0.474908 0.924170 0.000000
O O12 0.295385 0.379604 0.720578
O O13 0.357123 0.326903 0.000000
O O14 0.256509 0.008328 0.270263
O O15 0.276132 0.931917 0.000000
O O16 0.223807 0.102105 0.500000
#
# Coordination Sequence:
#
# PCOD9426056 Si02
#       6
#     8   8   8   8   8   8
#     4  10  21  38  57  83 117 147 181 233 289 337
#     4  10  21  38  58  80 112 153 190 230 280 334
#     4   9  16  30  55  79 103 144 183 217 274 339
#     4  10  22  36  57  88 115 143 183 236 290 334
#     4  10  19  34  56  82 109 143 187 231 278 337
#     4  11  22  36  57  84 110 148 193 231 277 331
#
# _framework density 20.766945
#
# number of rings (size 3 to 8) (size 9 to 14) (size 15 to 20)
#    0.000    2.000    3.333    0.500    0.000    3.667 
#    0.000    5.000    0.000    0.000    0.000    0.000 
#    0.000    0.000    0.000    0.000    0.000    0.000 
#
# Total GULP energy -268133.670709 kJ/mol
# GULP energy per Si atom -5586.118140 kJ/mol
# Density = 2.071968 g / cm^3
# Si number density = 20.766945 Si / 1000 Ang^3
#
#
#
# Elastic Constant Matrix: (Units=GPa)
#
#
# Indices 1 2 3 4 5 6 
#
# 1 171.2652 86.8526 -14.8191 0.0000 0.0000 0.0000
# 2 86.8526 180.2138 -10.4949 0.0000 0.0000 0.0000
# 3 -14.8191 -10.4949 41.4448 0.0000 0.0000 0.0000
# 4 0.0000 0.0000 0.0000 22.0498 0.0000 0.0000
# 5 0.0000 0.0000 0.0000 0.0000 23.5785 0.0000
# 6 0.0000 0.0000 0.0000 0.0000 0.0000 27.4669
#
#
#
# Elastic Compliance Matrix: (Units=1/GPa)
#
#
# Indices 1 2 3 4 5 6 
#
# 1 0.007869 -0.003683 0.001881 0.000000 0.000000 0.000000
# 2 -0.003683 0.007356 0.000546 0.000000 0.000000 0.000000
# 3 0.001881 0.000546 0.024939 0.000000 0.000000 0.000000
# 4 0.000000 0.000000 0.000000 0.045352 0.000000 0.000000
# 5 0.000000 0.000000 0.000000 0.000000 0.042411 0.000000
# 6 0.000000 0.000000 0.000000 0.000000 0.000000 0.036407
#
#
# Mechanical properties :
#
#
# Convention : Reuss Voigt Hill
#
# Bulk Modulus (GPa) = 26.55885 57.33342 41.94614
# Shear Modulus (GPa) = 27.87093 36.71139 32.29116
#
# Velocity S-wave (km/s) = 3.66742 4.20906 3.94754
# Velocity P-wave (km/s) = 5.54527 7.16167 6.40467
#
# Compressibility (1/GPa) = 0.03765223
#
# Stress axis : x y z
#
# Youngs Moduli (GPa) = 127.07383 135.94765 40.09736
#
# Poissons Ratio (x) = 0.50070 -0.07543
# Poissons Ratio (y) = 0.46802 -0.02188
# Poissons Ratio (z) = -0.23905 -0.07419
#
# Static dielectric constant tensor:
#      x y z
#    x 1.726900 0.000000 0.000000 
#    y 0.000000 1.706990 0.000000 
#    z 0.000000 0.000000 1.787950 
# 
# From -- ./inp_files/5672.got.cif
#   From: 2010.05.17/outbox.cif.g08.bks.cpg/sg55_3_cif.got.tgz:5672.got - 2010.06.03 13:27:54.
