data_PCOD9426961
_publ_section_title
;
Structure prediction by ZEFSAII (Michael W. Deem and Ramdas Pophale) SiO2 
 PCOD9426961
Probable space group: P B A M
;
_chemical_formula_sum "Si O2"
_cell_formula_units_Z 64
_cell_length_a 16.482378
_cell_length_b 23.331030
_cell_length_c 8.572797
_cell_angle_alpha 90.000000
_cell_angle_beta 90.000000
_cell_angle_gamma 90.000000
_cell_volume 3296.676421
_symmetry_space_group_name_H-M "P B A M"
_symmetry_group_IT_number 55
_symmetry_cell_setting 'orthorhombic'
loop_
_space_group_symop_operation_xyz
x,y,z
-x,-y,z
1/2+x,1/2-y,-z
1/2-x,1/2+y,-z
-x,-y,-z
x,y,-z
1/2-x,1/2+y,z
1/2+x,1/2-y,z
loop_
_atom_site_type_symbol
_atom_site_label
_atom_site_fract_x
_atom_site_fract_y
_atom_site_fract_z
Si Si1 0.568005 0.143733 0.313110
Si Si2 0.389108 0.338391 0.180699
Si Si3 0.762543 0.597872 0.810563
Si Si4 0.737920 0.968079 0.183851
Si Si5 0.849041 0.869271 0.674580
Si Si6 0.452751 0.729051 0.186915
Si Si7 0.937375 0.447637 0.684070
Si Si8 0.482044 0.436182 0.323079
O O1 0.574164 0.141099 0.500000
O O2 0.647197 0.113292 0.242761
O O3 0.561928 0.208669 0.256302
O O4 0.487099 0.108769 0.268218
O O5 0.299654 0.352230 0.246361
O O6 0.459753 0.296627 0.246099
O O7 0.429282 0.400884 0.202011
O O8 0.379444 0.322649 0.000000
O O9 0.740876 0.532757 0.757418
O O10 0.759522 0.597703 0.000000
O O11 0.785240 0.914233 0.256386
O O12 0.643198 0.959039 0.219549
O O13 0.753747 0.967569 0.000000
O O14 0.823787 0.852335 0.500000
O O15 0.878660 0.813272 0.767845
O O16 0.932113 0.905048 0.666195
O O17 0.457112 0.731419 0.000000
O O18 0.915631 0.443632 0.500000
O O19 0.000000 0.500000 0.700539
O O20 0.500000 0.500000 0.272452
O O21 0.446466 0.436386 0.500000
#
# Coordination Sequence:
#
# PCOD9426961 Si02
#       8
#     8   8   8   8   8   8   8   8
#     4  11  23  40  63  86 111 152 199 244 300 354
#     4   9  19  35  55  80 111 150 190 232 283 339
#     4  10  21  37  58  87 121 153 191 242 296 355
#     4  11  22  35  58  91 123 154 193 241 299 357
#     4  10  20  35  56  82 117 156 193 236 285 342
#     4  10  21  40  62  83 115 156 199 244 292 347
#     4  10  21  40  62  84 114 151 193 244 300 356
#     4   9  17  29  48  77 111 148 187 228 277 330
#
# _framework density 19.413491
#
# number of rings (size 3 to 8) (size 9 to 14) (size 15 to 20)
#    0.000    2.000    1.250    2.250    0.000    3.500 
#    2.250    0.000    0.000    0.000    0.000    0.000 
#    0.000    0.000    0.000    0.000    0.000    0.000 
#
# Total GULP energy -356781.675192 kJ/mol
# GULP energy per Si atom -5574.713675 kJ/mol
# Density = 1.936931 g / cm^3
# Si number density = 19.413491 Si / 1000 Ang^3
#
#
#
# Elastic Constant Matrix: (Units=GPa)
#
#
# Indices 1 2 3 4 5 6 
#
# 1 63.4115 12.0796 9.4866 0.0000 0.0000 0.0000
# 2 12.0796 98.7167 5.1694 0.0000 0.0000 0.0000
# 3 9.4866 5.1694 21.2261 0.0000 0.0000 0.0000
# 4 0.0000 0.0000 0.0000 26.5357 0.0000 0.0000
# 5 0.0000 0.0000 0.0000 0.0000 20.1327 0.0000
# 6 0.0000 0.0000 0.0000 0.0000 0.0000 27.6748
#
#
#
# Elastic Compliance Matrix: (Units=1/GPa)
#
#
# Indices 1 2 3 4 5 6 
#
# 1 0.017184 -0.001723 -0.007261 0.000000 0.000000 0.000000
# 2 -0.001723 0.010434 -0.001771 0.000000 0.000000 0.000000
# 3 -0.007261 -0.001771 0.050788 0.000000 0.000000 0.000000
# 4 0.000000 0.000000 0.000000 0.037685 0.000000 0.000000
# 5 0.000000 0.000000 0.000000 0.000000 0.049670 0.000000
# 6 0.000000 0.000000 0.000000 0.000000 0.000000 0.036134
#
#
# Mechanical properties :
#
#
# Convention : Reuss Voigt Hill
#
# Bulk Modulus (GPa) = 17.57555 26.31395 21.94475
# Shear Modulus (GPa) = 20.62961 25.30989 22.96975
#
# Velocity S-wave (km/s) = 3.26336 3.61463 3.44348
# Velocity P-wave (km/s) = 4.82413 5.56818 5.20946
#
# Compressibility (1/GPa) = 0.05689724
#
# Stress axis : x y z
#
# Youngs Moduli (GPa) = 58.19234 95.84483 19.68963
#
# Poissons Ratio (x) = 0.16510 0.14296
# Poissons Ratio (y) = 0.10024 0.03487
# Poissons Ratio (z) = 0.42252 0.16975
#
# Static dielectric constant tensor:
#      x y z
#    x 1.688930 0.000000 0.000000 
#    y 0.000000 1.587250 0.000000 
#    z 0.000000 0.000000 1.698010 
# 
# From -- ./inp_files/6567.got.cif
#   From: 2010.05.17/outbox.cif.g08.bks.cpg/sg55_4_cif.got.tgz:6567.got - 2010.06.03 13:27:54.
