data_PCOD9426349
_publ_section_title
;
Structure prediction by ZEFSAII (Michael W. Deem and Ramdas Pophale) SiO2 
 PCOD9426349
Probable space group: P B A M
;
_chemical_formula_sum "Si O2"
_cell_formula_units_Z 48
_cell_length_a 31.699512
_cell_length_b 9.176739
_cell_length_c 7.624199
_cell_angle_alpha 90.000000
_cell_angle_beta 90.000000
_cell_angle_gamma 90.000000
_cell_volume 2217.865369
_symmetry_space_group_name_H-M "P B A M"
_symmetry_group_IT_number 55
_symmetry_cell_setting 'orthorhombic'
loop_
_space_group_symop_operation_xyz
x,y,z
-x,-y,z
1/2+x,1/2-y,-z
1/2-x,1/2+y,-z
-x,-y,-z
x,y,-z
1/2-x,1/2+y,z
1/2+x,1/2-y,z
loop_
_atom_site_type_symbol
_atom_site_label
_atom_site_fract_x
_atom_site_fract_y
_atom_site_fract_z
Si Si1 0.962633 0.403018 0.702772
Si Si2 0.792487 0.394679 0.214626
Si Si3 0.292221 0.441367 0.212310
Si Si4 0.123054 0.115346 0.706293
Si Si5 0.377393 0.948925 0.797400
Si Si6 0.544048 0.574834 0.714323
O O1 0.975202 0.377170 0.500000
O O2 0.919356 0.492223 0.707023
O O3 0.955615 0.241692 0.777529
O O4 0.000000 0.500000 0.783724
O O5 0.750162 0.477031 0.271948
O O6 0.792889 0.226534 0.270267
O O7 0.834643 0.477928 0.272787
O O8 0.792194 0.397259 0.000000
O O9 0.333807 0.527111 0.269001
O O10 0.291815 0.441049 0.000000
O O11 0.116046 0.139703 0.500000
O O12 0.125699 0.275012 0.788283
O O13 0.084011 0.019291 0.775237
O O14 0.381404 0.993509 0.000000
O O15 0.500000 0.500000 0.762517
O O16 0.546553 0.576004 0.500000
#
# Coordination Sequence:
#
# PCOD9426349 Si02
#       6
#     8   8   8   8   8   8
#     4  10  20  36  59  84 111 145 183 226 280 336
#     4   9  19  35  58  83 108 143 183 223 269 325
#     4  10  19  36  59  81 107 141 181 221 268 325
#     4  11  22  36  55  81 111 143 181 225 274 325
#     4  11  22  37  57  82 112 147 188 231 274 323
#     4   9  18  34  56  80 107 142 182 221 267 329
#
# _framework density 21.642431999999999
#
# number of rings (size 3 to 8) (size 9 to 14) (size 15 to 20)
#    0.000    2.000    0.000    4.000    0.000    5.667 
#    0.000    5.833    0.000    3.500    0.000    0.000 
#    0.000    0.000    0.000    0.000    0.000    0.000 
#
# Total GULP energy -268352.240291 kJ/mol
# GULP energy per Si atom -5590.671673 kJ/mol
# Density = 2.159317 g / cm^3
# Si number density = 21.642432 Si / 1000 Ang^3
#
#
#
# Elastic Constant Matrix: (Units=GPa)
#
#
# Indices 1 2 3 4 5 6 
#
# 1 186.2638 97.4288 -14.0950 0.0000 0.0000 0.0000
# 2 97.4288 192.7589 -11.1360 0.0000 0.0000 0.0000
# 3 -14.0950 -11.1360 44.0420 0.0000 0.0000 0.0000
# 4 0.0000 0.0000 0.0000 176.0916 0.0000 0.0000
# 5 0.0000 0.0000 0.0000 0.0000 20.9078 0.0000
# 6 0.0000 0.0000 0.0000 0.0000 0.0000 45.0300
#
#
#
# Elastic Compliance Matrix: (Units=1/GPa)
#
#
# Indices 1 2 3 4 5 6 
#
# 1 0.007387 -0.003651 0.001441 0.000000 0.000000 0.000000
# 2 -0.003651 0.007069 0.000619 0.000000 0.000000 0.000000
# 3 0.001441 0.000619 0.023323 0.000000 0.000000 0.000000
# 4 0.000000 0.000000 0.000000 0.005679 0.000000 0.000000
# 5 0.000000 0.000000 0.000000 0.000000 0.047829 0.000000
# 6 0.000000 0.000000 0.000000 0.000000 0.000000 0.022207
#
#
# Mechanical properties :
#
#
# Convention : Reuss Voigt Hill
#
# Bulk Modulus (GPa) = 28.90300 63.05116 45.97708
# Shear Modulus (GPa) = 38.99898 71.79700 55.39799
#
# Velocity S-wave (km/s) = 4.24956 5.76595 5.06483
# Velocity P-wave (km/s) = 6.12064 8.57465 7.44939
#
# Compressibility (1/GPa) = 0.03459849
#
# Stress axis : x y z
#
# Youngs Moduli (GPa) = 135.36731 141.46737 42.87551
#
# Poissons Ratio (x) = 0.51644 -0.06179
# Poissons Ratio (y) = 0.49417 -0.02654
# Poissons Ratio (z) = -0.19508 -0.08757
#
# Static dielectric constant tensor:
#      x y z
#    x 1.732370 0.000000 0.000000 
#    y 0.000000 1.742470 0.000000 
#    z 0.000000 0.000000 1.846690 
# 
# From -- ./inp_files/2831.got.cif
#   From: 2010.05.17/outbox.cif.g08.bks.cpg/sg55_2_cif.got.tgz:2831.got - 2010.06.03 13:27:54.
