data_PCOD9426356
_publ_section_title
;
Structure prediction by ZEFSAII (Michael W. Deem and Ramdas Pophale) SiO2 
 PCOD9426356
Probable space group: P B A M
;
_chemical_formula_sum "Si O2"
_cell_formula_units_Z 64
_cell_length_a 14.852430
_cell_length_b 24.160918
_cell_length_c 9.147329
_cell_angle_alpha 90.000000
_cell_angle_beta 90.000000
_cell_angle_gamma 90.000000
_cell_volume 3282.503858
_symmetry_space_group_name_H-M "P B A M"
_symmetry_group_IT_number 55
_symmetry_cell_setting 'orthorhombic'
loop_
_space_group_symop_operation_xyz
x,y,z
-x,-y,z
1/2+x,1/2-y,-z
1/2-x,1/2+y,-z
-x,-y,-z
x,y,-z
1/2-x,1/2+y,z
1/2+x,1/2-y,z
loop_
_atom_site_type_symbol
_atom_site_label
_atom_site_fract_x
_atom_site_fract_y
_atom_site_fract_z
Si Si1 0.248645 0.915183 0.336825
Si Si2 0.070990 0.548714 0.323868
Si Si3 0.941748 0.946607 0.325147
Si Si4 0.348443 0.753341 0.173298
Si Si5 0.937243 0.643024 0.668539
Si Si6 0.674310 0.708761 0.329249
Si Si7 0.761008 0.975665 0.827228
Si Si8 0.981516 0.823605 0.674694
O O1 0.227311 0.937371 0.500000
O O2 0.354496 0.900683 0.331375
O O3 0.200860 0.856206 0.321795
O O4 0.225607 0.959919 0.216588
O O5 0.082859 0.545667 0.500000
O O6 0.166168 0.541253 0.245480
O O7 0.000000 0.500000 0.283693
O O8 0.024554 0.607791 0.289479
O O9 0.927376 0.950613 0.500000
O O10 0.846189 0.945531 0.244695
O O11 0.992294 0.888848 0.296810
O O12 0.000000 0.000000 0.280030
O O13 0.405138 0.806236 0.233084
O O14 0.247489 0.759546 0.234634
O O15 0.396767 0.700277 0.240946
O O16 0.348713 0.752689 0.000000
O O17 0.946298 0.662676 0.500000
O O18 0.682550 0.724971 0.500000
O O19 0.570730 0.710648 0.283303
O O20 0.758309 0.967948 0.000000
O O21 0.969808 0.817137 0.500000
#
# Coordination Sequence:
#
# PCOD9426356 Si02
#       8
#     8   8   8   8   8   8   8   8
#     4   9  16  32  57  83 112 149 199 248 285 336
#     4  10  19  36  59  83 114 159 210 254 297 348
#     4  10  22  43  69  92 115 151 204 258 303 355
#     4  11  23  38  59  89 126 158 189 238 302 366
#     4   9  18  35  59  82 109 152 207 255 289 336
#     4   9  19  38  65  90 111 146 200 253 294 341
#     4  12  24  34  51  86 128 163 191 233 302 373
#     4  10  21  41  68  93 116 152 204 255 300 352
#
# _framework density 19.497312000000001
#
# number of rings (size 3 to 8) (size 9 to 14) (size 15 to 20)
#    0.000    2.000    1.250    3.750    0.000    6.000 
#    2.250    1.250    0.000    0.000    0.000    0.000 
#    0.000    0.000    0.000    0.000    0.000    0.000 
#
# Total GULP energy -357423.690750 kJ/mol
# GULP energy per Si atom -5584.745168 kJ/mol
# Density = 1.945294 g / cm^3
# Si number density = 19.497312 Si / 1000 Ang^3
#
#
#
# Elastic Constant Matrix: (Units=GPa)
#
#
# Indices 1 2 3 4 5 6 
#
# 1 120.5642 26.6448 53.1794 0.0000 0.0000 0.0000
# 2 26.6448 54.9208 32.6473 0.0000 0.0000 0.0000
# 3 53.1794 32.6473 65.4671 0.0000 0.0000 0.0000
# 4 0.0000 0.0000 0.0000 0.2596 0.0000 0.0000
# 5 0.0000 0.0000 0.0000 0.0000 -9.9019 0.0000
# 6 0.0000 0.0000 0.0000 0.0000 0.0000 26.3424
#
#
#
# Elastic Compliance Matrix: (Units=1/GPa)
#
#
# Indices 1 2 3 4 5 6 
#
# 1 0.012926 -0.000042 -0.010479 0.000000 0.000000 0.000000
# 2 -0.000042 0.025880 -0.012872 0.000000 0.000000 0.000000
# 3 -0.010479 -0.012872 0.030206 0.000000 0.000000 0.000000
# 4 0.000000 0.000000 0.000000 3.852695 0.000000 0.000000
# 5 0.000000 0.000000 0.000000 0.000000 -0.100991 0.000000
# 6 0.000000 0.000000 0.000000 0.000000 0.000000 0.037962
#
#
# Mechanical properties :
#
#
# Convention : Reuss Voigt Hill
#
# Bulk Modulus (GPa) = 44.99145 51.76613 48.37879
# Shear Modulus (GPa) = 1.27783 11.90538 6.59161
#
# Velocity S-wave (km/s) = 0.81044 2.47375 1.84068
# Velocity P-wave (km/s) = 4.89914 5.89638 5.42074
#
# Compressibility (1/GPa) = 0.02222645
#
# Stress axis : x y z
#
# Youngs Moduli (GPa) = 77.36575 38.64000 33.10635
#
# Poissons Ratio (x) = 0.00162 0.34691
# Poissons Ratio (y) = 0.00324 0.42614
# Poissons Ratio (z) = 0.81069 0.49737
#
# Static dielectric constant tensor:
#      x y z
#    x 1.690570 0.000000 0.000000 
#    y 0.000000 1.702940 0.000000 
#    z 0.000000 0.000000 1.639190 
# 
# From -- ./inp_files/6494.got.cif
#   From: 2010.05.17/outbox.cif.g08.bks.cpg/sg55_4_cif.got.tgz:6494.got - 2010.06.03 13:27:54.
