data_PCOD9426907
_publ_section_title
;
Structure prediction by ZEFSAII (Michael W. Deem and Ramdas Pophale) SiO2 
 PCOD9426907
Probable space group: P B A M
;
_chemical_formula_sum "Si O2"
_cell_formula_units_Z 56
_cell_length_a 19.482589
_cell_length_b 19.591046
_cell_length_c 8.828631
_cell_angle_alpha 90.000000
_cell_angle_beta 90.000000
_cell_angle_gamma 90.000000
_cell_volume 3369.749819
_symmetry_space_group_name_H-M "P B A M"
_symmetry_group_IT_number 55
_symmetry_cell_setting 'orthorhombic'
loop_
_space_group_symop_operation_xyz
x,y,z
-x,-y,z
1/2+x,1/2-y,-z
1/2-x,1/2+y,-z
-x,-y,-z
x,y,-z
1/2-x,1/2+y,z
1/2+x,1/2-y,z
loop_
_atom_site_type_symbol
_atom_site_label
_atom_site_fract_x
_atom_site_fract_y
_atom_site_fract_z
Si Si1 0.057199 0.442416 0.680469
Si Si2 0.703521 0.020874 0.820120
Si Si3 0.245356 0.619888 0.680497
Si Si4 0.517169 0.203507 0.180762
Si Si5 0.130730 0.734158 0.681263
Si Si6 0.351099 0.735138 0.681732
Si Si7 0.763160 0.165725 0.818853
O O1 0.059121 0.430411 0.500000
O O2 0.131034 0.468029 0.736712
O O3 0.037382 0.372140 0.762137
O O4 0.000000 0.500000 0.711242
O O5 0.751283 0.086173 0.786079
O O6 0.736843 0.950363 0.767604
O O7 0.690959 0.020179 0.000000
O O8 0.244541 0.607045 0.500000
O O9 0.181240 0.670140 0.714347
O O10 0.313318 0.663723 0.716737
O O11 0.442425 0.222020 0.243570
O O12 0.574469 0.254202 0.248112
O O13 0.518252 0.205326 0.000000
O O14 0.124252 0.739003 0.500000
O O15 0.169909 0.800230 0.745721
O O16 0.353145 0.742662 0.500000
O O17 0.301604 0.793461 0.750013
O O18 0.764325 0.175427 0.000000
#
# Coordination Sequence:
#
# PCOD9426907 Si02
#       7
#     8   8   8   8   8   8   8
#     4  11  23  36  52  76 111 151 186 221 266 328
#     4  11  22  34  53  81 111 144 180 222 275 327
#     4   9  20  36  55  79 107 141 184 225 268 322
#     4  12  23  35  54  81 111 144 180 227 280 328
#     4  10  21  37  56  79 107 144 186 226 271 328
#     4  10  20  36  57  79 105 144 188 228 269 326
#     4  10  20  35  54  80 109 140 182 228 273 325
#
# _framework density 16.618444
#
# number of rings (size 3 to 8) (size 9 to 14) (size 15 to 20)
#    0.000    1.571    1.429    5.143    0.000    9.714 
#    0.000    0.000    0.000    0.857    0.000    6.000 
#    0.000    0.000    0.000    0.000    0.000    0.000 
#
# Total GULP energy -312859.623005 kJ/mol
# GULP energy per Si atom -5586.778982 kJ/mol
# Density = 1.658062 g / cm^3
# Si number density = 16.618444 Si / 1000 Ang^3
#
#
#
# Elastic Constant Matrix: (Units=GPa)
#
#
# Indices 1 2 3 4 5 6 
#
# 1 52.3124 57.2093 40.0775 0.0000 0.0000 0.0000
# 2 57.2093 118.1315 65.9159 0.0000 0.0000 0.0000
# 3 40.0775 65.9159 82.4400 0.0000 0.0000 0.0000
# 4 0.0000 0.0000 0.0000 31.2149 0.0000 0.0000
# 5 0.0000 0.0000 0.0000 0.0000 28.1767 0.0000
# 6 0.0000 0.0000 0.0000 0.0000 0.0000 19.1335
#
#
#
# Elastic Compliance Matrix: (Units=1/GPa)
#
#
# Indices 1 2 3 4 5 6 
#
# 1 0.043196 -0.016614 -0.007715 0.000000 0.000000 0.000000
# 2 -0.016614 0.021674 -0.009253 0.000000 0.000000 0.000000
# 3 -0.007715 -0.009253 0.023279 0.000000 0.000000 0.000000
# 4 0.000000 0.000000 0.000000 0.032036 0.000000 0.000000
# 5 0.000000 0.000000 0.000000 0.000000 0.035490 0.000000
# 6 0.000000 0.000000 0.000000 0.000000 0.000000 0.052264
#
#
# Mechanical properties :
#
#
# Convention : Reuss Voigt Hill
#
# Bulk Modulus (GPa) = 47.65444 64.36545 56.00995
# Shear Modulus (GPa) = 17.72417 21.68374 19.70396
#
# Velocity S-wave (km/s) = 3.26933 3.61612 3.44709
# Velocity P-wave (km/s) = 6.55662 7.50003 7.04414
#
# Compressibility (1/GPa) = 0.02098440
#
# Stress axis : x y z
#
# Youngs Moduli (GPa) = 23.15015 46.13773 42.95679
#
# Poissons Ratio (x) = 0.76654 0.33143
# Poissons Ratio (y) = 0.38462 0.39748
# Poissons Ratio (z) = 0.17861 0.42691
#
# Static dielectric constant tensor:
#      x y z
#    x 1.541720 0.000000 0.000000 
#    y 0.000000 1.545750 0.000000 
#    z 0.000000 0.000000 1.553710 
# 
# From -- ./inp_files/8911.got.cif
#   From: 2010.05.17/outbox.cif.g08.bks.cpg/sg55_5_cif.got.tgz:8911.got - 2010.06.03 13:27:54.
