data_PCOD9426478
_publ_section_title
;
Structure prediction by ZEFSAII (Michael W. Deem and Ramdas Pophale) SiO2 
 PCOD9426478
Probable space group: P B A M
;
_chemical_formula_sum "Si O2"
_cell_formula_units_Z 56
_cell_length_a 21.686928
_cell_length_b 14.821647
_cell_length_c 8.055178
_cell_angle_alpha 90.000000
_cell_angle_beta 90.000000
_cell_angle_gamma 90.000000
_cell_volume 2589.224126
_symmetry_space_group_name_H-M "P B A M"
_symmetry_group_IT_number 55
_symmetry_cell_setting 'orthorhombic'
loop_
_space_group_symop_operation_xyz
x,y,z
-x,-y,z
1/2+x,1/2-y,-z
1/2-x,1/2+y,-z
-x,-y,-z
x,y,-z
1/2-x,1/2+y,z
1/2+x,1/2-y,z
loop_
_atom_site_type_symbol
_atom_site_label
_atom_site_fract_x
_atom_site_fract_y
_atom_site_fract_z
Si Si1 0.271237 0.094547 0.308174
Si Si2 0.481279 0.713283 0.197148
Si Si3 0.285381 0.295509 0.799130
Si Si4 0.405469 0.404385 0.201928
Si Si5 0.531181 0.090370 0.694152
Si Si6 0.329784 0.911748 0.806702
Si Si7 0.868960 0.896547 0.200624
O O1 0.285635 0.078057 0.500000
O O2 0.294939 0.192945 0.255367
O O3 0.197908 0.099853 0.280239
O O4 0.298822 0.010452 0.207945
O O5 0.535502 0.650051 0.265096
O O6 0.493204 0.817715 0.226835
O O7 0.413678 0.683520 0.258190
O O8 0.479189 0.696988 0.000000
O O9 0.342087 0.357551 0.742111
O O10 0.220644 0.339514 0.742705
O O11 0.283838 0.297784 0.000000
O O12 0.403798 0.509957 0.239510
O O13 0.405762 0.398536 0.000000
O O14 0.516309 0.094780 0.500000
O O15 0.604715 0.087541 0.717688
O O16 0.500000 0.000000 0.764406
O O17 0.341890 0.890530 0.000000
O O18 0.859433 0.891047 0.000000
#
# Coordination Sequence:
#
# PCOD9426478 Si02
#       7
#     8   8   8   8   8   8   8
#     4  12  25  38  59  91 128 164 200 247 311 376
#     4  10  21  37  64  95 121 160 208 256 305 360
#     4  10  21  39  63  91 122 160 207 257 306 360
#     4   9  18  36  62  93 123 154 200 256 305 356
#     4  11  26  45  62  86 126 168 205 253 312 370
#     4  11  23  43  69  93 119 158 210 262 306 358
#     4  10  19  38  63  92 126 160 204 253 305 363
#
# _framework density 21.628098999999999
#
# number of rings (size 3 to 8) (size 9 to 14) (size 15 to 20)
#    0.000    1.571    1.429    3.429    2.000    8.000 
#    0.000    0.714    0.000    1.714    0.000    0.000 
#    0.000    0.000    0.000    0.000    0.000    0.000 
#
# Total GULP energy -313120.443599 kJ/mol
# GULP energy per Si atom -5591.436493 kJ/mol
# Density = 2.157887 g / cm^3
# Si number density = 21.628099 Si / 1000 Ang^3
#
#
#
# Elastic Constant Matrix: (Units=GPa)
#
#
# Indices 1 2 3 4 5 6 
#
# 1 43.4098 -8.6173 -3.2633 0.0000 0.0000 0.0000
# 2 -8.6173 69.6330 -14.4745 0.0000 0.0000 0.0000
# 3 -3.2633 -14.4745 14.6562 0.0000 0.0000 0.0000
# 4 0.0000 0.0000 0.0000 401.5496 0.0000 0.0000
# 5 0.0000 0.0000 0.0000 0.0000 75.1507 0.0000
# 6 0.0000 0.0000 0.0000 0.0000 0.0000 32.1691
#
#
#
# Elastic Compliance Matrix: (Units=1/GPa)
#
#
# Indices 1 2 3 4 5 6 
#
# 1 0.024907 0.005329 0.010809 0.000000 0.000000 0.000000
# 2 0.005329 0.019211 0.020159 0.000000 0.000000 0.000000
# 3 0.010809 0.020159 0.090546 0.000000 0.000000 0.000000
# 4 0.000000 0.000000 0.000000 0.002490 0.000000 0.000000
# 5 0.000000 0.000000 0.000000 0.000000 0.013307 0.000000
# 6 0.000000 0.000000 0.000000 0.000000 0.000000 0.031086
#
#
# Mechanical properties :
#
#
# Convention : Reuss Voigt Hill
#
# Bulk Modulus (GPa) = 4.82492 8.33210 6.57851
# Shear Modulus (GPa) = 28.08378 112.04415 70.06396
#
# Velocity S-wave (km/s) = 3.60736 7.20537 5.69782
# Velocity P-wave (km/s) = 4.42566 8.54892 6.80700
#
# Compressibility (1/GPa) = 0.20725753
#
# Stress axis : x y z
#
# Youngs Moduli (GPa) = 40.14994 52.05361 11.04408
#
# Poissons Ratio (x) = -0.27740 -0.11937
# Poissons Ratio (y) = -0.21396 -0.22264
# Poissons Ratio (z) = -0.43396 -1.04936
#
# Static dielectric constant tensor:
#      x y z
#    x 1.773210 0.000000 0.000000 
#    y 0.000000 1.764710 0.000000 
#    z 0.000000 0.000000 1.771420 
# 
# From -- ./inp_files/6179.got.cif
#   From: 2010.05.17/outbox.cif.g08.bks.cpg/sg55_4_cif.got.tgz:6179.got - 2010.06.03 13:27:54.
