data_PCOD9426852
_publ_section_title
;
Structure prediction by ZEFSAII (Michael W. Deem and Ramdas Pophale) SiO2 
 PCOD9426852
Probable space group: P B A M
;
_chemical_formula_sum "Si O2"
_cell_formula_units_Z 58
_cell_length_a 8.676295
_cell_length_b 27.397430
_cell_length_c 12.476181
_cell_angle_alpha 90.000000
_cell_angle_beta 90.000000
_cell_angle_gamma 90.000000
_cell_volume 2965.690340
_symmetry_space_group_name_H-M "P B A M"
_symmetry_group_IT_number 55
_symmetry_cell_setting 'orthorhombic'
loop_
_space_group_symop_operation_xyz
x,y,z
-x,-y,z
1/2+x,1/2-y,-z
1/2-x,1/2+y,-z
-x,-y,-z
x,y,-z
1/2-x,1/2+y,z
1/2+x,1/2-y,z
loop_
_atom_site_type_symbol
_atom_site_label
_atom_site_fract_x
_atom_site_fract_y
_atom_site_fract_z
Si Si1 0.634685 0.765232 0.872086
Si Si2 0.818265 0.859576 0.120591
Si Si3 0.829050 0.680198 0.211331
Si Si4 0.156866 0.975470 0.689245
Si Si5 0.150739 0.904701 0.116377
Si Si6 0.621014 0.103011 0.379738
Si Si7 0.121643 0.556829 0.215341
Si Si8 0.500000 0.000000 0.000000
O O1 0.773337 0.804152 0.857100
O O2 0.482385 0.792583 0.829392
O O3 0.688984 0.717642 0.807972
O O4 0.618549 0.754396 0.000000
O O5 0.731501 0.897021 0.196011
O O6 0.997797 0.871932 0.120091
O O7 0.760659 0.868495 0.000000
O O8 0.789968 0.631897 0.141573
O O9 0.844497 0.656219 0.328831
O O10 0.125189 0.947716 0.800956
O O11 0.229084 0.931973 0.619613
O O12 0.282256 0.016132 0.720013
O O13 0.000000 0.000000 0.648922
O O14 0.175908 0.927086 0.000000
O O15 0.558331 0.106242 0.500000
O O16 0.511218 0.075803 0.294480
O O17 0.066261 0.536193 0.099394
#
# Coordination Sequence:
#
# PCOD9426852 Si02
#       8
#     8   8   8   8   8   8   8   2
#     4  11  21  36  62  95 131 163 204 252 323 395
#     4  10  20  34  57  90 134 173 206 252 312 391
#     4  11  23  40  64  92 125 166 212 260 318 384
#     4  11  23  37  62  94 126 167 219 272 327 372
#     4  10  21  34  55  88 135 173 203 248 314 386
#     4  11  26  48  67  89 124 174 229 274 317 384
#     4  12  22  39  63  95 132 176 219 270 324 395
#     4  12  24  36  64 100 136 176 222 258 336 400
#
# _framework density 19.556999000000001
#
# number of rings (size 3 to 8) (size 9 to 14) (size 15 to 20)
#    0.000    1.103    4.828    2.069    0.966    2.759 
#    1.241    0.690    0.000    0.000    0.000    0.000 
#    0.000    0.000    0.000    0.000    0.000    0.000 
#
# Total GULP energy -323216.127480 kJ/mol
# GULP energy per Si atom -5572.691853 kJ/mol
# Density = 1.951249 g / cm^3
# Si number density = 19.556999 Si / 1000 Ang^3
#
#
#
# Elastic Constant Matrix: (Units=GPa)
#
#
# Indices 1 2 3 4 5 6 
#
# 1 70.5228 35.0697 29.8295 0.0000 0.0000 0.0000
# 2 35.0697 96.0331 25.4577 0.0000 0.0000 0.0000
# 3 29.8295 25.4577 96.5903 0.0000 0.0000 0.0000
# 4 0.0000 0.0000 0.0000 -2.7621 0.0000 0.0000
# 5 0.0000 0.0000 0.0000 0.0000 -65.0912 0.0000
# 6 0.0000 0.0000 0.0000 0.0000 0.0000 49.5222
#
#
#
# Elastic Compliance Matrix: (Units=1/GPa)
#
#
# Indices 1 2 3 4 5 6 
#
# 1 0.018860 -0.005745 -0.004310 0.000000 0.000000 0.000000
# 2 -0.005745 0.012945 -0.001638 0.000000 0.000000 0.000000
# 3 -0.004310 -0.001638 0.012116 0.000000 0.000000 0.000000
# 4 0.000000 0.000000 0.000000 -0.362037 0.000000 0.000000
# 5 0.000000 0.000000 0.000000 0.000000 -0.015363 0.000000
# 6 0.000000 0.000000 0.000000 0.000000 0.000000 0.020193
#
#
# Mechanical properties :
#
#
# Convention : Reuss Voigt Hill
#
# Bulk Modulus (GPa) = 48.69686 49.31779 49.00732
# Shear Modulus (GPa) = -17.66433 7.85306 -4.90564
#
# Velocity S-wave (km/s) = -3.00863 2.00604 -1.58551
# Velocity P-wave (km/s) = 3.58955 5.53514 4.66491
#
# Compressibility (1/GPa) = 0.02053521
#
# Stress axis : x y z
#
# Youngs Moduli (GPa) = 53.02332 77.24945 82.53701
#
# Poissons Ratio (x) = 0.44377 0.35576
# Poissons Ratio (y) = 0.30460 0.13518
# Poissons Ratio (z) = 0.22854 0.12652
#
# Static dielectric constant tensor:
#      x y z
#    x 1.755670 0.000000 0.000000 
#    y 0.000000 1.737560 0.000000 
#    z 0.000000 0.000000 1.673970 
# 
# From -- ./inp_files/12452.got.cif
#   From: 2010.05.17/outbox.cif.g08.bks.cpg/sg55_7_cif.got.tgz:12452.got - 2010.06.03 13:27:54.
