data_PCOD9426408
_publ_section_title
;
Structure prediction by ZEFSAII (Michael W. Deem and Ramdas Pophale) SiO2 
 PCOD9426408
Probable space group: P B A M
;
_chemical_formula_sum "Si O2"
_cell_formula_units_Z 48
_cell_length_a 28.486351
_cell_length_b 9.914017
_cell_length_c 8.099725
_cell_angle_alpha 90.000000
_cell_angle_beta 90.000000
_cell_angle_gamma 90.000000
_cell_volume 2287.477098
_symmetry_space_group_name_H-M "P B A M"
_symmetry_group_IT_number 55
_symmetry_cell_setting 'orthorhombic'
loop_
_space_group_symop_operation_xyz
x,y,z
-x,-y,z
1/2+x,1/2-y,-z
1/2-x,1/2+y,-z
-x,-y,-z
x,y,-z
1/2-x,1/2+y,z
1/2+x,1/2-y,z
loop_
_atom_site_type_symbol
_atom_site_label
_atom_site_fract_x
_atom_site_fract_y
_atom_site_fract_z
Si Si1 0.610595 0.788966 0.801153
Si Si2 0.392849 0.716482 0.307166
Si Si3 0.204942 0.855390 0.804397
Si Si4 0.552196 0.533859 0.802255
Si Si5 0.710808 0.334962 0.697092
Si Si6 0.947875 0.532691 0.196785
O O1 0.658029 0.719206 0.737296
O O2 0.567831 0.686056 0.772446
O O3 0.592568 0.932245 0.736635
O O4 0.617481 0.800986 0.000000
O O5 0.391816 0.749401 0.500000
O O6 0.411224 0.565679 0.281479
O O7 0.339734 0.719745 0.241460
O O8 0.429777 0.816866 0.224466
O O9 0.247783 0.753399 0.773967
O O10 0.213384 0.004618 0.732067
O O11 0.198554 0.876150 0.000000
O O12 0.500000 0.500000 0.745623
O O13 0.554566 0.510971 0.000000
O O14 0.712609 0.317135 0.500000
O O15 0.000000 0.500000 0.262967
O O16 0.950314 0.508963 0.000000
#
# Coordination Sequence:
#
# PCOD9426408 Si02
#       6
#     8   8   8   8   8   8
#     4   9  19  36  59  91 121 150 198 253 302 354
#     4  11  24  40  59  88 126 165 201 244 302 367
#     4  11  23  41  66  94 121 158 210 263 308 363
#     4  10  19  36  64  91 118 155 199 250 302 354
#     4  11  25  44  63  90 128 166 203 251 316 380
#     4  10  21  39  63  90 123 163 206 254 304 356
#
# _framework density 20.983815
#
# number of rings (size 3 to 8) (size 9 to 14) (size 15 to 20)
#    0.000    1.667    1.667    2.500    2.333    5.333 
#    0.000    1.667    0.000    0.000    0.000    0.000 
#    0.000    0.000    0.000    0.000    0.000    0.000 
#
# Total GULP energy -268083.590057 kJ/mol
# GULP energy per Si atom -5585.074793 kJ/mol
# Density = 2.093606 g / cm^3
# Si number density = 20.983815 Si / 1000 Ang^3
#
#
#
# Elastic Constant Matrix: (Units=GPa)
#
#
# Indices 1 2 3 4 5 6 
#
# 1 73.9684 -7.0821 2.0251 0.0000 0.0000 0.0000
# 2 -7.0821 58.0485 -6.5784 0.0000 0.0000 0.0000
# 3 2.0251 -6.5784 12.6984 0.0000 0.0000 0.0000
# 4 0.0000 0.0000 0.0000 -65.9667 0.0000 0.0000
# 5 0.0000 0.0000 0.0000 0.0000 11.1166 0.0000
# 6 0.0000 0.0000 0.0000 0.0000 0.0000 31.7414
#
#
#
# Elastic Compliance Matrix: (Units=1/GPa)
#
#
# Indices 1 2 3 4 5 6 
#
# 1 0.013703 0.001513 -0.001401 0.000000 0.000000 0.000000
# 2 0.001513 0.018468 0.009326 0.000000 0.000000 0.000000
# 3 -0.001401 0.009326 0.083805 0.000000 0.000000 0.000000
# 4 0.000000 0.000000 0.000000 -0.015159 0.000000 0.000000
# 5 0.000000 0.000000 0.000000 0.000000 0.089955 0.000000
# 6 0.000000 0.000000 0.000000 0.000000 0.000000 0.031505
#
#
# Mechanical properties :
#
#
# Convention : Reuss Voigt Hill
#
# Bulk Modulus (GPa) = 7.41553 13.49382 10.45468
# Shear Modulus (GPa) = 20.13270 5.80164 12.96717
#
# Velocity S-wave (km/s) = 3.10084 1.66458 2.48858
# Velocity P-wave (km/s) = 4.04498 3.18418 3.64011
#
# Compressibility (1/GPa) = 0.13485210
#
# Stress axis : x y z
#
# Youngs Moduli (GPa) = 72.97932 54.14635 11.93240
#
# Poissons Ratio (x) = -0.08192 0.01672
# Poissons Ratio (y) = -0.11041 -0.11129
# Poissons Ratio (z) = 0.10228 -0.50499
#
# Static dielectric constant tensor:
#      x y z
#    x 1.766910 0.000000 0.000000 
#    y 0.000000 1.703980 0.000000 
#    z 0.000000 0.000000 1.753710 
# 
# From -- ./inp_files/10522.got.cif
#   From: 2010.05.17/outbox.cif.g08.bks.cpg/sg55_6_cif.got.tgz:10522.got - 2010.06.03 13:27:54.
