data_PCOD9426858
_publ_section_title
;
Structure prediction by ZEFSAII (Michael W. Deem and Ramdas Pophale) SiO2 
 PCOD9426858
Probable space group: P B A M
;
_chemical_formula_sum "Si O2"
_cell_formula_units_Z 64
_cell_length_a 17.682102
_cell_length_b 13.878269
_cell_length_c 14.001779
_cell_angle_alpha 90.000000
_cell_angle_beta 90.000000
_cell_angle_gamma 90.000000
_cell_volume 3435.994114
_symmetry_space_group_name_H-M "P B A M"
_symmetry_group_IT_number 55
_symmetry_cell_setting 'orthorhombic'
loop_
_space_group_symop_operation_xyz
x,y,z
-x,-y,z
1/2+x,1/2-y,-z
1/2-x,1/2+y,-z
-x,-y,-z
x,y,-z
1/2-x,1/2+y,z
1/2+x,1/2-y,z
loop_
_atom_site_type_symbol
_atom_site_label
_atom_site_fract_x
_atom_site_fract_y
_atom_site_fract_z
Si Si1 0.780935 0.114646 0.231282
Si Si2 0.344565 0.911206 0.610065
Si Si3 0.680165 0.395296 0.755506
Si Si4 0.971349 0.609154 0.766411
Si Si5 0.154652 0.285115 0.886984
Si Si6 0.044011 0.100731 0.607718
Si Si7 0.081595 0.763038 0.695346
Si Si8 0.303479 0.135075 0.396831
O O1 0.728005 0.121532 0.327121
O O2 0.731058 0.162393 0.148654
O O3 0.859892 0.168488 0.248982
O O4 0.795870 0.001772 0.211205
O O5 0.344245 0.877158 0.500000
O O6 0.420153 0.886062 0.669291
O O7 0.336971 0.027254 0.608076
O O8 0.655518 0.319276 0.835425
O O9 0.613741 0.407459 0.678792
O O10 0.749284 0.352839 0.693568
O O11 0.914647 0.650866 0.846274
O O12 0.000000 0.500000 0.780831
O O13 0.043077 0.679234 0.757598
O O14 0.151182 0.276243 0.000000
O O15 0.067719 0.125184 0.500000
O O16 0.985694 0.177115 0.649442
O O17 0.000000 0.000000 0.605137
O O18 0.129975 0.710795 0.613981
O O19 0.264869 0.144847 0.500000
#
# Coordination Sequence:
#
# PCOD9426858 Si02
#       8
#     8   8   8   8   8   8   8   8
#     4  10  23  40  64  90 125 163 203 260 309 360
#     4   9  20  37  56  86 128 171 207 240 290 361
#     4  11  21  43  64  86 127 166 204 257 308 369
#     4  11  23  41  64  90 128 166 202 258 316 369
#     4  11  25  46  69  93 115 154 212 265 324 381
#     4  11  23  37  59  94 133 174 209 244 297 370
#     4  12  21  38  58  90 129 164 207 249 302 361
#     4  10  20  34  58  89 123 165 205 244 292 359
#
# _framework density 18.626341
#
# number of rings (size 3 to 8) (size 9 to 14) (size 15 to 20)
#    0.000    1.375    5.000    0.750    0.000    3.500 
#    0.000    0.625    0.000    1.125    0.000    0.000 
#    0.000    0.000    0.000    0.000    0.000    0.000 
#
# Total GULP energy -357448.696135 kJ/mol
# GULP energy per Si atom -5585.135877 kJ/mol
# Density = 1.858395 g / cm^3
# Si number density = 18.626341 Si / 1000 Ang^3
#
#
#
# Elastic Constant Matrix: (Units=GPa)
#
#
# Indices 1 2 3 4 5 6 
#
# 1 50.7826 19.7222 6.1143 0.0000 0.0000 0.0000
# 2 19.7222 103.9383 21.1141 0.0000 0.0000 0.0000
# 3 6.1143 21.1141 93.8546 0.0000 0.0000 0.0000
# 4 0.0000 0.0000 0.0000 21.7342 0.0000 0.0000
# 5 0.0000 0.0000 0.0000 0.0000 10.6333 0.0000
# 6 0.0000 0.0000 0.0000 0.0000 0.0000 40.7402
#
#
#
# Elastic Compliance Matrix: (Units=1/GPa)
#
#
# Indices 1 2 3 4 5 6 
#
# 1 0.021281 -0.003936 -0.000501 0.000000 0.000000 0.000000
# 2 -0.003936 0.010810 -0.002175 0.000000 0.000000 0.000000
# 3 -0.000501 -0.002175 0.011177 0.000000 0.000000 0.000000
# 4 0.000000 0.000000 0.000000 0.046010 0.000000 0.000000
# 5 0.000000 0.000000 0.000000 0.000000 0.094044 0.000000
# 6 0.000000 0.000000 0.000000 0.000000 0.000000 0.024546
#
#
# Mechanical properties :
#
#
# Convention : Reuss Voigt Hill
#
# Bulk Modulus (GPa) = 33.28625 38.05297 35.66961
# Shear Modulus (GPa) = 21.63502 28.06321 24.84912
#
# Velocity S-wave (km/s) = 3.41182 3.88576 3.65648
# Velocity P-wave (km/s) = 5.78187 6.37230 6.08425
#
# Compressibility (1/GPa) = 0.03004243
#
# Stress axis : x y z
#
# Youngs Moduli (GPa) = 46.99066 92.50761 89.47101
#
# Poissons Ratio (x) = 0.36414 0.04481
# Poissons Ratio (y) = 0.18497 0.19464
# Poissons Ratio (z) = 0.02354 0.20124
#
# Static dielectric constant tensor:
#      x y z
#    x 1.665830 0.000000 0.000000 
#    y 0.000000 1.645610 0.000000 
#    z 0.000000 0.000000 1.610490 
# 
# From -- ./inp_files/14985.got.cif
#   From: 2010.05.17/outbox.cif.g08.bks.cpg/sg55_8_cif.got.tgz:14985.got - 2010.06.03 13:27:54.
