data_PCOD9426421
_publ_section_title
;
Structure prediction by ZEFSAII (Michael W. Deem and Ramdas Pophale) SiO2 
 PCOD9426421
Probable space group: P B A M
;
_chemical_formula_sum "Si O2"
_cell_formula_units_Z 40
_cell_length_a 9.817668
_cell_length_b 25.481382
_cell_length_c 7.662079
_cell_angle_alpha 90.000000
_cell_angle_beta 90.000000
_cell_angle_gamma 90.000000
_cell_volume 1916.805053
_symmetry_space_group_name_H-M "P B A M"
_symmetry_group_IT_number 55
_symmetry_cell_setting 'orthorhombic'
loop_
_space_group_symop_operation_xyz
x,y,z
-x,-y,z
1/2+x,1/2-y,-z
1/2-x,1/2+y,-z
-x,-y,-z
x,y,-z
1/2-x,1/2+y,z
1/2+x,1/2-y,z
loop_
_atom_site_type_symbol
_atom_site_label
_atom_site_fract_x
_atom_site_fract_y
_atom_site_fract_z
Si Si1 0.513801 0.140888 0.711914
Si Si2 0.733686 0.927888 0.290614
Si Si3 0.546923 0.583091 0.192508
Si Si4 0.889067 0.720677 0.000000
Si Si5 0.318182 0.959578 0.696693
Si Si6 0.914014 0.185110 0.000000
O O1 0.527434 0.148770 0.500000
O O2 0.360900 0.121363 0.753450
O O3 0.557746 0.189778 0.828325
O O4 0.607015 0.091275 0.771044
O O5 0.730383 0.932365 0.500000
O O6 0.890109 0.922460 0.239048
O O7 0.671654 0.982836 0.221520
O O8 0.658106 0.554752 0.308603
O O9 0.568572 0.559479 0.000000
O O10 0.580923 0.644676 0.163603
O O11 0.955849 0.777729 0.000000
O O12 0.725517 0.717407 0.000000
O O13 0.373047 0.962894 0.500000
#
# Coordination Sequence:
#
# PCOD9426421 Si02
#       6
#     8   8   8   4   8   4
#     4  10  22  41  64  92 126 160 204 250 298 366
#     4  10  21  35  58  92 126 165 200 236 295 361
#     4  10  21  38  54  89 119 159 200 249 300 357
#     4  12  24  48  67  89 118 158 203 259 323 352
#     4  10  19  37  60  85 127 167 198 244 295 358
#     4  10  26  42  67  85 116 156 201 263 315 358
#
# _framework density 20.868058000000001
#
# number of rings (size 3 to 8) (size 9 to 14) (size 15 to 20)
#    0.600    1.200    2.000    1.800    4.200    5.600 
#    0.000    4.000    0.000    0.000    0.000    0.000 
#    0.000    0.000    0.000    0.000    0.000    0.000 
#
# Total GULP energy -223127.246227 kJ/mol
# GULP energy per Si atom -5578.181156 kJ/mol
# Density = 2.082056 g / cm^3
# Si number density = 20.868058 Si / 1000 Ang^3
#
#
#
# Elastic Constant Matrix: (Units=GPa)
#
#
# Indices 1 2 3 4 5 6 
#
# 1 70.4214 4.6532 4.8724 0.0000 0.0000 0.0000
# 2 4.6532 58.4858 2.1991 0.0000 0.0000 0.0000
# 3 4.8724 2.1991 59.2594 0.0000 0.0000 0.0000
# 4 0.0000 0.0000 0.0000 12.1992 0.0000 0.0000
# 5 0.0000 0.0000 0.0000 0.0000 31.9185 0.0000
# 6 0.0000 0.0000 0.0000 0.0000 0.0000 40.6988
#
#
#
# Elastic Compliance Matrix: (Units=1/GPa)
#
#
# Indices 1 2 3 4 5 6 
#
# 1 0.014352 -0.001099 -0.001139 0.000000 0.000000 0.000000
# 2 -0.001099 0.017206 -0.000548 0.000000 0.000000 0.000000
# 3 -0.001139 -0.000548 0.016989 0.000000 0.000000 0.000000
# 4 0.000000 0.000000 0.000000 0.081972 0.000000 0.000000
# 5 0.000000 0.000000 0.000000 0.000000 0.031330 0.000000
# 6 0.000000 0.000000 0.000000 0.000000 0.000000 0.024571
#
#
# Mechanical properties :
#
#
# Convention : Reuss Voigt Hill
#
# Bulk Modulus (GPa) = 23.26981 23.51286 23.39134
# Shear Modulus (GPa) = 24.23454 28.72612 26.48033
#
# Velocity S-wave (km/s) = 3.41151 3.71423 3.56608
# Velocity P-wave (km/s) = 5.16653 5.44847 5.30937
#
# Compressibility (1/GPa) = 0.04297413
#
# Stress axis : x y z
#
# Youngs Moduli (GPa) = 69.67832 58.11850 58.86169
#
# Poissons Ratio (x) = 0.06387 0.06706
# Poissons Ratio (y) = 0.07658 0.03227
# Poissons Ratio (z) = 0.07938 0.03186
#
# Static dielectric constant tensor:
#      x y z
#    x 1.755420 0.000000 0.000000 
#    y 0.000000 1.744370 0.000000 
#    z 0.000000 0.000000 1.788590 
# 
# From -- ./inp_files/2553.got.cif
#   From: 2010.05.17/outbox.cif.g08.bks.cpg/sg55_2_cif.got.tgz:2553.got - 2010.06.03 13:27:54.
