data_PCOD9426689
_publ_section_title
;
Structure prediction by ZEFSAII (Michael W. Deem and Ramdas Pophale) SiO2 
 PCOD9426689
Probable space group: P B A M
;
_chemical_formula_sum "Si O2"
_cell_formula_units_Z 64
_cell_length_a 8.870739
_cell_length_b 11.457471
_cell_length_c 33.616561
_cell_angle_alpha 90.000000
_cell_angle_beta 90.000000
_cell_angle_gamma 90.000000
_cell_volume 3416.660688
_symmetry_space_group_name_H-M "P B A M"
_symmetry_group_IT_number 55
_symmetry_cell_setting 'orthorhombic'
loop_
_space_group_symop_operation_xyz
x,y,z
-x,-y,z
1/2+x,1/2-y,-z
1/2-x,1/2+y,-z
-x,-y,-z
x,y,-z
1/2-x,1/2+y,z
1/2+x,1/2-y,z
loop_
_atom_site_type_symbol
_atom_site_label
_atom_site_fract_x
_atom_site_fract_y
_atom_site_fract_z
Si Si1 0.309361 0.886000 0.453277
Si Si2 0.940475 0.131173 0.235818
Si Si3 0.849763 0.355828 0.424867
Si Si4 0.306623 0.752194 0.285332
Si Si5 0.053152 0.867522 0.145393
Si Si6 0.800171 0.750452 0.904619
Si Si7 0.446909 0.132603 0.954851
Si Si8 0.058105 0.630484 0.333696
O O1 0.276638 0.896833 0.500000
O O2 0.230559 0.765716 0.437772
O O3 0.487720 0.865273 0.446276
O O4 0.274471 0.015237 0.433836
O O5 0.799945 0.150746 0.265237
O O6 0.079179 0.207105 0.252041
O O7 0.902555 0.164159 0.190463
O O8 0.000000 0.000000 0.236598
O O9 0.882860 0.347134 0.377922
O O10 0.191029 0.657250 0.302598
O O11 0.413652 0.792905 0.321247
O O12 0.909565 0.795715 0.129904
O O13 0.189176 0.843993 0.115031
O O14 0.000000 0.000000 0.144814
O O15 0.690697 0.845120 0.924812
O O16 0.910711 0.704331 0.938671
O O17 0.500000 0.000000 0.954576
O O18 0.406591 0.166590 0.000000
O O19 0.000000 0.500000 0.331197
#
# Coordination Sequence:
#
# PCOD9426689 Si02
#       8
#     8   8   8   8   8   8   8   8
#     4  11  22  41  63  89 121 156 194 239 287 338
#     4  10  20  37  55  82 109 143 182 222 276 329
#     4  11  23  40  62  90 120 155 195 238 286 339
#     4  10  22  36  58  82 112 146 183 227 276 333
#     4  10  20  34  55  77 108 139 177 227 271 331
#     4  10  20  34  52  78 104 140 180 222 278 325
#     4  10  20  34  52  74 105 140 181 226 271 326
#     4  11  21  38  58  83 115 147 187 231 278 329
#
# _framework density 18.731739999999999
#
# number of rings (size 3 to 8) (size 9 to 14) (size 15 to 20)
#    0.000    1.625    1.250    4.875    0.000    0.500 
#    0.000    1.250    0.000   18.000    0.000    0.000 
#    0.000    0.000    0.000    0.000    0.000    0.000 
#
# Total GULP energy -356828.198140 kJ/mol
# GULP energy per Si atom -5575.440596 kJ/mol
# Density = 1.868911 g / cm^3
# Si number density = 18.731740 Si / 1000 Ang^3
#
#
#
# Elastic Constant Matrix: (Units=GPa)
#
#
# Indices 1 2 3 4 5 6 
#
# 1 58.8796 21.0453 -2.4881 0.0000 0.0000 0.0000
# 2 21.0453 82.9535 24.6324 0.0000 0.0000 0.0000
# 3 -2.4881 24.6324 72.5475 0.0000 0.0000 0.0000
# 4 0.0000 0.0000 0.0000 11.4572 0.0000 0.0000
# 5 0.0000 0.0000 0.0000 0.0000 32.4050 0.0000
# 6 0.0000 0.0000 0.0000 0.0000 0.0000 23.8632
#
#
#
# Elastic Compliance Matrix: (Units=1/GPa)
#
#
# Indices 1 2 3 4 5 6 
#
# 1 0.019095 -0.005604 0.002558 0.000000 0.000000 0.000000
# 2 -0.005604 0.015051 -0.005303 0.000000 0.000000 0.000000
# 3 0.002558 -0.005303 0.015672 0.000000 0.000000 0.000000
# 4 0.000000 0.000000 0.000000 0.087281 0.000000 0.000000
# 5 0.000000 0.000000 0.000000 0.000000 0.030859 0.000000
# 6 0.000000 0.000000 0.000000 0.000000 0.000000 0.041906
#
#
# Mechanical properties :
#
#
# Convention : Reuss Voigt Hill
#
# Bulk Modulus (GPa) = 30.19271 33.41775 31.80523
# Shear Modulus (GPa) = 21.04355 24.95781 23.00068
#
# Velocity S-wave (km/s) = 3.35538 3.65414 3.50794
# Velocity P-wave (km/s) = 5.58255 5.97349 5.78132
#
# Compressibility (1/GPa) = 0.03312058
#
# Stress axis : x y z
#
# Youngs Moduli (GPa) = 52.37014 66.43986 63.80728
#
# Poissons Ratio (x) = 0.37232 -0.16319
# Poissons Ratio (y) = 0.29347 0.33834
# Poissons Ratio (z) = -0.13394 0.35230
#
# Static dielectric constant tensor:
#      x y z
#    x 1.630170 0.000000 0.000000 
#    y 0.000000 1.652510 0.000000 
#    z 0.000000 0.000000 1.651490 
# 
# From -- ./inp_files/24149.got.cif
#   From: 2010.05.17/outbox.cif.g08.bks.cpg/sg55_13_cif.got.tgz:24149.got - 2010.06.03 13:27:54.
