data_PCOD9426857
_publ_section_title
;
Structure prediction by ZEFSAII (Michael W. Deem and Ramdas Pophale) SiO2 
 PCOD9426857
Probable space group: P B A M
;
_chemical_formula_sum "Si O2"
_cell_formula_units_Z 64
_cell_length_a 14.613497
_cell_length_b 24.984378
_cell_length_c 7.497713
_cell_angle_alpha 90.000000
_cell_angle_beta 90.000000
_cell_angle_gamma 90.000000
_cell_volume 2737.483493
_symmetry_space_group_name_H-M "P B A M"
_symmetry_group_IT_number 55
_symmetry_cell_setting 'orthorhombic'
loop_
_space_group_symop_operation_xyz
x,y,z
-x,-y,z
1/2+x,1/2-y,-z
1/2-x,1/2+y,-z
-x,-y,-z
x,y,-z
1/2-x,1/2+y,z
1/2+x,1/2-y,z
loop_
_atom_site_type_symbol
_atom_site_label
_atom_site_fract_x
_atom_site_fract_y
_atom_site_fract_z
Si Si1 0.240673 0.080506 0.794943
Si Si2 0.603289 0.701607 0.705538
Si Si3 0.072938 0.365187 0.717303
Si Si4 0.601065 0.506185 0.705956
Si Si5 0.273977 0.396618 0.718989
Si Si6 0.433457 0.047750 0.284340
Si Si7 0.217224 0.696638 0.795065
Si Si8 0.414959 0.741983 0.282298
O O1 0.331030 0.044195 0.784738
O O2 0.272157 0.137363 0.714841
O O3 0.156342 0.049318 0.710964
O O4 0.215701 0.090589 0.000000
O O5 0.590592 0.685981 0.500000
O O6 0.672094 0.656969 0.778554
O O7 0.650068 0.760012 0.709623
O O8 0.501718 0.707622 0.781593
O O9 0.072354 0.366160 0.500000
O O10 0.168239 0.392504 0.775027
O O11 0.071937 0.303582 0.771532
O O12 0.984277 0.398101 0.774578
O O13 0.500000 0.500000 0.786512
O O14 0.586853 0.522226 0.500000
O O15 0.667837 0.552187 0.780748
O O16 0.270176 0.397530 0.500000
O O17 0.427473 0.046702 0.500000
O O18 0.500000 0.000000 0.230071
O O19 0.318693 0.721002 0.785211
O O20 0.187337 0.691499 0.000000
O O21 0.412249 0.740735 0.500000
#
# Coordination Sequence:
#
# PCOD9426857 Si02
#       8
#     8   8   8   8   8   8   8   8
#     4  11  25  42  58  82 122 166 200 240 292 351
#     4  10  20  36  62  90 117 150 193 249 303 352
#     4   9  16  30  54  85 118 146 181 235 295 352
#     4  10  22  39  63  91 116 150 201 256 301 346
#     4   9  17  33  57  87 119 145 182 244 302 348
#     4  10  20  36  63  93 117 148 192 244 300 354
#     4  11  24  40  57  83 123 164 200 239 287 351
#     4  10  20  34  58  87 113 150 197 245 299 351
#
# _framework density 23.379135000000002
#
# number of rings (size 3 to 8) (size 9 to 14) (size 15 to 20)
#    0.000    2.000    1.250    2.250    1.750    6.000 
#    0.000    1.250    0.000    0.000    0.000    0.000 
#    0.000    0.000    0.000    0.000    0.000    0.000 
#
# Total GULP energy -357776.159195 kJ/mol
# GULP energy per Si atom -5590.252487 kJ/mol
# Density = 2.332592 g / cm^3
# Si number density = 23.379135 Si / 1000 Ang^3
#
#
#
# Elastic Constant Matrix: (Units=GPa)
#
#
# Indices 1 2 3 4 5 6 
#
# 1 108.7913 -2.2734 -6.0594 0.0000 0.0000 0.0000
# 2 -2.2734 66.7677 -4.7942 0.0000 0.0000 0.0000
# 3 -6.0594 -4.7942 61.8390 0.0000 0.0000 0.0000
# 4 0.0000 0.0000 0.0000 13.2500 0.0000 0.0000
# 5 0.0000 0.0000 0.0000 0.0000 9.5056 0.0000
# 6 0.0000 0.0000 0.0000 0.0000 0.0000 38.8302
#
#
#
# Elastic Compliance Matrix: (Units=1/GPa)
#
#
# Indices 1 2 3 4 5 6 
#
# 1 0.009252 0.000382 0.000936 0.000000 0.000000 0.000000
# 2 0.000382 0.015077 0.001206 0.000000 0.000000 0.000000
# 3 0.000936 0.001206 0.016356 0.000000 0.000000 0.000000
# 4 0.000000 0.000000 0.000000 0.075472 0.000000 0.000000
# 5 0.000000 0.000000 0.000000 0.000000 0.105201 0.000000
# 6 0.000000 0.000000 0.000000 0.000000 0.000000 0.025753
#
#
# Mechanical properties :
#
#
# Convention : Reuss Voigt Hill
#
# Bulk Modulus (GPa) = 21.86517 23.46044 22.66280
# Shear Modulus (GPa) = 19.43204 29.01882 24.22543
#
# Velocity S-wave (km/s) = 2.88613 3.52693 3.22250
# Velocity P-wave (km/s) = 4.52538 5.16161 4.85393
#
# Compressibility (1/GPa) = 0.04573485
#
# Stress axis : x y z
#
# Youngs Moduli (GPa) = 108.08421 66.32645 61.13862
#
# Poissons Ratio (x) = -0.02535 -0.05724
# Poissons Ratio (y) = -0.04132 -0.07375
# Poissons Ratio (z) = -0.10119 -0.08001
#
# Static dielectric constant tensor:
#      x y z
#    x 1.836130 0.000000 0.000000 
#    y 0.000000 1.885370 0.000000 
#    z 0.000000 0.000000 1.914140 
# 
# From -- ./inp_files/6730.got.cif
#   From: 2010.05.17/outbox.cif.g08.bks.cpg/sg55_4_cif.got.tgz:6730.got - 2010.06.03 13:27:54.
