data_PCOD9426001
_publ_section_title
;
Structure prediction by ZEFSAII (Michael W. Deem and Ramdas Pophale) SiO2 
 PCOD9426001
Probable space group: P B A M
;
_chemical_formula_sum "Si O2"
_cell_formula_units_Z 40
_cell_length_a 14.605736
_cell_length_b 12.559919
_cell_length_c 10.771129
_cell_angle_alpha 90.000000
_cell_angle_beta 90.000000
_cell_angle_gamma 90.000000
_cell_volume 1975.929806
_symmetry_space_group_name_H-M "P B A M"
_symmetry_group_IT_number 55
_symmetry_cell_setting 'orthorhombic'
loop_
_space_group_symop_operation_xyz
x,y,z
-x,-y,z
1/2+x,1/2-y,-z
1/2-x,1/2+y,-z
-x,-y,-z
x,y,-z
1/2-x,1/2+y,z
1/2+x,1/2-y,z
loop_
_atom_site_type_symbol
_atom_site_label
_atom_site_fract_x
_atom_site_fract_y
_atom_site_fract_z
Si Si1 0.696776 0.145358 0.140560
Si Si2 0.608921 0.515273 0.366724
Si Si3 0.598630 0.359181 0.145348
Si Si4 0.098586 0.556980 0.854044
Si Si5 0.105719 0.796082 0.211683
O O1 0.644295 0.248683 0.189990
O O2 0.803199 0.171822 0.138216
O O3 0.669448 0.031531 0.195911
O O4 0.660704 0.136446 0.000000
O O5 0.500000 0.500000 0.376033
O O6 0.649853 0.483255 0.500000
O O7 0.631229 0.448094 0.242762
O O8 0.621868 0.639999 0.339125
O O9 0.488872 0.341811 0.154756
O O10 0.622471 0.380664 0.000000
O O11 0.099261 0.669155 0.784393
O O12 0.000000 0.500000 0.847877
O O13 0.117399 0.583404 0.000000
#
# Coordination Sequence:
#
# PCOD9426001 Si02
#       5
#     8   8   8   8   8
#     4  10  21  33  53  88 124 154 192 243 300 351
#     4   9  21  40  60  82 115 157 195 242 301 352
#     4  10  20  36  59  91 122 152 197 246 293 354
#     4  10  19  34  54  81 123 160 190 238 303 358
#     4  11  21  35  59  82 118 160 202 241 296 356
#
# _framework density 20.243635000000001
#
# number of rings (size 3 to 8) (size 9 to 14) (size 15 to 20)
#    0.000    2.000    2.000    1.800    2.800    5.200 
#    0.000    1.000    0.000    1.800    0.000    0.000 
#    0.000    0.000    0.000    0.000    0.000    0.000 
#
# Total GULP energy -222909.078000 kJ/mol
# GULP energy per Si atom -5572.726950 kJ/mol
# Density = 2.019756 g / cm^3
# Si number density = 20.243635 Si / 1000 Ang^3
#
#
#
# Elastic Constant Matrix: (Units=GPa)
#
#
# Indices 1 2 3 4 5 6 
#
# 1 91.8548 36.8012 11.2446 0.0000 0.0000 0.0000
# 2 36.8012 175.4561 64.1808 0.0000 0.0000 0.0000
# 3 11.2446 64.1808 89.3092 0.0000 0.0000 0.0000
# 4 0.0000 0.0000 0.0000 21.9989 0.0000 0.0000
# 5 0.0000 0.0000 0.0000 0.0000 -22.5899 0.0000
# 6 0.0000 0.0000 0.0000 0.0000 0.0000 29.2372
#
#
#
# Elastic Compliance Matrix: (Units=1/GPa)
#
#
# Indices 1 2 3 4 5 6 
#
# 1 0.011896 -0.002642 0.000401 0.000000 0.000000 0.000000
# 2 -0.002642 0.008319 -0.005645 0.000000 0.000000 0.000000
# 3 0.000401 -0.005645 0.015204 0.000000 0.000000 0.000000
# 4 0.000000 0.000000 0.000000 0.045457 0.000000 0.000000
# 5 0.000000 0.000000 0.000000 0.000000 -0.044268 0.000000
# 6 0.000000 0.000000 0.000000 0.000000 0.000000 0.034203
#
#
# Mechanical properties :
#
#
# Convention : Reuss Voigt Hill
#
# Bulk Modulus (GPa) = 50.90282 64.56373 57.73328
# Shear Modulus (GPa) = 53.68728 22.02214 37.85471
#
# Velocity S-wave (km/s) = 5.15540 3.30184 4.32899
# Velocity P-wave (km/s) = 7.78699 6.81900 7.31902
#
# Compressibility (1/GPa) = 0.01964528
#
# Stress axis : x y z
#
# Youngs Moduli (GPa) = 84.06128 120.21286 65.77384
#
# Poissons Ratio (x) = 0.31757 -0.02635
# Poissons Ratio (y) = 0.22206 0.37132
# Poissons Ratio (z) = -0.03368 0.67865
#
# Static dielectric constant tensor:
#      x y z
#    x 1.744760 0.000000 0.000000 
#    y 0.000000 1.783160 0.000000 
#    z 0.000000 0.000000 1.744250 
# 
# From -- ./inp_files/12996.got.cif
#   From: 2010.05.17/outbox.cif.g08.bks.cpg/sg55_7_cif.got.tgz:12996.got - 2010.06.03 13:27:54.
