data_PCOD9426963
_publ_section_title
;
Structure prediction by ZEFSAII (Michael W. Deem and Ramdas Pophale) SiO2 
 PCOD9426963
Probable space group: P B A M
;
_chemical_formula_sum "Si O2"
_cell_formula_units_Z 48
_cell_length_a 19.472998
_cell_length_b 15.578155
_cell_length_c 8.576168
_cell_angle_alpha 90.000000
_cell_angle_beta 90.000000
_cell_angle_gamma 90.000000
_cell_volume 2601.609560
_symmetry_space_group_name_H-M "P B A M"
_symmetry_group_IT_number 55
_symmetry_cell_setting 'orthorhombic'
loop_
_space_group_symop_operation_xyz
x,y,z
-x,-y,z
1/2+x,1/2-y,-z
1/2-x,1/2+y,-z
-x,-y,-z
x,y,-z
1/2-x,1/2+y,z
1/2+x,1/2-y,z
loop_
_atom_site_type_symbol
_atom_site_label
_atom_site_fract_x
_atom_site_fract_y
_atom_site_fract_z
Si Si1 0.669746 0.843529 0.312561
Si Si2 0.579438 0.998249 0.186975
Si Si3 0.579640 0.502138 0.310923
Si Si4 0.326557 0.346564 0.814079
Si Si5 0.826854 0.844721 0.689118
Si Si6 0.174386 0.351089 0.312429
O O1 0.667290 0.842585 0.500000
O O2 0.655937 0.748021 0.250345
O O3 0.748399 0.865475 0.264684
O O4 0.617692 0.913651 0.248478
O O5 0.620632 0.080484 0.249388
O O6 0.500000 0.000000 0.237358
O O7 0.581593 0.998535 0.000000
O O8 0.500000 0.500000 0.265593
O O9 0.582947 0.505835 0.500000
O O10 0.618946 0.584047 0.244068
O O11 0.619859 0.416483 0.258024
O O12 0.251140 0.369940 0.748069
O O13 0.323826 0.344465 0.000000
O O14 0.828073 0.844899 0.500000
O O15 0.842258 0.746903 0.737428
O O16 0.175522 0.354331 0.500000
#
# Coordination Sequence:
#
# PCOD9426963 Si02
#       6
#     8   8   8   8   8   8
#     4  10  20  37  61  83 107 147 198 242 279 333
#     4  11  24  39  55  83 122 156 187 231 290 347
#     4  10  20  35  56  83 115 150 189 232 278 335
#     4  11  22  37  58  84 115 148 186 237 294 343
#     4   8  17  34  56  82 108 138 184 240 283 320
#     4  10  20  37  60  83 109 147 198 243 280 334
#
# _framework density 18.450115
#
# number of rings (size 3 to 8) (size 9 to 14) (size 15 to 20)
#    0.000    2.000    0.000    5.000    0.000    4.333 
#    0.000    5.833    0.000    0.000    0.000    0.000 
#    0.000    0.000    0.000    0.000    0.000    0.000 
#
# Total GULP energy -268132.154531 kJ/mol
# GULP energy per Si atom -5586.086553 kJ/mol
# Density = 1.840812 g / cm^3
# Si number density = 18.450115 Si / 1000 Ang^3
#
#
#
# Elastic Constant Matrix: (Units=GPa)
#
#
# Indices 1 2 3 4 5 6 
#
# 1 182.8944 150.7673 55.8027 0.0000 0.0000 0.0000
# 2 150.7673 151.6604 46.1534 0.0000 0.0000 0.0000
# 3 55.8027 46.1534 62.7151 0.0000 0.0000 0.0000
# 4 0.0000 0.0000 0.0000 19.6283 0.0000 0.0000
# 5 0.0000 0.0000 0.0000 0.0000 22.0469 0.0000
# 6 0.0000 0.0000 0.0000 0.0000 0.0000 -17.6383
#
#
#
# Elastic Compliance Matrix: (Units=1/GPa)
#
#
# Indices 1 2 3 4 5 6 
#
# 1 0.032266 -0.030074 -0.006577 0.000000 0.000000 0.000000
# 2 -0.030074 0.036528 -0.000122 0.000000 0.000000 0.000000
# 3 -0.006577 -0.000122 0.021887 0.000000 0.000000 0.000000
# 4 0.000000 0.000000 0.000000 0.050947 0.000000 0.000000
# 5 0.000000 0.000000 0.000000 0.000000 0.045358 0.000000
# 6 0.000000 0.000000 0.000000 0.000000 0.000000 -0.056695
#
#
# Mechanical properties :
#
#
# Convention : Reuss Voigt Hill
#
# Bulk Modulus (GPa) = 58.36436 100.30186 79.33311
# Shear Modulus (GPa) = 23.86068 14.44382 19.15225
#
# Velocity S-wave (km/s) = 3.60009 2.80100 3.22538
# Velocity P-wave (km/s) = 6.99879 8.05870 7.54737
#
# Compressibility (1/GPa) = 0.01713375
#
# Stress axis : x y z
#
# Youngs Moduli (GPa) = 30.99257 27.37625 45.68837
#
# Poissons Ratio (x) = 0.82332 0.30050
# Poissons Ratio (y) = 0.93208 0.00559
# Poissons Ratio (z) = 0.20384 0.00335
#
# Static dielectric constant tensor:
#      x y z
#    x 1.612000 0.000000 0.000000 
#    y 0.000000 1.617740 0.000000 
#    z 0.000000 0.000000 1.619130 
# 
# From -- ./inp_files/5684.got.cif
#   From: 2010.05.17/outbox.cif.g08.bks.cpg/sg55_3_cif.got.tgz:5684.got - 2010.06.03 13:27:54.
