data_PCOD9426205
_publ_section_title
;
Structure prediction by ZEFSAII (Michael W. Deem and Ramdas Pophale) SiO2 
 PCOD9426205
Probable space group: P B A M
;
_chemical_formula_sum "Si O2"
_cell_formula_units_Z 64
_cell_length_a 14.438164
_cell_length_b 25.810994
_cell_length_c 8.202888
_cell_angle_alpha 90.000000
_cell_angle_beta 90.000000
_cell_angle_gamma 90.000000
_cell_volume 3056.915840
_symmetry_space_group_name_H-M "P B A M"
_symmetry_group_IT_number 55
_symmetry_cell_setting 'orthorhombic'
loop_
_space_group_symop_operation_xyz
x,y,z
-x,-y,z
1/2+x,1/2-y,-z
1/2-x,1/2+y,-z
-x,-y,-z
x,y,-z
1/2-x,1/2+y,z
1/2+x,1/2-y,z
loop_
_atom_site_type_symbol
_atom_site_label
_atom_site_fract_x
_atom_site_fract_y
_atom_site_fract_z
Si Si1 0.055235 0.676417 0.692837
Si Si2 0.047952 0.788911 0.309280
Si Si3 0.346297 0.562837 0.196361
Si Si4 0.535655 0.597717 0.695880
Si Si5 0.725993 0.546113 0.802877
Si Si6 0.271789 0.783179 0.313527
Si Si7 0.262338 0.670159 0.807916
Si Si8 0.881916 0.621681 0.810934
O O1 0.074553 0.682008 0.500000
O O2 0.977502 0.633883 0.721831
O O3 0.018569 0.732718 0.755355
O O4 0.152095 0.665753 0.779660
O O5 0.021339 0.789813 0.500000
O O6 0.160343 0.788231 0.299804
O O7 0.017136 0.843822 0.237845
O O8 0.453509 0.560952 0.245209
O O9 0.290559 0.512564 0.254828
O O10 0.307481 0.617635 0.258567
O O11 0.339921 0.563389 0.000000
O O12 0.536511 0.599362 0.500000
O O13 0.635362 0.578441 0.753384
O O14 0.817993 0.575360 0.744147
O O15 0.730138 0.545906 0.000000
O O16 0.298598 0.794423 0.500000
O O17 0.294753 0.723687 0.273406
O O18 0.320153 0.826282 0.204749
O O19 0.280979 0.674355 0.000000
O O20 0.902574 0.611804 0.000000
#
# Coordination Sequence:
#
# PCOD9426205 Si02
#       8
#     8   8   8   8   8   8   8   8
#     4  10  21  38  59  84 118 157 188 233 296 353
#     4   8  17  33  52  79 113 148 182 218 276 342
#     4  10  23  41  59  81 114 156 195 236 290 344
#     4  11  21  35  57  87 118 150 192 238 283 338
#     4  10  22  41  60  81 116 156 194 236 287 343
#     4  10  19  35  57  81 116 155 186 229 291 348
#     4  10  21  39  60  85 115 149 196 246 286 338
#     4  11  22  36  58  88 115 149 198 244 285 339
#
# _framework density 20.936135
#
# number of rings (size 3 to 8) (size 9 to 14) (size 15 to 20)
#    0.000    2.000    1.250    3.000    1.750    3.500 
#    0.000    1.875    0.000    3.750    0.000    0.000 
#    0.000    0.000    0.000    0.000    0.000    0.000 
#
# Total GULP energy -357513.995290 kJ/mol
# GULP energy per Si atom -5586.156176 kJ/mol
# Density = 2.088848 g / cm^3
# Si number density = 20.936135 Si / 1000 Ang^3
#
#
#
# Elastic Constant Matrix: (Units=GPa)
#
#
# Indices 1 2 3 4 5 6 
#
# 1 34.4530 5.9623 -8.8965 0.0000 0.0000 0.0000
# 2 5.9623 83.1749 0.0785 0.0000 0.0000 0.0000
# 3 -8.8965 0.0785 16.6351 0.0000 0.0000 0.0000
# 4 0.0000 0.0000 0.0000 14.9815 0.0000 0.0000
# 5 0.0000 0.0000 0.0000 0.0000 -12.0528 0.0000
# 6 0.0000 0.0000 0.0000 0.0000 0.0000 33.8182
#
#
#
# Elastic Compliance Matrix: (Units=1/GPa)
#
#
# Indices 1 2 3 4 5 6 
#
# 1 0.034174 -0.002467 0.018288 0.000000 0.000000 0.000000
# 2 -0.002467 0.012201 -0.001377 0.000000 0.000000 0.000000
# 3 0.018288 -0.001377 0.069901 0.000000 0.000000 0.000000
# 4 0.000000 0.000000 0.000000 0.066749 0.000000 0.000000
# 5 0.000000 0.000000 0.000000 0.000000 -0.082968 0.000000
# 6 0.000000 0.000000 0.000000 0.000000 0.000000 0.029570
#
#
# Mechanical properties :
#
#
# Convention : Reuss Voigt Hill
#
# Bulk Modulus (GPa) = 6.88874 14.28353 10.58613
# Shear Modulus (GPa) = 33.52850 16.49062 25.00956
#
# Velocity S-wave (km/s) = 4.00617 2.80958 3.46000
# Velocity P-wave (km/s) = 4.96958 4.16680 4.58579
#
# Compressibility (1/GPa) = 0.14516448
#
# Stress axis : x y z
#
# Youngs Moduli (GPa) = 29.26167 81.96047 14.30600
#
# Poissons Ratio (x) = 0.20220 -0.26163
# Poissons Ratio (y) = 0.07219 0.01970
# Poissons Ratio (z) = -0.53514 0.11286
#
# Static dielectric constant tensor:
#      x y z
#    x 1.747430 0.000000 0.000000 
#    y 0.000000 1.785230 0.000000 
#    z 0.000000 0.000000 1.726560 
# 
# From -- ./inp_files/6627.got.cif
#   From: 2010.05.17/outbox.cif.g08.bks.cpg/sg55_4_cif.got.tgz:6627.got - 2010.06.03 13:27:54.
