data_PCOD9426093
_publ_section_title
;
Structure prediction by ZEFSAII (Michael W. Deem and Ramdas Pophale) SiO2 
 PCOD9426093
Probable space group: P B A M
;
_chemical_formula_sum "Si O2"
_cell_formula_units_Z 48
_cell_length_a 14.106105
_cell_length_b 18.756680
_cell_length_c 7.809228
_cell_angle_alpha 90.000000
_cell_angle_beta 90.000000
_cell_angle_gamma 90.000000
_cell_volume 2066.194419
_symmetry_space_group_name_H-M "P B A M"
_symmetry_group_IT_number 55
_symmetry_cell_setting 'orthorhombic'
loop_
_space_group_symop_operation_xyz
x,y,z
-x,-y,z
1/2+x,1/2-y,-z
1/2-x,1/2+y,-z
-x,-y,-z
x,y,-z
1/2-x,1/2+y,z
1/2+x,1/2-y,z
loop_
_atom_site_type_symbol
_atom_site_label
_atom_site_fract_x
_atom_site_fract_y
_atom_site_fract_z
Si Si1 0.104682 0.984003 0.200884
Si Si2 0.731576 0.116803 0.304556
Si Si3 0.822229 0.862476 0.706905
Si Si4 0.110246 0.517100 0.197018
Si Si5 0.124633 0.673843 0.693809
Si Si6 0.575129 0.227468 0.710153
O O1 0.163722 0.056855 0.233908
O O2 0.165357 0.914023 0.251617
O O3 0.092277 0.976330 0.000000
O O4 0.000000 0.000000 0.278917
O O5 0.744039 0.138182 0.500000
O O6 0.663269 0.178439 0.226890
O O7 0.666007 0.047203 0.282105
O O8 0.814656 0.864848 0.500000
O O9 0.728723 0.820893 0.773637
O O10 0.907798 0.809960 0.751966
O O11 0.116999 0.588539 0.304941
O O12 0.000000 0.500000 0.188432
O O13 0.144044 0.527128 0.000000
O O14 0.129230 0.702628 0.500000
O O15 0.027777 0.702346 0.774063
O O16 0.573676 0.220177 0.500000
#
# Coordination Sequence:
#
# PCOD9426093 Si02
#       6
#     8   8   8   8   8   8
#     4  11  25  43  61  84 119 161 204 250 300 356
#     4  11  21  36  61  90 117 151 197 247 299 354
#     4  10  21  38  61  88 117 158 204 245 297 357
#     4  11  21  32  53  86 120 150 187 234 288 352
#     4  10  19  34  57  83 115 154 194 240 295 350
#     4   9  20  36  57  90 125 154 195 251 304 354
#
# _framework density 23.231116
#
# number of rings (size 3 to 8) (size 9 to 14) (size 15 to 20)
#    0.000    1.667    3.333    1.500    0.000    3.333 
#    0.000    5.833    0.000    0.000    0.000    0.000 
#    0.000    0.000    0.000    0.000    0.000    0.000 
#
# Total GULP energy -267651.591781 kJ/mol
# GULP energy per Si atom -5576.074829 kJ/mol
# Density = 2.317824 g / cm^3
# Si number density = 23.231116 Si / 1000 Ang^3
#
#
#
# Elastic Constant Matrix: (Units=GPa)
#
#
# Indices 1 2 3 4 5 6 
#
# 1 111.8521 -2.5963 2.4967 0.0000 0.0000 0.0000
# 2 -2.5963 35.5013 -13.8262 0.0000 0.0000 0.0000
# 3 2.4967 -13.8262 31.8080 0.0000 0.0000 0.0000
# 4 0.0000 0.0000 0.0000 -335.2650 0.0000 0.0000
# 5 0.0000 0.0000 0.0000 0.0000 22.3281 0.0000
# 6 0.0000 0.0000 0.0000 0.0000 0.0000 36.1967
#
#
#
# Elastic Compliance Matrix: (Units=1/GPa)
#
#
# Indices 1 2 3 4 5 6 
#
# 1 0.008962 0.000459 -0.000504 0.000000 0.000000 0.000000
# 2 0.000459 0.033932 0.014713 0.000000 0.000000 0.000000
# 3 -0.000504 0.014713 0.037874 0.000000 0.000000 0.000000
# 4 0.000000 0.000000 0.000000 -0.002983 0.000000 0.000000
# 5 0.000000 0.000000 0.000000 0.000000 0.044787 0.000000
# 6 0.000000 0.000000 0.000000 0.000000 0.000000 0.027627
#
#
# Mechanical properties :
#
#
# Convention : Reuss Voigt Hill
#
# Bulk Modulus (GPa) = 9.08224 16.81219 12.94721
# Shear Modulus (GPa) = 31.73336 -42.47555 -5.37109
#
# Velocity S-wave (km/s) = 3.69993 -4.28061 -1.52218
# Velocity P-wave (km/s) = 4.70857 4.14473 1.57985
#
# Compressibility (1/GPa) = 0.11010503
#
# Stress axis : x y z
#
# Youngs Moduli (GPa) = 111.57867 29.47094 26.40355
#
# Poissons Ratio (x) = -0.01353 0.01330
# Poissons Ratio (y) = -0.05124 -0.38848
# Poissons Ratio (z) = 0.05622 -0.43362
#
# Static dielectric constant tensor:
#      x y z
#    x 2.040620 0.000000 0.000000 
#    y 0.000000 1.848970 0.000000 
#    z 0.000000 0.000000 1.878880 
# 
# From -- ./inp_files/5593.got.cif
#   From: 2010.05.17/outbox.cif.g08.bks.cpg/sg55_3_cif.got.tgz:5593.got - 2010.06.03 13:27:54.
