data_PCOD9426674
_publ_section_title
;
Structure prediction by ZEFSAII (Michael W. Deem and Ramdas Pophale) SiO2 
 PCOD9426674
Probable space group: P B A M
;
_chemical_formula_sum "Si O2"
_cell_formula_units_Z 56
_cell_length_a 14.094271
_cell_length_b 24.741075
_cell_length_c 7.558455
_cell_angle_alpha 90.000000
_cell_angle_beta 90.000000
_cell_angle_gamma 90.000000
_cell_volume 2635.689311
_symmetry_space_group_name_H-M "P B A M"
_symmetry_group_IT_number 55
_symmetry_cell_setting 'orthorhombic'
loop_
_space_group_symop_operation_xyz
x,y,z
-x,-y,z
1/2+x,1/2-y,-z
1/2-x,1/2+y,-z
-x,-y,-z
x,y,-z
1/2-x,1/2+y,z
1/2+x,1/2-y,z
loop_
_atom_site_type_symbol
_atom_site_label
_atom_site_fract_x
_atom_site_fract_y
_atom_site_fract_z
Si Si1 0.230432 0.565894 0.706118
Si Si2 0.911759 0.658985 0.216879
Si Si3 0.623111 0.827452 0.794475
Si Si4 0.701549 0.053938 0.786502
Si Si5 0.229373 0.776430 0.215788
Si Si6 0.058756 0.050462 0.706754
Si Si7 0.614017 0.618720 0.786680
O O1 0.237964 0.579907 0.500000
O O2 0.169916 0.613773 0.788016
O O3 0.185078 0.506626 0.723873
O O4 0.337186 0.560899 0.782939
O O5 0.872893 0.599816 0.269938
O O6 0.832641 0.702539 0.273203
O O7 0.017245 0.670689 0.282086
O O8 0.912721 0.658533 0.000000
O O9 0.692896 0.781454 0.720693
O O10 0.610316 0.812502 0.000000
O O11 0.805743 0.075327 0.729227
O O12 0.701769 0.053153 0.000000
O O13 0.153706 0.822860 0.266231
O O14 0.234041 0.776300 0.000000
O O15 0.074562 0.037480 0.500000
O O16 0.988453 0.101158 0.720497
O O17 0.000000 0.000000 0.785736
O O18 0.611210 0.617729 0.000000
#
# Coordination Sequence:
#
# PCOD9426674 Si02
#       7
#     8   8   8   8   8   8   8
#     4  11  23  36  50  72 107 140 173 219 263 308
#     4   8  16  32  54  79 106 135 167 210 258 306
#     4  10  20  35  56  79 105 138 173 210 258 310
#     4   9  17  32  53  76 103 135 174 213 255 307
#     4   8  16  32  54  81 108 134 170 214 257 305
#     4  10  20  34  50  72 106 144 173 205 264 323
#     4   9  17  30  53  82 106 132 174 222 255 297
#
# _framework density 21.246815000000002
#
# number of rings (size 3 to 8) (size 9 to 14) (size 15 to 20)
#    0.000    2.714    1.429    2.143    0.000    3.143 
#    0.000    7.143    0.000    2.571    0.000    0.000 
#    0.000    0.000    0.000    0.000    0.000    0.000 
#
# Total GULP energy -312524.987525 kJ/mol
# GULP energy per Si atom -5580.803349 kJ/mol
# Density = 2.119846 g / cm^3
# Si number density = 21.246815 Si / 1000 Ang^3
#
#
#
# Elastic Constant Matrix: (Units=GPa)
#
#
# Indices 1 2 3 4 5 6 
#
# 1 156.7881 83.7802 2.5741 0.0000 0.0000 0.0000
# 2 83.7802 146.4404 -7.6352 0.0000 0.0000 0.0000
# 3 2.5741 -7.6352 45.9960 0.0000 0.0000 0.0000
# 4 0.0000 0.0000 0.0000 42.4068 0.0000 0.0000
# 5 0.0000 0.0000 0.0000 0.0000 52.0186 0.0000
# 6 0.0000 0.0000 0.0000 0.0000 0.0000 21.0259
#
#
#
# Elastic Compliance Matrix: (Units=1/GPa)
#
#
# Indices 1 2 3 4 5 6 
#
# 1 0.009276 -0.005381 -0.001412 0.000000 0.000000 0.000000
# 2 -0.005381 0.010009 0.001963 0.000000 0.000000 0.000000
# 3 -0.001412 0.001963 0.022146 0.000000 0.000000 0.000000
# 4 0.000000 0.000000 0.000000 0.023581 0.000000 0.000000
# 5 0.000000 0.000000 0.000000 0.000000 0.019224 0.000000
# 6 0.000000 0.000000 0.000000 0.000000 0.000000 0.047560
#
#
# Mechanical properties :
#
#
# Convention : Reuss Voigt Hill
#
# Bulk Modulus (GPa) = 31.47541 56.29586 43.88563
# Shear Modulus (GPa) = 32.88426 41.12395 37.00410
#
# Velocity S-wave (km/s) = 3.93838 4.40424 4.17781
# Velocity P-wave (km/s) = 5.96049 7.23995 6.63115
#
# Compressibility (1/GPa) = 0.03177084
#
# Stress axis : x y z
#
# Youngs Moduli (GPa) = 107.79963 99.90544 45.15516
#
# Poissons Ratio (x) = 0.53757 0.06377
# Poissons Ratio (y) = 0.58005 -0.08862
# Poissons Ratio (z) = 0.15225 -0.19608
#
# Static dielectric constant tensor:
#      x y z
#    x 1.761180 0.000000 0.000000 
#    y 0.000000 1.747150 0.000000 
#    z 0.000000 0.000000 1.804980 
# 
# From -- ./inp_files/6100.got.cif
#   From: 2010.05.17/outbox.cif.g08.bks.cpg/sg55_4_cif.got.tgz:6100.got - 2010.06.03 13:27:54.
