data_PCOD9426103
_publ_section_title
;
Structure prediction by ZEFSAII (Michael W. Deem and Ramdas Pophale) SiO2 
 PCOD9426103
Probable space group: P B A M
;
_chemical_formula_sum "Si O2"
_cell_formula_units_Z 56
_cell_length_a 14.109397
_cell_length_b 23.256338
_cell_length_c 8.569868
_cell_angle_alpha 90.000000
_cell_angle_beta 90.000000
_cell_angle_gamma 90.000000
_cell_volume 2812.055688
_symmetry_space_group_name_H-M "P B A M"
_symmetry_group_IT_number 55
_symmetry_cell_setting 'orthorhombic'
loop_
_space_group_symop_operation_xyz
x,y,z
-x,-y,z
1/2+x,1/2-y,-z
1/2-x,1/2+y,-z
-x,-y,-z
x,y,-z
1/2-x,1/2+y,z
1/2+x,1/2-y,z
loop_
_atom_site_type_symbol
_atom_site_label
_atom_site_fract_x
_atom_site_fract_y
_atom_site_fract_z
Si Si1 0.075852 0.368462 0.819784
Si Si2 0.369233 0.753003 0.325197
Si Si3 0.177898 0.137076 0.183827
Si Si4 0.647832 0.713523 0.675656
Si Si5 0.776294 0.095818 0.689071
Si Si6 0.608011 0.482613 0.687094
Si Si7 0.385462 0.162691 0.312646
O O1 0.096859 0.300758 0.794697
O O2 0.168512 0.398628 0.747420
O O3 0.975226 0.375722 0.734653
O O4 0.067410 0.383242 0.000000
O O5 0.407496 0.763914 0.500000
O O6 0.379629 0.687701 0.271693
O O7 0.256501 0.764668 0.335016
O O8 0.136834 0.075406 0.227348
O O9 0.287214 0.140847 0.240183
O O10 0.174252 0.147965 0.000000
O O11 0.609873 0.705033 0.500000
O O12 0.660597 0.650340 0.748710
O O13 0.598924 0.770548 0.743242
O O14 0.774426 0.101064 0.500000
O O15 0.824555 0.035920 0.730682
O O16 0.500000 0.500000 0.719398
O O17 0.616932 0.473473 0.500000
O O18 0.375746 0.164329 0.500000
#
# Coordination Sequence:
#
# PCOD9426103 Si02
#       7
#     8   8   8   8   8   8   8
#     4  11  21  33  53  86 122 151 185 232 288 341
#     4   9  17  33  55  78 108 148 190 226 270 331
#     4  11  22  37  57  84 118 150 186 238 294 339
#     4   7  13  27  50  77 102 135 179 224 264 311
#     4   9  18  36  58  80 110 148 191 234 278 335
#     4  10  22  40  62  85 108 143 193 239 280 338
#     4  10  19  34  57  84 116 154 191 226 276 344
#
# _framework density 19.914256999999999
#
# number of rings (size 3 to 8) (size 9 to 14) (size 15 to 20)
#    0.000    2.429    0.000    5.143    0.000    2.000 
#    0.000    4.286    0.000    4.286    0.000    0.000 
#    0.000    0.000    0.000    0.000    0.000    0.000 
#
# Total GULP energy -312301.270193 kJ/mol
# GULP energy per Si atom -5576.808396 kJ/mol
# Density = 1.986893 g / cm^3
# Si number density = 19.914257 Si / 1000 Ang^3
#
#
#
# Elastic Constant Matrix: (Units=GPa)
#
#
# Indices 1 2 3 4 5 6 
#
# 1 31.8785 -9.2514 -1.2062 0.0000 0.0000 0.0000
# 2 -9.2514 72.8166 15.8795 0.0000 0.0000 0.0000
# 3 -1.2062 15.8795 47.7839 0.0000 0.0000 0.0000
# 4 0.0000 0.0000 0.0000 18.1084 0.0000 0.0000
# 5 0.0000 0.0000 0.0000 0.0000 14.7435 0.0000
# 6 0.0000 0.0000 0.0000 0.0000 0.0000 22.9393
#
#
#
# Elastic Compliance Matrix: (Units=1/GPa)
#
#
# Indices 1 2 3 4 5 6 
#
# 1 0.032586 0.004270 -0.000596 0.000000 0.000000 0.000000
# 2 0.004270 0.015366 -0.004999 0.000000 0.000000 0.000000
# 3 -0.000596 -0.004999 0.022574 0.000000 0.000000 0.000000
# 4 0.000000 0.000000 0.000000 0.055223 0.000000 0.000000
# 5 0.000000 0.000000 0.000000 0.000000 0.067826 0.000000
# 6 0.000000 0.000000 0.000000 0.000000 0.000000 0.043593
#
#
# Mechanical properties :
#
#
# Convention : Reuss Voigt Hill
#
# Bulk Modulus (GPa) = 14.73290 18.14698 16.43994
# Shear Modulus (GPa) = 19.05179 20.96206 20.00692
#
# Velocity S-wave (km/s) = 3.09640 3.24792 3.17306
# Velocity P-wave (km/s) = 4.49420 4.81640 4.65808
#
# Compressibility (1/GPa) = 0.06787531
#
# Stress axis : x y z
#
# Youngs Moduli (GPa) = 30.68824 65.07999 44.29956
#
# Poissons Ratio (x) = -0.27790 0.02642
# Poissons Ratio (y) = -0.13104 0.22143
# Poissons Ratio (z) = 0.01830 0.32530
#
# Static dielectric constant tensor:
#      x y z
#    x 1.733510 0.000000 0.000000 
#    y 0.000000 1.708320 0.000000 
#    z 0.000000 0.000000 1.682130 
# 
# From -- ./inp_files/6089.got.cif
#   From: 2010.05.17/outbox.cif.g08.bks.cpg/sg55_4_cif.got.tgz:6089.got - 2010.06.03 13:27:54.
