data_PCOD9426308
_publ_section_title
;
Structure prediction by ZEFSAII (Michael W. Deem and Ramdas Pophale) SiO2 
 PCOD9426308
Probable space group: P B A M
;
_chemical_formula_sum "Si O2"
_cell_formula_units_Z 56
_cell_length_a 8.267553
_cell_length_b 19.931743
_cell_length_c 14.731736
_cell_angle_alpha 90.000000
_cell_angle_beta 90.000000
_cell_angle_gamma 90.000000
_cell_volume 2427.594774
_symmetry_space_group_name_H-M "P B A M"
_symmetry_group_IT_number 55
_symmetry_cell_setting 'orthorhombic'
loop_
_space_group_symop_operation_xyz
x,y,z
-x,-y,z
1/2+x,1/2-y,-z
1/2-x,1/2+y,-z
-x,-y,-z
x,y,-z
1/2-x,1/2+y,z
1/2+x,1/2-y,z
loop_
_atom_site_type_symbol
_atom_site_label
_atom_site_fract_x
_atom_site_fract_y
_atom_site_fract_z
Si Si1 0.952663 0.407314 0.102543
Si Si2 0.896240 0.685584 0.657668
Si Si3 0.618406 0.223596 0.138369
Si Si4 0.842817 0.542673 0.267801
Si Si5 0.740526 0.322498 0.400298
Si Si6 0.050057 0.852596 0.100517
Si Si7 0.851898 0.920679 0.238812
O O1 0.997346 0.329471 0.095019
O O2 0.100186 0.438707 0.163622
O O3 0.797293 0.413441 0.166759
O O4 0.932123 0.433051 0.000000
O O5 0.924528 0.719886 0.755722
O O6 0.821558 0.612942 0.680337
O O7 0.797535 0.743098 0.607241
O O8 0.067147 0.671578 0.611543
O O9 0.593875 0.297888 0.102838
O O10 0.794455 0.192523 0.122810
O O11 0.690635 0.493840 0.276875
O O12 0.000000 0.500000 0.302643
O O13 0.688828 0.346111 0.500000
O O14 0.663502 0.365875 0.318705
O O15 0.008142 0.905746 0.177747
O O16 0.067047 0.881912 0.000000
#
# Coordination Sequence:
#
# PCOD9426308 Si02
#       7
#     8   8   8   8   8   8   8
#     4  10  19  35  62  92 129 169 218 269 315 384
#     4  11  22  44  67  95 129 168 207 273 329 383
#     4  11  21  38  57  88 130 172 221 268 328 376
#     4   9  19  39  66  92 133 171 219 257 321 389
#     4  12  24  42  69  99 126 160 213 273 331 392
#     4  12  23  34  57  90 133 178 222 266 314 380
#     4  11  22  40  61  94 131 172 217 264 325 385
#
# _framework density 23.068099
#
# number of rings (size 3 to 8) (size 9 to 14) (size 15 to 20)
#    0.000    1.143    5.714    3.857    0.000    3.143 
#    0.000    5.000    0.000    4.286    0.000    2.000 
#    0.000    0.000    0.000    0.000    0.000    0.000 
#
# Total GULP energy -313029.383277 kJ/mol
# GULP energy per Si atom -5589.810416 kJ/mol
# Density = 2.301560 g / cm^3
# Si number density = 23.068099 Si / 1000 Ang^3
#
#
#
# Elastic Constant Matrix: (Units=GPa)
#
#
# Indices 1 2 3 4 5 6 
#
# 1 53.2478 4.6611 8.0953 0.0000 0.0000 0.0000
# 2 4.6611 120.1784 25.1892 0.0000 0.0000 0.0000
# 3 8.0953 25.1892 129.9545 0.0000 0.0000 0.0000
# 4 0.0000 0.0000 0.0000 6.2325 0.0000 0.0000
# 5 0.0000 0.0000 0.0000 0.0000 -128.8192 0.0000
# 6 0.0000 0.0000 0.0000 0.0000 0.0000 40.9476
#
#
#
# Elastic Compliance Matrix: (Units=1/GPa)
#
#
# Indices 1 2 3 4 5 6 
#
# 1 0.018990 -0.000509 -0.001084 0.000000 0.000000 0.000000
# 2 -0.000509 0.008687 -0.001652 0.000000 0.000000 0.000000
# 3 -0.001084 -0.001652 0.008083 0.000000 0.000000 0.000000
# 4 0.000000 0.000000 0.000000 0.160449 0.000000 0.000000
# 5 0.000000 0.000000 0.000000 0.000000 -0.007763 0.000000
# 6 0.000000 0.000000 0.000000 0.000000 0.000000 0.024421
#
#
# Mechanical properties :
#
#
# Convention : Reuss Voigt Hill
#
# Bulk Modulus (GPa) = 34.16680 42.14132 38.15406
# Shear Modulus (GPa) = 21.82314 1.36784 11.59549
#
# Velocity S-wave (km/s) = 3.07910 0.77087 2.24445
# Velocity P-wave (km/s) = 5.24257 4.37038 4.82622
#
# Compressibility (1/GPa) = 0.02926818
#
# Stress axis : x y z
#
# Youngs Moduli (GPa) = 52.66058 115.11473 123.72007
#
# Poissons Ratio (x) = 0.05862 0.13414
# Poissons Ratio (y) = 0.02682 0.20440
# Poissons Ratio (z) = 0.05709 0.19018
#
# Static dielectric constant tensor:
#      x y z
#    x 1.930870 0.000000 0.000000 
#    y 0.000000 1.905700 0.000000 
#    z 0.000000 0.000000 1.877890 
# 
# From -- ./inp_files/17617.got.cif
#   From: 2010.05.17/outbox.cif.g08.bks.cpg/sg55_9_cif.got.tgz:17617.got - 2010.06.03 13:27:54.
