data_PCOD9427303
_publ_section_title
;
Structure prediction by ZEFSAII (Michael W. Deem and Ramdas Pophale) SiO2 
 PCOD9427303
Probable space group: P B A M
;
_chemical_formula_sum "Si O2"
_cell_formula_units_Z 48
_cell_length_a 9.388102
_cell_length_b 17.800540
_cell_length_c 13.147014
_cell_angle_alpha 90.000000
_cell_angle_beta 90.000000
_cell_angle_gamma 90.000000
_cell_volume 2197.040700
_symmetry_space_group_name_H-M "P B A M"
_symmetry_group_IT_number 55
_symmetry_cell_setting 'orthorhombic'
loop_
_space_group_symop_operation_xyz
x,y,z
-x,-y,z
1/2+x,1/2-y,-z
1/2-x,1/2+y,-z
-x,-y,-z
x,y,-z
1/2-x,1/2+y,z
1/2+x,1/2-y,z
loop_
_atom_site_type_symbol
_atom_site_label
_atom_site_fract_x
_atom_site_fract_y
_atom_site_fract_z
Si Si1 0.502440 0.342231 0.387027
Si Si2 0.789206 0.405529 0.685935
Si Si3 0.133835 0.682532 0.113616
Si Si4 0.443414 0.827788 0.385967
Si Si5 0.193429 0.329091 0.829364
Si Si6 0.635788 0.544839 0.227288
O O1 0.458850 0.366309 0.500000
O O2 0.671270 0.357709 0.374212
O O3 0.478393 0.253289 0.376604
O O4 0.434672 0.392588 0.300031
O O5 0.806693 0.371256 0.798824
O O6 0.729628 0.488779 0.703446
O O7 0.940718 0.392815 0.632895
O O8 0.200899 0.763984 0.135633
O O9 0.962668 0.683187 0.123985
O O10 0.173426 0.658889 0.000000
O O11 0.383902 0.831960 0.500000
O O12 0.335255 0.827677 0.292462
O O13 0.263681 0.410013 0.849533
O O14 0.500000 0.500000 0.183509
#
# Coordination Sequence:
#
# PCOD9427303 Si02
#       6
#     8   8   8   8   8   8
#     4  10  20  36  61  95 134 179 225 265 320 389
#     4  10  21  39  62  91 133 172 217 271 324 395
#     4  11  24  43  72  98 125 167 222 280 336 390
#     4  10  21  36  63  97 131 174 224 274 326 383
#     4  11  23  44  67  98 133 170 218 275 323 392
#     4  10  23  40  63  92 135 183 213 263 331 395
#
# _framework density 21.847570000000001
#
# number of rings (size 3 to 8) (size 9 to 14) (size 15 to 20)
#    0.000    1.667    1.667    3.000    2.333    7.000 
#    0.000    3.333    0.000    6.500    0.000    0.000 
#    0.000    0.000    0.000    0.000    0.000    0.000 
#
# Total GULP energy -268246.763296 kJ/mol
# GULP energy per Si atom -5588.474235 kJ/mol
# Density = 2.179784 g / cm^3
# Si number density = 21.847570 Si / 1000 Ang^3
#
#
#
# Elastic Constant Matrix: (Units=GPa)
#
#
# Indices 1 2 3 4 5 6 
#
# 1 92.8264 30.8931 3.5280 0.0000 0.0000 0.0000
# 2 30.8931 42.0586 -2.3672 0.0000 0.0000 0.0000
# 3 3.5280 -2.3672 88.5167 0.0000 0.0000 0.0000
# 4 0.0000 0.0000 0.0000 -1.4885 0.0000 0.0000
# 5 0.0000 0.0000 0.0000 0.0000 -8.4911 0.0000
# 6 0.0000 0.0000 0.0000 0.0000 0.0000 22.4881
#
#
#
# Elastic Compliance Matrix: (Units=1/GPa)
#
#
# Indices 1 2 3 4 5 6 
#
# 1 0.014322 -0.010568 -0.000853 0.000000 0.000000 0.000000
# 2 -0.010568 0.031610 0.001267 0.000000 0.000000 0.000000
# 3 -0.000853 0.001267 0.011365 0.000000 0.000000 0.000000
# 4 0.000000 0.000000 0.000000 -0.671823 0.000000 0.000000
# 5 0.000000 0.000000 0.000000 0.000000 -0.117770 0.000000
# 6 0.000000 0.000000 0.000000 0.000000 0.000000 0.044468
#
#
# Mechanical properties :
#
#
# Convention : Reuss Voigt Hill
#
# Bulk Modulus (GPa) = 27.03606 31.94552 29.49079
# Shear Modulus (GPa) = -7.63140 15.25821 3.81340
#
# Velocity S-wave (km/s) = -1.87099 2.64558 1.32259
# Velocity P-wave (km/s) = 2.78105 4.89754 3.98247
#
# Compressibility (1/GPa) = 0.03698763
#
# Stress axis : x y z
#
# Youngs Moduli (GPa) = 69.82079 31.63531 87.98797
#
# Poissons Ratio (x) = 0.33433 0.07510
# Poissons Ratio (y) = 0.73788 -0.11144
# Poissons Ratio (z) = 0.05959 -0.04007
#
# Static dielectric constant tensor:
#      x y z
#    x 1.849380 0.000000 0.000000 
#    y 0.000000 1.796860 0.000000 
#    z 0.000000 0.000000 1.779550 
# 
# From -- ./inp_files/17331.got.cif
#   From: 2010.05.17/outbox.cif.g08.bks.cpg/sg55_9_cif.got.tgz:17331.got - 2010.06.03 13:27:54.
