data_PCOD9427644
_publ_section_title
;
Structure prediction by ZEFSAII (Michael W. Deem and Ramdas Pophale) SiO2 
 PCOD9427644
Probable space group: P B A M
;
_chemical_formula_sum "Si O2"
_cell_formula_units_Z 64
_cell_length_a 11.019110
_cell_length_b 21.556755
_cell_length_c 13.113690
_cell_angle_alpha 90.000000
_cell_angle_beta 90.000000
_cell_angle_gamma 90.000000
_cell_volume 3114.976806
_symmetry_space_group_name_H-M "P B A M"
_symmetry_group_IT_number 55
_symmetry_cell_setting 'orthorhombic'
loop_
_space_group_symop_operation_xyz
x,y,z
-x,-y,z
1/2+x,1/2-y,-z
1/2-x,1/2+y,-z
-x,-y,-z
x,y,-z
1/2-x,1/2+y,z
1/2+x,1/2-y,z
loop_
_atom_site_type_symbol
_atom_site_label
_atom_site_fract_x
_atom_site_fract_y
_atom_site_fract_z
Si Si1 0.968294 0.139587 0.219009
Si Si2 0.660944 0.286341 0.883517
Si Si3 0.112561 0.047030 0.111455
Si Si4 0.388186 0.835847 0.773304
Si Si5 0.261355 0.949191 0.202648
Si Si6 0.338228 0.165016 0.289310
Si Si7 0.861229 0.474267 0.379300
Si Si8 0.813485 0.203429 0.618205
O O1 0.849272 0.099825 0.191285
O O2 0.929932 0.175179 0.321304
O O3 0.023959 0.189343 0.140496
O O4 0.074292 0.088108 0.208812
O O5 0.663070 0.214795 0.850787
O O6 0.751540 0.322919 0.807983
O O7 0.694601 0.292536 0.000000
O O8 0.231668 0.006753 0.130687
O O9 0.118765 0.078689 0.000000
O O10 0.000000 0.000000 0.104274
O O11 0.375892 0.905525 0.814829
O O12 0.525107 0.822850 0.746049
O O13 0.304058 0.826884 0.672825
O O14 0.276232 0.979449 0.314241
O O15 0.340619 0.096088 0.337911
O O16 0.306257 0.222307 0.364569
O O17 0.837121 0.475846 0.500000
O O18 0.000000 0.500000 0.364219
O O19 0.818704 0.188611 0.500000
#
# Coordination Sequence:
#
# PCOD9427644 Si02
#       8
#     8   8   8   8   8   8   8   8
#     4  10  20  39  61  96 130 164 213 272 326 382
#     4  11  24  42  68  98 133 173 217 270 335 395
#     4   9  18  34  59  87 118 162 207 250 311 379
#     4  10  22  41  62  94 134 167 212 271 324 389
#     4  10  21  39  63  91 131 168 214 271 319 386
#     4  11  22  44  64  96 131 169 216 274 320 388
#     4  11  23  39  65  92 122 172 222 264 324 392
#     4  10  22  39  64  93 125 169 212 265 332 391
#
# _framework density 20.545898999999999
#
# number of rings (size 3 to 8) (size 9 to 14) (size 15 to 20)
#    0.000    1.750    2.500    1.500    0.000    4.500 
#    0.000    5.625    0.000    7.500    0.000    0.000 
#    0.000    0.000    0.000    0.000    0.000    0.000 
#
# Total GULP energy -356448.194791 kJ/mol
# GULP energy per Si atom -5569.503044 kJ/mol
# Density = 2.049914 g / cm^3
# Si number density = 20.545899 Si / 1000 Ang^3
#
#
#
# Elastic Constant Matrix: (Units=GPa)
#
#
# Indices 1 2 3 4 5 6 
#
# 1 65.2370 13.6598 34.9046 0.0000 0.0000 0.0000
# 2 13.6598 98.6228 36.3249 0.0000 0.0000 0.0000
# 3 34.9046 36.3249 125.8890 0.0000 0.0000 0.0000
# 4 0.0000 0.0000 0.0000 1.6825 0.0000 0.0000
# 5 0.0000 0.0000 0.0000 0.0000 18.9661 0.0000
# 6 0.0000 0.0000 0.0000 0.0000 0.0000 27.5264
#
#
#
# Elastic Compliance Matrix: (Units=1/GPa)
#
#
# Indices 1 2 3 4 5 6 
#
# 1 0.018046 -0.000735 -0.004792 0.000000 0.000000 0.000000
# 2 -0.000735 0.011375 -0.003079 0.000000 0.000000 0.000000
# 3 -0.004792 -0.003079 0.010160 0.000000 0.000000 0.000000
# 4 0.000000 0.000000 0.000000 0.594368 0.000000 0.000000
# 5 0.000000 0.000000 0.000000 0.000000 0.052726 0.000000
# 6 0.000000 0.000000 0.000000 0.000000 0.000000 0.036329
#
#
# Mechanical properties :
#
#
# Convention : Reuss Voigt Hill
#
# Bulk Modulus (GPa) = 44.69834 51.05860 47.87847
# Shear Modulus (GPa) = 6.68742 23.29227 14.98985
#
# Velocity S-wave (km/s) = 1.80608 3.37065 2.70400
# Velocity P-wave (km/s) = 5.11389 6.32877 5.75349
#
# Compressibility (1/GPa) = 0.02237220
#
# Stress axis : x y z
#
# Youngs Moduli (GPa) = 55.41305 87.90960 98.42153
#
# Poissons Ratio (x) = 0.06458 0.47160
# Poissons Ratio (y) = 0.04071 0.30300
# Poissons Ratio (z) = 0.26552 0.27064
#
# Static dielectric constant tensor:
#      x y z
#    x 1.747370 0.000000 0.000000 
#    y 0.000000 1.826810 0.000000 
#    z 0.000000 0.000000 1.706930 
# 
# From -- ./inp_files/13580.got.cif
#   From: 2010.05.17/outbox.cif.g08.bks.cpg/sg55_7_cif.got.tgz:13580.got - 2010.06.03 13:27:54.
