data_PCOD9427847
_publ_section_title
;
Structure prediction by ZEFSAII (Michael W. Deem and Ramdas Pophale) SiO2 
 PCOD9427847
Probable space group: P B A M
;
_chemical_formula_sum "Si O2"
_cell_formula_units_Z 36
_cell_length_a 15.649590
_cell_length_b 5.156809
_cell_length_c 23.294072
_cell_angle_alpha 90.000000
_cell_angle_beta 90.000000
_cell_angle_gamma 90.000000
_cell_volume 1879.876954
_symmetry_space_group_name_H-M "P B A M"
_symmetry_group_IT_number 55
_symmetry_cell_setting 'orthorhombic'
loop_
_space_group_symop_operation_xyz
x,y,z
-x,-y,z
1/2+x,1/2-y,-z
1/2-x,1/2+y,-z
-x,-y,-z
x,y,-z
1/2-x,1/2+y,z
1/2+x,1/2-y,z
loop_
_atom_site_type_symbol
_atom_site_label
_atom_site_fract_x
_atom_site_fract_y
_atom_site_fract_z
Si Si1 0.190449 0.324516 0.000000
Si Si2 0.559769 0.248381 0.435651
Si Si3 0.309764 0.696662 0.205217
Si Si4 0.059067 0.246731 0.104069
Si Si5 0.695115 0.346816 0.336990
O O1 0.129709 0.293352 0.055108
O O2 0.238410 0.599273 0.000000
O O3 0.500000 0.500000 0.434665
O O4 0.598346 0.227911 0.500000
O O5 0.628369 0.276663 0.385862
O O6 0.500000 0.000000 0.426782
O O7 0.247818 0.451491 0.195499
O O8 0.389226 0.694682 0.162566
O O9 0.337807 0.690299 0.271900
O O10 0.000000 0.500000 0.109031
O O11 0.000000 0.000000 0.089879
O O12 0.727364 0.641478 0.342722
#
# Coordination Sequence:
#
# PCOD9427847 Si02
#       5
#     4   8   8   8   8
#     4  12  24  42  64  84 114 156 188 222 278 332
#     4  10  21  36  54  78 110 145 181 225 279 334
#     4  10  21  39  58  81 113 149 185 222 275 335
#     4  12  24  39  60  89 117 144 186 235 274 319
#     4  10  21  36  57  82 109 143 186 231 270 323
#
# _framework density 19.150191
#
# number of rings (size 3 to 8) (size 9 to 14) (size 15 to 20)
#    0.000    1.333    0.000    6.000    0.000    2.667 
#    0.000    0.000    0.000    0.000    0.000    0.000 
#    0.000    0.000    0.000    0.000    0.000    0.000 
#
# Total GULP energy -201286.165551 kJ/mol
# GULP energy per Si atom -5591.282376 kJ/mol
# Density = 1.910660 g / cm^3
# Si number density = 19.150191 Si / 1000 Ang^3
#
#
#
# Elastic Constant Matrix: (Units=GPa)
#
#
# Indices 1 2 3 4 5 6 
#
# 1 49.5307 -12.6000 40.9557 0.0000 0.0000 0.0000
# 2 -12.6000 76.8813 -17.4284 0.0000 0.0000 0.0000
# 3 40.9557 -17.4284 68.2770 0.0000 0.0000 0.0000
# 4 0.0000 0.0000 0.0000 9.5123 0.0000 0.0000
# 5 0.0000 0.0000 0.0000 0.0000 75.1482 0.0000
# 6 0.0000 0.0000 0.0000 0.0000 0.0000 23.8648
#
#
#
# Elastic Compliance Matrix: (Units=1/GPa)
#
#
# Indices 1 2 3 4 5 6 
#
# 1 0.040161 0.001190 -0.023787 0.000000 0.000000 0.000000
# 2 0.001190 0.013841 0.002819 0.000000 0.000000 0.000000
# 3 -0.023787 0.002819 0.029634 0.000000 0.000000 0.000000
# 4 0.000000 0.000000 0.000000 0.105128 0.000000 0.000000
# 5 0.000000 0.000000 0.000000 0.000000 0.013307 0.000000
# 6 0.000000 0.000000 0.000000 0.000000 0.000000 0.041903
#
#
# Mechanical properties :
#
#
# Convention : Reuss Voigt Hill
#
# Bulk Modulus (GPa) = 22.68538 24.06040 23.37289
# Shear Modulus (GPa) = 16.76604 33.95584 25.36094
#
# Velocity S-wave (km/s) = 2.96210 4.21543 3.64307
# Velocity P-wave (km/s) = 4.85494 6.02366 5.47060
#
# Compressibility (1/GPa) = 0.04408126
#
# Stress axis : x y z
#
# Youngs Moduli (GPa) = 24.89999 72.24808 33.74480
#
# Poissons Ratio (x) = -0.08595 0.80267
# Poissons Ratio (y) = -0.02962 -0.09514
# Poissons Ratio (z) = 0.59228 -0.20370
#
# Static dielectric constant tensor:
#      x y z
#    x 1.617100 0.000000 0.000000 
#    y 0.000000 1.657970 0.000000 
#    z 0.000000 0.000000 1.669420 
# 
# From -- ./inp_files/23520.got.cif
#   From: 2010.05.17/outbox.cif.g08.bks.cpg/sg55_12_cif.got.tgz:23520.got - 2010.06.03 13:27:54.
