data_PCOD9427040
_publ_section_title
;
Structure prediction by ZEFSAII (Michael W. Deem and Ramdas Pophale) SiO2 
 PCOD9427040
Probable space group: P B A M
;
_chemical_formula_sum "Si O2"
_cell_formula_units_Z 64
_cell_length_a 18.901027
_cell_length_b 20.324688
_cell_length_c 7.634917
_cell_angle_alpha 90.000000
_cell_angle_beta 90.000000
_cell_angle_gamma 90.000000
_cell_volume 2933.010449
_symmetry_space_group_name_H-M "P B A M"
_symmetry_group_IT_number 55
_symmetry_cell_setting 'orthorhombic'
loop_
_space_group_symop_operation_xyz
x,y,z
-x,-y,z
1/2+x,1/2-y,-z
1/2-x,1/2+y,-z
-x,-y,-z
x,y,-z
1/2-x,1/2+y,z
1/2+x,1/2-y,z
loop_
_atom_site_type_symbol
_atom_site_label
_atom_site_fract_x
_atom_site_fract_y
_atom_site_fract_z
Si Si1 0.330671 0.384695 0.704504
Si Si2 0.454532 0.939548 0.206951
Si Si3 0.294912 0.976832 0.712797
Si Si4 0.609219 0.328374 0.290474
Si Si5 0.514800 0.575152 0.714314
Si Si6 0.262639 0.125644 0.288229
Si Si7 0.981372 0.706938 0.211139
Si Si8 0.635299 0.756006 0.206030
O O1 0.333876 0.402831 0.500000
O O2 0.265603 0.426605 0.776848
O O3 0.407921 0.402778 0.777964
O O4 0.323541 0.306282 0.716832
O O5 0.372146 0.955030 0.227650
O O6 0.472133 0.867224 0.278672
O O7 0.500000 0.000000 0.282140
O O8 0.471296 0.936284 0.000000
O O9 0.295768 0.976219 0.500000
O O10 0.277674 0.051231 0.769981
O O11 0.611735 0.336634 0.500000
O O12 0.547580 0.376905 0.223614
O O13 0.686584 0.348054 0.223996
O O14 0.583556 0.254546 0.254752
O O15 0.500000 0.500000 0.762683
O O16 0.514783 0.578408 0.500000
O O17 0.261026 0.124744 0.500000
O O18 0.323549 0.176242 0.234916
O O19 0.055320 0.737757 0.277307
O O20 0.986090 0.704432 0.000000
O O21 0.630734 0.743544 0.000000
#
# Coordination Sequence:
#
# PCOD9427040 Si02
#       8
#     8   8   8   8   8   8   8   8
#     4  10  20  36  58  86 119 153 189 237 291 342
#     4  10  22  41  63  84 113 155 200 244 295 351
#     4  10  22  39  60  89 121 151 191 245 298 350
#     4  10  20  35  58  87 115 150 191 234 285 343
#     4   9  16  30  56  85 112 146 186 225 275 339
#     4  10  22  39  59  86 119 151 191 243 295 350
#     4  10  22  39  58  83 116 152 194 243 288 342
#     4  11  23  39  60  84 115 158 201 239 289 350
#
# _framework density 21.820585000000001
#
# number of rings (size 3 to 8) (size 9 to 14) (size 15 to 20)
#    0.000    2.000    1.250    1.875    1.750    6.750 
#    0.000    0.000    0.000    3.000    0.000    0.000 
#    0.000    0.000    0.000    0.000    0.000    0.000 
#
# Total GULP energy -357702.966093 kJ/mol
# GULP energy per Si atom -5589.108845 kJ/mol
# Density = 2.177092 g / cm^3
# Si number density = 21.820585 Si / 1000 Ang^3
#
#
#
# Elastic Constant Matrix: (Units=GPa)
#
#
# Indices 1 2 3 4 5 6 
#
# 1 76.8710 17.3468 -13.3979 0.0000 0.0000 0.0000
# 2 17.3468 118.7381 -15.8226 0.0000 0.0000 0.0000
# 3 -13.3979 -15.8226 37.9003 0.0000 0.0000 0.0000
# 4 0.0000 0.0000 0.0000 100.6594 0.0000 0.0000
# 5 0.0000 0.0000 0.0000 0.0000 17.3745 0.0000
# 6 0.0000 0.0000 0.0000 0.0000 0.0000 44.7844
#
#
#
# Elastic Compliance Matrix: (Units=1/GPa)
#
#
# Indices 1 2 3 4 5 6 
#
# 1 0.014104 -0.001478 0.004369 0.000000 0.000000 0.000000
# 2 -0.001478 0.009073 0.003265 0.000000 0.000000 0.000000
# 3 0.004369 0.003265 0.029292 0.000000 0.000000 0.000000
# 4 0.000000 0.000000 0.000000 0.009934 0.000000 0.000000
# 5 0.000000 0.000000 0.000000 0.000000 0.057556 0.000000
# 6 0.000000 0.000000 0.000000 0.000000 0.000000 0.022329
#
#
# Mechanical properties :
#
#
# Convention : Reuss Voigt Hill
#
# Bulk Modulus (GPa) = 15.43682 23.30687 19.37185
# Shear Modulus (GPa) = 32.98781 48.92252 40.95516
#
# Velocity S-wave (km/s) = 3.89237 4.74015 4.33703
# Velocity P-wave (km/s) = 5.22404 6.37676 5.82896
#
# Compressibility (1/GPa) = 0.06478017
#
# Stress axis : x y z
#
# Youngs Moduli (GPa) = 70.90280 110.21742 34.13846
#
# Poissons Ratio (x) = 0.16294 -0.14914
# Poissons Ratio (y) = 0.10482 -0.11147
# Poissons Ratio (z) = -0.30974 -0.35988
#
# Static dielectric constant tensor:
#      x y z
#    x 1.761380 0.000000 0.000000 
#    y 0.000000 1.772480 0.000000 
#    z 0.000000 0.000000 1.828620 
# 
# From -- ./inp_files/7976.got.cif
#   From: 2010.05.17/outbox.cif.g08.bks.cpg/sg55_4_cif.got.tgz:7976.got - 2010.06.03 13:27:54.
