data_PCOD9427018
_publ_section_title
;
Structure prediction by ZEFSAII (Michael W. Deem and Ramdas Pophale) SiO2 
 PCOD9427018
Probable space group: P B A M
;
_chemical_formula_sum "Si O2"
_cell_formula_units_Z 56
_cell_length_a 8.677580
_cell_length_b 18.972384
_cell_length_c 16.523076
_cell_angle_alpha 90.000000
_cell_angle_beta 90.000000
_cell_angle_gamma 90.000000
_cell_volume 2720.266372
_symmetry_space_group_name_H-M "P B A M"
_symmetry_group_IT_number 55
_symmetry_cell_setting 'orthorhombic'
loop_
_space_group_symop_operation_xyz
x,y,z
-x,-y,z
1/2+x,1/2-y,-z
1/2-x,1/2+y,-z
-x,-y,-z
x,y,-z
1/2-x,1/2+y,z
1/2+x,1/2-y,z
loop_
_atom_site_type_symbol
_atom_site_label
_atom_site_fract_x
_atom_site_fract_y
_atom_site_fract_z
Si Si1 0.847412 0.548243 0.157446
Si Si2 0.065499 0.725237 0.729590
Si Si3 0.357495 0.547673 0.748109
Si Si4 0.814776 0.008930 0.589416
Si Si5 0.792455 0.645859 0.316696
Si Si6 0.349443 0.681518 0.174931
Si Si7 0.447356 0.705604 0.000000
Si Si8 0.702142 0.144933 0.000000
O O1 0.723701 0.487283 0.175473
O O2 0.827939 0.600271 0.234923
O O3 0.000000 0.500000 0.153853
O O4 0.819807 0.595665 0.078542
O O5 0.167627 0.790461 0.695208
O O6 0.183161 0.679763 0.783449
O O7 0.958019 0.683628 0.666456
O O8 0.941218 0.750732 0.795912
O O9 0.500000 0.500000 0.729571
O O10 0.264335 0.543304 0.663596
O O11 0.430534 0.619454 0.777162
O O12 0.748364 0.994721 0.500000
O O13 0.768131 0.087494 0.619824
O O14 0.000000 0.000000 0.579741
O O15 0.363753 0.676769 0.079994
O O16 0.418842 0.790004 0.000000
O O17 0.626453 0.681137 0.000000
#
# Coordination Sequence:
#
# PCOD9427018 Si02
#       8
#     8   8   8   8   8   8   4   4
#     4  11  23  38  57  81 116 158 204 260 314 366
#     4  10  20  35  58  82 116 160 203 251 301 363
#     4  10  20  36  59  84 113 151 196 246 301 362
#     4   9  18  35  62  92 121 155 197 246 297 360
#     4  10  20  37  59  88 119 159 207 250 307 370
#     4  11  21  36  56  84 114 155 204 250 306 363
#     4  12  24  37  59  85 119 160 208 265 310 375
#     4  12  25  41  57  85 120 158 209 257 316 375
#
# _framework density 20.586220000000001
#
# number of rings (size 3 to 8) (size 9 to 14) (size 15 to 20)
#    0.000    1.571    0.000    7.929    0.000    1.714 
#    0.000    2.143    0.000   18.857    0.000    0.000 
#    0.000    0.000    0.000    0.000    0.000    0.000 
#
# Total GULP energy -311757.664398 kJ/mol
# GULP energy per Si atom -5567.101150 kJ/mol
# Density = 2.053936 g / cm^3
# Si number density = 20.586220 Si / 1000 Ang^3
#
#
#
# Elastic Constant Matrix: (Units=GPa)
#
#
# Indices 1 2 3 4 5 6 
#
# 1 71.8073 7.3871 9.3335 0.0000 0.0000 0.0000
# 2 7.3871 54.2900 37.7347 0.0000 0.0000 0.0000
# 3 9.3335 37.7347 114.6228 0.0000 0.0000 0.0000
# 4 0.0000 0.0000 0.0000 14.9009 0.0000 0.0000
# 5 0.0000 0.0000 0.0000 0.0000 9.0850 0.0000
# 6 0.0000 0.0000 0.0000 0.0000 0.0000 45.8874
#
#
#
# Elastic Compliance Matrix: (Units=1/GPa)
#
#
# Indices 1 2 3 4 5 6 
#
# 1 0.014164 -0.001460 -0.000673 0.000000 0.000000 0.000000
# 2 -0.001460 0.024035 -0.007794 0.000000 0.000000 0.000000
# 3 -0.000673 -0.007794 0.011345 0.000000 0.000000 0.000000
# 4 0.000000 0.000000 0.000000 0.067110 0.000000 0.000000
# 5 0.000000 0.000000 0.000000 0.000000 0.110071 0.000000
# 6 0.000000 0.000000 0.000000 0.000000 0.000000 0.021792
#
#
# Mechanical properties :
#
#
# Convention : Reuss Voigt Hill
#
# Bulk Modulus (GPa) = 33.67958 38.84784 36.26371
# Shear Modulus (GPa) = 17.96833 26.39230 22.18032
#
# Velocity S-wave (km/s) = 2.95758 3.58444 3.28599
# Velocity P-wave (km/s) = 5.29706 6.00356 5.66134
#
# Compressibility (1/GPa) = 0.02969159
#
# Stress axis : x y z
#
# Youngs Moduli (GPa) = 70.60264 41.60547 88.14598
#
# Poissons Ratio (x) = 0.06073 0.05931
# Poissons Ratio (y) = 0.10305 0.68699
# Poissons Ratio (z) = 0.04750 0.32426
#
# Static dielectric constant tensor:
#      x y z
#    x 1.782030 0.000000 0.000000 
#    y 0.000000 1.780010 0.000000 
#    z 0.000000 0.000000 1.750720 
# 
# From -- ./inp_files/17699.got.cif
#   From: 2010.05.17/outbox.cif.g08.bks.cpg/sg55_9_cif.got.tgz:17699.got - 2010.06.03 13:27:54.
