data_PCOD9427086
_publ_section_title
;
Structure prediction by ZEFSAII (Michael W. Deem and Ramdas Pophale) SiO2 
 PCOD9427086
Probable space group: P B A M
;
_chemical_formula_sum "Si O2"
_cell_formula_units_Z 56
_cell_length_a 12.251606
_cell_length_b 16.894101
_cell_length_c 12.004462
_cell_angle_alpha 90.000000
_cell_angle_beta 90.000000
_cell_angle_gamma 90.000000
_cell_volume 2484.681974
_symmetry_space_group_name_H-M "P B A M"
_symmetry_group_IT_number 55
_symmetry_cell_setting 'orthorhombic'
loop_
_space_group_symop_operation_xyz
x,y,z
-x,-y,z
1/2+x,1/2-y,-z
1/2-x,1/2+y,-z
-x,-y,-z
x,y,-z
1/2-x,1/2+y,z
1/2+x,1/2-y,z
loop_
_atom_site_type_symbol
_atom_site_label
_atom_site_fract_x
_atom_site_fract_y
_atom_site_fract_z
Si Si1 0.944793 0.100923 0.125778
Si Si2 0.392173 0.216582 0.115564
Si Si3 0.188508 0.131359 0.816292
Si Si4 0.670401 0.989440 0.689887
Si Si5 0.853960 0.100809 0.374109
Si Si6 0.311113 0.755442 0.621160
Si Si7 0.009255 0.374233 0.687650
O O1 0.900448 0.189989 0.121785
O O2 0.912728 0.078128 0.255701
O O3 0.076020 0.104934 0.130523
O O4 0.914214 0.067335 0.000000
O O5 0.267628 0.188776 0.116202
O O6 0.453514 0.176570 0.216804
O O7 0.445508 0.190233 0.000000
O O8 0.262892 0.056752 0.783938
O O9 0.167962 0.185211 0.706983
O O10 0.589196 0.925163 0.634314
O O11 0.759274 0.034816 0.617838
O O12 0.592451 0.059443 0.733886
O O13 0.907355 0.103766 0.500000
O O14 0.792280 0.185914 0.356850
O O15 0.294022 0.720162 0.500000
O O16 0.415572 0.813717 0.620918
#
# Coordination Sequence:
#
# PCOD9427086 Si02
#       7
#     8   8   8   8   8   8   8
#     4  11  23  40  64  93 124 169 216 265 323 380
#     4  10  20  37  63  92 124 163 213 266 315 375
#     4  11  21  39  58  95 129 164 212 261 319 380
#     4   9  21  38  64  89 132 168 205 263 322 388
#     4  10  22  43  64  91 126 170 215 263 319 384
#     4  10  20  35  61  92 126 161 212 267 317 372
#     4   9  18  40  61  93 124 165 213 259 325 373
#
# _framework density 22.538094999999998
#
# number of rings (size 3 to 8) (size 9 to 14) (size 15 to 20)
#    0.000    2.000    2.857    0.429    0.000    2.286 
#    0.000   19.286    0.000    0.000    0.000    0.000 
#    0.000    0.000    0.000    0.000    0.000    0.000 
#
# Total GULP energy -311814.306499 kJ/mol
# GULP energy per Si atom -5568.112616 kJ/mol
# Density = 2.248680 g / cm^3
# Si number density = 22.538095 Si / 1000 Ang^3
#
#
#
# Elastic Constant Matrix: (Units=GPa)
#
#
# Indices 1 2 3 4 5 6 
#
# 1 81.4852 6.8787 40.8776 0.0000 0.0000 0.0000
# 2 6.8787 58.6783 31.7066 0.0000 0.0000 0.0000
# 3 40.8776 31.7066 154.6887 0.0000 0.0000 0.0000
# 4 0.0000 0.0000 0.0000 24.6819 0.0000 0.0000
# 5 0.0000 0.0000 0.0000 0.0000 -10.2363 0.0000
# 6 0.0000 0.0000 0.0000 0.0000 0.0000 20.1684
#
#
#
# Elastic Compliance Matrix: (Units=1/GPa)
#
#
# Indices 1 2 3 4 5 6 
#
# 1 0.014156 0.000407 -0.003824 0.000000 0.000000 0.000000
# 2 0.000407 0.019176 -0.004038 0.000000 0.000000 0.000000
# 3 -0.003824 -0.004038 0.008303 0.000000 0.000000 0.000000
# 4 0.000000 0.000000 0.000000 0.040516 0.000000 0.000000
# 5 0.000000 0.000000 0.000000 0.000000 -0.097691 0.000000
# 6 0.000000 0.000000 0.000000 0.000000 0.000000 0.049583
#
#
# Mechanical properties :
#
#
# Convention : Reuss Voigt Hill
#
# Bulk Modulus (GPa) = 37.41877 50.41979 43.91928
# Shear Modulus (GPa) = 86.41348 21.28208 53.84778
#
# Velocity S-wave (km/s) = 6.19873 3.07623 4.89324
# Velocity P-wave (km/s) = 8.23838 5.91921 7.17314
#
# Compressibility (1/GPa) = 0.02672456
#
# Stress axis : x y z
#
# Youngs Moduli (GPa) = 70.63989 52.14760 120.43987
#
# Poissons Ratio (x) = -0.02122 0.46060
# Poissons Ratio (y) = -0.02875 0.48635
# Poissons Ratio (z) = 0.27015 0.21058
#
# Static dielectric constant tensor:
#      x y z
#    x 1.850630 0.000000 0.000000 
#    y 0.000000 1.829890 0.000000 
#    z 0.000000 0.000000 1.901100 
# 
# From -- ./inp_files/13406.got.cif
#   From: 2010.05.17/outbox.cif.g08.bks.cpg/sg55_7_cif.got.tgz:13406.got - 2010.06.03 13:27:54.
