data_PCOD9427486
_publ_section_title
;
Structure prediction by ZEFSAII (Michael W. Deem and Ramdas Pophale) SiO2 
 PCOD9427486
Probable space group: P B A M
;
_chemical_formula_sum "Si O2"
_cell_formula_units_Z 56
_cell_length_a 15.095625
_cell_length_b 22.152244
_cell_length_c 8.194058
_cell_angle_alpha 90.000000
_cell_angle_beta 90.000000
_cell_angle_gamma 90.000000
_cell_volume 2740.109124
_symmetry_space_group_name_H-M "P B A M"
_symmetry_group_IT_number 55
_symmetry_cell_setting 'orthorhombic'
loop_
_space_group_symop_operation_xyz
x,y,z
-x,-y,z
1/2+x,1/2-y,-z
1/2-x,1/2+y,-z
-x,-y,-z
x,y,-z
1/2-x,1/2+y,z
1/2+x,1/2-y,z
loop_
_atom_site_type_symbol
_atom_site_label
_atom_site_fract_x
_atom_site_fract_y
_atom_site_fract_z
Si Si1 0.323331 0.769005 0.311743
Si Si2 0.296530 0.376528 0.194570
Si Si3 0.019026 0.351042 0.803503
Si Si4 0.847482 0.863113 0.809505
Si Si5 0.860596 0.537626 0.802796
Si Si6 0.481094 0.431501 0.692180
Si Si7 0.656428 0.903198 0.200089
O O1 0.314561 0.752189 0.500000
O O2 0.242544 0.813793 0.264451
O O3 0.414448 0.805606 0.282428
O O4 0.333228 0.708305 0.208826
O O5 0.228583 0.428677 0.253567
O O6 0.395402 0.398020 0.233819
O O7 0.287193 0.371520 0.000000
O O8 0.059063 0.417402 0.769644
O O9 0.916970 0.354010 0.751425
O O10 0.024831 0.340854 0.000000
O O11 0.755902 0.891114 0.746373
O O12 0.932700 0.890365 0.721545
O O13 0.857518 0.878621 0.000000
O O14 0.869263 0.469977 0.742549
O O15 0.855128 0.533516 0.000000
O O16 0.500000 0.500000 0.755944
O O17 0.463891 0.437092 0.500000
O O18 0.655462 0.902310 0.000000
#
# Coordination Sequence:
#
# PCOD9427486 Si02
#       7
#     8   8   8   8   8   8   8
#     4  11  23  40  58  80 115 153 193 242 299 355
#     4  10  20  37  63  89 114 151 199 244 287 345
#     4   9  17  32  56  84 113 145 183 225 273 338
#     4  11  23  39  59  83 113 151 201 252 292 343
#     4   8  14  27  52  86 116 139 171 220 275 329
#     4  11  24  41  61  89 125 161 197 244 308 371
#     4   9  17  30  53  84 112 139 176 227 280 327
#
# _framework density 20.437142000000001
#
# number of rings (size 3 to 8) (size 9 to 14) (size 15 to 20)
#    0.000    2.143    0.000    4.714    0.000    5.143 
#    0.000    5.714    0.000    8.571    0.000    0.000 
#    0.000    0.000    0.000    0.000    0.000    0.000 
#
# Total GULP energy -312519.667372 kJ/mol
# GULP energy per Si atom -5580.708346 kJ/mol
# Density = 2.039063 g / cm^3
# Si number density = 20.437142 Si / 1000 Ang^3
#
#
#
# Elastic Constant Matrix: (Units=GPa)
#
#
# Indices 1 2 3 4 5 6 
#
# 1 93.1263 -5.9638 0.6761 0.0000 0.0000 0.0000
# 2 -5.9638 50.1253 -12.2617 0.0000 0.0000 0.0000
# 3 0.6761 -12.2617 22.2040 0.0000 0.0000 0.0000
# 4 0.0000 0.0000 0.0000 -9.5015 0.0000 0.0000
# 5 0.0000 0.0000 0.0000 0.0000 15.7215 0.0000
# 6 0.0000 0.0000 0.0000 0.0000 0.0000 9.4654
#
#
#
# Elastic Compliance Matrix: (Units=1/GPa)
#
#
# Indices 1 2 3 4 5 6 
#
# 1 0.010824 0.001396 0.000441 0.000000 0.000000 0.000000
# 2 0.001396 0.023246 0.012795 0.000000 0.000000 0.000000
# 3 0.000441 0.012795 0.052089 0.000000 0.000000 0.000000
# 4 0.000000 0.000000 0.000000 -0.105247 0.000000 0.000000
# 5 0.000000 0.000000 0.000000 0.000000 0.063607 0.000000
# 6 0.000000 0.000000 0.000000 0.000000 0.000000 0.105648
#
#
# Mechanical properties :
#
#
# Convention : Reuss Voigt Hill
#
# Bulk Modulus (GPa) = 8.66383 14.48407 11.57395
# Shear Modulus (GPa) = 31.37182 15.33742 23.35462
#
# Velocity S-wave (km/s) = 3.92221 2.74244 3.38413
# Velocity P-wave (km/s) = 4.97595 4.13890 4.57660
#
# Compressibility (1/GPa) = 0.11542237
#
# Stress axis : x y z
#
# Youngs Moduli (GPa) = 92.38483 43.01831 19.19791
#
# Poissons Ratio (x) = -0.06004 -0.00847
# Poissons Ratio (y) = -0.12895 -0.24563
# Poissons Ratio (z) = -0.04076 -0.55040
#
# Static dielectric constant tensor:
#      x y z
#    x 1.725950 0.000000 0.000000 
#    y 0.000000 1.720350 0.000000 
#    z 0.000000 0.000000 1.726930 
# 
# From -- ./inp_files/6019.got.cif
#   From: 2010.05.17/outbox.cif.g08.bks.cpg/sg55_4_cif.got.tgz:6019.got - 2010.06.03 13:27:54.
