data_PCOD9427032
_publ_section_title
;
Structure prediction by ZEFSAII (Michael W. Deem and Ramdas Pophale) SiO2 
 PCOD9427032
Probable space group: P B A M
;
_chemical_formula_sum "Si O2"
_cell_formula_units_Z 56
_cell_length_a 21.402933
_cell_length_b 15.160358
_cell_length_c 7.818430
_cell_angle_alpha 90.000000
_cell_angle_beta 90.000000
_cell_angle_gamma 90.000000
_cell_volume 2536.893882
_symmetry_space_group_name_H-M "P B A M"
_symmetry_group_IT_number 55
_symmetry_cell_setting 'orthorhombic'
loop_
_space_group_symop_operation_xyz
x,y,z
-x,-y,z
1/2+x,1/2-y,-z
1/2-x,1/2+y,-z
-x,-y,-z
x,y,-z
1/2-x,1/2+y,z
1/2+x,1/2-y,z
loop_
_atom_site_type_symbol
_atom_site_label
_atom_site_fract_x
_atom_site_fract_y
_atom_site_fract_z
Si Si1 0.063415 0.594934 0.806386
Si Si2 0.301331 0.585479 0.709759
Si Si3 0.468685 0.407722 0.202475
Si Si4 0.684102 0.799352 0.707366
Si Si5 0.672537 0.607078 0.698386
Si Si6 0.415798 0.708975 0.707441
Si Si7 0.074355 0.402962 0.305882
O O1 0.117517 0.662657 0.762219
O O2 0.088424 0.494814 0.786356
O O3 0.001335 0.603831 0.693999
O O4 0.042084 0.607977 0.000000
O O5 0.302748 0.583645 0.500000
O O6 0.239148 0.635972 0.762976
O O7 0.304702 0.485339 0.773601
O O8 0.362072 0.641234 0.762925
O O9 0.500000 0.500000 0.260350
O O10 0.402751 0.393623 0.292575
O O11 0.517867 0.329811 0.234928
O O12 0.456619 0.414492 0.000000
O O13 0.684371 0.796974 0.500000
O O14 0.694032 0.700116 0.773139
O O15 0.692315 0.606905 0.500000
O O16 0.416385 0.711907 0.500000
O O17 0.403579 0.809131 0.766321
O O18 0.097632 0.411988 0.500000
#
# Coordination Sequence:
#
# PCOD9427032 Si02
#       7
#     8   8   8   8   8   8   8
#     4  11  22  37  56  80 112 150 186 226 279 334
#     4   9  19  36  57  82 111 143 185 233 278 329
#     4  11  22  34  53  83 117 153 185 229 285 337
#     4  10  21  37  58  83 110 146 192 234 279 333
#     4  10  20  36  60  84 111 149 188 234 286 336
#     4  10  20  35  58  86 113 145 185 232 284 335
#     4  10  20  35  59  87 113 142 182 234 284 330
#
# _framework density 22.074238000000001
#
# number of rings (size 3 to 8) (size 9 to 14) (size 15 to 20)
#    0.000    1.857    1.429    3.857    0.000    6.857 
#    0.000    5.714    0.000    1.714    0.000    0.000 
#    0.000    0.000    0.000    0.000    0.000    0.000 
#
# Total GULP energy -313013.652014 kJ/mol
# GULP energy per Si atom -5589.529500 kJ/mol
# Density = 2.202400 g / cm^3
# Si number density = 22.074238 Si / 1000 Ang^3
#
#
#
# Elastic Constant Matrix: (Units=GPa)
#
#
# Indices 1 2 3 4 5 6 
#
# 1 38.5334 31.9398 -5.9270 0.0000 0.0000 0.0000
# 2 31.9398 174.4523 6.2558 0.0000 0.0000 0.0000
# 3 -5.9270 6.2558 41.5444 0.0000 0.0000 0.0000
# 4 0.0000 0.0000 0.0000 -6.8391 0.0000 0.0000
# 5 0.0000 0.0000 0.0000 0.0000 -181.2943 0.0000
# 6 0.0000 0.0000 0.0000 0.0000 0.0000 22.2331
#
#
#
# Elastic Compliance Matrix: (Units=1/GPa)
#
#
# Indices 1 2 3 4 5 6 
#
# 1 0.031771 -0.006012 0.005438 0.000000 0.000000 0.000000
# 2 -0.006012 0.006901 -0.001897 0.000000 0.000000 0.000000
# 3 0.005438 -0.001897 0.025132 0.000000 0.000000 0.000000
# 4 0.000000 0.000000 0.000000 -0.146218 0.000000 0.000000
# 5 0.000000 0.000000 0.000000 0.000000 -0.005516 0.000000
# 6 0.000000 0.000000 0.000000 0.000000 0.000000 0.044978
#
#
# Mechanical properties :
#
#
# Convention : Reuss Voigt Hill
#
# Bulk Modulus (GPa) = 16.98871 35.45192 26.22032
# Shear Modulus (GPa) = -271.89235 -18.36262 -145.12749
#
# Velocity S-wave (km/s) = -11.11032 -2.88732 -8.11714
# Velocity P-wave (km/s) = 12.52488 2.23152 8.71473
#
# Compressibility (1/GPa) = 0.05886262
#
# Stress axis : x y z
#
# Youngs Moduli (GPa) = 31.47513 144.90796 39.78982
#
# Poissons Ratio (x) = 0.87117 -0.21638
# Poissons Ratio (y) = 0.18922 0.07547
# Poissons Ratio (z) = -0.17116 0.27487
#
# Static dielectric constant tensor:
#      x y z
#    x 1.748430 0.000000 0.000000 
#    y 0.000000 1.832480 0.000000 
#    z 0.000000 0.000000 1.788550 
# 
# From -- ./inp_files/8784.got.cif
#   From: 2010.05.17/outbox.cif.g08.bks.cpg/sg55_5_cif.got.tgz:8784.got - 2010.06.03 13:27:54.
