data_PCOD9427920
_publ_section_title
;
Structure prediction by ZEFSAII (Michael W. Deem and Ramdas Pophale) SiO2 
 PCOD9427920
Probable space group: P B A M
;
_chemical_formula_sum "Si O2"
_cell_formula_units_Z 64
_cell_length_a 18.195013
_cell_length_b 9.220206
_cell_length_c 19.159562
_cell_angle_alpha 90.000000
_cell_angle_beta 90.000000
_cell_angle_gamma 90.000000
_cell_volume 3214.241996
_symmetry_space_group_name_H-M "P B A M"
_symmetry_group_IT_number 55
_symmetry_cell_setting 'orthorhombic'
loop_
_space_group_symop_operation_xyz
x,y,z
-x,-y,z
1/2+x,1/2-y,-z
1/2-x,1/2+y,-z
-x,-y,-z
x,y,-z
1/2-x,1/2+y,z
1/2+x,1/2-y,z
loop_
_atom_site_type_symbol
_atom_site_label
_atom_site_fract_x
_atom_site_fract_y
_atom_site_fract_z
Si Si1 0.845201 0.665423 0.861810
Si Si2 0.921523 0.930302 0.080639
Si Si3 0.415027 0.037920 0.578375
Si Si4 0.685385 0.695697 0.082313
Si Si5 0.573345 0.928229 0.078474
Si Si6 0.827316 0.189205 0.418686
Si Si7 0.662442 0.107765 0.289471
Si Si8 0.713424 0.405314 0.659731
O O1 0.898861 0.799749 0.870691
O O2 0.759731 0.705021 0.873006
O O3 0.866348 0.554128 0.922263
O O4 0.863981 0.587818 0.789039
O O5 0.852698 0.039426 0.083128
O O6 0.928576 0.881594 0.000000
O O7 0.000000 0.000000 0.099030
O O8 0.383980 0.003492 0.500000
O O9 0.380340 0.949702 0.642504
O O10 0.500000 0.000000 0.576823
O O11 0.399077 0.209060 0.589514
O O12 0.618999 0.796576 0.110362
O O13 0.700404 0.733346 0.000000
O O14 0.500000 0.000000 0.109779
O O15 0.552461 0.880422 0.000000
O O16 0.812447 0.167561 0.500000
O O17 0.828845 0.029969 0.383974
O O18 0.764790 0.298344 0.387673
O O19 0.736011 0.009686 0.293161
O O20 0.670972 0.281855 0.297705
#
# Coordination Sequence:
#
# PCOD9427920 Si02
#       8
#     8   8   8   8   8   8   8   8
#     4  12  23  35  57  85 116 155 194 247 298 357
#     4  10  21  39  60  83 116 156 198 245 301 360
#     4   9  19  39  62  84 113 152 196 240 289 347
#     4  10  21  36  58  87 114 149 196 247 299 354
#     4  10  21  38  59  84 113 149 196 247 297 355
#     4   9  16  30  57  84 107 138 179 232 282 335
#     4  10  23  36  57  83 117 154 189 233 293 350
#     4   9  19  35  50  81 113 146 180 225 284 339
#
# _framework density 19.911380999999999
#
# number of rings (size 3 to 8) (size 9 to 14) (size 15 to 20)
#    0.000    2.125    0.000    3.000    3.500    8.000 
#    0.000    1.875    0.000    2.250    0.000    0.000 
#    0.000    0.000    0.000    0.000    0.000    0.000 
#
# Total GULP energy -356313.784966 kJ/mol
# GULP energy per Si atom -5567.402890 kJ/mol
# Density = 1.986606 g / cm^3
# Si number density = 19.911381 Si / 1000 Ang^3
#
#
#
# Elastic Constant Matrix: (Units=GPa)
#
#
# Indices 1 2 3 4 5 6 
#
# 1 45.7007 6.2821 15.3425 0.0000 0.0000 0.0000
# 2 6.2821 98.7364 26.8162 0.0000 0.0000 0.0000
# 3 15.3425 26.8162 83.3124 0.0000 0.0000 0.0000
# 4 0.0000 0.0000 0.0000 3.6390 0.0000 0.0000
# 5 0.0000 0.0000 0.0000 0.0000 229.9675 0.0000
# 6 0.0000 0.0000 0.0000 0.0000 0.0000 24.3591
#
#
#
# Elastic Compliance Matrix: (Units=1/GPa)
#
#
# Indices 1 2 3 4 5 6 
#
# 1 0.023334 -0.000348 -0.004185 0.000000 0.000000 0.000000
# 2 -0.000348 0.011103 -0.003510 0.000000 0.000000 0.000000
# 3 -0.004185 -0.003510 0.013903 0.000000 0.000000 0.000000
# 4 0.000000 0.000000 0.000000 0.274798 0.000000 0.000000
# 5 0.000000 0.000000 0.000000 0.000000 0.004348 0.000000
# 6 0.000000 0.000000 0.000000 0.000000 0.000000 0.041052
#
#
# Mechanical properties :
#
#
# Convention : Reuss Voigt Hill
#
# Bulk Modulus (GPa) = 31.00271 36.07014 33.53642
# Shear Modulus (GPa) = 12.64613 63.54704 38.09659
#
# Velocity S-wave (km/s) = 2.52289 5.65546 4.37888
# Velocity P-wave (km/s) = 4.90824 7.79745 6.51502
#
# Compressibility (1/GPa) = 0.03225525
#
# Stress axis : x y z
#
# Youngs Moduli (GPa) = 42.85522 90.06280 71.92452
#
# Poissons Ratio (x) = 0.03134 0.30102
# Poissons Ratio (y) = 0.01491 0.25244
# Poissons Ratio (z) = 0.17936 0.31610
#
# Static dielectric constant tensor:
#      x y z
#    x 1.730210 0.000000 0.000000 
#    y 0.000000 1.744670 0.000000 
#    z 0.000000 0.000000 1.786350 
# 
# From -- ./inp_files/23070.got.cif
#   From: 2010.05.17/outbox.cif.g08.bks.cpg/sg55_12_cif.got.tgz:23070.got - 2010.06.03 13:27:54.
