data_PCOD9427194
_publ_section_title
;
Structure prediction by ZEFSAII (Michael W. Deem and Ramdas Pophale) SiO2 
 PCOD9427194
Probable space group: P B A M
;
_chemical_formula_sum "Si O2"
_cell_formula_units_Z 56
_cell_length_a 21.746312
_cell_length_b 14.492914
_cell_length_c 8.951999
_cell_angle_alpha 90.000000
_cell_angle_beta 90.000000
_cell_angle_gamma 90.000000
_cell_volume 2821.378515
_symmetry_space_group_name_H-M "P B A M"
_symmetry_group_IT_number 55
_symmetry_cell_setting 'orthorhombic'
loop_
_space_group_symop_operation_xyz
x,y,z
-x,-y,z
1/2+x,1/2-y,-z
1/2-x,1/2+y,-z
-x,-y,-z
x,y,-z
1/2-x,1/2+y,z
1/2+x,1/2-y,z
loop_
_atom_site_type_symbol
_atom_site_label
_atom_site_fract_x
_atom_site_fract_y
_atom_site_fract_z
Si Si1 0.379885 0.305183 0.822085
Si Si2 0.041226 0.653317 0.329727
Si Si3 0.639464 0.331685 0.826236
Si Si4 0.729754 0.811924 0.679684
Si Si5 0.072959 0.994157 0.679074
Si Si6 0.846034 0.488895 0.670538
Si Si7 0.581807 0.133441 0.169780
O O1 0.434254 0.234334 0.776455
O O2 0.318371 0.259966 0.751300
O O3 0.397032 0.403396 0.751756
O O4 0.374098 0.311131 0.000000
O O5 0.037593 0.688171 0.500000
O O6 0.092350 0.573659 0.326560
O O7 0.976037 0.616644 0.275930
O O8 0.702658 0.304402 0.745372
O O9 0.606853 0.416186 0.743752
O O10 0.596917 0.241320 0.822567
O O11 0.651086 0.354934 0.000000
O O12 0.728007 0.802039 0.500000
O O13 0.706211 0.916095 0.714817
O O14 0.079687 0.990355 0.500000
O O15 0.000000 0.000000 0.713724
O O16 0.835228 0.519569 0.500000
O O17 0.859847 0.574618 0.775560
O O18 0.566624 0.107696 0.000000
#
# Coordination Sequence:
#
# PCOD9427194 Si02
#       7
#     8   8   8   8   8   8   8
#     4  11  22  38  63  91 121 157 196 245 304 361
#     4  10  20  36  58  86 120 154 192 237 284 343
#     4  11  25  42  59  85 121 157 198 250 303 353
#     4  10  22  42  64  87 117 155 202 248 294 355
#     4  11  24  42  65  92 121 160 209 255 305 367
#     4   9  20  37  58  84 114 150 190 235 285 341
#     4  11  23  36  55  85 118 152 189 233 289 347
#
# _framework density 19.848452999999999
#
# number of rings (size 3 to 8) (size 9 to 14) (size 15 to 20)
#    0.000    1.571    0.000    5.571    0.000   12.000 
#    0.000    2.857    0.000    0.000    0.000    0.000 
#    0.000    0.000    0.000    0.000    0.000    0.000 
#
# Total GULP energy -313045.432679 kJ/mol
# GULP energy per Si atom -5590.097012 kJ/mol
# Density = 1.980328 g / cm^3
# Si number density = 19.848453 Si / 1000 Ang^3
#
#
#
# Elastic Constant Matrix: (Units=GPa)
#
#
# Indices 1 2 3 4 5 6 
#
# 1 66.9232 2.3269 28.8587 0.0000 0.0000 0.0000
# 2 2.3269 78.4185 40.0680 0.0000 0.0000 0.0000
# 3 28.8587 40.0680 105.6487 0.0000 0.0000 0.0000
# 4 0.0000 0.0000 0.0000 30.5085 0.0000 0.0000
# 5 0.0000 0.0000 0.0000 0.0000 2.3182 0.0000
# 6 0.0000 0.0000 0.0000 0.0000 0.0000 15.7250
#
#
#
# Elastic Compliance Matrix: (Units=1/GPa)
#
#
# Indices 1 2 3 4 5 6 
#
# 1 0.017281 0.002356 -0.005614 0.000000 0.000000 0.000000
# 2 0.002356 0.016138 -0.006764 0.000000 0.000000 0.000000
# 3 -0.005614 -0.006764 0.013564 0.000000 0.000000 0.000000
# 4 0.000000 0.000000 0.000000 0.032778 0.000000 0.000000
# 5 0.000000 0.000000 0.000000 0.000000 0.431377 0.000000
# 6 0.000000 0.000000 0.000000 0.000000 0.000000 0.063593
#
#
# Mechanical properties :
#
#
# Convention : Reuss Voigt Hill
#
# Bulk Modulus (GPa) = 37.12058 43.72194 40.42126
# Shear Modulus (GPa) = 8.28149 21.69279 14.98714
#
# Velocity S-wave (km/s) = 2.04485 3.30952 2.75085
# Velocity P-wave (km/s) = 4.93131 6.05637 5.52256
#
# Compressibility (1/GPa) = 0.02693924
#
# Stress axis : x y z
#
# Youngs Moduli (GPa) = 57.86552 61.96451 73.72389
#
# Poissons Ratio (x) = -0.14597 0.41388
# Poissons Ratio (y) = -0.13631 0.49867
# Poissons Ratio (z) = 0.32485 0.41913
#
# Static dielectric constant tensor:
#      x y z
#    x 1.692210 0.000000 0.000000 
#    y 0.000000 1.692680 0.000000 
#    z 0.000000 0.000000 1.676130 
# 
# From -- ./inp_files/6169.got.cif
#   From: 2010.05.17/outbox.cif.g08.bks.cpg/sg55_4_cif.got.tgz:6169.got - 2010.06.03 13:27:54.
