data_PCOD9427609
_publ_section_title
;
Structure prediction by ZEFSAII (Michael W. Deem and Ramdas Pophale) SiO2 
 PCOD9427609
Probable space group: P B A M
;
_chemical_formula_sum "Si O2"
_cell_formula_units_Z 40
_cell_length_a 18.969822
_cell_length_b 12.472488
_cell_length_c 8.947307
_cell_angle_alpha 90.000000
_cell_angle_beta 90.000000
_cell_angle_gamma 90.000000
_cell_volume 2116.940685
_symmetry_space_group_name_H-M "P B A M"
_symmetry_group_IT_number 55
_symmetry_cell_setting 'orthorhombic'
loop_
_space_group_symop_operation_xyz
x,y,z
-x,-y,z
1/2+x,1/2-y,-z
1/2-x,1/2+y,-z
-x,-y,-z
x,y,-z
1/2-x,1/2+y,z
1/2+x,1/2-y,z
loop_
_atom_site_type_symbol
_atom_site_label
_atom_site_fract_x
_atom_site_fract_y
_atom_site_fract_z
Si Si1 0.426036 0.058610 0.178542
Si Si2 0.167845 0.962740 0.178921
Si Si3 0.685655 0.096966 0.678504
Si Si4 0.039874 0.803987 0.179124
Si Si5 0.887015 0.823347 0.678692
O O1 0.433816 0.183929 0.214729
O O2 0.500000 0.000000 0.213505
O O3 0.363749 0.999173 0.264089
O O4 0.414246 0.048456 0.000000
O O5 0.238498 0.912150 0.245449
O O6 0.100100 0.889590 0.216542
O O7 0.155514 0.079968 0.246710
O O8 0.173053 0.968667 0.000000
O O9 0.692916 0.091761 0.500000
O O10 0.647357 0.208759 0.717849
O O11 0.966848 0.826047 0.261759
O O12 0.027215 0.808690 0.000000
O O13 0.886061 0.834692 0.500000
#
# Coordination Sequence:
#
# PCOD9427609 Si02
#       5
#     8   8   8   8   8
#     4  10  20  38  65  93 122 161 208 256 307 367
#     4  11  25  42  64  91 125 166 210 260 311 368
#     4  11  25  42  61  91 128 164 206 257 317 374
#     4  10  22  41  65  95 124 159 210 260 309 368
#     4  11  24  42  64  92 127 166 206 255 313 375
#
# _framework density 18.895192000000002
#
# number of rings (size 3 to 8) (size 9 to 14) (size 15 to 20)
#    0.000    1.400    2.000    2.400    2.800    7.600 
#    0.000    0.000    0.000    0.000    0.000    0.000 
#    0.000    0.000    0.000    0.000    0.000    0.000 
#
# Total GULP energy -223712.594635 kJ/mol
# GULP energy per Si atom -5592.814866 kJ/mol
# Density = 1.885219 g / cm^3
# Si number density = 18.895192 Si / 1000 Ang^3
#
#
#
# Elastic Constant Matrix: (Units=GPa)
#
#
# Indices 1 2 3 4 5 6 
#
# 1 123.6068 15.7524 46.6330 0.0000 0.0000 0.0000
# 2 15.7524 37.0513 17.9938 0.0000 0.0000 0.0000
# 3 46.6330 17.9938 36.1354 0.0000 0.0000 0.0000
# 4 0.0000 0.0000 0.0000 28.1444 0.0000 0.0000
# 5 0.0000 0.0000 0.0000 0.0000 51.6933 0.0000
# 6 0.0000 0.0000 0.0000 0.0000 0.0000 27.7701
#
#
#
# Elastic Compliance Matrix: (Units=1/GPa)
#
#
# Indices 1 2 3 4 5 6 
#
# 1 0.016276 0.004327 -0.023159 0.000000 0.000000 0.000000
# 2 0.004327 0.036749 -0.023884 0.000000 0.000000 0.000000
# 3 -0.023159 -0.023884 0.069453 0.000000 0.000000 0.000000
# 4 0.000000 0.000000 0.000000 0.035531 0.000000 0.000000
# 5 0.000000 0.000000 0.000000 0.000000 0.019345 0.000000
# 6 0.000000 0.000000 0.000000 0.000000 0.000000 0.036010
#
#
# Mechanical properties :
#
#
# Convention : Reuss Voigt Hill
#
# Bulk Modulus (GPa) = 26.99236 39.72800 33.36018
# Shear Modulus (GPa) = 16.06978 29.28251 22.67614
#
# Velocity S-wave (km/s) = 2.91944 3.94094 3.46801
# Velocity P-wave (km/s) = 5.06760 6.46367 5.80774
#
# Compressibility (1/GPa) = 0.03704751
#
# Stress axis : x y z
#
# Youngs Moduli (GPa) = 61.44106 27.21175 14.39820
#
# Poissons Ratio (x) = -0.11775 0.33344
# Poissons Ratio (y) = -0.26587 0.34388
# Poissons Ratio (z) = 1.42290 0.64992
#
# Static dielectric constant tensor:
#      x y z
#    x 1.616360 0.000000 0.000000 
#    y 0.000000 1.635510 0.000000 
#    z 0.000000 0.000000 1.630410 
# 
# From -- ./inp_files/3588.got.cif
#   From: 2010.05.17/outbox.cif.g08.bks.cpg/sg55_2_cif.got.tgz:3588.got - 2010.06.03 13:27:54.
