data_PCOD9427757
_publ_section_title
;
Structure prediction by ZEFSAII (Michael W. Deem and Ramdas Pophale) SiO2 
 PCOD9427757
Probable space group: P B A M
;
_chemical_formula_sum "Si O2"
_cell_formula_units_Z 40
_cell_length_a 6.199409
_cell_length_b 18.731986
_cell_length_c 16.578317
_cell_angle_alpha 90.000000
_cell_angle_beta 90.000000
_cell_angle_gamma 90.000000
_cell_volume 1925.194240
_symmetry_space_group_name_H-M "P B A M"
_symmetry_group_IT_number 55
_symmetry_cell_setting 'orthorhombic'
loop_
_space_group_symop_operation_xyz
x,y,z
-x,-y,z
1/2+x,1/2-y,-z
1/2-x,1/2+y,-z
-x,-y,-z
x,y,-z
1/2-x,1/2+y,z
1/2+x,1/2-y,z
loop_
_atom_site_type_symbol
_atom_site_label
_atom_site_fract_x
_atom_site_fract_y
_atom_site_fract_z
Si Si1 0.500000 0.500000 0.291068
Si Si2 0.639647 0.090550 0.220327
Si Si3 0.752074 0.364646 0.332768
Si Si4 0.008731 0.199028 0.811760
Si Si5 0.694774 0.785078 0.500000
Si Si6 0.119448 0.655264 0.094616
O O1 0.704085 0.525147 0.238594
O O2 0.582566 0.430333 0.338683
O O3 0.467314 0.104662 0.290758
O O4 0.795668 0.158549 0.214844
O O5 0.513198 0.092217 0.136194
O O6 0.654563 0.306484 0.269366
O O7 0.799974 0.330197 0.417891
O O8 0.952292 0.271273 0.859475
O O9 0.133595 0.150226 0.877274
O O10 0.445288 0.750379 0.500000
O O11 0.090354 0.661434 0.000000
#
# Coordination Sequence:
#
# PCOD9427757 Si02
#       6
#     4   8   8   8   4   8
#     4  10  22  45  73  96 126 182 250 282 341 413
#     4  10  22  40  65  94 129 179 231 288 343 416
#     4  10  25  44  70  99 136 187 228 286 346 424
#     4  10  21  34  61  91 133 175 225 273 348 419
#     4  12  32  47  75 117 159 180 226 290 368 432
#     4  11  21  33  57  96 135 174 220 281 350 428
#
# _framework density 20.777123
#
# number of rings (size 3 to 8) (size 9 to 14) (size 15 to 20)
#    0.000    1.600    2.000    1.200   11.200    1.200 
#    0.000    2.500    0.000   16.800    0.000    0.000 
#    0.000    0.000    0.000    0.000    0.000    0.000 
#
# Total GULP energy -222904.486340 kJ/mol
# GULP energy per Si atom -5572.612159 kJ/mol
# Density = 2.072983 g / cm^3
# Si number density = 20.777123 Si / 1000 Ang^3
#
#
#
# Elastic Constant Matrix: (Units=GPa)
#
#
# Indices 1 2 3 4 5 6 
#
# 1 128.1454 44.8486 51.2434 0.0000 0.0000 0.0000
# 2 44.8486 82.0641 51.2163 0.0000 0.0000 0.0000
# 3 51.2434 51.2163 170.0299 0.0000 0.0000 0.0000
# 4 0.0000 0.0000 0.0000 13.3564 0.0000 0.0000
# 5 0.0000 0.0000 0.0000 0.0000 12.9829 0.0000
# 6 0.0000 0.0000 0.0000 0.0000 0.0000 42.8591
#
#
#
# Elastic Compliance Matrix: (Units=1/GPa)
#
#
# Indices 1 2 3 4 5 6 
#
# 1 0.010028 -0.004426 -0.001689 0.000000 0.000000 0.000000
# 2 -0.004426 0.016961 -0.003775 0.000000 0.000000 0.000000
# 3 -0.001689 -0.003775 0.007527 0.000000 0.000000 0.000000
# 4 0.000000 0.000000 0.000000 0.074871 0.000000 0.000000
# 5 0.000000 0.000000 0.000000 0.000000 0.077025 0.000000
# 6 0.000000 0.000000 0.000000 0.000000 0.000000 0.023332
#
#
# Mechanical properties :
#
#
# Convention : Reuss Voigt Hill
#
# Bulk Modulus (GPa) = 67.86220 74.98399 71.42309
# Shear Modulus (GPa) = 21.32780 29.36841 25.34810
#
# Velocity S-wave (km/s) = 3.20739 3.76373 3.49664
# Velocity P-wave (km/s) = 6.81537 7.41995 7.12408
#
# Compressibility (1/GPa) = 0.01473574
#
# Stress axis : x y z
#
# Youngs Moduli (GPa) = 99.71900 58.96048 132.84817
#
# Poissons Ratio (x) = 0.26098 0.22438
# Poissons Ratio (y) = 0.44139 0.50148
# Poissons Ratio (z) = 0.16842 0.22257
#
# Static dielectric constant tensor:
#      x y z
#    x 1.875750 0.000000 0.000000 
#    y 0.000000 1.809230 0.000000 
#    z 0.000000 0.000000 1.673320 
# 
# From -- ./inp_files/16572.got.cif
#   From: 2010.05.17/outbox.cif.g08.bks.cpg/sg55_9_cif.got.tgz:16572.got - 2010.06.03 13:27:54.
