data_PCOD9427962
_publ_section_title
;
Structure prediction by ZEFSAII (Michael W. Deem and Ramdas Pophale) SiO2 
 PCOD9427962
Probable space group: P B A M
;
_chemical_formula_sum "Si O2"
_cell_formula_units_Z 56
_cell_length_a 14.333923
_cell_length_b 23.616437
_cell_length_c 8.482885
_cell_angle_alpha 90.000000
_cell_angle_beta 90.000000
_cell_angle_gamma 90.000000
_cell_volume 2871.593906
_symmetry_space_group_name_H-M "P B A M"
_symmetry_group_IT_number 55
_symmetry_cell_setting 'orthorhombic'
loop_
_space_group_symop_operation_xyz
x,y,z
-x,-y,z
1/2+x,1/2-y,-z
1/2-x,1/2+y,-z
-x,-y,-z
x,y,-z
1/2-x,1/2+y,z
1/2+x,1/2-y,z
loop_
_atom_site_type_symbol
_atom_site_label
_atom_site_fract_x
_atom_site_fract_y
_atom_site_fract_z
Si Si1 0.904356 0.070730 0.691674
Si Si2 0.386600 0.560303 0.309749
Si Si3 0.283725 0.876034 0.690310
Si Si4 0.394013 0.764632 0.311742
Si Si5 0.777056 0.837976 0.187907
Si Si6 0.042804 0.440263 0.809611
Si Si7 0.932694 0.326723 0.809995
O O1 0.905870 0.072805 0.500000
O O2 0.820947 0.110994 0.746637
O O3 0.010521 0.081948 0.742447
O O4 0.880768 0.005723 0.734285
O O5 0.382872 0.563390 0.500000
O O6 0.307187 0.599517 0.239562
O O7 0.282613 0.875115 0.500000
O O8 0.327701 0.816552 0.745237
O O9 0.355427 0.924867 0.743587
O O10 0.394060 0.764828 0.500000
O O11 0.351893 0.706279 0.252669
O O12 0.497483 0.779226 0.253413
O O13 0.673390 0.822599 0.246313
O O14 0.776198 0.835073 0.000000
O O15 0.000000 0.500000 0.756905
O O16 0.976395 0.387619 0.763372
O O17 0.048324 0.441191 0.000000
O O18 0.933472 0.324488 0.000000
#
# Coordination Sequence:
#
# PCOD9427962 Si02
#       7
#     8   8   8   8   8   8   8
#     4   8  16  33  55  79 110 143 176 223 277 327
#     4   9  18  34  55  79 108 144 184 222 269 329
#     4   9  18  33  53  77 103 135 176 224 273 321
#     4  10  21  37  56  79 107 140 187 235 274 326
#     4  11  23  37  56  81 112 147 183 228 281 332
#     4   9  18  32  51  76 107 142 176 212 262 325
#     4   9  20  38  55  76 110 146 180 224 275 326
#
# _framework density 19.501363999999999
#
# number of rings (size 3 to 8) (size 9 to 14) (size 15 to 20)
#    0.000    2.714    0.000    1.714    2.000    3.143 
#    0.000    3.571    0.000    0.000    0.000    0.000 
#    0.000    0.000    0.000    0.000    0.000    0.000 
#
# Total GULP energy -312443.980819 kJ/mol
# GULP energy per Si atom -5579.356800 kJ/mol
# Density = 1.945698 g / cm^3
# Si number density = 19.501364 Si / 1000 Ang^3
#
#
#
# Elastic Constant Matrix: (Units=GPa)
#
#
# Indices 1 2 3 4 5 6 
#
# 1 97.4571 13.7536 15.5004 0.0000 0.0000 0.0000
# 2 13.7536 23.7921 7.2387 0.0000 0.0000 0.0000
# 3 15.5004 7.2387 6.8813 0.0000 0.0000 0.0000
# 4 0.0000 0.0000 0.0000 10.7572 0.0000 0.0000
# 5 0.0000 0.0000 0.0000 0.0000 20.3152 0.0000
# 6 0.0000 0.0000 0.0000 0.0000 0.0000 20.6298
#
#
#
# Elastic Compliance Matrix: (Units=1/GPa)
#
#
# Indices 1 2 3 4 5 6 
#
# 1 0.016093 0.002539 -0.038920 0.000000 0.000000 0.000000
# 2 0.002539 0.062215 -0.071165 0.000000 0.000000 0.000000
# 3 -0.038920 -0.071165 0.307851 0.000000 0.000000 0.000000
# 4 0.000000 0.000000 0.000000 0.092961 0.000000 0.000000
# 5 0.000000 0.000000 0.000000 0.000000 0.049224 0.000000
# 6 0.000000 0.000000 0.000000 0.000000 0.000000 0.048474
#
#
# Mechanical properties :
#
#
# Convention : Reuss Voigt Hill
#
# Bulk Modulus (GPa) = 5.84567 22.34622 14.09594
# Shear Modulus (GPa) = 5.88975 16.44964 11.16969
#
# Velocity S-wave (km/s) = 1.73975 2.90748 2.39585
# Velocity P-wave (km/s) = 2.65325 4.77021 3.85970
#
# Compressibility (1/GPa) = 0.17106675
#
# Stress axis : x y z
#
# Youngs Moduli (GPa) = 62.13943 16.07331 3.24832
#
# Poissons Ratio (x) = -0.04080 0.12643
# Poissons Ratio (y) = -0.15774 0.23117
# Poissons Ratio (z) = 2.41847 1.14385
#
# Static dielectric constant tensor:
#      x y z
#    x 1.689910 0.000000 0.000000 
#    y 0.000000 1.670720 0.000000 
#    z 0.000000 0.000000 1.658870 
# 
# From -- ./inp_files/6184.got.cif
#   From: 2010.05.17/outbox.cif.g08.bks.cpg/sg55_4_cif.got.tgz:6184.got - 2010.06.03 13:27:54.
