data_PCOD9427715
_publ_section_title
;
Structure prediction by ZEFSAII (Michael W. Deem and Ramdas Pophale) SiO2 
 PCOD9427715
Probable space group: P B A M
;
_chemical_formula_sum "Si O2"
_cell_formula_units_Z 48
_cell_length_a 9.338789
_cell_length_b 26.614225
_cell_length_c 8.667427
_cell_angle_alpha 90.000000
_cell_angle_beta 90.000000
_cell_angle_gamma 90.000000
_cell_volume 2154.242451
_symmetry_space_group_name_H-M "P B A M"
_symmetry_group_IT_number 55
_symmetry_cell_setting 'orthorhombic'
loop_
_space_group_symop_operation_xyz
x,y,z
-x,-y,z
1/2+x,1/2-y,-z
1/2-x,1/2+y,-z
-x,-y,-z
x,y,-z
1/2-x,1/2+y,z
1/2+x,1/2-y,z
loop_
_atom_site_type_symbol
_atom_site_label
_atom_site_fract_x
_atom_site_fract_y
_atom_site_fract_z
Si Si1 0.053753 0.612102 0.254354
Si Si2 0.788257 0.966896 0.173663
Si Si3 0.243612 0.428669 0.331813
Si Si4 0.578077 0.183497 0.000000
Si Si5 0.789969 0.808659 0.326509
Si Si6 0.693927 0.756519 0.000000
Si Si7 0.991943 0.120679 0.819729
O O1 0.150120 0.569308 0.175507
O O2 0.169964 0.647480 0.336431
O O3 0.923624 0.584375 0.336120
O O4 0.973070 0.650311 0.141732
O O5 0.919830 0.930694 0.216033
O O6 0.764737 0.013907 0.282687
O O7 0.811523 0.986187 0.000000
O O8 0.307623 0.419879 0.500000
O O9 0.329515 0.392984 0.215517
O O10 0.475531 0.233102 0.000000
O O11 0.740447 0.201231 0.000000
O O12 0.796119 0.784665 0.500000
O O13 0.748284 0.779134 0.166857
O O14 0.939940 0.835590 0.284085
O O15 0.020573 0.131270 0.000000
#
# Coordination Sequence:
#
# PCOD9427715 Si02
#       7
#     8   8   8   4   8   4   8
#     4  10  22  39  63  89 119 161 208 250 307 371
#     4  10  21  38  59  82 117 164 217 254 298 366
#     4  12  25  35  52  89 128 164 212 264 309 353
#     4  10  22  42  67  93 122 156 199 257 312 376
#     4  10  20  41  68  91 125 165 202 252 310 375
#     4  10  22  42  66  99 121 154 206 245 311 392
#     4  10  21  38  59  87 123 166 217 261 302 365
#
# _framework density 22.281613
#
# number of rings (size 3 to 8) (size 9 to 14) (size 15 to 20)
#    0.000    1.667    1.667    2.500    2.333    8.667 
#    0.000    4.167    0.000    0.000    0.000    0.000 
#    0.000    0.000    0.000    0.000    0.000    0.000 
#
# Total GULP energy -267836.693776 kJ/mol
# GULP energy per Si atom -5579.931120 kJ/mol
# Density = 2.223090 g / cm^3
# Si number density = 22.281613 Si / 1000 Ang^3
#
#
#
# Elastic Constant Matrix: (Units=GPa)
#
#
# Indices 1 2 3 4 5 6 
#
# 1 92.5047 15.4666 3.8024 0.0000 0.0000 0.0000
# 2 15.4666 46.2962 28.5826 0.0000 0.0000 0.0000
# 3 3.8024 28.5826 112.0863 0.0000 0.0000 0.0000
# 4 0.0000 0.0000 0.0000 21.8948 0.0000 0.0000
# 5 0.0000 0.0000 0.0000 0.0000 6.3102 0.0000
# 6 0.0000 0.0000 0.0000 0.0000 0.0000 34.1502
#
#
#
# Elastic Compliance Matrix: (Units=1/GPa)
#
#
# Indices 1 2 3 4 5 6 
#
# 1 0.011496 -0.004272 0.000700 0.000000 0.000000 0.000000
# 2 -0.004272 0.027224 -0.006797 0.000000 0.000000 0.000000
# 3 0.000700 -0.006797 0.010631 0.000000 0.000000 0.000000
# 4 0.000000 0.000000 0.000000 0.045673 0.000000 0.000000
# 5 0.000000 0.000000 0.000000 0.000000 0.158473 0.000000
# 6 0.000000 0.000000 0.000000 0.000000 0.000000 0.029282
#
#
# Mechanical properties :
#
#
# Convention : Reuss Voigt Hill
#
# Bulk Modulus (GPa) = 34.95196 38.51003 36.73100
# Shear Modulus (GPa) = 15.97152 26.00675 20.98914
#
# Velocity S-wave (km/s) = 2.68022 3.42011 3.07252
# Velocity P-wave (km/s) = 5.02977 5.73734 5.39517
#
# Compressibility (1/GPa) = 0.02861070
#
# Stress axis : x y z
#
# Youngs Moduli (GPa) = 86.98797 36.73240 94.06167
#
# Poissons Ratio (x) = 0.15693 -0.06580
# Poissons Ratio (y) = 0.37165 0.63937
# Poissons Ratio (z) = -0.06085 0.24968
#
# Static dielectric constant tensor:
#      x y z
#    x 1.791970 0.000000 0.000000 
#    y 0.000000 1.797350 0.000000 
#    z 0.000000 0.000000 1.836830 
# 
# From -- ./inp_files/2915.got.cif
#   From: 2010.05.17/outbox.cif.g08.bks.cpg/sg55_2_cif.got.tgz:2915.got - 2010.06.03 13:27:54.
