data_PCOD9427354
_publ_section_title
;
Structure prediction by ZEFSAII (Michael W. Deem and Ramdas Pophale) SiO2 
 PCOD9427354
Probable space group: P B A M
;
_chemical_formula_sum "Si O2"
_cell_formula_units_Z 48
_cell_length_a 16.823038
_cell_length_b 18.351318
_cell_length_c 9.123675
_cell_angle_alpha 90.000000
_cell_angle_beta 90.000000
_cell_angle_gamma 90.000000
_cell_volume 2816.705835
_symmetry_space_group_name_H-M "P B A M"
_symmetry_group_IT_number 55
_symmetry_cell_setting 'orthorhombic'
loop_
_space_group_symop_operation_xyz
x,y,z
-x,-y,z
1/2+x,1/2-y,-z
1/2-x,1/2+y,-z
-x,-y,-z
x,y,-z
1/2-x,1/2+y,z
1/2+x,1/2-y,z
loop_
_atom_site_type_symbol
_atom_site_label
_atom_site_fract_x
_atom_site_fract_y
_atom_site_fract_z
Si Si1 0.829552 0.404612 0.172773
Si Si2 0.161802 0.162966 0.824572
Si Si3 0.590005 0.477930 0.324607
Si Si4 0.992634 0.414335 0.674614
Si Si5 0.734996 0.553474 0.174624
Si Si6 0.862648 0.669797 0.823371
O O1 0.754964 0.352427 0.204064
O O2 0.795521 0.485951 0.201114
O O3 0.907098 0.389393 0.266556
O O4 0.848995 0.399918 0.000000
O O5 0.112570 0.100692 0.742248
O O6 0.140462 0.245238 0.784148
O O7 0.150528 0.153465 0.000000
O O8 0.500000 0.500000 0.286843
O O9 0.597569 0.475803 0.500000
O O10 0.654481 0.534324 0.259070
O O11 0.997552 0.407257 0.500000
O O12 0.063318 0.370087 0.749661
O O13 0.000000 0.500000 0.712856
O O14 0.781807 0.626571 0.216501
O O15 0.718649 0.554352 0.000000
O O16 0.869851 0.664115 0.000000
#
# Coordination Sequence:
#
# PCOD9427354 Si02
#       6
#     8   8   8   8   8   8
#     4   9  17  33  55  78 105 138 178 219 264 317
#     4   9  20  38  59  82 107 139 182 230 276 319
#     4  10  21  37  57  80 110 146 183 223 268 322
#     4  11  22  33  51  82 115 145 180 218 262 324
#     4   9  18  33  57  82 104 136 180 225 267 318
#     4  10  20  37  58  81 110 141 178 228 278 319
#
# _framework density 17.041183
#
# number of rings (size 3 to 8) (size 9 to 14) (size 15 to 20)
#    0.000    2.333    1.667    2.000    0.000    6.000 
#    3.000    0.000    0.000    0.000    0.000    0.000 
#    0.000    0.000    0.000    0.000    0.000    0.000 
#
# Total GULP energy -267792.397367 kJ/mol
# GULP energy per Si atom -5579.008278 kJ/mol
# Density = 1.700240 g / cm^3
# Si number density = 17.041183 Si / 1000 Ang^3
#
#
#
# Elastic Constant Matrix: (Units=GPa)
#
#
# Indices 1 2 3 4 5 6 
#
# 1 147.2758 82.1383 63.3518 0.0000 0.0000 0.0000
# 2 82.1383 116.4254 51.2067 0.0000 0.0000 0.0000
# 3 63.3518 51.2067 38.4670 0.0000 0.0000 0.0000
# 4 0.0000 0.0000 0.0000 11.9434 0.0000 0.0000
# 5 0.0000 0.0000 0.0000 0.0000 268.3328 0.0000
# 6 0.0000 0.0000 0.0000 0.0000 0.0000 21.3994
#
#
#
# Elastic Compliance Matrix: (Units=1/GPa)
#
#
# Indices 1 2 3 4 5 6 
#
# 1 0.023342 0.001062 -0.039856 0.000000 0.000000 0.000000
# 2 0.001062 0.020769 -0.029396 0.000000 0.000000 0.000000
# 3 -0.039856 -0.029396 0.130767 0.000000 0.000000 0.000000
# 4 0.000000 0.000000 0.000000 0.083728 0.000000 0.000000
# 5 0.000000 0.000000 0.000000 0.000000 0.003727 0.000000
# 6 0.000000 0.000000 0.000000 0.000000 0.000000 0.046730
#
#
# Mechanical properties :
#
#
# Convention : Reuss Voigt Hill
#
# Bulk Modulus (GPa) = 25.97542 77.28466 51.63004
# Shear Modulus (GPa) = 10.91042 67.36654 39.13848
#
# Velocity S-wave (km/s) = 2.53304 6.29424 4.79759
# Velocity P-wave (km/s) = 4.88169 9.91329 7.81359
#
# Compressibility (1/GPa) = 0.03849793
#
# Stress axis : x y z
#
# Youngs Moduli (GPa) = 42.84092 48.14758 7.64718
#
# Poissons Ratio (x) = -0.05111 0.30478
# Poissons Ratio (y) = -0.04548 0.22480
# Poissons Ratio (z) = 1.70745 1.41536
#
# Static dielectric constant tensor:
#      x y z
#    x 1.554900 0.000000 0.000000 
#    y 0.000000 1.570630 0.000000 
#    z 0.000000 0.000000 1.565860 
# 
# From -- ./inp_files/5628.got.cif
#   From: 2010.05.17/outbox.cif.g08.bks.cpg/sg55_3_cif.got.tgz:5628.got - 2010.06.03 13:27:54.
