data_PCOD9427380
_publ_section_title
;
Structure prediction by ZEFSAII (Michael W. Deem and Ramdas Pophale) SiO2 
 PCOD9427380
Probable space group: P B A M
;
_chemical_formula_sum "Si O2"
_cell_formula_units_Z 64
_cell_length_a 23.922170
_cell_length_b 15.109679
_cell_length_c 9.284030
_cell_angle_alpha 90.000000
_cell_angle_beta 90.000000
_cell_angle_gamma 90.000000
_cell_volume 3355.771223
_symmetry_space_group_name_H-M "P B A M"
_symmetry_group_IT_number 55
_symmetry_cell_setting 'orthorhombic'
loop_
_space_group_symop_operation_xyz
x,y,z
-x,-y,z
1/2+x,1/2-y,-z
1/2-x,1/2+y,-z
-x,-y,-z
x,y,-z
1/2-x,1/2+y,z
1/2+x,1/2-y,z
loop_
_atom_site_type_symbol
_atom_site_label
_atom_site_fract_x
_atom_site_fract_y
_atom_site_fract_z
Si Si1 0.695800 0.804811 0.328155
Si Si2 0.787178 0.512862 0.328976
Si Si3 0.175173 0.997992 0.166298
Si Si4 0.552195 0.559048 0.825366
Si Si5 0.380683 0.843494 0.328527
Si Si6 0.915854 0.253296 0.171173
Si Si7 0.509528 0.104445 0.833096
Si Si8 0.191241 0.209391 0.833825
O O1 0.698237 0.792025 0.500000
O O2 0.695789 0.911006 0.297965
O O3 0.641031 0.761234 0.260140
O O4 0.751884 0.770488 0.252043
O O5 0.778413 0.519189 0.500000
O O6 0.729040 0.535965 0.251801
O O7 0.837204 0.578278 0.288826
O O8 0.180879 0.104264 0.168886
O O9 0.113858 0.972449 0.223224
O O10 0.178750 0.968038 0.000000
O O11 0.500000 0.500000 0.772348
O O12 0.550176 0.663639 0.793009
O O13 0.552125 0.550124 0.000000
O O14 0.379370 0.831961 0.500000
O O15 0.441491 0.867860 0.272784
O O16 0.358816 0.757587 0.246576
O O17 0.954211 0.338758 0.197852
O O18 0.902738 0.250087 0.000000
O O19 0.500000 0.000000 0.820883
O O20 0.525295 0.123830 0.000000
O O21 0.195634 0.237323 0.000000
#
# Coordination Sequence:
#
# PCOD9427380 Si02
#       8
#     8   8   8   8   8   8   8   8
#     4  10  20  37  59  83 116 151 186 230 288 347
#     4   9  20  37  56  81 114 151 183 227 286 343
#     4   9  19  35  58  84 108 143 188 232 285 341
#     4   9  19  35  57  82 109 143 187 239 287 336
#     4  11  23  37  57  85 116 152 194 235 287 350
#     4  10  21  36  59  87 116 150 193 239 286 341
#     4  10  22  39  59  86 118 154 195 242 291 343
#     4  10  21  36  57  84 114 147 187 235 286 343
#
# _framework density 19.071622000000001
#
# number of rings (size 3 to 8) (size 9 to 14) (size 15 to 20)
#    0.000    2.250    0.000    1.875    3.500    2.750 
#    0.000    0.000    0.000    0.750    0.000    0.000 
#    0.000    0.000    0.000    0.000    0.000    0.000 
#
# Total GULP energy -357341.667574 kJ/mol
# GULP energy per Si atom -5583.463556 kJ/mol
# Density = 1.902821 g / cm^3
# Si number density = 19.071622 Si / 1000 Ang^3
#
#
#
# Elastic Constant Matrix: (Units=GPa)
#
#
# Indices 1 2 3 4 5 6 
#
# 1 81.8498 20.1650 31.5568 0.0000 0.0000 0.0000
# 2 20.1650 42.7638 20.1946 0.0000 0.0000 0.0000
# 3 31.5568 20.1946 46.1697 0.0000 0.0000 0.0000
# 4 0.0000 0.0000 0.0000 7.9049 0.0000 0.0000
# 5 0.0000 0.0000 0.0000 0.0000 1.4462 0.0000
# 6 0.0000 0.0000 0.0000 0.0000 0.0000 28.3526
#
#
#
# Elastic Compliance Matrix: (Units=1/GPa)
#
#
# Indices 1 2 3 4 5 6 
#
# 1 0.016924 -0.003173 -0.010179 0.000000 0.000000 0.000000
# 2 -0.003173 0.030067 -0.010982 0.000000 0.000000 0.000000
# 3 -0.010179 -0.010982 0.033420 0.000000 0.000000 0.000000
# 4 0.000000 0.000000 0.000000 0.126503 0.000000 0.000000
# 5 0.000000 0.000000 0.000000 0.000000 0.691489 0.000000
# 6 0.000000 0.000000 0.000000 0.000000 0.000000 0.035270
#
#
# Mechanical properties :
#
#
# Convention : Reuss Voigt Hill
#
# Bulk Modulus (GPa) = 31.50477 34.95732 33.23105
# Shear Modulus (GPa) = 5.03563 14.13187 9.58375
#
# Velocity S-wave (km/s) = 1.62669 2.72506 2.24411
# Velocity P-wave (km/s) = 4.48143 5.31701 4.91700
#
# Compressibility (1/GPa) = 0.03174123
#
# Stress axis : x y z
#
# Youngs Moduli (GPa) = 59.08797 33.25930 29.92184
#
# Poissons Ratio (x) = 0.10554 0.30459
# Poissons Ratio (y) = 0.18750 0.32861
# Poissons Ratio (z) = 0.60148 0.36526
#
# Static dielectric constant tensor:
#      x y z
#    x 1.634290 0.000000 0.000000 
#    y 0.000000 1.685950 0.000000 
#    z 0.000000 0.000000 1.637780 
# 
# From -- ./inp_files/9742.got.cif
#   From: 2010.05.17/outbox.cif.g08.bks.cpg/sg55_5_cif.got.tgz:9742.got - 2010.06.03 13:27:54.
