data_PCOD9427376
_publ_section_title
;
Structure prediction by ZEFSAII (Michael W. Deem and Ramdas Pophale) SiO2 
 PCOD9427376
Probable space group: P B A M
;
_chemical_formula_sum "Si O2"
_cell_formula_units_Z 32
_cell_length_a 16.435423
_cell_length_b 9.970312
_cell_length_c 7.342506
_cell_angle_alpha 90.000000
_cell_angle_beta 90.000000
_cell_angle_gamma 90.000000
_cell_volume 1203.189255
_symmetry_space_group_name_H-M "P B A M"
_symmetry_group_IT_number 55
_symmetry_cell_setting 'orthorhombic'
loop_
_space_group_symop_operation_xyz
x,y,z
-x,-y,z
1/2+x,1/2-y,-z
1/2-x,1/2+y,-z
-x,-y,-z
x,y,-z
1/2-x,1/2+y,z
1/2+x,1/2-y,z
loop_
_atom_site_type_symbol
_atom_site_label
_atom_site_fract_x
_atom_site_fract_y
_atom_site_fract_z
Si Si1 0.161081 0.828853 0.277954
Si Si2 0.017833 0.146196 0.208756
Si Si3 0.747080 0.923692 0.290557
Si Si4 0.418686 0.918894 0.221009
O O1 0.160654 0.826304 0.500000
O O2 0.072370 0.789695 0.211804
O O3 0.185465 0.976892 0.213777
O O4 0.226288 0.720396 0.211170
O O5 0.074533 0.263715 0.284841
O O6 0.042249 0.123510 0.000000
O O7 0.000000 0.000000 0.294788
O O8 0.769624 0.902459 0.500000
O O9 0.662488 0.006928 0.284809
O O10 0.500000 0.000000 0.277172
O O11 0.417552 0.917183 0.000000
#
# Coordination Sequence:
#
# PCOD9427376 Si02
#       4
#     8   8   8   8
#     4  10  22  39  57  82 114 147 185 228 274 328
#     4  10  22  39  58  83 114 145 184 232 278 327
#     4  10  22  38  57  82 113 147 185 228 275 329
#     4  10  20  37  59  82 109 143 184 229 274 326
#
# _framework density 26.595983
#
# number of rings (size 3 to 8) (size 9 to 14) (size 15 to 20)
#    0.000    2.000    2.500    0.000    3.500    3.000 
#    0.000    0.000    0.000    0.000    0.000    0.000 
#    0.000    0.000    0.000    0.000    0.000    0.000 
#
# Total GULP energy -179102.434977 kJ/mol
# GULP energy per Si atom -5596.951093 kJ/mol
# Density = 2.653545 g / cm^3
# Si number density = 26.595983 Si / 1000 Ang^3
#
#
#
# Elastic Constant Matrix: (Units=GPa)
#
#
# Indices 1 2 3 4 5 6 
#
# 1 86.4776 -8.2749 3.9518 0.0000 0.0000 0.0000
# 2 -8.2749 139.4517 20.6078 0.0000 0.0000 0.0000
# 3 3.9518 20.6078 124.8720 0.0000 0.0000 0.0000
# 4 0.0000 0.0000 0.0000 5.3927 0.0000 0.0000
# 5 0.0000 0.0000 0.0000 0.0000 19.7006 0.0000
# 6 0.0000 0.0000 0.0000 0.0000 0.0000 56.9062
#
#
#
# Elastic Compliance Matrix: (Units=1/GPa)
#
#
# Indices 1 2 3 4 5 6 
#
# 1 0.011660 0.000765 -0.000495 0.000000 0.000000 0.000000
# 2 0.000765 0.007400 -0.001246 0.000000 0.000000 0.000000
# 3 -0.000495 -0.001246 0.008229 0.000000 0.000000 0.000000
# 4 0.000000 0.000000 0.000000 0.185435 0.000000 0.000000
# 5 0.000000 0.000000 0.000000 0.000000 0.050760 0.000000
# 6 0.000000 0.000000 0.000000 0.000000 0.000000 0.017573
#
#
# Mechanical properties :
#
#
# Convention : Reuss Voigt Hill
#
# Bulk Modulus (GPa) = 39.46650 42.59674 41.03162
# Shear Modulus (GPa) = 17.15534 38.70100 27.92817
#
# Velocity S-wave (km/s) = 2.54251 3.81877 3.24402
# Velocity P-wave (km/s) = 4.84671 5.95777 5.43073
#
# Compressibility (1/GPa) = 0.02533794
#
# Stress axis : x y z
#
# Youngs Moduli (GPa) = 85.76673 135.12793 121.51525
#
# Poissons Ratio (x) = -0.10338 0.06018
# Poissons Ratio (y) = -0.06562 0.15135
# Poissons Ratio (z) = 0.04248 0.16830
#
# Static dielectric constant tensor:
#      x y z
#    x 2.048670 0.000000 0.000000 
#    y 0.000000 2.115220 0.000000 
#    z 0.000000 0.000000 1.966430 
# 
# From -- ./inp_files/1987.got.cif
#   From: 2010.05.17/outbox.cif.g08.bks.cpg/sg55_1_cif.got.tgz:1987.got - 2010.06.03 13:27:54.
