data_PCOD9427374
_publ_section_title
;
Structure prediction by ZEFSAII (Michael W. Deem and Ramdas Pophale) SiO2 
 PCOD9427374
Probable space group: P B A M
;
_chemical_formula_sum "Si O2"
_cell_formula_units_Z 56
_cell_length_a 14.635560
_cell_length_b 8.503805
_cell_length_c 24.420052
_cell_angle_alpha 90.000000
_cell_angle_beta 90.000000
_cell_angle_gamma 90.000000
_cell_volume 3039.269569
_symmetry_space_group_name_H-M "P B A M"
_symmetry_group_IT_number 55
_symmetry_cell_setting 'orthorhombic'
loop_
_space_group_symop_operation_xyz
x,y,z
-x,-y,z
1/2+x,1/2-y,-z
1/2-x,1/2+y,-z
-x,-y,-z
x,y,-z
1/2-x,1/2+y,z
1/2+x,1/2-y,z
loop_
_atom_site_type_symbol
_atom_site_label
_atom_site_fract_x
_atom_site_fract_y
_atom_site_fract_z
Si Si1 0.005672 0.688652 0.936661
Si Si2 0.375381 0.832775 0.437862
Si Si3 0.847406 0.184018 0.145469
Si Si4 0.006948 0.809392 0.235268
Si Si5 0.822903 0.301804 0.437296
Si Si6 0.524658 0.684256 0.639238
Si Si7 0.141955 0.193011 0.851314
O O1 0.920182 0.754009 0.902312
O O2 0.000000 0.500000 0.934196
O O3 0.097006 0.749562 0.906532
O O4 0.003445 0.737604 0.000000
O O5 0.409906 0.809959 0.500000
O O6 0.284355 0.729563 0.430646
O O7 0.451437 0.781853 0.395501
O O8 0.346900 0.014522 0.432459
O O9 0.743220 0.238120 0.147373
O O10 0.906752 0.238182 0.198071
O O11 0.851636 0.995394 0.146070
O O12 0.020255 0.760911 0.297805
O O13 0.915602 0.757310 0.202923
O O14 0.000000 0.000000 0.235327
O O15 0.846042 0.251125 0.500000
O O16 0.879673 0.210614 0.391437
O O17 0.500000 0.500000 0.637562
#
# Coordination Sequence:
#
# PCOD9427374 Si02
#       7
#     8   8   8   8   8   8   8
#     4  10  21  37  57  84 115 144 180 224 266 312
#     4  10  21  37  55  77 106 139 177 220 267 321
#     4  10  20  37  59  81 109 145 183 221 266 316
#     4   8  19  37  54  77 108 141 179 224 266 312
#     4  10  21  37  55  77 106 139 177 220 267 321
#     4  11  21  35  56  81 109 139 175 219 270 323
#     4  10  20  37  59  81 109 145 183 221 266 316
#
# _framework density 18.42548
#
# number of rings (size 3 to 8) (size 9 to 14) (size 15 to 20)
#    0.000    2.143    0.000    3.857    0.000    6.286 
#    0.000   11.429    0.000    0.000    0.000    0.000 
#    0.000    0.000    0.000    0.000    0.000    0.000 
#
# Total GULP energy -312658.880939 kJ/mol
# GULP energy per Si atom -5583.194302 kJ/mol
# Density = 1.838354 g / cm^3
# Si number density = 18.425480 Si / 1000 Ang^3
#
#
#
# Elastic Constant Matrix: (Units=GPa)
#
#
# Indices 1 2 3 4 5 6 
#
# 1 120.4233 10.0491 60.1435 0.0000 0.0000 0.0000
# 2 10.0491 35.0132 19.4147 0.0000 0.0000 0.0000
# 3 60.1435 19.4147 142.1688 0.0000 0.0000 0.0000
# 4 0.0000 0.0000 0.0000 23.1965 0.0000 0.0000
# 5 0.0000 0.0000 0.0000 0.0000 20.3965 0.0000
# 6 0.0000 0.0000 0.0000 0.0000 0.0000 34.3398
#
#
#
# Elastic Compliance Matrix: (Units=1/GPa)
#
#
# Indices 1 2 3 4 5 6 
#
# 1 0.010540 -0.000598 -0.004377 0.000000 0.000000 0.000000
# 2 -0.000598 0.030934 -0.003971 0.000000 0.000000 0.000000
# 3 -0.004377 -0.003971 0.009428 0.000000 0.000000 0.000000
# 4 0.000000 0.000000 0.000000 0.043110 0.000000 0.000000
# 5 0.000000 0.000000 0.000000 0.000000 0.049028 0.000000
# 6 0.000000 0.000000 0.000000 0.000000 0.000000 0.029121
#
#
# Mechanical properties :
#
#
# Convention : Reuss Voigt Hill
#
# Bulk Modulus (GPa) = 30.29457 52.97998 41.63727
# Shear Modulus (GPa) = 24.86848 29.45308 27.16078
#
# Velocity S-wave (km/s) = 3.67778 4.00246 3.84355
# Velocity P-wave (km/s) = 5.87470 7.08348 6.50722
#
# Compressibility (1/GPa) = 0.03300922
#
# Stress axis : x y z
#
# Youngs Moduli (GPa) = 94.87581 32.32643 106.06694
#
# Poissons Ratio (x) = 0.01933 0.46428
# Poissons Ratio (y) = 0.05673 0.42124
# Poissons Ratio (z) = 0.41530 0.12838
#
# Static dielectric constant tensor:
#      x y z
#    x 1.609830 0.000000 0.000000 
#    y 0.000000 1.632860 0.000000 
#    z 0.000000 0.000000 1.628050 
# 
# From -- ./inp_files/22966.got.cif
#   From: 2010.05.17/outbox.cif.g08.bks.cpg/sg55_12_cif.got.tgz:22966.got - 2010.06.03 13:27:54.
