data_PCOD9427385
_publ_section_title
;
Structure prediction by ZEFSAII (Michael W. Deem and Ramdas Pophale) SiO2 
 PCOD9427385
Probable space group: P B A M
;
_chemical_formula_sum "Si O2"
_cell_formula_units_Z 48
_cell_length_a 19.382131
_cell_length_b 15.034672
_cell_length_c 7.522497
_cell_angle_alpha 90.000000
_cell_angle_beta 90.000000
_cell_angle_gamma 90.000000
_cell_volume 2192.085582
_symmetry_space_group_name_H-M "P B A M"
_symmetry_group_IT_number 55
_symmetry_cell_setting 'orthorhombic'
loop_
_space_group_symop_operation_xyz
x,y,z
-x,-y,z
1/2+x,1/2-y,-z
1/2-x,1/2+y,-z
-x,-y,-z
x,y,-z
1/2-x,1/2+y,z
1/2+x,1/2-y,z
loop_
_atom_site_type_symbol
_atom_site_label
_atom_site_fract_x
_atom_site_fract_y
_atom_site_fract_z
Si Si1 0.169549 0.836841 0.204913
Si Si2 0.764386 0.816110 0.215692
Si Si3 0.914961 0.750343 0.215203
Si Si4 0.278777 0.984822 0.291384
Si Si5 0.977370 0.097895 0.782255
Si Si6 0.568236 0.046391 0.707565
O O1 0.203556 0.748177 0.282884
O O2 0.228164 0.912332 0.207909
O O3 0.098746 0.874848 0.281444
O O4 0.153394 0.815192 0.000000
O O5 0.838025 0.777097 0.274233
O O6 0.752004 0.917186 0.269275
O O7 0.764780 0.813288 0.000000
O O8 0.935953 0.652817 0.279106
O O9 0.968135 0.826775 0.270159
O O10 0.914682 0.747342 0.000000
O O11 0.281797 0.962365 0.500000
O O12 0.356739 0.980328 0.217270
O O13 0.976694 0.094859 0.000000
O O14 0.000000 0.000000 0.722852
O O15 0.570559 0.019761 0.500000
O O16 0.500000 0.000000 0.785172
#
# Coordination Sequence:
#
# PCOD9427385 Si02
#       6
#     8   8   8   8   8   8
#     4  10  20  37  59  85 114 146 187 236 286 333
#     4  10  21  36  58  86 114 146 188 239 290 336
#     4  10  20  37  61  88 113 148 192 234 284 337
#     4  11  23  38  59  84 113 152 193 232 282 342
#     4   9  18  33  56  84 115 147 180 227 283 337
#     4  10  23  41  57  79 115 157 192 231 284 338
#
# _framework density 21.896954000000001
#
# number of rings (size 3 to 8) (size 9 to 14) (size 15 to 20)
#    0.000    2.000    1.667    1.500    2.333    5.000 
#    0.000    0.833    0.000    2.000    0.000    0.000 
#    0.000    0.000    0.000    0.000    0.000    0.000 
#
# Total GULP energy -268267.497600 kJ/mol
# GULP energy per Si atom -5588.906200 kJ/mol
# Density = 2.184712 g / cm^3
# Si number density = 21.896954 Si / 1000 Ang^3
#
#
#
# Elastic Constant Matrix: (Units=GPa)
#
#
# Indices 1 2 3 4 5 6 
#
# 1 106.6623 3.5664 -0.8701 0.0000 0.0000 0.0000
# 2 3.5664 77.7221 -22.2738 0.0000 0.0000 0.0000
# 3 -0.8701 -22.2738 55.9154 0.0000 0.0000 0.0000
# 4 0.0000 0.0000 0.0000 32.4432 0.0000 0.0000
# 5 0.0000 0.0000 0.0000 0.0000 5.6591 0.0000
# 6 0.0000 0.0000 0.0000 0.0000 0.0000 42.4513
#
#
#
# Elastic Compliance Matrix: (Units=1/GPa)
#
#
# Indices 1 2 3 4 5 6 
#
# 1 0.009390 -0.000439 -0.000029 0.000000 0.000000 0.000000
# 2 -0.000439 0.014545 0.005787 0.000000 0.000000 0.000000
# 3 -0.000029 0.005787 0.020189 0.000000 0.000000 0.000000
# 4 0.000000 0.000000 0.000000 0.030823 0.000000 0.000000
# 5 0.000000 0.000000 0.000000 0.000000 0.176707 0.000000
# 6 0.000000 0.000000 0.000000 0.000000 0.000000 0.023556
#
#
# Mechanical properties :
#
#
# Convention : Reuss Voigt Hill
#
# Bulk Modulus (GPa) = 18.26075 22.34943 20.30509
# Shear Modulus (GPa) = 17.67871 33.43586 25.55729
#
# Velocity S-wave (km/s) = 2.84449 3.91188 3.42008
# Velocity P-wave (km/s) = 4.37558 5.53466 4.98890
#
# Compressibility (1/GPa) = 0.05476225
#
# Stress axis : x y z
#
# Youngs Moduli (GPa) = 106.49815 68.75214 49.53190
#
# Poissons Ratio (x) = 0.03019 0.00143
# Poissons Ratio (y) = 0.04677 -0.28665
# Poissons Ratio (z) = 0.00307 -0.39788
#
# Static dielectric constant tensor:
#      x y z
#    x 1.796890 0.000000 0.000000 
#    y 0.000000 1.727620 0.000000 
#    z 0.000000 0.000000 1.958930 
# 
# From -- ./inp_files/5600.got.cif
#   From: 2010.05.17/outbox.cif.g08.bks.cpg/sg55_3_cif.got.tgz:5600.got - 2010.06.03 13:27:54.
