data_PCOD9427698
_publ_section_title
;
Structure prediction by ZEFSAII (Michael W. Deem and Ramdas Pophale) SiO2 
 PCOD9427698
Probable space group: P B A M
;
_chemical_formula_sum "Si O2"
_cell_formula_units_Z 58
_cell_length_a 28.770828
_cell_length_b 11.746658
_cell_length_c 7.993967
_cell_angle_alpha 90.000000
_cell_angle_beta 90.000000
_cell_angle_gamma 90.000000
_cell_volume 2701.649696
_symmetry_space_group_name_H-M "P B A M"
_symmetry_group_IT_number 55
_symmetry_cell_setting 'orthorhombic'
loop_
_space_group_symop_operation_xyz
x,y,z
-x,-y,z
1/2+x,1/2-y,-z
1/2-x,1/2+y,-z
-x,-y,-z
x,y,-z
1/2-x,1/2+y,z
1/2+x,1/2-y,z
loop_
_atom_site_type_symbol
_atom_site_label
_atom_site_fract_x
_atom_site_fract_y
_atom_site_fract_z
Si Si1 0.500000 0.500000 0.500000
Si Si2 0.813871 0.854634 0.692731
Si Si3 0.846949 0.092472 0.193461
Si Si4 0.377936 0.071940 0.301466
Si Si5 0.061408 0.793481 0.691341
Si Si6 0.534104 0.367466 0.184959
Si Si7 0.787111 0.297678 0.195364
Si Si8 0.392261 0.816320 0.701655
O O1 0.534297 0.448903 0.347042
O O2 0.824383 0.880112 0.500000
O O3 0.759197 0.838059 0.714885
O O4 0.842385 0.741280 0.737452
O O5 0.832968 0.962305 0.792729
O O6 0.894006 0.127196 0.284516
O O7 0.805878 0.175181 0.257377
O O8 0.854207 0.123915 0.000000
O O9 0.367907 0.064294 0.500000
O O10 0.392604 0.947219 0.242278
O O11 0.418192 0.166818 0.285196
O O12 0.331052 0.118844 0.218006
O O13 0.043078 0.813143 0.500000
O O14 0.018291 0.818242 0.808697
O O15 0.569572 0.264546 0.215875
O O16 0.543447 0.418388 0.000000
O O17 0.775282 0.289000 0.000000
O O18 0.399768 0.815244 0.500000
#
# Coordination Sequence:
#
# PCOD9427698 Si02
#       8
#     2   8   8   8   8   8   8   8
#     4  12  26  48  68  92 140 172 226 264 322 398
#     4  11  24  38  61  87 123 164 209 263 324 394
#     4  10  22  39  60  89 123 160 211 264 319 387
#     4   9  20  40  69  93 127 172 220 268 328 389
#     4  10  20  40  66  96 129 171 218 272 321 386
#     4  12  26  43  69 100 133 178 224 274 335 392
#     4  10  22  40  60  88 123 161 209 268 324 385
#     4  10  23  44  62  94 134 172 217 275 330 392
#
# _framework density 21.468364999999999
#
# number of rings (size 3 to 8) (size 9 to 14) (size 15 to 20)
#    0.000    1.655    1.379    1.862    3.862    4.414 
#    0.000    2.759    0.000    0.000    0.000    0.000 
#    0.000    0.000    0.000    0.000    0.000    0.000 
#
# Total GULP energy -323810.882892 kJ/mol
# GULP energy per Si atom -5582.946257 kJ/mol
# Density = 2.141950 g / cm^3
# Si number density = 21.468365 Si / 1000 Ang^3
#
#
#
# Elastic Constant Matrix: (Units=GPa)
#
#
# Indices 1 2 3 4 5 6 
#
# 1 58.3658 11.2056 19.7165 0.0000 0.0000 0.0000
# 2 11.2056 82.7703 34.6916 0.0000 0.0000 0.0000
# 3 19.7165 34.6916 82.9176 0.0000 0.0000 0.0000
# 4 0.0000 0.0000 0.0000 18.4306 0.0000 0.0000
# 5 0.0000 0.0000 0.0000 0.0000 -396.2711 0.0000
# 6 0.0000 0.0000 0.0000 0.0000 0.0000 15.2271
#
#
#
# Elastic Compliance Matrix: (Units=1/GPa)
#
#
# Indices 1 2 3 4 5 6 
#
# 1 0.018674 -0.000809 -0.004102 0.000000 0.000000 0.000000
# 2 -0.000809 0.014686 -0.005952 0.000000 0.000000 0.000000
# 3 -0.004102 -0.005952 0.015526 0.000000 0.000000 0.000000
# 4 0.000000 0.000000 0.000000 0.054258 0.000000 0.000000
# 5 0.000000 0.000000 0.000000 0.000000 -0.002524 0.000000
# 6 0.000000 0.000000 0.000000 0.000000 0.000000 0.065672
#
#
# Mechanical properties :
#
#
# Convention : Reuss Voigt Hill
#
# Bulk Modulus (GPa) = 36.81873 39.47568 38.14721
# Shear Modulus (GPa) = 25.37149 -61.96002 -18.29426
#
# Velocity S-wave (km/s) = 3.44147 -5.37808 -2.92233
# Velocity P-wave (km/s) = 5.74274 4.48745 2.53396
#
# Compressibility (1/GPa) = 0.02716009
#
# Stress axis : x y z
#
# Youngs Moduli (GPa) = 53.54950 68.09298 64.40889
#
# Poissons Ratio (x) = 0.05508 0.26421
# Poissons Ratio (y) = 0.04331 0.38336
# Poissons Ratio (z) = 0.21966 0.40529
#
# Static dielectric constant tensor:
#      x y z
#    x 1.717220 0.000000 0.000000 
#    y 0.000000 1.729010 0.000000 
#    z 0.000000 0.000000 1.772940 
# 
# From -- ./inp_files/10685.got.cif
#   From: 2010.05.17/outbox.cif.g08.bks.cpg/sg55_6_cif.got.tgz:10685.got - 2010.06.03 13:27:54.
