data_PCOD9427626
_publ_section_title
;
Structure prediction by ZEFSAII (Michael W. Deem and Ramdas Pophale) SiO2 
 PCOD9427626
Probable space group: P B A M
;
_chemical_formula_sum "Si O2"
_cell_formula_units_Z 48
_cell_length_a 21.149863
_cell_length_b 9.056117
_cell_length_c 11.463494
_cell_angle_alpha 90.000000
_cell_angle_beta 90.000000
_cell_angle_gamma 90.000000
_cell_volume 2195.667590
_symmetry_space_group_name_H-M "P B A M"
_symmetry_group_IT_number 55
_symmetry_cell_setting 'orthorhombic'
loop_
_space_group_symop_operation_xyz
x,y,z
-x,-y,z
1/2+x,1/2-y,-z
1/2-x,1/2+y,-z
-x,-y,-z
x,y,-z
1/2-x,1/2+y,z
1/2+x,1/2-y,z
loop_
_atom_site_type_symbol
_atom_site_label
_atom_site_fract_x
_atom_site_fract_y
_atom_site_fract_z
Si Si1 0.393328 0.272933 0.868980
Si Si2 0.068478 0.067589 0.623377
Si Si3 0.190667 0.313361 0.637790
Si Si4 0.040888 0.201979 0.128085
Si Si5 0.314939 0.479622 0.717890
Si Si6 0.070839 0.480768 0.738759
O O1 0.465875 0.331427 0.870224
O O2 0.342689 0.396006 0.830968
O O3 0.399328 0.134502 0.781707
O O4 0.379191 0.221654 0.000000
O O5 0.076061 0.152547 0.500000
O O6 0.067893 0.137064 0.752292
O O7 0.126165 0.953369 0.629520
O O8 0.000000 0.000000 0.616668
O O9 0.198817 0.287169 0.500000
O O10 0.249362 0.408967 0.681716
O O11 0.193050 0.156659 0.706037
O O12 0.125012 0.399130 0.664263
O O13 0.054228 0.375878 0.149874
O O14 0.065422 0.158064 0.000000
O O15 0.000000 0.500000 0.683389
#
# Coordination Sequence:
#
# PCOD9427626 Si02
#       6
#     8   8   8   8   8   8
#     4  10  22  43  69 102 142 181 227 286 347 418
#     4  11  22  39  65 101 139 176 226 289 349 413
#     4  12  26  46  70  97 137 185 235 294 359 429
#     4  10  20  38  69 105 138 179 227 280 345 410
#     4  12  25  45  68  98 134 184 236 286 350 422
#     4  10  22  43  72 105 142 179 231 289 351 421
#
# _framework density 21.861234
#
# number of rings (size 3 to 8) (size 9 to 14) (size 15 to 20)
#    0.000    1.167    3.333    3.000    0.000    3.333 
#    0.000    8.333    0.000    0.000    0.000    0.000 
#    0.000    0.000    0.000    0.000    0.000    0.000 
#
# Total GULP energy -267373.063556 kJ/mol
# GULP energy per Si atom -5570.272157 kJ/mol
# Density = 2.181148 g / cm^3
# Si number density = 21.861234 Si / 1000 Ang^3
#
#
#
# Elastic Constant Matrix: (Units=GPa)
#
#
# Indices 1 2 3 4 5 6 
#
# 1 160.9166 53.0976 28.1753 0.0000 0.0000 0.0000
# 2 53.0976 115.7134 45.9859 0.0000 0.0000 0.0000
# 3 28.1753 45.9859 125.0162 0.0000 0.0000 0.0000
# 4 0.0000 0.0000 0.0000 22.8944 0.0000 0.0000
# 5 0.0000 0.0000 0.0000 0.0000 42.7791 0.0000
# 6 0.0000 0.0000 0.0000 0.0000 0.0000 30.7045
#
#
#
# Elastic Compliance Matrix: (Units=1/GPa)
#
#
# Indices 1 2 3 4 5 6 
#
# 1 0.007348 -0.003178 -0.000487 0.000000 0.000000 0.000000
# 2 -0.003178 0.011496 -0.003513 0.000000 0.000000 0.000000
# 3 -0.000487 -0.003513 0.009401 0.000000 0.000000 0.000000
# 4 0.000000 0.000000 0.000000 0.043679 0.000000 0.000000
# 5 0.000000 0.000000 0.000000 0.000000 0.023376 0.000000
# 6 0.000000 0.000000 0.000000 0.000000 0.000000 0.032568
#
#
# Mechanical properties :
#
#
# Convention : Reuss Voigt Hill
#
# Bulk Modulus (GPa) = 71.99547 72.90708 72.45128
# Shear Modulus (GPa) = 34.04726 37.56810 35.80768
#
# Velocity S-wave (km/s) = 3.95071 4.14995 4.05155
# Velocity P-wave (km/s) = 7.33588 7.50900 7.42295
#
# Compressibility (1/GPa) = 0.01388976
#
# Stress axis : x y z
#
# Youngs Moduli (GPa) = 136.08286 86.98325 106.37441
#
# Poissons Ratio (x) = 0.27647 0.05180
# Poissons Ratio (y) = 0.43254 0.37364
# Poissons Ratio (z) = 0.06627 0.30553
#
# Static dielectric constant tensor:
#      x y z
#    x 1.818640 0.000000 0.000000 
#    y 0.000000 1.961220 0.000000 
#    z 0.000000 0.000000 1.799960 
# 
# From -- ./inp_files/14807.got.cif
#   From: 2010.05.17/outbox.cif.g08.bks.cpg/sg55_8_cif.got.tgz:14807.got - 2010.06.03 13:27:54.
