data_PCOD9427160
_publ_section_title
;
Structure prediction by ZEFSAII (Michael W. Deem and Ramdas Pophale) SiO2 
 PCOD9427160
Probable space group: P B A M
;
_chemical_formula_sum "Si O2"
_cell_formula_units_Z 64
_cell_length_a 23.935966
_cell_length_b 13.003630
_cell_length_c 10.612794
_cell_angle_alpha 90.000000
_cell_angle_beta 90.000000
_cell_angle_gamma 90.000000
_cell_volume 3303.279312
_symmetry_space_group_name_H-M "P B A M"
_symmetry_group_IT_number 55
_symmetry_cell_setting 'orthorhombic'
loop_
_space_group_symop_operation_xyz
x,y,z
-x,-y,z
1/2+x,1/2-y,-z
1/2-x,1/2+y,-z
-x,-y,-z
x,y,-z
1/2-x,1/2+y,z
1/2+x,1/2-y,z
loop_
_atom_site_type_symbol
_atom_site_label
_atom_site_fract_x
_atom_site_fract_y
_atom_site_fract_z
Si Si1 0.641658 0.190960 0.856200
Si Si2 0.588004 0.851935 0.353256
Si Si3 0.933897 0.516915 0.147801
Si Si4 0.984256 0.164417 0.653378
Si Si5 0.294077 0.263022 0.639573
Si Si6 0.585494 0.469686 0.648744
Si Si7 0.199968 0.115321 0.730234
Si Si8 0.256946 0.418355 0.857137
O O1 0.665527 0.288637 0.785185
O O2 0.690976 0.105539 0.849890
O O3 0.586090 0.131705 0.816472
O O4 0.634494 0.223600 0.000000
O O5 0.579524 0.885757 0.500000
O O6 0.592196 0.941476 0.251359
O O7 0.537798 0.776167 0.311633
O O8 0.644492 0.784940 0.352257
O O9 0.000000 0.500000 0.153334
O O10 0.916906 0.500194 0.000000
O O11 0.983655 0.166502 0.500000
O O12 0.044690 0.122229 0.695597
O O13 0.939716 0.077320 0.696979
O O14 0.287386 0.310854 0.500000
O O15 0.249073 0.170189 0.652118
O O16 0.283495 0.343494 0.751796
O O17 0.576107 0.472961 0.500000
O O18 0.650580 0.450756 0.667716
O O19 0.228512 0.036178 0.826979
O O20 0.274964 0.392351 0.000000
#
# Coordination Sequence:
#
# PCOD9427160 Si02
#       8
#     8   8   8   8   8   8   8   8
#     4   9  20  38  55  77 109 144 187 231 274 337
#     4  10  20  36  58  80 109 147 187 233 280 335
#     4  10  22  39  58  79 108 147 189 235 290 344
#     4   8  16  31  51  75 104 144 187 221 265 328
#     4  10  22  37  55  86 120 150 187 235 292 343
#     4   9  17  30  49  77 111 143 179 224 273 330
#     4  11  20  32  57  84 111 146 185 235 288 335
#     4  10  21  37  58  83 113 152 193 230 278 342
#
# _framework density 19.374687000000002
#
# number of rings (size 3 to 8) (size 9 to 14) (size 15 to 20)
#    0.000    2.375    0.000    3.000    1.750    3.250 
#    0.000    4.375    0.000    0.000    0.000    3.500 
#    0.000    0.000    0.000    0.000    0.000    0.000 
#
# Total GULP energy -356525.209555 kJ/mol
# GULP energy per Si atom -5570.706399 kJ/mol
# Density = 1.933059 g / cm^3
# Si number density = 19.374687 Si / 1000 Ang^3
#
#
#
# Elastic Constant Matrix: (Units=GPa)
#
#
# Indices 1 2 3 4 5 6 
#
# 1 58.2397 12.0651 16.7351 0.0000 0.0000 0.0000
# 2 12.0651 56.7628 36.5951 0.0000 0.0000 0.0000
# 3 16.7351 36.5951 86.5117 0.0000 0.0000 0.0000
# 4 0.0000 0.0000 0.0000 21.9255 0.0000 0.0000
# 5 0.0000 0.0000 0.0000 0.0000 21.2323 0.0000
# 6 0.0000 0.0000 0.0000 0.0000 0.0000 32.6098
#
#
#
# Elastic Compliance Matrix: (Units=1/GPa)
#
#
# Indices 1 2 3 4 5 6 
#
# 1 0.018382 -0.002220 -0.002617 0.000000 0.000000 0.000000
# 2 -0.002220 0.024491 -0.009931 0.000000 0.000000 0.000000
# 3 -0.002617 -0.009931 0.016266 0.000000 0.000000 0.000000
# 4 0.000000 0.000000 0.000000 0.045609 0.000000 0.000000
# 5 0.000000 0.000000 0.000000 0.000000 0.047098 0.000000
# 6 0.000000 0.000000 0.000000 0.000000 0.000000 0.030666
#
#
# Mechanical properties :
#
#
# Convention : Reuss Voigt Hill
#
# Bulk Modulus (GPa) = 33.77849 36.92276 35.35062
# Shear Modulus (GPa) = 22.53111 24.22811 23.37961
#
# Velocity S-wave (km/s) = 3.41385 3.54008 3.47754
# Velocity P-wave (km/s) = 5.74555 5.98399 5.86598
#
# Compressibility (1/GPa) = 0.02960464
#
# Stress axis : x y z
#
# Youngs Moduli (GPa) = 54.40024 40.83081 61.47786
#
# Poissons Ratio (x) = 0.09065 0.16087
# Poissons Ratio (y) = 0.12078 0.61051
# Poissons Ratio (z) = 0.14235 0.40547
#
# Static dielectric constant tensor:
#      x y z
#    x 1.702200 0.000000 0.000000 
#    y 0.000000 1.701070 0.000000 
#    z 0.000000 0.000000 1.669900 
# 
# From -- ./inp_files/15752.got.cif
#   From: 2010.05.17/outbox.cif.g08.bks.cpg/sg55_8_cif.got.tgz:15752.got - 2010.06.03 13:27:54.
