data_PCOD9427702
_publ_section_title
;
Structure prediction by ZEFSAII (Michael W. Deem and Ramdas Pophale) SiO2 
 PCOD9427702
Probable space group: P B A M
;
_chemical_formula_sum "Si O2"
_cell_formula_units_Z 56
_cell_length_a 18.573344
_cell_length_b 8.961983
_cell_length_c 15.495661
_cell_angle_alpha 90.000000
_cell_angle_beta 90.000000
_cell_angle_gamma 90.000000
_cell_volume 2579.314650
_symmetry_space_group_name_H-M "P B A M"
_symmetry_group_IT_number 55
_symmetry_cell_setting 'orthorhombic'
loop_
_space_group_symop_operation_xyz
x,y,z
-x,-y,z
1/2+x,1/2-y,-z
1/2-x,1/2+y,-z
-x,-y,-z
x,y,-z
1/2-x,1/2+y,z
1/2+x,1/2-y,z
loop_
_atom_site_type_symbol
_atom_site_label
_atom_site_fract_x
_atom_site_fract_y
_atom_site_fract_z
Si Si1 0.599407 0.883162 0.378677
Si Si2 0.701529 0.623150 0.599769
Si Si3 0.058981 0.283675 0.407990
Si Si4 0.355441 0.476507 0.906244
Si Si5 0.310351 0.993166 0.741417
Si Si6 0.261596 0.738765 0.147445
Si Si7 0.916923 0.959652 0.282571
O O1 0.671088 0.793225 0.404604
O O2 0.527525 0.793406 0.398815
O O3 0.586060 0.047662 0.414555
O O4 0.614368 0.927835 0.279768
O O5 0.709986 0.574004 0.500000
O O6 0.770795 0.584536 0.658835
O O7 0.637175 0.549881 0.655697
O O8 0.076504 0.206791 0.500000
O O9 0.089583 0.205757 0.322963
O O10 0.306407 0.328637 0.890791
O O11 0.303413 0.621229 0.910439
O O12 0.398715 0.507281 0.817271
O O13 0.392539 0.462982 0.000000
O O14 0.311316 0.870354 0.815647
O O15 0.262099 0.131114 0.774060
O O16 0.000000 0.000000 0.297176
#
# Coordination Sequence:
#
# PCOD9427702 Si02
#       7
#     8   8   8   8   8   8   8
#     4  11  22  39  59  88 127 170 219 266 301 367
#     4  12  24  39  61  90 125 169 213 263 310 365
#     4  11  24  39  60  88 124 176 224 258 301 369
#     4  11  23  42  68  99 123 158 207 263 323 388
#     4  11  21  40  61  92 128 165 204 257 321 371
#     4  10  20  40  67  91 123 160 199 252 321 389
#     4  12  24  42  64  90 126 170 212 265 319 379
#
# _framework density 21.711193000000002
#
# number of rings (size 3 to 8) (size 9 to 14) (size 15 to 20)
#    0.000    0.857    5.714    3.429    0.000    2.571 
#    0.000    0.000    0.000    0.000    0.000    3.000 
#    0.000    0.000    0.000    0.000    0.000    0.000 
#
# Total GULP energy -312039.350155 kJ/mol
# GULP energy per Si atom -5572.131253 kJ/mol
# Density = 2.166178 g / cm^3
# Si number density = 21.711193 Si / 1000 Ang^3
#
#
#
# Elastic Constant Matrix: (Units=GPa)
#
#
# Indices 1 2 3 4 5 6 
#
# 1 60.6061 10.0908 20.4128 0.0000 0.0000 0.0000
# 2 10.0908 97.7761 26.2070 0.0000 0.0000 0.0000
# 3 20.4128 26.2070 132.0378 0.0000 0.0000 0.0000
# 4 0.0000 0.0000 0.0000 58.7292 0.0000 0.0000
# 5 0.0000 0.0000 0.0000 0.0000 19.7172 0.0000
# 6 0.0000 0.0000 0.0000 0.0000 0.0000 25.5508
#
#
#
# Elastic Compliance Matrix: (Units=1/GPa)
#
#
# Indices 1 2 3 4 5 6 
#
# 1 0.017527 -0.001143 -0.002483 0.000000 0.000000 0.000000
# 2 -0.001143 0.010877 -0.001982 0.000000 0.000000 0.000000
# 3 -0.002483 -0.001982 0.008351 0.000000 0.000000 0.000000
# 4 0.000000 0.000000 0.000000 0.017027 0.000000 0.000000
# 5 0.000000 0.000000 0.000000 0.000000 0.050717 0.000000
# 6 0.000000 0.000000 0.000000 0.000000 0.000000 0.039138
#
#
# Mechanical properties :
#
#
# Convention : Reuss Voigt Hill
#
# Bulk Modulus (GPa) = 39.15747 44.87125 42.01436
# Shear Modulus (GPa) = 30.60635 36.38009 33.49322
#
# Velocity S-wave (km/s) = 3.75868 4.09790 3.93195
# Velocity P-wave (km/s) = 6.07549 6.56525 6.32511
#
# Compressibility (1/GPa) = 0.02553791
#
# Stress axis : x y z
#
# Youngs Moduli (GPa) = 57.05636 91.93973 119.74898
#
# Poissons Ratio (x) = 0.10512 0.29729
# Poissons Ratio (y) = 0.06524 0.23735
# Poissons Ratio (z) = 0.14165 0.18223
#
# Static dielectric constant tensor:
#      x y z
#    x 1.823140 0.000000 0.000000 
#    y 0.000000 1.861230 0.000000 
#    z 0.000000 0.000000 1.890170 
# 
# From -- ./inp_files/19724.got.cif
#   From: 2010.05.17/outbox.cif.g08.bks.cpg/sg55_10_cif.got.tgz:19724.got - 2010.06.03 13:27:54.
