data_PCOD9427921
_publ_section_title
;
Structure prediction by ZEFSAII (Michael W. Deem and Ramdas Pophale) SiO2 
 PCOD9427921
Probable space group: P B A M
;
_chemical_formula_sum "Si O2"
_cell_formula_units_Z 64
_cell_length_a 15.813183
_cell_length_b 23.520351
_cell_length_c 7.543583
_cell_angle_alpha 90.000000
_cell_angle_beta 90.000000
_cell_angle_gamma 90.000000
_cell_volume 2805.697005
_symmetry_space_group_name_H-M "P B A M"
_symmetry_group_IT_number 55
_symmetry_cell_setting 'orthorhombic'
loop_
_space_group_symop_operation_xyz
x,y,z
-x,-y,z
1/2+x,1/2-y,-z
1/2-x,1/2+y,-z
-x,-y,-z
x,y,-z
1/2-x,1/2+y,z
1/2+x,1/2-y,z
loop_
_atom_site_type_symbol
_atom_site_label
_atom_site_fract_x
_atom_site_fract_y
_atom_site_fract_z
Si Si1 0.503204 0.838073 0.205032
Si Si2 0.359707 0.384140 0.792511
Si Si3 0.310044 0.822851 0.286313
Si Si4 0.591441 0.493661 0.299498
Si Si5 0.248905 0.077008 0.718953
Si Si6 0.507459 0.710246 0.785929
Si Si7 0.188699 0.196449 0.290267
Si Si8 0.927844 0.458969 0.703177
O O1 0.401522 0.840385 0.216318
O O2 0.524406 0.774937 0.277762
O O3 0.540469 0.893721 0.296155
O O4 0.529717 0.840731 0.000000
O O5 0.264610 0.363339 0.770919
O O6 0.372436 0.443173 0.695803
O O7 0.423379 0.335166 0.725921
O O8 0.378364 0.393252 0.000000
O O9 0.315592 0.821973 0.500000
O O10 0.289659 0.758926 0.220192
O O11 0.500000 0.500000 0.211744
O O12 0.576619 0.471422 0.500000
O O13 0.663240 0.453725 0.220895
O O14 0.250590 0.076011 0.500000
O O15 0.240539 0.142499 0.777682
O O16 0.333440 0.045081 0.780593
O O17 0.412644 0.691000 0.735828
O O18 0.509712 0.713012 0.000000
O O19 0.204190 0.197780 0.500000
O O20 0.917404 0.479039 0.500000
O O21 0.000000 0.500000 0.783630
#
# Coordination Sequence:
#
# PCOD9427921 Si02
#       8
#     8   8   8   8   8   8   8   8
#     4  10  21  39  60  83 114 151 191 237 289 348
#     4  11  23  37  56  84 119 155 192 235 286 349
#     4  10  21  36  58  87 115 147 187 237 291 347
#     4  10  21  38  61  87 116 156 199 243 294 344
#     4   9  19  36  58  85 118 150 191 245 293 342
#     4   9  20  37  56  82 118 154 184 229 292 349
#     4   9  18  35  59  85 111 144 190 239 287 340
#     4  10  22  38  58  83 113 154 196 242 296 346
#
# _framework density 22.810731000000001
#
# number of rings (size 3 to 8) (size 9 to 14) (size 15 to 20)
#    0.000    2.250    0.000    1.875    3.500    3.500 
#    0.000    1.875    0.000    0.000    0.000    0.000 
#    0.000    0.000    0.000    0.000    0.000    0.000 
#
# Total GULP energy -357554.623667 kJ/mol
# GULP energy per Si atom -5586.790995 kJ/mol
# Density = 2.275881 g / cm^3
# Si number density = 22.810731 Si / 1000 Ang^3
#
#
#
# Elastic Constant Matrix: (Units=GPa)
#
#
# Indices 1 2 3 4 5 6 
#
# 1 76.9563 30.0923 -6.3403 0.0000 0.0000 0.0000
# 2 30.0923 57.0457 -4.9186 0.0000 0.0000 0.0000
# 3 -6.3403 -4.9186 65.7632 0.0000 0.0000 0.0000
# 4 0.0000 0.0000 0.0000 25.0166 0.0000 0.0000
# 5 0.0000 0.0000 0.0000 0.0000 -5.1811 0.0000
# 6 0.0000 0.0000 0.0000 0.0000 0.0000 36.1724
#
#
#
# Elastic Compliance Matrix: (Units=1/GPa)
#
#
# Indices 1 2 3 4 5 6 
#
# 1 0.016429 -0.008585 0.000942 0.000000 0.000000 0.000000
# 2 -0.008585 0.022130 0.000827 0.000000 0.000000 0.000000
# 3 0.000942 0.000827 0.015359 0.000000 0.000000 0.000000
# 4 0.000000 0.000000 0.000000 0.039973 0.000000 0.000000
# 5 0.000000 0.000000 0.000000 0.000000 -0.193009 0.000000
# 6 0.000000 0.000000 0.000000 0.000000 0.000000 0.027645
#
#
# Mechanical properties :
#
#
# Convention : Reuss Voigt Hill
#
# Bulk Modulus (GPa) = 24.82268 26.38133 25.60200
# Shear Modulus (GPa) = -112.58371 23.26369 -44.66001
#
# Velocity S-wave (km/s) = -7.03298 3.19698 -4.42956
# Velocity P-wave (km/s) = 7.41921 5.02176 3.86178
#
# Compressibility (1/GPa) = 0.04028574
#
# Stress axis : x y z
#
# Youngs Moduli (GPa) = 60.86750 45.18744 65.10938
#
# Poissons Ratio (x) = 0.38795 -0.06132
# Poissons Ratio (y) = 0.52257 -0.05387
# Poissons Ratio (z) = -0.05733 -0.03739
#
# Static dielectric constant tensor:
#      x y z
#    x 1.818800 0.000000 0.000000 
#    y 0.000000 1.825610 0.000000 
#    z 0.000000 0.000000 1.869590 
# 
# From -- ./inp_files/6522.got.cif
#   From: 2010.05.17/outbox.cif.g08.bks.cpg/sg55_4_cif.got.tgz:6522.got - 2010.06.03 13:27:54.
