data_PCOD9427266
_publ_section_title
;
Structure prediction by ZEFSAII (Michael W. Deem and Ramdas Pophale) SiO2 
 PCOD9427266
Probable space group: P B A M
;
_chemical_formula_sum "Si O2"
_cell_formula_units_Z 56
_cell_length_a 18.299578
_cell_length_b 12.092514
_cell_length_c 13.814946
_cell_angle_alpha 90.000000
_cell_angle_beta 90.000000
_cell_angle_gamma 90.000000
_cell_volume 3057.080433
_symmetry_space_group_name_H-M "P B A M"
_symmetry_group_IT_number 55
_symmetry_cell_setting 'orthorhombic'
loop_
_space_group_symop_operation_xyz
x,y,z
-x,-y,z
1/2+x,1/2-y,-z
1/2-x,1/2+y,-z
-x,-y,-z
x,y,-z
1/2-x,1/2+y,z
1/2+x,1/2-y,z
loop_
_atom_site_type_symbol
_atom_site_label
_atom_site_fract_x
_atom_site_fract_y
_atom_site_fract_z
Si Si1 0.040482 0.340607 0.111742
Si Si2 0.066828 0.082849 0.890503
Si Si3 0.944921 0.410763 0.293328
Si Si4 0.791832 0.779681 0.611767
Si Si5 0.377414 0.297339 0.388603
Si Si6 0.673368 0.498275 0.728473
Si Si7 0.330405 0.912318 0.756452
O O1 0.039491 0.208133 0.116604
O O2 0.119882 0.378051 0.152164
O O3 0.980608 0.384217 0.188279
O O4 0.029179 0.373792 0.000000
O O5 0.128763 0.058488 0.813514
O O6 0.094219 0.065558 0.000000
O O7 0.000000 0.000000 0.874332
O O8 0.930965 0.296894 0.348200
O O9 0.869923 0.477902 0.283197
O O10 0.000000 0.500000 0.340617
O O11 0.815335 0.771302 0.500000
O O12 0.705469 0.750873 0.615104
O O13 0.831321 0.688326 0.679288
O O14 0.804990 0.902126 0.653007
O O15 0.394289 0.323031 0.500000
O O16 0.374277 0.407474 0.324254
O O17 0.746118 0.556521 0.770534
#
# Coordination Sequence:
#
# PCOD9427266 Si02
#       7
#     8   8   8   8   8   8   8
#     4  10  21  39  61  86 118 158 199 241 299 359
#     4  10  21  38  61  85 114 155 197 239 296 358
#     4  10  21  37  59  84 122 159 196 241 294 345
#     4  10  20  36  60  87 115 153 194 240 297 352
#     4  10  21  36  57  87 118 154 198 240 293 350
#     4  11  20  37  64  85 119 151 195 251 296 348
#     4  10  21  36  58  90 118 151 194 246 294 349
#
# _framework density 18.318131000000001
#
# number of rings (size 3 to 8) (size 9 to 14) (size 15 to 20)
#    0.000    1.857    2.857    1.286    0.000    4.571 
#    0.000    2.143    0.000    2.571    0.000    0.000 
#    0.000    0.000    0.000    0.000    0.000    0.000 
#
# Total GULP energy -312402.801712 kJ/mol
# GULP energy per Si atom -5578.621459 kJ/mol
# Density = 1.827644 g / cm^3
# Si number density = 18.318131 Si / 1000 Ang^3
#
#
#
# Elastic Constant Matrix: (Units=GPa)
#
#
# Indices 1 2 3 4 5 6 
#
# 1 39.0905 21.3546 35.9170 0.0000 0.0000 0.0000
# 2 21.3546 90.9455 18.3220 0.0000 0.0000 0.0000
# 3 35.9170 18.3220 61.7048 0.0000 0.0000 0.0000
# 4 0.0000 0.0000 0.0000 22.9021 0.0000 0.0000
# 5 0.0000 0.0000 0.0000 0.0000 21.2920 0.0000
# 6 0.0000 0.0000 0.0000 0.0000 0.0000 36.1651
#
#
#
# Elastic Compliance Matrix: (Units=1/GPa)
#
#
# Indices 1 2 3 4 5 6 
#
# 1 0.059355 -0.007421 -0.032346 0.000000 0.000000 0.000000
# 2 -0.007421 0.012623 0.000571 0.000000 0.000000 0.000000
# 3 -0.032346 0.000571 0.034865 0.000000 0.000000 0.000000
# 4 0.000000 0.000000 0.000000 0.043664 0.000000 0.000000
# 5 0.000000 0.000000 0.000000 0.000000 0.046966 0.000000
# 6 0.000000 0.000000 0.000000 0.000000 0.000000 0.027651
#
#
# Mechanical properties :
#
#
# Convention : Reuss Voigt Hill
#
# Bulk Modulus (GPa) = 35.14689 38.10311 36.62500
# Shear Modulus (GPa) = 15.97449 23.81499 19.89474
#
# Velocity S-wave (km/s) = 2.95627 3.60957 3.29913
# Velocity P-wave (km/s) = 5.55709 6.18206 5.87789
#
# Compressibility (1/GPa) = 0.02845202
#
# Stress axis : x y z
#
# Youngs Moduli (GPa) = 16.84765 79.22104 28.68245
#
# Poissons Ratio (x) = 0.58786 0.92777
# Poissons Ratio (y) = 0.12502 -0.01638
# Poissons Ratio (z) = 0.54496 -0.04525
#
# Static dielectric constant tensor:
#      x y z
#    x 1.626270 0.000000 0.000000 
#    y 0.000000 1.632260 0.000000 
#    z 0.000000 0.000000 1.614410 
# 
# From -- ./inp_files/13349.got.cif
#   From: 2010.05.17/outbox.cif.g08.bks.cpg/sg55_7_cif.got.tgz:13349.got - 2010.06.03 13:27:54.
