data_PCOD9427100
_publ_section_title
;
Structure prediction by ZEFSAII (Michael W. Deem and Ramdas Pophale) SiO2 
 PCOD9427100
Probable space group: P B A M
;
_chemical_formula_sum "Si O2"
_cell_formula_units_Z 56
_cell_length_a 9.915596
_cell_length_b 20.537842
_cell_length_c 15.277717
_cell_angle_alpha 90.000000
_cell_angle_beta 90.000000
_cell_angle_gamma 90.000000
_cell_volume 3111.229823
_symmetry_space_group_name_H-M "P B A M"
_symmetry_group_IT_number 55
_symmetry_cell_setting 'orthorhombic'
loop_
_space_group_symop_operation_xyz
x,y,z
-x,-y,z
1/2+x,1/2-y,-z
1/2-x,1/2+y,-z
-x,-y,-z
x,y,-z
1/2-x,1/2+y,z
1/2+x,1/2-y,z
loop_
_atom_site_type_symbol
_atom_site_label
_atom_site_fract_x
_atom_site_fract_y
_atom_site_fract_z
Si Si1 0.920196 0.202750 0.601702
Si Si2 0.217397 0.383059 0.717917
Si Si3 0.654385 0.395565 0.401428
Si Si4 0.040109 0.644830 0.602976
Si Si5 0.184912 0.556931 0.903163
Si Si6 0.882073 0.598325 0.902594
Si Si7 0.862449 0.981272 0.756422
O O1 0.872360 0.196162 0.500000
O O2 0.819746 0.164788 0.666887
O O3 0.936212 0.278741 0.621305
O O4 0.068820 0.170653 0.605280
O O5 0.184437 0.366668 0.819593
O O6 0.280028 0.455385 0.725764
O O7 0.077539 0.382824 0.663965
O O8 0.636020 0.420223 0.500000
O O9 0.813568 0.387661 0.385259
O O10 0.596129 0.442831 0.329572
O O11 0.003063 0.638360 0.500000
O O12 0.158722 0.478528 0.902129
O O13 0.278958 0.565622 0.820105
O O14 0.043754 0.594093 0.892660
O O15 0.239519 0.572655 0.000000
O O16 0.849253 0.623699 0.000000
O O17 0.000000 0.000000 0.805093
#
# Coordination Sequence:
#
# PCOD9427100 Si02
#       7
#     8   8   8   8   8   8   8
#     4  10  20  36  55  75 103 137 177 220 262 302
#     4  11  20  33  56  80 102 140 173 211 262 317
#     4  10  21  35  50  72 107 141 165 211 268 313
#     4  10  21  36  55  78  99 130 185 231 251 292
#     4   8  15  29  49  72 103 138 170 208 252 300
#     4   8  15  29  50  77 104 133 169 209 255 306
#     4  11  21  33  48  76 111 139 171 209 266 333
#
# _framework density 17.999313999999998
#
# number of rings (size 3 to 8) (size 9 to 14) (size 15 to 20)
#    0.000    2.286    1.429    3.000    0.000    5.714 
#    0.000    1.429    0.000    0.857    0.000    2.000 
#    0.000    0.000    0.000    0.000    0.000    0.000 
#
# Total GULP energy -312019.845317 kJ/mol
# GULP energy per Si atom -5571.782952 kJ/mol
# Density = 1.795835 g / cm^3
# Si number density = 17.999314 Si / 1000 Ang^3
#
#
#
# Elastic Constant Matrix: (Units=GPa)
#
#
# Indices 1 2 3 4 5 6 
#
# 1 48.1595 -5.9485 29.8604 0.0000 0.0000 0.0000
# 2 -5.9485 23.1326 14.1532 0.0000 0.0000 0.0000
# 3 29.8604 14.1532 92.5972 0.0000 0.0000 0.0000
# 4 0.0000 0.0000 0.0000 -1.0128 0.0000 0.0000
# 5 0.0000 0.0000 0.0000 0.0000 19.0164 0.0000
# 6 0.0000 0.0000 0.0000 0.0000 0.0000 15.9336
#
#
#
# Elastic Compliance Matrix: (Units=1/GPa)
#
#
# Indices 1 2 3 4 5 6 
#
# 1 0.030066 0.015073 -0.012000 0.000000 0.000000 0.000000
# 2 0.015073 0.055245 -0.013305 0.000000 0.000000 0.000000
# 3 -0.012000 -0.013305 0.016703 0.000000 0.000000 0.000000
# 4 0.000000 0.000000 0.000000 -0.987358 0.000000 0.000000
# 5 0.000000 0.000000 0.000000 0.000000 0.052586 0.000000
# 6 0.000000 0.000000 0.000000 0.000000 0.000000 0.062760
#
#
# Mechanical properties :
#
#
# Convention : Reuss Voigt Hill
#
# Bulk Modulus (GPa) = 12.26214 26.66880 19.46547
# Shear Modulus (GPa) = -6.92185 15.17573 4.12694
#
# Velocity S-wave (km/s) = -1.96315 2.90682 1.51585
# Velocity P-wave (km/s) = 1.29951 5.11027 3.72851
#
# Compressibility (1/GPa) = 0.08155186
#
# Stress axis : x y z
#
# Youngs Moduli (GPa) = 33.25996 18.10106 59.87087
#
# Poissons Ratio (x) = -0.27284 0.71842
# Poissons Ratio (y) = -0.50133 0.79657
# Poissons Ratio (z) = 0.39910 0.24083
#
# Static dielectric constant tensor:
#      x y z
#    x 1.654330 0.000000 0.000000 
#    y 0.000000 1.589240 0.000000 
#    z 0.000000 0.000000 1.639110 
# 
# From -- ./inp_files/17621.got.cif
#   From: 2010.05.17/outbox.cif.g08.bks.cpg/sg55_9_cif.got.tgz:17621.got - 2010.06.03 13:27:54.
