data_PCOD9427238
_publ_section_title
;
Structure prediction by ZEFSAII (Michael W. Deem and Ramdas Pophale) SiO2 
 PCOD9427238
Probable space group: P B A M
;
_chemical_formula_sum "Si O2"
_cell_formula_units_Z 64
_cell_length_a 16.024318
_cell_length_b 23.515328
_cell_length_c 7.648131
_cell_angle_alpha 90.000000
_cell_angle_beta 90.000000
_cell_angle_gamma 90.000000
_cell_volume 2881.946496
_symmetry_space_group_name_H-M "P B A M"
_symmetry_group_IT_number 55
_symmetry_cell_setting 'orthorhombic'
loop_
_space_group_symop_operation_xyz
x,y,z
-x,-y,z
1/2+x,1/2-y,-z
1/2-x,1/2+y,-z
-x,-y,-z
x,y,-z
1/2-x,1/2+y,z
1/2+x,1/2-y,z
loop_
_atom_site_type_symbol
_atom_site_label
_atom_site_fract_x
_atom_site_fract_y
_atom_site_fract_z
Si Si1 0.005382 0.836697 0.709119
Si Si2 0.512077 0.208242 0.791227
Si Si3 0.929635 0.957146 0.796360
Si Si4 0.251189 0.072640 0.784842
Si Si5 0.678095 0.809327 0.208864
Si Si6 0.351449 0.883384 0.703293
Si Si7 0.193298 0.817773 0.290309
Si Si8 0.590542 0.997222 0.802124
O O1 0.005331 0.843376 0.500000
O O2 0.101104 0.832861 0.774839
O O3 0.969270 0.774332 0.750908
O O4 0.961249 0.892070 0.785311
O O5 0.418257 0.192744 0.726191
O O6 0.579711 0.165869 0.714225
O O7 0.512782 0.201357 0.000000
O O8 0.835412 0.955169 0.722263
O O9 0.921149 0.973592 0.000000
O O10 0.000000 0.000000 0.720385
O O11 0.266360 0.137936 0.729267
O O12 0.334176 0.039524 0.726412
O O13 0.248342 0.071058 0.000000
O O14 0.714044 0.747418 0.248499
O O15 0.672647 0.815114 0.000000
O O16 0.341290 0.899685 0.500000
O O17 0.264959 0.858917 0.774405
O O18 0.379431 0.938385 0.805914
O O19 0.191050 0.822370 0.500000
O O20 0.500000 0.000000 0.714227
O O21 0.577529 0.974154 0.000000
#
# Coordination Sequence:
#
# PCOD9427238 Si02
#       8
#     8   8   8   8   8   8   8   8
#     4  10  21  39  60  82 114 153 191 237 293 345
#     4  10  20  36  59  87 115 149 190 235 289 348
#     4  10  22  38  57  83 115 152 196 244 291 347
#     4   9  19  36  58  85 116 148 189 243 290 335
#     4   9  18  35  59  84 110 144 189 237 286 339
#     4  11  23  37  56  85 120 152 190 235 287 350
#     4   9  21  38  55  80 116 151 184 230 285 348
#     4  10  21  39  62  86 114 152 197 242 289 341
#
# _framework density 22.207214
#
# number of rings (size 3 to 8) (size 9 to 14) (size 15 to 20)
#    0.000    2.250    0.000    1.875    3.500    4.500 
#    0.000    1.250    0.000    0.000    0.000    0.000 
#    0.000    0.000    0.000    0.000    0.000    0.000 
#
# Total GULP energy -357450.109288 kJ/mol
# GULP energy per Si atom -5585.157958 kJ/mol
# Density = 2.215667 g / cm^3
# Si number density = 22.207214 Si / 1000 Ang^3
#
#
#
# Elastic Constant Matrix: (Units=GPa)
#
#
# Indices 1 2 3 4 5 6 
#
# 1 105.0624 45.1081 0.1189 0.0000 0.0000 0.0000
# 2 45.1081 71.3428 -12.1100 0.0000 0.0000 0.0000
# 3 0.1189 -12.1100 49.6890 0.0000 0.0000 0.0000
# 4 0.0000 0.0000 0.0000 28.5654 0.0000 0.0000
# 5 0.0000 0.0000 0.0000 0.0000 37.1964 0.0000
# 6 0.0000 0.0000 0.0000 0.0000 0.0000 36.0855
#
#
#
# Elastic Compliance Matrix: (Units=1/GPa)
#
#
# Indices 1 2 3 4 5 6 
#
# 1 0.013285 -0.008768 -0.002169 0.000000 0.000000 0.000000
# 2 -0.008768 0.020408 0.004995 0.000000 0.000000 0.000000
# 3 -0.002169 0.004995 0.021348 0.000000 0.000000 0.000000
# 4 0.000000 0.000000 0.000000 0.035007 0.000000 0.000000
# 5 0.000000 0.000000 0.000000 0.000000 0.026884 0.000000
# 6 0.000000 0.000000 0.000000 0.000000 0.000000 0.027712
#
#
# Mechanical properties :
#
#
# Convention : Reuss Voigt Hill
#
# Bulk Modulus (GPa) = 23.17089 32.48093 27.82591
# Shear Modulus (GPa) = 29.25446 33.23461 31.24454
#
# Velocity S-wave (km/s) = 3.63346 3.87275 3.75501
# Velocity P-wave (km/s) = 5.29710 5.88690 5.59977
#
# Compressibility (1/GPa) = 0.04315760
#
# Stress axis : x y z
#
# Youngs Moduli (GPa) = 75.27249 48.99950 46.84352
#
# Poissons Ratio (x) = 0.42962 0.10159
# Poissons Ratio (y) = 0.65998 -0.23397
# Poissons Ratio (z) = 0.16324 -0.24474
#
# Static dielectric constant tensor:
#      x y z
#    x 1.829790 0.000000 0.000000 
#    y 0.000000 1.768600 0.000000 
#    z 0.000000 0.000000 1.841050 
# 
# From -- ./inp_files/6524.got.cif
#   From: 2010.05.17/outbox.cif.g08.bks.cpg/sg55_4_cif.got.tgz:6524.got - 2010.06.03 13:27:54.
