data_PCOD9427307
_publ_section_title
;
Structure prediction by ZEFSAII (Michael W. Deem and Ramdas Pophale) SiO2 
 PCOD9427307
Probable space group: P B A M
;
_chemical_formula_sum "Si O2"
_cell_formula_units_Z 58
_cell_length_a 9.162755
_cell_length_b 30.634527
_cell_length_c 10.323580
_cell_angle_alpha 90.000000
_cell_angle_beta 90.000000
_cell_angle_gamma 90.000000
_cell_volume 2897.794481
_symmetry_space_group_name_H-M "P B A M"
_symmetry_group_IT_number 55
_symmetry_cell_setting 'orthorhombic'
loop_
_space_group_symop_operation_xyz
x,y,z
-x,-y,z
1/2+x,1/2-y,-z
1/2-x,1/2+y,-z
-x,-y,-z
x,y,-z
1/2-x,1/2+y,z
1/2+x,1/2-y,z
loop_
_atom_site_type_symbol
_atom_site_label
_atom_site_fract_x
_atom_site_fract_y
_atom_site_fract_z
Si Si1 0.204606 0.494953 0.642176
Si Si2 0.804699 0.878124 0.646293
Si Si3 0.000000 0.000000 0.000000
Si Si4 0.701976 0.123517 0.150130
Si Si5 0.440256 0.788091 0.156305
Si Si6 0.281386 0.698462 0.156101
Si Si7 0.036144 0.568973 0.727291
Si Si8 0.451739 0.438783 0.248294
O O1 0.201260 0.515909 0.500000
O O2 0.147527 0.528601 0.751823
O O3 0.358846 0.474198 0.671974
O O4 0.087563 0.455501 0.644183
O O5 0.828021 0.862294 0.500000
O O6 0.830048 0.842181 0.757154
O O7 0.638909 0.895312 0.662032
O O8 0.913023 0.918214 0.676555
O O9 0.992876 0.038038 0.885875
O O10 0.653215 0.170507 0.204627
O O11 0.558565 0.092377 0.162535
O O12 0.835672 0.100102 0.220267
O O13 0.741035 0.128133 0.000000
O O14 0.372978 0.741538 0.191390
O O15 0.610804 0.792929 0.186733
O O16 0.431425 0.790432 0.000000
O O17 0.294852 0.690567 0.000000
#
# Coordination Sequence:
#
# PCOD9427307 Si02
#       8
#     8   8   2   8   8   8   8   8
#     4  10  20  40  62  85 115 165 221 263 315 383
#     4  12  25  42  64  96 134 173 216 265 328 395
#     4  12  24  44  54  98 128 172 222 282 336 372
#     4  10  20  40  63  93 124 168 213 268 325 393
#     4   9  19  38  65  97 125 158 212 259 324 390
#     4  10  22  40  68  97 127 165 210 271 320 393
#     4  10  20  36  62  89 118 159 213 265 313 374
#     4  11  25  40  62  87 132 174 219 271 330 387
#
# _framework density 20.015222000000001
#
# number of rings (size 3 to 8) (size 9 to 14) (size 15 to 20)
#    0.000    1.655    2.069    2.897    2.897    0.000 
#    3.724    4.138    0.000    0.000    0.000    0.000 
#    0.000    0.000    0.000    0.000    0.000    0.000 
#
# Total GULP energy -322979.435433 kJ/mol
# GULP energy per Si atom -5568.610956 kJ/mol
# Density = 1.996967 g / cm^3
# Si number density = 20.015222 Si / 1000 Ang^3
#
#
#
# Elastic Constant Matrix: (Units=GPa)
#
#
# Indices 1 2 3 4 5 6 
#
# 1 85.9187 22.5072 16.4717 0.0000 0.0000 0.0000
# 2 22.5072 95.0929 21.4567 0.0000 0.0000 0.0000
# 3 16.4717 21.4567 54.6612 0.0000 0.0000 0.0000
# 4 0.0000 0.0000 0.0000 20.0041 0.0000 0.0000
# 5 0.0000 0.0000 0.0000 0.0000 7.2366 0.0000
# 6 0.0000 0.0000 0.0000 0.0000 0.0000 39.5015
#
#
#
# Elastic Compliance Matrix: (Units=1/GPa)
#
#
# Indices 1 2 3 4 5 6 
#
# 1 0.012823 -0.002373 -0.002932 0.000000 0.000000 0.000000
# 2 -0.002373 0.011977 -0.003986 0.000000 0.000000 0.000000
# 3 -0.002932 -0.003986 0.020743 0.000000 0.000000 0.000000
# 4 0.000000 0.000000 0.000000 0.049990 0.000000 0.000000
# 5 0.000000 0.000000 0.000000 0.000000 0.138186 0.000000
# 6 0.000000 0.000000 0.000000 0.000000 0.000000 0.025316
#
#
# Mechanical properties :
#
#
# Convention : Reuss Voigt Hill
#
# Bulk Modulus (GPa) = 37.09362 39.61600 38.35481
# Shear Modulus (GPa) = 17.44564 25.03093 21.23829
#
# Velocity S-wave (km/s) = 2.95552 3.54021 3.26100
# Velocity P-wave (km/s) = 5.49725 6.04539 5.77782
#
# Compressibility (1/GPa) = 0.02695881
#
# Stress axis : x y z
#
# Youngs Moduli (GPa) = 77.98609 83.49169 48.20913
#
# Poissons Ratio (x) = 0.19815 0.14137
# Poissons Ratio (y) = 0.18509 0.19218
# Poissons Ratio (z) = 0.22869 0.33283
#
# Static dielectric constant tensor:
#      x y z
#    x 1.733840 0.000000 0.000000 
#    y 0.000000 1.743860 0.000000 
#    z 0.000000 0.000000 1.669420 
# 
# From -- ./inp_files/12457.got.cif
#   From: 2010.05.17/outbox.cif.g08.bks.cpg/sg55_7_cif.got.tgz:12457.got - 2010.06.03 13:27:54.
