data_PCOD9427596
_publ_section_title
;
Structure prediction by ZEFSAII (Michael W. Deem and Ramdas Pophale) SiO2 
 PCOD9427596
Probable space group: P B A M
;
_chemical_formula_sum "Si O2"
_cell_formula_units_Z 64
_cell_length_a 15.546330
_cell_length_b 24.102741
_cell_length_c 8.351383
_cell_angle_alpha 90.000000
_cell_angle_beta 90.000000
_cell_angle_gamma 90.000000
_cell_volume 3129.339755
_symmetry_space_group_name_H-M "P B A M"
_symmetry_group_IT_number 55
_symmetry_cell_setting 'orthorhombic'
loop_
_space_group_symop_operation_xyz
x,y,z
-x,-y,z
1/2+x,1/2-y,-z
1/2-x,1/2+y,-z
-x,-y,-z
x,y,-z
1/2-x,1/2+y,z
1/2+x,1/2-y,z
loop_
_atom_site_type_symbol
_atom_site_label
_atom_site_fract_x
_atom_site_fract_y
_atom_site_fract_z
Si Si1 0.369877 0.130598 0.684444
Si Si2 0.995893 0.715316 0.186962
Si Si3 0.288591 0.685868 0.184016
Si Si4 0.193306 0.304954 0.690203
Si Si5 0.097854 0.505703 0.305105
Si Si6 0.748229 0.573221 0.694084
Si Si7 0.520608 0.332642 0.309766
Si Si8 0.440512 0.447848 0.808124
O O1 0.399301 0.133430 0.500000
O O2 0.430917 0.170230 0.786072
O O3 0.273811 0.152213 0.701799
O O4 0.373055 0.067282 0.737555
O O5 0.909213 0.694759 0.275458
O O6 0.024179 0.775106 0.256428
O O7 0.975636 0.722160 0.000000
O O8 0.274201 0.750955 0.217204
O O9 0.386656 0.671534 0.225399
O O10 0.270281 0.672751 0.000000
O O11 0.206308 0.297237 0.500000
O O12 0.237634 0.362424 0.739691
O O13 0.096043 0.501370 0.500000
O O14 0.167834 0.460937 0.250707
O O15 0.000000 0.500000 0.248047
O O16 0.745288 0.571414 0.500000
O O17 0.659299 0.547996 0.757725
O O18 0.531576 0.331251 0.500000
O O19 0.474402 0.389339 0.260827
O O20 0.500000 0.500000 0.754464
O O21 0.445888 0.445450 0.000000
#
# Coordination Sequence:
#
# PCOD9427596 Si02
#       8
#     8   8   8   8   8   8   8   8
#     4  11  22  37  61  91 124 163 210 255 305 372
#     4  11  22  38  61  92 128 165 203 253 318 379
#     4  11  23  39  60  89 127 163 201 254 316 378
#     4  10  20  38  63  91 124 159 205 256 310 375
#     4   9  19  38  64  94 126 162 206 259 312 364
#     4  10  22  40  66  97 126 165 215 264 313 373
#     4  11  23  42  67  91 120 160 209 261 313 377
#     4  11  26  45  64  90 126 168 210 263 325 382
#
# _framework density 20.451599000000002
#
# number of rings (size 3 to 8) (size 9 to 14) (size 15 to 20)
#    0.000    1.500    0.000    6.750    3.500    4.000 
#    0.000    0.625    0.000    2.625    0.000    0.000 
#    0.000    0.000    0.000    0.000    0.000    0.000 
#
# Total GULP energy -357745.572399 kJ/mol
# GULP energy per Si atom -5589.774569 kJ/mol
# Density = 2.040505 g / cm^3
# Si number density = 20.451599 Si / 1000 Ang^3
#
#
#
# Elastic Constant Matrix: (Units=GPa)
#
#
# Indices 1 2 3 4 5 6 
#
# 1 76.8693 47.3301 -3.5694 0.0000 0.0000 0.0000
# 2 47.3301 103.4832 11.8702 0.0000 0.0000 0.0000
# 3 -3.5694 11.8702 50.0277 0.0000 0.0000 0.0000
# 4 0.0000 0.0000 0.0000 49.4130 0.0000 0.0000
# 5 0.0000 0.0000 0.0000 0.0000 18.1939 0.0000
# 6 0.0000 0.0000 0.0000 0.0000 0.0000 33.1393
#
#
#
# Elastic Compliance Matrix: (Units=1/GPa)
#
#
# Indices 1 2 3 4 5 6 
#
# 1 0.018671 -0.008936 0.003452 0.000000 0.000000 0.000000
# 2 -0.008936 0.014210 -0.004009 0.000000 0.000000 0.000000
# 3 0.003452 -0.004009 0.021187 0.000000 0.000000 0.000000
# 4 0.000000 0.000000 0.000000 0.020238 0.000000 0.000000
# 5 0.000000 0.000000 0.000000 0.000000 0.054963 0.000000
# 6 0.000000 0.000000 0.000000 0.000000 0.000000 0.030176
#
#
# Mechanical properties :
#
#
# Convention : Reuss Voigt Hill
#
# Bulk Modulus (GPa) = 28.50389 37.96022 33.23205
# Shear Modulus (GPa) = 26.29859 31.79920 29.04890
#
# Velocity S-wave (km/s) = 3.58983 3.94744 3.77287
# Velocity P-wave (km/s) = 5.58122 6.27516 5.93833
#
# Compressibility (1/GPa) = 0.03508293
#
# Stress axis : x y z
#
# Youngs Moduli (GPa) = 53.55808 70.37184 47.19974
#
# Poissons Ratio (x) = 0.62882 -0.16295
# Poissons Ratio (y) = 0.47858 0.18924
# Poissons Ratio (z) = -0.18490 0.28214
#
# Static dielectric constant tensor:
#      x y z
#    x 1.700420 0.000000 0.000000 
#    y 0.000000 1.707490 0.000000 
#    z 0.000000 0.000000 1.688140 
# 
# From -- ./inp_files/7929.got.cif
#   From: 2010.05.17/outbox.cif.g08.bks.cpg/sg55_4_cif.got.tgz:7929.got - 2010.06.03 13:27:54.
