data_PCOD9427331
_publ_section_title
;
Structure prediction by ZEFSAII (Michael W. Deem and Ramdas Pophale) SiO2 
 PCOD9427331
Probable space group: P B A M
;
_chemical_formula_sum "Si O2"
_cell_formula_units_Z 64
_cell_length_a 11.411584
_cell_length_b 19.224816
_cell_length_c 14.317225
_cell_angle_alpha 90.000000
_cell_angle_beta 90.000000
_cell_angle_gamma 90.000000
_cell_volume 3140.993035
_symmetry_space_group_name_H-M "P B A M"
_symmetry_group_IT_number 55
_symmetry_cell_setting 'orthorhombic'
loop_
_space_group_symop_operation_xyz
x,y,z
-x,-y,z
1/2+x,1/2-y,-z
1/2-x,1/2+y,-z
-x,-y,-z
x,y,-z
1/2-x,1/2+y,z
1/2+x,1/2-y,z
loop_
_atom_site_type_symbol
_atom_site_label
_atom_site_fract_x
_atom_site_fract_y
_atom_site_fract_z
Si Si1 0.744419 0.120213 0.893093
Si Si2 0.431153 0.178423 0.303548
Si Si3 0.633032 0.668857 0.706886
Si Si4 0.349727 0.895052 0.610718
Si Si5 0.035853 0.634129 0.896072
Si Si6 0.255382 0.543483 0.105843
Si Si7 0.422160 0.567254 0.732743
Si Si8 0.795081 0.451605 0.388671
O O1 0.805633 0.162417 0.809588
O O2 0.603003 0.122830 0.888614
O O3 0.771988 0.038564 0.878936
O O4 0.778367 0.139716 0.000000
O O5 0.386114 0.253795 0.331443
O O6 0.560019 0.156079 0.338174
O O7 0.429447 0.180241 0.191419
O O8 0.353459 0.115601 0.342857
O O9 0.719861 0.628280 0.637945
O O10 0.508673 0.630459 0.713410
O O11 0.370645 0.892080 0.500000
O O12 0.357581 0.976096 0.640895
O O13 0.119174 0.566136 0.886340
O O14 0.059713 0.662380 0.000000
O O15 0.334964 0.581883 0.181146
O O16 0.291682 0.559907 0.000000
O O17 0.500000 0.500000 0.755968
O O18 0.338207 0.547843 0.646620
O O19 0.803004 0.447425 0.500000
#
# Coordination Sequence:
#
# PCOD9427331 Si02
#       8
#     8   8   8   8   8   8   8   8
#     4  10  20  38  66  98 135 175 218 269 327 392
#     4  12  26  43  71  97 138 173 222 278 338 400
#     4  12  27  43  64 101 139 178 218 267 335 404
#     4  11  25  47  72  99 130 171 224 282 336 395
#     4  10  21  38  65  98 130 171 222 276 334 388
#     4  10  20  36  64 102 134 169 222 277 324 385
#     4  12  23  41  66  97 134 179 221 267 331 398
#     4  11  25  46  73 100 126 170 228 282 337 397
#
# _framework density 20.375720999999999
#
# number of rings (size 3 to 8) (size 9 to 14) (size 15 to 20)
#    0.000    1.000    5.000    1.125    1.750    6.500 
#    0.000    0.000    0.000    0.000    0.000    0.000 
#    0.000    0.000    0.000    0.000    0.000    0.000 
#
# Total GULP energy -357471.521235 kJ/mol
# GULP energy per Si atom -5585.492519 kJ/mol
# Density = 2.032935 g / cm^3
# Si number density = 20.375721 Si / 1000 Ang^3
#
#
#
# Elastic Constant Matrix: (Units=GPa)
#
#
# Indices 1 2 3 4 5 6 
#
# 1 81.2409 30.0298 18.3130 0.0000 0.0000 0.0000
# 2 30.0298 102.3702 19.1109 0.0000 0.0000 0.0000
# 3 18.3130 19.1109 70.0570 0.0000 0.0000 0.0000
# 4 0.0000 0.0000 0.0000 8.2217 0.0000 0.0000
# 5 0.0000 0.0000 0.0000 0.0000 13.8448 0.0000
# 6 0.0000 0.0000 0.0000 0.0000 0.0000 6.4147
#
#
#
# Elastic Compliance Matrix: (Units=1/GPa)
#
#
# Indices 1 2 3 4 5 6 
#
# 1 0.014285 -0.003681 -0.002730 0.000000 0.000000 0.000000
# 2 -0.003681 0.011241 -0.002104 0.000000 0.000000 0.000000
# 3 -0.002730 -0.002104 0.015562 0.000000 0.000000 0.000000
# 4 0.000000 0.000000 0.000000 0.121629 0.000000 0.000000
# 5 0.000000 0.000000 0.000000 0.000000 0.072230 0.000000
# 6 0.000000 0.000000 0.000000 0.000000 0.000000 0.155892
#
#
# Mechanical properties :
#
#
# Convention : Reuss Voigt Hill
#
# Bulk Modulus (GPa) = 41.56692 43.17507 42.37100
# Shear Modulus (GPa) = 12.02248 18.11053 15.06650
#
# Velocity S-wave (km/s) = 2.43171 2.98456 2.72220
# Velocity P-wave (km/s) = 5.32248 5.75432 5.54261
#
# Compressibility (1/GPa) = 0.02405759
#
# Stress axis : x y z
#
# Youngs Moduli (GPa) = 70.00338 88.95967 64.26008
#
# Poissons Ratio (x) = 0.32744 0.17543
# Poissons Ratio (y) = 0.25767 0.13522
# Poissons Ratio (z) = 0.19111 0.18720
#
# Static dielectric constant tensor:
#      x y z
#    x 1.738420 0.000000 0.000000 
#    y 0.000000 1.702210 0.000000 
#    z 0.000000 0.000000 1.738800 
# 
# From -- ./inp_files/18549.got.cif
#   From: 2010.05.17/outbox.cif.g08.bks.cpg/sg55_10_cif.got.tgz:18549.got - 2010.06.03 13:27:54.
