data_PCOD9427130
_publ_section_title
;
Structure prediction by ZEFSAII (Michael W. Deem and Ramdas Pophale) SiO2 
 PCOD9427130
Probable space group: P B A M
;
_chemical_formula_sum "Si O2"
_cell_formula_units_Z 32
_cell_length_a 20.744733
_cell_length_b 10.224233
_cell_length_c 8.503897
_cell_angle_alpha 90.000000
_cell_angle_beta 90.000000
_cell_angle_gamma 90.000000
_cell_volume 1803.667911
_symmetry_space_group_name_H-M "P B A M"
_symmetry_group_IT_number 55
_symmetry_cell_setting 'orthorhombic'
loop_
_space_group_symop_operation_xyz
x,y,z
-x,-y,z
1/2+x,1/2-y,-z
1/2-x,1/2+y,-z
-x,-y,-z
x,y,-z
1/2-x,1/2+y,z
1/2+x,1/2-y,z
loop_
_atom_site_type_symbol
_atom_site_label
_atom_site_fract_x
_atom_site_fract_y
_atom_site_fract_z
Si Si1 0.799368 0.898279 0.811521
Si Si2 0.946446 0.898723 0.808657
Si Si3 0.197810 0.393088 0.313488
Si Si4 0.555671 0.099401 0.809604
O O1 0.873040 0.929741 0.761028
O O2 0.787098 0.748093 0.762964
O O3 0.748905 0.998251 0.738377
O O4 0.796109 0.907575 0.000000
O O5 0.960191 0.748810 0.763163
O O6 0.947289 0.902383 0.000000
O O7 0.000000 0.000000 0.751170
O O8 0.198202 0.378340 0.500000
O O9 0.126095 0.432005 0.257107
O O10 0.500000 0.000000 0.759665
O O11 0.559954 0.095518 0.000000
#
# Coordination Sequence:
#
# PCOD9427130 Si02
#       4
#     8   8   8   8
#     4  10  20  36  57  79 106 143 185 224 267 326
#     4   8  15  29  50  76 101 127 167 219 264 304
#     4  11  22  36  54  79 112 144 178 226 280 325
#     4   9  18  33  53  76 103 138 180 221 263 318
#
# _framework density 17.741624999999999
#
# number of rings (size 3 to 8) (size 9 to 14) (size 15 to 20)
#    0.000    2.500    0.000    4.500    0.000    2.500 
#    0.000    5.000    0.000   18.750    0.000    0.000 
#    0.000    0.000    0.000    0.000    0.000    0.000 
#
# Total GULP energy -178527.114257 kJ/mol
# GULP energy per Si atom -5578.972321 kJ/mol
# Density = 1.770124 g / cm^3
# Si number density = 17.741625 Si / 1000 Ang^3
#
#
#
# Elastic Constant Matrix: (Units=GPa)
#
#
# Indices 1 2 3 4 5 6 
#
# 1 140.5445 106.9249 13.3693 0.0000 0.0000 0.0000
# 2 106.9249 96.9661 5.9990 0.0000 0.0000 0.0000
# 3 13.3693 5.9990 28.4013 0.0000 0.0000 0.0000
# 4 0.0000 0.0000 0.0000 12.5268 0.0000 0.0000
# 5 0.0000 0.0000 0.0000 0.0000 5.1989 0.0000
# 6 0.0000 0.0000 0.0000 0.0000 0.0000 44.2155
#
#
#
# Elastic Compliance Matrix: (Units=1/GPa)
#
#
# Indices 1 2 3 4 5 6 
#
# 1 0.047595 -0.051774 -0.011469 0.000000 0.000000 0.000000
# 2 -0.051774 0.066769 0.010268 0.000000 0.000000 0.000000
# 3 -0.011469 0.010268 0.038439 0.000000 0.000000 0.000000
# 4 0.000000 0.000000 0.000000 0.079829 0.000000 0.000000
# 5 0.000000 0.000000 0.000000 0.000000 0.192347 0.000000
# 6 0.000000 0.000000 0.000000 0.000000 0.000000 0.022617
#
#
# Mechanical properties :
#
#
# Convention : Reuss Voigt Hill
#
# Bulk Modulus (GPa) = 21.34235 57.61092 39.47664
# Shear Modulus (GPa) = 8.78482 21.69615 15.24049
#
# Velocity S-wave (km/s) = 2.22762 3.50079 2.93409
# Velocity P-wave (km/s) = 4.32111 6.99166 5.81186
#
# Compressibility (1/GPa) = 0.04685519
#
# Stress axis : x y z
#
# Youngs Moduli (GPa) = 21.01040 14.97696 26.01499
#
# Poissons Ratio (x) = 0.77542 0.29836
# Poissons Ratio (y) = 1.08780 -0.26713
# Poissons Ratio (z) = 0.24096 -0.15379
#
# Static dielectric constant tensor:
#      x y z
#    x 1.588670 0.000000 0.000000 
#    y 0.000000 1.584450 0.000000 
#    z 0.000000 0.000000 1.589640 
# 
# From -- ./inp_files/1989.got.cif
#   From: 2010.05.17/outbox.cif.g08.bks.cpg/sg55_1_cif.got.tgz:1989.got - 2010.06.03 13:27:54.
