data_PCOD9427023
_publ_section_title
;
Structure prediction by ZEFSAII (Michael W. Deem and Ramdas Pophale) SiO2 
 PCOD9427023
Probable space group: P B A M
;
_chemical_formula_sum "Si O2"
_cell_formula_units_Z 20
_cell_length_a 9.576827
_cell_length_b 9.245853
_cell_length_c 9.321878
_cell_angle_alpha 90.000000
_cell_angle_beta 90.000000
_cell_angle_gamma 90.000000
_cell_volume 825.414400
_symmetry_space_group_name_H-M "P B A M"
_symmetry_group_IT_number 55
_symmetry_cell_setting 'orthorhombic'
loop_
_space_group_symop_operation_xyz
x,y,z
-x,-y,z
1/2+x,1/2-y,-z
1/2-x,1/2+y,-z
-x,-y,-z
x,y,-z
1/2-x,1/2+y,z
1/2+x,1/2-y,z
loop_
_atom_site_type_symbol
_atom_site_label
_atom_site_fract_x
_atom_site_fract_y
_atom_site_fract_z
Si Si1 0.000000 0.000000 0.255104
Si Si2 0.658493 0.237787 0.161901
Si Si3 0.804069 0.466463 0.338644
O O1 0.037355 0.141507 0.163749
O O2 0.858905 0.018428 0.344307
O O3 0.784929 0.327926 0.236142
O O4 0.622450 0.101155 0.261174
O O5 0.689434 0.191007 0.000000
O O6 0.851042 0.434625 0.500000
#
# Coordination Sequence:
#
# PCOD9427023 Si02
#       3
#     4   8   8
#     4   8  22  36  60  78 118 148 188 220 290 326
#     4  10  20  35  58  84 113 148 187 230 278 332
#     4  10  20  35  58  84 113 148 187 230 278 332
#
# _framework density 24.230255
#
# number of rings (size 3 to 8) (size 9 to 14) (size 15 to 20)
#    2.400    0.000    0.000    3.600    0.000    0.000 
#    0.000    2.000    0.000    9.600    0.000    0.000 
#    0.000    0.000    0.000    0.000    0.000    0.000 
#
# Total GULP energy -111445.942447 kJ/mol
# GULP energy per Si atom -5572.297122 kJ/mol
# Density = 2.417511 g / cm^3
# Si number density = 24.230255 Si / 1000 Ang^3
#
#
#
# Elastic Constant Matrix: (Units=GPa)
#
#
# Indices 1 2 3 4 5 6 
#
# 1 68.7635 5.1636 -9.7454 0.0000 0.0000 0.0000
# 2 5.1636 116.6149 39.9289 0.0000 0.0000 0.0000
# 3 -9.7454 39.9289 186.4732 0.0000 0.0000 0.0000
# 4 0.0000 0.0000 0.0000 21.2155 0.0000 0.0000
# 5 0.0000 0.0000 0.0000 0.0000 14.0713 0.0000
# 6 0.0000 0.0000 0.0000 0.0000 0.0000 56.4611
#
#
#
# Elastic Compliance Matrix: (Units=1/GPa)
#
#
# Indices 1 2 3 4 5 6 
#
# 1 0.014756 -0.000990 0.000983 0.000000 0.000000 0.000000
# 2 -0.000990 0.009320 -0.002047 0.000000 0.000000 0.000000
# 3 0.000983 -0.002047 0.005852 0.000000 0.000000 0.000000
# 4 0.000000 0.000000 0.000000 0.047135 0.000000 0.000000
# 5 0.000000 0.000000 0.000000 0.000000 0.071067 0.000000
# 6 0.000000 0.000000 0.000000 0.000000 0.000000 0.017711
#
#
# Mechanical properties :
#
#
# Convention : Reuss Voigt Hill
#
# Bulk Modulus (GPa) = 38.72919 49.17177 43.95048
# Shear Modulus (GPa) = 28.00219 40.78321 34.39270
#
# Velocity S-wave (km/s) = 3.40320 4.10707 3.77159
# Velocity P-wave (km/s) = 5.60900 6.54434 6.09464
#
# Compressibility (1/GPa) = 0.02582032
#
# Stress axis : x y z
#
# Youngs Moduli (GPa) = 67.76774 107.29487 170.86736
#
# Poissons Ratio (x) = 0.10623 -0.16799
# Poissons Ratio (y) = 0.06709 0.34984
# Poissons Ratio (z) = -0.06663 0.21968
#
# Static dielectric constant tensor:
#      x y z
#    x 2.059310 0.000000 0.000000 
#    y 0.000000 1.888340 0.000000 
#    z 0.000000 0.000000 1.879030 
# 
# From -- ./inp_files/1579.got.cif
#   From: 2010.05.17/outbox.cif.g08.bks.cpg/sg55_1_cif.got.tgz:1579.got - 2010.06.03 13:27:54.
