data_PCOD9427305
_publ_section_title
;
Structure prediction by ZEFSAII (Michael W. Deem and Ramdas Pophale) SiO2 
 PCOD9427305
Probable space group: P B A M
;
_chemical_formula_sum "Si O2"
_cell_formula_units_Z 60
_cell_length_a 20.172988
_cell_length_b 5.565896
_cell_length_c 24.385438
_cell_angle_alpha 90.000000
_cell_angle_beta 90.000000
_cell_angle_gamma 90.000000
_cell_volume 2738.015346
_symmetry_space_group_name_H-M "P B A M"
_symmetry_group_IT_number 55
_symmetry_cell_setting 'orthorhombic'
loop_
_space_group_symop_operation_xyz
x,y,z
-x,-y,z
1/2+x,1/2-y,-z
1/2-x,1/2+y,-z
-x,-y,-z
x,y,-z
1/2-x,1/2+y,z
1/2+x,1/2-y,z
loop_
_atom_site_type_symbol
_atom_site_label
_atom_site_fract_x
_atom_site_fract_y
_atom_site_fract_z
Si Si1 0.929021 0.862466 0.162963
Si Si2 0.606127 0.359095 0.713396
Si Si3 0.500000 0.000000 0.100825
Si Si4 0.097137 0.844330 0.059261
Si Si5 0.748199 0.866803 0.734224
Si Si6 0.108090 0.645795 0.671195
Si Si7 0.958545 0.248715 0.436926
Si Si8 0.274443 0.044121 0.063695
O O1 0.894842 0.846281 0.221076
O O2 0.944013 0.597210 0.141204
O O3 0.893449 0.997732 0.113130
O O4 0.000000 0.000000 0.170732
O O5 0.684571 0.368091 0.698144
O O6 0.575790 0.617193 0.698601
O O7 0.578172 0.115349 0.686759
O O8 0.474221 0.219495 0.065322
O O9 0.149941 0.628729 0.061127
O O10 0.102835 0.966965 0.000000
O O11 0.749710 0.616715 0.766343
O O12 0.682085 0.866443 0.697080
O O13 0.099253 0.706240 0.607347
O O14 0.936059 0.222385 0.500000
O O15 0.000000 0.500000 0.434113
O O16 0.000000 0.000000 0.424637
O O17 0.238246 0.280702 0.087866
O O18 0.251139 0.017719 0.000000
#
# Coordination Sequence:
#
# PCOD9427305 Si02
#       8
#     8   8   4   8   8   8   8   8
#     4  10  24  40  56  85 121 157 196 258 313 378
#     4  10  21  37  61  84 119 157 202 252 311 367
#     4  10  23  40  60  86 122 156 201 252 322 378
#     4  10  22  40  64  88 118 159 207 255 316 388
#     4   8  16  33  55  82 112 150 193 252 299 355
#     4  10  20  36  62  88 117 162 207 252 304 355
#     4  10  21  37  56  89 132 171 213 255 296 352
#     4   9  19  36  59  86 115 148 189 242 298 358
#
# _framework density 21.913682000000001
#
# number of rings (size 3 to 8) (size 9 to 14) (size 15 to 20)
#    0.000    2.400    0.000    1.000    5.600    4.533 
#    0.000    4.000    0.000    7.200    0.000    0.000 
#    0.000    0.000    0.000    0.000    0.000    0.000 
#
# Total GULP energy -334236.609438 kJ/mol
# GULP energy per Si atom -5570.610157 kJ/mol
# Density = 2.186381 g / cm^3
# Si number density = 21.913682 Si / 1000 Ang^3
#
#
#
# Elastic Constant Matrix: (Units=GPa)
#
#
# Indices 1 2 3 4 5 6 
#
# 1 47.8646 9.9103 21.9970 0.0000 0.0000 0.0000
# 2 9.9103 181.1845 26.7868 0.0000 0.0000 0.0000
# 3 21.9970 26.7868 119.2347 0.0000 0.0000 0.0000
# 4 0.0000 0.0000 0.0000 22.6236 0.0000 0.0000
# 5 0.0000 0.0000 0.0000 0.0000 2.0482 0.0000
# 6 0.0000 0.0000 0.0000 0.0000 0.0000 32.8856
#
#
#
# Elastic Compliance Matrix: (Units=1/GPa)
#
#
# Indices 1 2 3 4 5 6 
#
# 1 0.022901 -0.000650 -0.004079 0.000000 0.000000 0.000000
# 2 -0.000650 0.005727 -0.001167 0.000000 0.000000 0.000000
# 3 -0.004079 -0.001167 0.009401 0.000000 0.000000 0.000000
# 4 0.000000 0.000000 0.000000 0.044202 0.000000 0.000000
# 5 0.000000 0.000000 0.000000 0.000000 0.488234 0.000000
# 6 0.000000 0.000000 0.000000 0.000000 0.000000 0.030408
#
#
# Mechanical properties :
#
#
# Convention : Reuss Voigt Hill
#
# Bulk Modulus (GPa) = 38.11089 51.74132 44.92610
# Shear Modulus (GPa) = 8.04619 30.81746 19.43183
#
# Velocity S-wave (km/s) = 1.91826 3.75415 2.98106
# Velocity P-wave (km/s) = 4.72604 6.51569 5.69165
#
# Compressibility (1/GPa) = 0.02623922
#
# Stress axis : x y z
#
# Youngs Moduli (GPa) = 43.66560 174.60312 106.36632
#
# Poissons Ratio (x) = 0.11342 0.43387
# Poissons Ratio (y) = 0.02836 0.12411
# Poissons Ratio (z) = 0.17811 0.20373
#
# Static dielectric constant tensor:
#      x y z
#    x 1.886960 0.000000 0.000000 
#    y 0.000000 1.900440 0.000000 
#    z 0.000000 0.000000 1.759080 
# 
# From -- ./inp_files/23701.got.cif
#   From: 2010.05.17/outbox.cif.g08.bks.cpg/sg55_12_cif.got.tgz:23701.got - 2010.06.03 13:27:54.
