data_PCOD9427761
_publ_section_title
;
Structure prediction by ZEFSAII (Michael W. Deem and Ramdas Pophale) SiO2 
 PCOD9427761
Probable space group: P B A M
;
_chemical_formula_sum "Si O2"
_cell_formula_units_Z 64
_cell_length_a 21.070639
_cell_length_b 10.118672
_cell_length_c 15.213827
_cell_angle_alpha 90.000000
_cell_angle_beta 90.000000
_cell_angle_gamma 90.000000
_cell_volume 3243.692662
_symmetry_space_group_name_H-M "P B A M"
_symmetry_group_IT_number 55
_symmetry_cell_setting 'orthorhombic'
loop_
_space_group_symop_operation_xyz
x,y,z
-x,-y,z
1/2+x,1/2-y,-z
1/2-x,1/2+y,-z
-x,-y,-z
x,y,-z
1/2-x,1/2+y,z
1/2+x,1/2-y,z
loop_
_atom_site_type_symbol
_atom_site_label
_atom_site_fract_x
_atom_site_fract_y
_atom_site_fract_z
Si Si1 0.698513 0.892497 0.642298
Si Si2 0.451765 0.390180 0.103184
Si Si3 0.443046 0.086731 0.352547
Si Si4 0.548235 0.609820 0.603184
Si Si5 0.056954 0.586731 0.147453
Si Si6 0.692596 0.590755 0.643668
Si Si7 0.698513 0.892497 0.142298
Si Si8 0.307404 0.409245 0.856332
O O1 0.628026 0.932851 0.611040
O O2 0.708623 0.740445 0.616172
O O3 0.697667 0.894777 0.750000
O O4 0.754638 0.987907 0.612898
O O5 0.500000 0.500000 0.139095
O O6 0.456948 0.243417 0.142824
O O7 0.379231 0.436879 0.114641
O O8 0.465066 0.374136 0.000000
O O9 0.456947 0.243417 0.357176
O O10 0.438517 0.049067 0.250000
O O11 0.500000 0.000000 0.391636
O O12 0.500000 0.500000 0.639095
O O13 0.534933 0.625864 0.500000
O O14 0.620769 0.563121 0.614640
O O15 0.128026 0.567149 0.111040
O O16 0.000000 0.500000 0.108364
O O17 0.692243 0.588443 0.750000
O O18 0.708623 0.740445 0.116172
O O19 0.754638 0.987907 0.112898
#
# Coordination Sequence:
#
# PCOD9427761 Si02
#       8
#     8   8   8   8   8   8   8   8
#     4   8  15  28  47  72  97 120 151 195 242 283
#     4  10  21  35  49  69 100 134 167 203 242 287
#     4   9  18  33  54  78 100 125 162 204 246 295
#     4  10  21  35  49  69 100 134 167 203 242 287
#     4   9  18  33  54  78 100 125 162 204 246 295
#     4   9  17  31  50  70  95 126 160 200 244 288
#     4   8  15  28  47  72  97 120 151 195 242 283
#     4   9  17  31  50  70  95 126 160 200 244 288
#
# _framework density 19.730599000000002
#
# number of rings (size 3 to 8) (size 9 to 14) (size 15 to 20)
#    0.000    3.000    0.000    2.250    0.000    4.500 
#    0.000   10.000    0.000    0.000    0.000    0.000 
#    0.000    0.000    0.000    0.000    0.000    0.000 
#
# Total GULP energy -356869.325027 kJ/mol
# GULP energy per Si atom -5576.083204 kJ/mol
# Density = 1.968569 g / cm^3
# Si number density = 19.730599 Si / 1000 Ang^3
#
#
#
# Elastic Constant Matrix: (Units=GPa)
#
#
# Indices 1 2 3 4 5 6 
#
# 1 173.4567 120.2886 -11.4159 0.0000 0.0000 0.0000
# 2 120.2886 98.9603 -11.1429 0.0000 0.0000 0.0000
# 3 -11.4159 -11.1429 37.0632 0.0000 0.0000 0.0000
# 4 0.0000 0.0000 0.0000 19.8681 0.0000 0.0000
# 5 0.0000 0.0000 0.0000 0.0000 -78.4680 0.0000
# 6 0.0000 0.0000 0.0000 0.0000 0.0000 48.9514
#
#
#
# Elastic Compliance Matrix: (Units=1/GPa)
#
#
# Indices 1 2 3 4 5 6 
#
# 1 0.036878 -0.045073 -0.002192 0.000000 0.000000 0.000000
# 2 -0.045073 0.065548 0.005824 0.000000 0.000000 0.000000
# 3 -0.002192 0.005824 0.028057 0.000000 0.000000 0.000000
# 4 0.000000 0.000000 0.000000 0.050332 0.000000 0.000000
# 5 0.000000 0.000000 0.000000 0.000000 -0.012744 0.000000
# 6 0.000000 0.000000 0.000000 0.000000 0.000000 0.020428
#
#
# Mechanical properties :
#
#
# Convention : Reuss Voigt Hill
#
# Bulk Modulus (GPa) = 21.00839 56.10443 38.55641
# Shear Modulus (GPa) = 17.40660 12.18701 14.79681
#
# Velocity S-wave (km/s) = 2.97343 2.48799 2.74148
# Velocity P-wave (km/s) = 4.73911 6.06222 5.44103
#
# Compressibility (1/GPa) = 0.04760002
#
# Stress axis : x y z
#
# Youngs Moduli (GPa) = 27.11654 15.25604 35.64224
#
# Poissons Ratio (x) = 0.68763 0.07813
# Poissons Ratio (y) = 1.22222 -0.20757
# Poissons Ratio (z) = 0.05944 -0.08885
#
# Static dielectric constant tensor:
#      x y z
#    x 1.688730 0.000000 0.000000 
#    y 0.000000 1.662870 0.000000 
#    z 0.000000 0.000000 1.724010 
# 
# From -- ./inp_files/21843.got.cif
#   From: 2010.05.17/outbox.cif.g08.bks.cpg/sg55_11_cif.got.tgz:21843.got - 2010.06.03 13:27:54.
