data_PCOD9427340
_publ_section_title
;
Structure prediction by ZEFSAII (Michael W. Deem and Ramdas Pophale) SiO2 
 PCOD9427340
Probable space group: P B A M
;
_chemical_formula_sum "Si O2"
_cell_formula_units_Z 56
_cell_length_a 13.444278
_cell_length_b 14.478947
_cell_length_c 13.801338
_cell_angle_alpha 90.000000
_cell_angle_beta 90.000000
_cell_angle_gamma 90.000000
_cell_volume 2686.554497
_symmetry_space_group_name_H-M "P B A M"
_symmetry_group_IT_number 55
_symmetry_cell_setting 'orthorhombic'
loop_
_space_group_symop_operation_xyz
x,y,z
-x,-y,z
1/2+x,1/2-y,-z
1/2-x,1/2+y,-z
-x,-y,-z
x,y,-z
1/2-x,1/2+y,z
1/2+x,1/2-y,z
loop_
_atom_site_type_symbol
_atom_site_label
_atom_site_fract_x
_atom_site_fract_y
_atom_site_fract_z
Si Si1 0.066490 0.839357 0.743666
Si Si2 0.097581 0.247073 0.389426
Si Si3 0.584879 0.301092 0.884663
Si Si4 0.776316 0.387878 0.606659
Si Si5 0.238337 0.898659 0.388324
Si Si6 0.308851 0.184599 0.183529
Si Si7 0.997213 0.399247 0.110065
O O1 0.137536 0.897877 0.674253
O O2 0.146224 0.786417 0.810664
O O3 0.999386 0.774573 0.672923
O O4 0.984244 0.869844 0.821763
O O5 0.070744 0.270798 0.500000
O O6 0.164528 0.153922 0.390867
O O7 0.176294 0.326015 0.355093
O O8 0.697239 0.317065 0.852256
O O9 0.553747 0.194482 0.857386
O O10 0.572047 0.310737 0.000000
O O11 0.816973 0.359491 0.500000
O O12 0.778549 0.497803 0.611674
O O13 0.821570 0.350279 0.705805
O O14 0.215225 0.872562 0.500000
O O15 0.381714 0.127512 0.115526
O O16 0.000000 0.500000 0.160167
O O17 0.033114 0.411833 0.000000
#
# Coordination Sequence:
#
# PCOD9427340 Si02
#       7
#     8   8   8   8   8   8   8
#     4  11  20  35  59  85 113 153 194 233 290 347
#     4  10  20  37  56  82 118 150 190 239 282 337
#     4  10  21  38  59  84 114 151 193 241 303 357
#     4  10  21  37  57  84 117 154 195 236 282 343
#     4  10  21  37  60  85 116 157 197 237 288 346
#     4  11  21  36  60  84 118 156 191 243 293 347
#     4   9  20  38  62  90 116 148 198 249 297 359
#
# _framework density 20.844542000000001
#
# number of rings (size 3 to 8) (size 9 to 14) (size 15 to 20)
#    0.000    1.857    2.857    0.857    0.000    5.143 
#    0.000    2.143    0.000    5.571    0.000    0.000 
#    0.000    0.000    0.000    0.000    0.000    0.000 
#
# Total GULP energy -311813.788015 kJ/mol
# GULP energy per Si atom -5568.103357 kJ/mol
# Density = 2.079710 g / cm^3
# Si number density = 20.844542 Si / 1000 Ang^3
#
#
#
# Elastic Constant Matrix: (Units=GPa)
#
#
# Indices 1 2 3 4 5 6 
#
# 1 62.2543 -7.1493 16.7712 0.0000 0.0000 0.0000
# 2 -7.1493 34.0809 -3.7811 0.0000 0.0000 0.0000
# 3 16.7712 -3.7811 78.2858 0.0000 0.0000 0.0000
# 4 0.0000 0.0000 0.0000 13.8006 0.0000 0.0000
# 5 0.0000 0.0000 0.0000 0.0000 15.8850 0.0000
# 6 0.0000 0.0000 0.0000 0.0000 0.0000 10.7663
#
#
#
# Elastic Compliance Matrix: (Units=1/GPa)
#
#
# Indices 1 2 3 4 5 6 
#
# 1 0.017399 0.003254 -0.003570 0.000000 0.000000 0.000000
# 2 0.003254 0.030108 0.000757 0.000000 0.000000 0.000000
# 3 -0.003570 0.000757 0.013575 0.000000 0.000000 0.000000
# 4 0.000000 0.000000 0.000000 0.072461 0.000000 0.000000
# 5 0.000000 0.000000 0.000000 0.000000 0.062952 0.000000
# 6 0.000000 0.000000 0.000000 0.000000 0.000000 0.092882
#
#
# Mechanical properties :
#
#
# Convention : Reuss Voigt Hill
#
# Bulk Modulus (GPa) = 16.13853 20.70029 18.41941
# Shear Modulus (GPa) = 16.17336 19.34241 17.75789
#
# Velocity S-wave (km/s) = 2.78853 3.04951 2.92193
# Velocity P-wave (km/s) = 4.25758 4.72776 4.49882
#
# Compressibility (1/GPa) = 0.06196353
#
# Stress axis : x y z
#
# Youngs Moduli (GPa) = 57.47588 33.21327 73.66418
#
# Poissons Ratio (x) = -0.10807 0.26299
# Poissons Ratio (y) = -0.18701 -0.05578
# Poissons Ratio (z) = 0.20520 -0.02515
#
# Static dielectric constant tensor:
#      x y z
#    x 1.723280 0.000000 0.000000 
#    y 0.000000 1.773090 0.000000 
#    z 0.000000 0.000000 1.800230 
# 
# From -- ./inp_files/18384.got.cif
#   From: 2010.05.17/outbox.cif.g08.bks.cpg/sg55_10_cif.got.tgz:18384.got - 2010.06.03 13:27:54.
