data_PCOD9427771
_publ_section_title
;
Structure prediction by ZEFSAII (Michael W. Deem and Ramdas Pophale) SiO2 
 PCOD9427771
Probable space group: P B A M
;
_chemical_formula_sum "Si O2"
_cell_formula_units_Z 58
_cell_length_a 26.479863
_cell_length_b 15.025359
_cell_length_c 7.181818
_cell_angle_alpha 90.000000
_cell_angle_beta 90.000000
_cell_angle_gamma 90.000000
_cell_volume 2857.425962
_symmetry_space_group_name_H-M "P B A M"
_symmetry_group_IT_number 55
_symmetry_cell_setting 'orthorhombic'
loop_
_space_group_symop_operation_xyz
x,y,z
-x,-y,z
1/2+x,1/2-y,-z
1/2-x,1/2+y,-z
-x,-y,-z
x,y,-z
1/2-x,1/2+y,z
1/2+x,1/2-y,z
loop_
_atom_site_type_symbol
_atom_site_label
_atom_site_fract_x
_atom_site_fract_y
_atom_site_fract_z
Si Si1 0.888102 0.152051 0.724865
Si Si2 0.192421 0.356415 0.726556
Si Si3 0.104333 0.230350 0.725124
Si Si4 0.147508 0.038968 0.273948
Si Si5 0.710227 0.759573 0.726582
Si Si6 0.000565 0.164183 0.276071
Si Si7 0.000000 0.000000 0.000000
Si Si8 0.264756 0.042173 0.273756
O O1 0.885433 0.149857 0.500000
O O2 0.840531 0.209871 0.787576
O O3 0.943036 0.189321 0.772954
O O4 0.882248 0.049327 0.788354
O O5 0.192142 0.357174 0.500000
O O6 0.141186 0.308630 0.788551
O O7 0.240227 0.295765 0.781506
O O8 0.202979 0.457156 0.786164
O O9 0.107678 0.230328 0.500000
O O10 0.125759 0.133925 0.785691
O O11 0.045230 0.232746 0.771000
O O12 0.145843 0.039030 0.500000
O O13 0.206144 0.030776 0.219802
O O14 0.709903 0.759335 0.500000
O O15 0.715256 0.861705 0.785697
O O16 0.002679 0.148224 0.500000
O O17 0.010786 0.075122 0.162547
O O18 0.264748 0.042484 0.500000
#
# Coordination Sequence:
#
# PCOD9427771 Si02
#       8
#     8   8   8   8   8   8   2   8
#     4   9  16  26  41  62  95 133 167 207 255 307
#     4   9  14  21  35  58  91 131 169 211 261 306
#     4   9  16  26  41  62  95 133 167 207 255 307
#     4   9  13  18  32  54  84 122 157 198 247 297
#     4   9  14  21  35  58  91 131 169 211 261 306
#     4  10  21  35  51  75 107 141 175 213 260 310
#     4  12  22  36  56  78 108 142 178 216 256 312
#     4   9  14  19  30  55  90 123 164 212 252 300
#
# _framework density 20.297989000000001
#
# number of rings (size 3 to 8) (size 9 to 14) (size 15 to 20)
#    0.000    2.759    2.759    1.034    0.000    2.207 
#    0.000    0.000    0.000    0.828    0.000    6.759 
#    0.000    2.207    0.000    0.276    0.000    0.000 
#
# Total GULP energy -323370.365588 kJ/mol
# GULP energy per Si atom -5575.351131 kJ/mol
# Density = 2.025179 g / cm^3
# Si number density = 20.297989 Si / 1000 Ang^3
#
#
#
# Elastic Constant Matrix: (Units=GPa)
#
#
# Indices 1 2 3 4 5 6 
#
# 1 79.1064 23.8155 0.2040 0.0000 0.0000 0.0000
# 2 23.8155 100.0262 -2.4414 0.0000 0.0000 0.0000
# 3 0.2040 -2.4414 109.6279 0.0000 0.0000 0.0000
# 4 0.0000 0.0000 0.0000 -171.3042 0.0000 0.0000
# 5 0.0000 0.0000 0.0000 0.0000 -36.4369 0.0000
# 6 0.0000 0.0000 0.0000 0.0000 0.0000 21.5218
#
#
#
# Elastic Compliance Matrix: (Units=1/GPa)
#
#
# Indices 1 2 3 4 5 6 
#
# 1 0.013618 -0.003245 -0.000098 0.000000 0.000000 0.000000
# 2 -0.003245 0.010776 0.000246 0.000000 0.000000 0.000000
# 3 -0.000098 0.000246 0.009127 0.000000 0.000000 0.000000
# 4 0.000000 0.000000 0.000000 -0.005838 0.000000 0.000000
# 5 0.000000 0.000000 0.000000 0.000000 -0.027445 0.000000
# 6 0.000000 0.000000 0.000000 0.000000 0.000000 0.046465
#
#
# Mechanical properties :
#
#
# Convention : Reuss Voigt Hill
#
# Bulk Modulus (GPa) = 36.59128 36.87964 36.73546
# Shear Modulus (GPa) = 80.63684 -19.43172 30.60256
#
# Velocity S-wave (km/s) = 6.30974 -3.09742 3.88708
# Velocity P-wave (km/s) = 8.43504 2.32735 6.18734
#
# Compressibility (1/GPa) = 0.02732891
#
# Stress axis : x y z
#
# Youngs Moduli (GPa) = 73.43050 92.79922 109.55988
#
# Poissons Ratio (x) = 0.30112 0.01069
# Poissons Ratio (y) = 0.23827 -0.02695
# Poissons Ratio (z) = 0.00717 -0.02283
#
# Static dielectric constant tensor:
#      x y z
#    x 1.732610 0.000000 0.000000 
#    y 0.000000 1.669760 0.000000 
#    z 0.000000 0.000000 1.771310 
# 
# From -- ./inp_files/10267.got.cif
#   From: 2010.05.17/outbox.cif.g08.bks.cpg/sg55_6_cif.got.tgz:10267.got - 2010.06.03 13:27:54.
