data_PCOD9427707
_publ_section_title
;
Structure prediction by ZEFSAII (Michael W. Deem and Ramdas Pophale) SiO2 
 PCOD9427707
Probable space group: P B A M
;
_chemical_formula_sum "Si O2"
_cell_formula_units_Z 38
_cell_length_a 9.735955
_cell_length_b 11.757223
_cell_length_c 14.757441
_cell_angle_alpha 90.000000
_cell_angle_beta 90.000000
_cell_angle_gamma 90.000000
_cell_volume 1689.251717
_symmetry_space_group_name_H-M "P B A M"
_symmetry_group_IT_number 55
_symmetry_cell_setting 'orthorhombic'
loop_
_space_group_symop_operation_xyz
x,y,z
-x,-y,z
1/2+x,1/2-y,-z
1/2-x,1/2+y,-z
-x,-y,-z
x,y,-z
1/2-x,1/2+y,z
1/2+x,1/2-y,z
loop_
_atom_site_type_symbol
_atom_site_label
_atom_site_fract_x
_atom_site_fract_y
_atom_site_fract_z
Si Si1 0.692672 0.683234 0.108551
Si Si2 0.491331 0.871612 0.110930
Si Si3 0.000000 0.000000 0.500000
Si Si4 0.956897 0.369331 0.390104
Si Si5 0.360646 0.654767 0.341916
Si Si6 0.500000 0.500000 0.806831
O O1 0.614630 0.793932 0.142538
O O2 0.846955 0.677729 0.141750
O O3 0.606723 0.572824 0.134907
O O4 0.697696 0.688988 0.000000
O O5 0.500000 0.000000 0.141647
O O6 0.493185 0.871802 0.000000
O O7 0.079156 0.075559 0.578125
O O8 0.953081 0.357546 0.500000
O O9 0.804174 0.341664 0.353268
O O10 0.000000 0.500000 0.370180
O O11 0.067475 0.278124 0.353377
O O12 0.413741 0.589100 0.253088
#
# Coordination Sequence:
#
# PCOD9427707 Si02
#       6
#     8   8   2   8   8   4
#     4  10  22  43  69  96 133 183 234 279 337 403
#     4   9  20  39  67  99 128 167 227 287 335 397
#     4  10  20  40  70  92 132 174 210 266 330 394
#     4  11  24  43  74 104 132 179 229 269 341 412
#     4  11  25  43  68  98 140 173 224 280 335 401
#     4  11  27  43  65  98 140 184 227 283 341 391
#
# _framework density 22.495166999999999
#
# number of rings (size 3 to 8) (size 9 to 14) (size 15 to 20)
#    0.000    1.684    2.105    0.316    8.842    1.684 
#    0.000    0.000    0.000    0.000    0.000    0.000 
#    0.000    0.000    0.000    0.000    0.000    0.000 
#
# Total GULP energy -212216.743649 kJ/mol
# GULP energy per Si atom -5584.651149 kJ/mol
# Density = 2.244397 g / cm^3
# Si number density = 22.495167 Si / 1000 Ang^3
#
#
#
# Elastic Constant Matrix: (Units=GPa)
#
#
# Indices 1 2 3 4 5 6 
#
# 1 204.4138 130.9708 38.3977 0.0000 0.0000 0.0000
# 2 130.9708 181.9403 26.4112 0.0000 0.0000 0.0000
# 3 38.3977 26.4112 53.3140 0.0000 0.0000 0.0000
# 4 0.0000 0.0000 0.0000 53.8862 0.0000 0.0000
# 5 0.0000 0.0000 0.0000 0.0000 14.1267 0.0000
# 6 0.0000 0.0000 0.0000 0.0000 0.0000 42.1703
#
#
#
# Elastic Compliance Matrix: (Units=1/GPa)
#
#
# Indices 1 2 3 4 5 6 
#
# 1 0.009752 -0.006466 -0.003821 0.000000 0.000000 0.000000
# 2 -0.006466 0.010209 -0.000401 0.000000 0.000000 0.000000
# 3 -0.003821 -0.000401 0.021707 0.000000 0.000000 0.000000
# 4 0.000000 0.000000 0.000000 0.018558 0.000000 0.000000
# 5 0.000000 0.000000 0.000000 0.000000 0.070788 0.000000
# 6 0.000000 0.000000 0.000000 0.000000 0.000000 0.023713
#
#
# Mechanical properties :
#
#
# Convention : Reuss Voigt Hill
#
# Bulk Modulus (GPa) = 49.27557 92.35860 70.81709
# Shear Modulus (GPa) = 27.34238 38.29588 32.81913
#
# Velocity S-wave (km/s) = 3.49015 4.13050 3.82375
# Velocity P-wave (km/s) = 6.18013 7.99339 7.14452
#
# Compressibility (1/GPa) = 0.02029403
#
# Stress axis : x y z
#
# Youngs Moduli (GPa) = 102.53881 97.95445 46.06788
#
# Poissons Ratio (x) = 0.63334 0.17602
# Poissons Ratio (y) = 0.66298 0.01846
# Poissons Ratio (z) = 0.39178 0.03925
#
# Static dielectric constant tensor:
#      x y z
#    x 1.781960 0.000000 0.000000 
#    y 0.000000 1.793210 0.000000 
#    z 0.000000 0.000000 1.822710 
# 
# From -- ./inp_files/20646.got.cif
#   From: 2010.05.17/outbox.cif.g08.bks.cpg/sg55_11_cif.got.tgz:20646.got - 2010.06.03 13:27:54.
