data_PCOD9427171
_publ_section_title
;
Structure prediction by ZEFSAII (Michael W. Deem and Ramdas Pophale) SiO2 
 PCOD9427171
Probable space group: P B A M
;
_chemical_formula_sum "Si O2"
_cell_formula_units_Z 64
_cell_length_a 25.280440
_cell_length_b 14.616092
_cell_length_c 8.534695
_cell_angle_alpha 90.000000
_cell_angle_beta 90.000000
_cell_angle_gamma 90.000000
_cell_volume 3153.580359
_symmetry_space_group_name_H-M "P B A M"
_symmetry_group_IT_number 55
_symmetry_cell_setting 'orthorhombic'
loop_
_space_group_symop_operation_xyz
x,y,z
-x,-y,z
1/2+x,1/2-y,-z
1/2-x,1/2+y,-z
-x,-y,-z
x,y,-z
1/2-x,1/2+y,z
1/2+x,1/2-y,z
loop_
_atom_site_type_symbol
_atom_site_label
_atom_site_fract_x
_atom_site_fract_y
_atom_site_fract_z
Si Si1 0.507985 0.798090 0.310918
Si Si2 0.135330 0.023984 0.311339
Si Si3 0.743755 0.963128 0.687467
Si Si4 0.577717 0.958239 0.315533
Si Si5 0.344633 0.900367 0.815177
Si Si6 0.667389 0.826236 0.186332
Si Si7 0.401694 0.336396 0.185597
Si Si8 0.393538 0.727547 0.689518
O O1 0.508390 0.800954 0.500000
O O2 0.526867 0.899932 0.260317
O O3 0.551044 0.723747 0.256894
O O4 0.450683 0.765021 0.258585
O O5 0.133399 0.022200 0.500000
O O6 0.196640 0.015403 0.263128
O O7 0.114802 0.123267 0.259744
O O8 0.102807 0.937935 0.250080
O O9 0.742143 0.953698 0.500000
O O10 0.722982 0.868559 0.763584
O O11 0.703012 0.042347 0.738250
O O12 0.572317 0.979413 0.500000
O O13 0.624934 0.884970 0.285531
O O14 0.600895 0.046639 0.230324
O O15 0.350124 0.797758 0.753318
O O16 0.337845 0.902634 0.000000
O O17 0.652375 0.721302 0.217633
O O18 0.659106 0.843209 0.000000
O O19 0.408850 0.338784 0.000000
O O20 0.391771 0.730164 0.500000
#
# Coordination Sequence:
#
# PCOD9427171 Si02
#       8
#     8   8   8   8   8   8   8   8
#     4   9  19  36  60  84 110 146 187 230 278 326
#     4  10  23  40  58  79 106 143 190 234 274 322
#     4  10  20  36  58  83 109 142 181 226 274 326
#     4   9  16  30  54  83 110 141 180 220 262 319
#     4  11  22  36  56  84 116 150 181 221 279 339
#     4   9  17  31  52  80 109 138 171 216 270 321
#     4  10  21  36  57  83 113 145 182 228 277 329
#     4  10  22  41  59  80 111 147 188 234 277 325
#
# _framework density 20.294394
#
# number of rings (size 3 to 8) (size 9 to 14) (size 15 to 20)
#    0.000    2.250    0.000    4.125    0.000    6.000 
#    0.000    8.750    0.000    0.000    0.000    0.000 
#    0.000    0.000    0.000    0.000    0.000    0.000 
#
# Total GULP energy -357269.361023 kJ/mol
# GULP energy per Si atom -5582.333766 kJ/mol
# Density = 2.024820 g / cm^3
# Si number density = 20.294394 Si / 1000 Ang^3
#
#
#
# Elastic Constant Matrix: (Units=GPa)
#
#
# Indices 1 2 3 4 5 6 
#
# 1 66.2581 27.0787 7.9781 0.0000 0.0000 0.0000
# 2 27.0787 135.7040 14.4962 0.0000 0.0000 0.0000
# 3 7.9781 14.4962 26.5421 0.0000 0.0000 0.0000
# 4 0.0000 0.0000 0.0000 81.7300 0.0000 0.0000
# 5 0.0000 0.0000 0.0000 0.0000 -7.6140 0.0000
# 6 0.0000 0.0000 0.0000 0.0000 0.0000 21.5473
#
#
#
# Elastic Compliance Matrix: (Units=1/GPa)
#
#
# Indices 1 2 3 4 5 6 
#
# 1 0.016717 -0.002972 -0.003401 0.000000 0.000000 0.000000
# 2 -0.002972 0.008354 -0.003669 0.000000 0.000000 0.000000
# 3 -0.003401 -0.003669 0.040702 0.000000 0.000000 0.000000
# 4 0.000000 0.000000 0.000000 0.012235 0.000000 0.000000
# 5 0.000000 0.000000 0.000000 0.000000 -0.131337 0.000000
# 6 0.000000 0.000000 0.000000 0.000000 0.000000 0.046410
#
#
# Mechanical properties :
#
#
# Convention : Reuss Voigt Hill
#
# Bulk Modulus (GPa) = 21.88794 36.40113 29.14454
# Shear Modulus (GPa) = 176.07704 31.06272 103.56988
#
# Velocity S-wave (km/s) = 9.32469 3.91654 7.15154
# Velocity P-wave (km/s) = 11.25796 6.19902 9.08762
#
# Compressibility (1/GPa) = 0.04568727
#
# Stress axis : x y z
#
# Youngs Moduli (GPa) = 59.81995 119.70243 24.56861
#
# Poissons Ratio (x) = 0.35580 0.08357
# Poissons Ratio (y) = 0.17781 0.09015
# Poissons Ratio (z) = 0.20347 0.43921
#
# Static dielectric constant tensor:
#      x y z
#    x 1.755150 0.000000 0.000000 
#    y 0.000000 1.726360 0.000000 
#    z 0.000000 0.000000 1.688410 
# 
# From -- ./inp_files/9791.got.cif
#   From: 2010.05.17/outbox.cif.g08.bks.cpg/sg55_5_cif.got.tgz:9791.got - 2010.06.03 13:27:54.
