data_PCOD9427802
_publ_section_title
;
Structure prediction by ZEFSAII (Michael W. Deem and Ramdas Pophale) SiO2 
 PCOD9427802
Probable space group: P B A M
;
_chemical_formula_sum "Si O2"
_cell_formula_units_Z 64
_cell_length_a 11.282124
_cell_length_b 33.577089
_cell_length_c 7.702810
_cell_angle_alpha 90.000000
_cell_angle_beta 90.000000
_cell_angle_gamma 90.000000
_cell_volume 2917.985275
_symmetry_space_group_name_H-M "P B A M"
_symmetry_group_IT_number 55
_symmetry_cell_setting 'orthorhombic'
loop_
_space_group_symop_operation_xyz
x,y,z
-x,-y,z
1/2+x,1/2-y,-z
1/2-x,1/2+y,-z
-x,-y,-z
x,y,-z
1/2-x,1/2+y,z
1/2+x,1/2-y,z
loop_
_atom_site_type_symbol
_atom_site_label
_atom_site_fract_x
_atom_site_fract_y
_atom_site_fract_z
Si Si1 0.580267 0.384151 0.700859
Si Si2 0.981377 0.328582 0.300154
Si Si3 0.866672 0.513289 0.287802
Si Si4 0.854782 0.604376 0.711423
Si Si5 0.884008 0.973788 0.287301
Si Si6 0.230553 0.183965 0.196789
Si Si7 0.312119 0.770186 0.204955
Si Si8 0.355549 0.336479 0.290065
O O1 0.546991 0.390885 0.500000
O O2 0.596945 0.428254 0.773925
O O3 0.695806 0.356776 0.710408
O O4 0.478370 0.355080 0.772971
O O5 0.945010 0.332768 0.500000
O O6 0.871367 0.312435 0.196769
O O7 0.029622 0.370965 0.233995
O O8 0.090872 0.298349 0.291272
O O9 0.867281 0.511701 0.500000
O O10 0.850511 0.559101 0.232335
O O11 0.746699 0.489802 0.233088
O O12 0.000000 0.500000 0.233470
O O13 0.855060 0.604378 0.500000
O O14 0.743043 0.631036 0.764177
O O15 0.881843 0.974396 0.500000
O O16 0.000000 0.000000 0.236692
O O17 0.184351 0.225345 0.275153
O O18 0.187858 0.180597 0.000000
O O19 0.187295 0.793287 0.227969
O O20 0.336068 0.768545 0.000000
O O21 0.356786 0.334064 0.500000
#
# Coordination Sequence:
#
# PCOD9427802 Si02
#       8
#     8   8   8   8   8   8   8   8
#     4  10  21  35  56  85 115 146 189 240 288 336
#     4  10  21  37  60  84 111 143 183 236 285 332
#     4   9  16  24  42  73 109 145 177 218 275 341
#     4   8  15  29  49  76 111 142 173 218 276 331
#     4   9  17  30  50  79 115 149 182 231 295 352
#     4  11  25  40  55  78 113 153 189 231 283 341
#     4  10  22  39  58  80 109 146 188 229 276 339
#     4   9  18  34  55  81 110 143 183 231 277 326
#
# _framework density 21.932939999999999
#
# number of rings (size 3 to 8) (size 9 to 14) (size 15 to 20)
#    0.000    2.500    0.000    2.625    3.500    5.500 
#    0.000    0.000    0.000    0.375    0.000    5.250 
#    0.000    0.000    0.000    0.000    0.000    0.000 
#
# Total GULP energy -357009.291130 kJ/mol
# GULP energy per Si atom -5578.270174 kJ/mol
# Density = 2.188302 g / cm^3
# Si number density = 21.932940 Si / 1000 Ang^3
#
#
#
# Elastic Constant Matrix: (Units=GPa)
#
#
# Indices 1 2 3 4 5 6 
#
# 1 98.1510 40.3613 4.2551 0.0000 0.0000 0.0000
# 2 40.3613 142.3830 6.8444 0.0000 0.0000 0.0000
# 3 4.2551 6.8444 41.2396 0.0000 0.0000 0.0000
# 4 0.0000 0.0000 0.0000 34.1549 0.0000 0.0000
# 5 0.0000 0.0000 0.0000 0.0000 33.1510 0.0000
# 6 0.0000 0.0000 0.0000 0.0000 0.0000 22.2016
#
#
#
# Elastic Compliance Matrix: (Units=1/GPa)
#
#
# Indices 1 2 3 4 5 6 
#
# 1 0.011550 -0.003243 -0.000654 0.000000 0.000000 0.000000
# 2 -0.003243 0.007990 -0.000992 0.000000 0.000000 0.000000
# 3 -0.000654 -0.000992 0.024481 0.000000 0.000000 0.000000
# 4 0.000000 0.000000 0.000000 0.029278 0.000000 0.000000
# 5 0.000000 0.000000 0.000000 0.000000 0.030165 0.000000
# 6 0.000000 0.000000 0.000000 0.000000 0.000000 0.045042
#
#
# Mechanical properties :
#
#
# Convention : Reuss Voigt Hill
#
# Bulk Modulus (GPa) = 29.20109 42.74391 35.97250
# Shear Modulus (GPa) = 29.46432 33.25569 31.36000
#
# Velocity S-wave (km/s) = 3.66919 3.89812 3.78539
# Velocity P-wave (km/s) = 5.59405 6.30803 5.96174
#
# Compressibility (1/GPa) = 0.03424529
#
# Stress axis : x y z
#
# Youngs Moduli (GPa) = 86.57882 125.15363 40.84880
#
# Poissons Ratio (x) = 0.40584 0.02670
# Poissons Ratio (y) = 0.28075 0.04050
# Poissons Ratio (z) = 0.05658 0.12409
#
# Static dielectric constant tensor:
#      x y z
#    x 1.812330 0.000000 0.000000 
#    y 0.000000 1.785900 0.000000 
#    z 0.000000 0.000000 1.846490 
# 
# From -- ./inp_files/4556.got.cif
#   From: 2010.05.17/outbox.cif.g08.bks.cpg/sg55_3_cif.got.tgz:4556.got - 2010.06.03 13:27:54.
