data_PCOD9427955
_publ_section_title
;
Structure prediction by ZEFSAII (Michael W. Deem and Ramdas Pophale) SiO2 
 PCOD9427955
Probable space group: P B A M
;
_chemical_formula_sum "Si O2"
_cell_formula_units_Z 56
_cell_length_a 18.537377
_cell_length_b 11.075590
_cell_length_c 15.007724
_cell_angle_alpha 90.000000
_cell_angle_beta 90.000000
_cell_angle_gamma 90.000000
_cell_volume 3081.271643
_symmetry_space_group_name_H-M "P B A M"
_symmetry_group_IT_number 55
_symmetry_cell_setting 'orthorhombic'
loop_
_space_group_symop_operation_xyz
x,y,z
-x,-y,z
1/2+x,1/2-y,-z
1/2-x,1/2+y,-z
-x,-y,-z
x,y,-z
1/2-x,1/2+y,z
1/2+x,1/2-y,z
loop_
_atom_site_type_symbol
_atom_site_label
_atom_site_fract_x
_atom_site_fract_y
_atom_site_fract_z
Si Si1 0.454122 0.255173 0.600306
Si Si2 0.102611 0.145393 0.603022
Si Si3 0.310483 0.402961 0.396218
Si Si4 0.835567 0.632961 0.710658
Si Si5 0.321016 0.157310 0.897306
Si Si6 0.565909 0.924134 0.247170
Si Si7 0.779846 0.611518 0.897655
O O1 0.462384 0.203900 0.500000
O O2 0.515670 0.357980 0.607576
O O3 0.372631 0.302205 0.609113
O O4 0.467171 0.165514 0.680786
O O5 0.120215 0.173936 0.500000
O O6 0.129747 0.252709 0.664404
O O7 0.146228 0.025253 0.625144
O O8 0.285716 0.408077 0.500000
O O9 0.244250 0.382917 0.330179
O O10 0.881788 0.512624 0.696998
O O11 0.833163 0.645103 0.817652
O O12 0.385192 0.139517 0.827200
O O13 0.282999 0.287874 0.885737
O O14 0.270332 0.035325 0.886159
O O15 0.345901 0.152449 0.000000
O O16 0.500000 0.000000 0.206532
O O17 0.804837 0.627106 0.000000
#
# Coordination Sequence:
#
# PCOD9427955 Si02
#       7
#     8   8   8   8   8   8   8
#     4  10  21  38  57  77 109 153 190 228 280 335
#     4  10  21  37  55  78 111 149 189 230 280 337
#     4  10  22  36  56  82 110 145 190 238 279 331
#     4  11  22  35  56  83 113 144 185 232 288 328
#     4   9  19  36  59  85 114 147 185 233 286 341
#     4  11  22  37  53  80 112 146 187 229 279 340
#     4   9  19  35  56  83 113 146 186 231 286 339
#
# _framework density 18.174313999999999
#
# number of rings (size 3 to 8) (size 9 to 14) (size 15 to 20)
#    0.000    2.000    1.429    1.714    6.000    3.429 
#    0.000    0.000    0.000    0.000    0.000    0.000 
#    0.000   17.143    0.000    0.000    0.000    0.000 
#
# Total GULP energy -311835.286734 kJ/mol
# GULP energy per Si atom -5568.487263 kJ/mol
# Density = 1.813295 g / cm^3
# Si number density = 18.174314 Si / 1000 Ang^3
#
#
#
# Elastic Constant Matrix: (Units=GPa)
#
#
# Indices 1 2 3 4 5 6 
#
# 1 75.9292 19.7618 28.9565 0.0000 0.0000 0.0000
# 2 19.7618 48.5828 37.9690 0.0000 0.0000 0.0000
# 3 28.9565 37.9690 59.4204 0.0000 0.0000 0.0000
# 4 0.0000 0.0000 0.0000 21.9075 0.0000 0.0000
# 5 0.0000 0.0000 0.0000 0.0000 19.5082 0.0000
# 6 0.0000 0.0000 0.0000 0.0000 0.0000 22.3204
#
#
#
# Elastic Compliance Matrix: (Units=1/GPa)
#
#
# Indices 1 2 3 4 5 6 
#
# 1 0.016194 -0.000838 -0.007356 0.000000 0.000000 0.000000
# 2 -0.000838 0.041160 -0.025892 0.000000 0.000000 0.000000
# 3 -0.007356 -0.025892 0.036959 0.000000 0.000000 0.000000
# 4 0.000000 0.000000 0.000000 0.045647 0.000000 0.000000
# 5 0.000000 0.000000 0.000000 0.000000 0.051260 0.000000
# 6 0.000000 0.000000 0.000000 0.000000 0.000000 0.044802
#
#
# Mechanical properties :
#
#
# Convention : Reuss Voigt Hill
#
# Bulk Modulus (GPa) = 38.25598 39.70075 38.97837
# Shear Modulus (GPa) = 15.97917 19.23023 17.60470
#
# Velocity S-wave (km/s) = 2.96838 3.25637 3.11570
# Velocity P-wave (km/s) = 5.73093 6.00254 5.86830
#
# Compressibility (1/GPa) = 0.02613971
#
# Stress axis : x y z
#
# Youngs Moduli (GPa) = 61.75308 24.29536 27.05718
#
# Poissons Ratio (x) = 0.02036 0.19903
# Poissons Ratio (y) = 0.05176 0.70058
# Poissons Ratio (z) = 0.45424 0.62907
#
# Static dielectric constant tensor:
#      x y z
#    x 1.617130 0.000000 0.000000 
#    y 0.000000 1.661120 0.000000 
#    z 0.000000 0.000000 1.618100 
# 
# From -- ./inp_files/17622.got.cif
#   From: 2010.05.17/outbox.cif.g08.bks.cpg/sg55_9_cif.got.tgz:17622.got - 2010.06.03 13:27:54.
