data_PCOD9427742
_publ_section_title
;
Structure prediction by ZEFSAII (Michael W. Deem and Ramdas Pophale) SiO2 
 PCOD9427742
Probable space group: P B A M
;
_chemical_formula_sum "Si O2"
_cell_formula_units_Z 64
_cell_length_a 17.687734
_cell_length_b 7.067167
_cell_length_c 21.708233
_cell_angle_alpha 90.000000
_cell_angle_beta 90.000000
_cell_angle_gamma 90.000000
_cell_volume 2713.576233
_symmetry_space_group_name_H-M "P B A M"
_symmetry_group_IT_number 55
_symmetry_cell_setting 'orthorhombic'
loop_
_space_group_symop_operation_xyz
x,y,z
-x,-y,z
1/2+x,1/2-y,-z
1/2-x,1/2+y,-z
-x,-y,-z
x,y,-z
1/2-x,1/2+y,z
1/2+x,1/2-y,z
loop_
_atom_site_type_symbol
_atom_site_label
_atom_site_fract_x
_atom_site_fract_y
_atom_site_fract_z
Si Si1 0.814620 0.397035 0.801587
Si Si2 0.136780 0.059282 0.066628
Si Si3 0.583366 0.527200 0.671078
Si Si4 0.583212 0.972790 0.696721
Si Si5 0.313593 0.122897 0.065650
Si Si6 0.138465 0.042489 0.200767
Si Si7 0.137977 0.461134 0.568135
Si Si8 0.687661 0.601602 0.567543
O O1 0.852324 0.513311 0.746643
O O2 0.832274 0.475600 0.869874
O O3 0.724550 0.383402 0.793964
O O4 0.847985 0.185070 0.801506
O O5 0.151109 0.832174 0.065952
O O6 0.103659 0.101087 0.134553
O O7 0.222434 0.141309 0.066454
O O8 0.100550 0.107675 0.000000
O O9 0.500000 0.500000 0.645002
O O10 0.591350 0.749872 0.684072
O O11 0.592723 0.421841 0.736482
O O12 0.648280 0.486483 0.621802
O O13 0.591208 0.074995 0.630467
O O14 0.500000 0.000000 0.722964
O O15 0.334200 0.032079 0.000000
O O16 0.107364 0.408532 0.500000
O O17 0.222724 0.381780 0.575848
O O18 0.152542 0.688361 0.566455
O O19 0.675074 0.515089 0.500000
#
# Coordination Sequence:
#
# PCOD9427742 Si02
#       8
#     8   8   8   8   8   8   8   8
#     4   9  17  29  46  68  91 116 149 187 225 267
#     4   8  13  22  38  61  87 112 139 176 222 266
#     4  10  21  34  47  66  93 123 154 187 222 263
#     4  10  21  34  47  66  93 123 154 187 222 263
#     4   8  13  22  38  61  87 112 139 176 222 266
#     4   9  17  29  46  68  91 116 149 187 225 267
#     4   9  18  33  52  73  95 118 147 184 224 267
#     4   9  18  33  52  73  95 118 147 184 224 267
#
# _framework density 23.585113
#
# number of rings (size 3 to 8) (size 9 to 14) (size 15 to 20)
#    0.000    3.000    0.000    0.750    0.000    2.500 
#    0.000    0.000    0.000    0.750    0.000    0.000 
#    0.000    0.000    0.000    0.000    0.000    0.000 
#
# Total GULP energy -357155.244388 kJ/mol
# GULP energy per Si atom -5580.550694 kJ/mol
# Density = 2.353143 g / cm^3
# Si number density = 23.585113 Si / 1000 Ang^3
#
#
#
# Elastic Constant Matrix: (Units=GPa)
#
#
# Indices 1 2 3 4 5 6 
#
# 1 33.7668 -4.1700 47.8350 0.0000 0.0000 0.0000
# 2 -4.1700 67.3717 6.7086 0.0000 0.0000 0.0000
# 3 47.8350 6.7086 151.3762 0.0000 0.0000 0.0000
# 4 0.0000 0.0000 0.0000 -5.1151 0.0000 0.0000
# 5 0.0000 0.0000 0.0000 0.0000 -20.4238 0.0000
# 6 0.0000 0.0000 0.0000 0.0000 0.0000 20.1739
#
#
#
# Elastic Compliance Matrix: (Units=1/GPa)
#
#
# Indices 1 2 3 4 5 6 
#
# 1 0.055368 0.005192 -0.017726 0.000000 0.000000 0.000000
# 2 0.005192 0.015396 -0.002323 0.000000 0.000000 0.000000
# 3 -0.017726 -0.002323 0.012311 0.000000 0.000000 0.000000
# 4 0.000000 0.000000 0.000000 -0.195501 0.000000 0.000000
# 5 0.000000 0.000000 0.000000 0.000000 -0.048962 0.000000
# 6 0.000000 0.000000 0.000000 0.000000 0.000000 0.049569
#
#
# Mechanical properties :
#
#
# Convention : Reuss Voigt Hill
#
# Bulk Modulus (GPa) = 18.74074 39.25132 28.99603
# Shear Modulus (GPa) = -77.73726 12.40308 -32.66709
#
# Velocity S-wave (km/s) = -5.74734 2.29571 -3.72569
# Velocity P-wave (km/s) = 6.00660 4.86884 2.48733
#
# Compressibility (1/GPa) = 0.05335968
#
# Stress axis : x y z
#
# Youngs Moduli (GPa) = 18.06098 64.95313 81.23095
#
# Poissons Ratio (x) = -0.33725 1.43994
# Poissons Ratio (y) = -0.09378 0.18870
# Poissons Ratio (z) = 0.32016 0.15089
#
# Static dielectric constant tensor:
#      x y z
#    x 1.822370 0.000000 0.000000 
#    y 0.000000 1.947070 0.000000 
#    z 0.000000 0.000000 1.979040 
# 
# From -- ./inp_files/23602.got.cif
#   From: 2010.05.17/outbox.cif.g08.bks.cpg/sg55_12_cif.got.tgz:23602.got - 2010.06.03 13:27:54.
