data_PCOD9427887
_publ_section_title
;
Structure prediction by ZEFSAII (Michael W. Deem and Ramdas Pophale) SiO2 
 PCOD9427887
Probable space group: P B A M
;
_chemical_formula_sum "Si O2"
_cell_formula_units_Z 64
_cell_length_a 15.635883
_cell_length_b 23.890112
_cell_length_c 7.618142
_cell_angle_alpha 90.000000
_cell_angle_beta 90.000000
_cell_angle_gamma 90.000000
_cell_volume 2845.703587
_symmetry_space_group_name_H-M "P B A M"
_symmetry_group_IT_number 55
_symmetry_cell_setting 'orthorhombic'
loop_
_space_group_symop_operation_xyz
x,y,z
-x,-y,z
1/2+x,1/2-y,-z
1/2-x,1/2+y,-z
-x,-y,-z
x,y,-z
1/2-x,1/2+y,z
1/2+x,1/2-y,z
loop_
_atom_site_type_symbol
_atom_site_label
_atom_site_fract_x
_atom_site_fract_y
_atom_site_fract_z
Si Si1 0.019453 0.214072 0.212403
Si Si2 0.842136 0.876231 0.212226
Si Si3 0.172593 0.682365 0.294543
Si Si4 0.402337 0.502731 0.212631
Si Si5 0.574701 0.039925 0.298783
Si Si6 0.984118 0.660869 0.199874
Si Si7 0.248301 0.920393 0.292342
Si Si8 0.678660 0.695052 0.708733
O O1 0.038960 0.277569 0.274248
O O2 0.924000 0.193878 0.261991
O O3 0.089416 0.169817 0.273404
O O4 0.020328 0.216671 0.000000
O O5 0.748620 0.860274 0.273274
O O6 0.866391 0.937798 0.271016
O O7 0.844145 0.875425 0.000000
O O8 0.150304 0.688555 0.500000
O O9 0.086991 0.663351 0.200108
O O10 0.203380 0.743146 0.226014
O O11 0.500000 0.500000 0.272202
O O12 0.339548 0.454079 0.272988
O O13 0.402771 0.500723 0.000000
O O14 0.584603 0.019684 0.500000
O O15 0.544252 0.104630 0.295693
O O16 0.670353 0.045088 0.218995
O O17 0.500000 0.000000 0.220338
O O18 0.952262 0.656711 0.000000
O O19 0.266443 0.914217 0.500000
O O20 0.229775 0.858205 0.218258
O O21 0.692999 0.694024 0.500000
#
# Coordination Sequence:
#
# PCOD9427887 Si02
#       8
#     8   8   8   8   8   8   8   8
#     4   9  19  36  58  85 117 151 185 231 289 348
#     4  10  21  36  56  84 117 148 187 235 281 342
#     4  10  21  36  57  84 114 150 187 230 289 350
#     4  10  22  40  61  86 117 156 196 236 289 347
#     4  10  23  41  60  83 115 157 200 246 297 349
#     4  10  21  38  60  86 115 149 191 239 291 344
#     4  10  22  39  60  86 119 155 198 247 290 342
#     4   9  19  36  56  82 113 147 189 235 285 340
#
# _framework density 22.490043
#
# number of rings (size 3 to 8) (size 9 to 14) (size 15 to 20)
#    0.000    2.250    0.000    1.500    3.500    4.500 
#    0.000    0.000    0.000    0.000    0.000    0.000 
#    0.000    0.000    0.000    0.000    0.000    0.000 
#
# Total GULP energy -357431.432431 kJ/mol
# GULP energy per Si atom -5584.866132 kJ/mol
# Density = 2.243886 g / cm^3
# Si number density = 22.490043 Si / 1000 Ang^3
#
#
#
# Elastic Constant Matrix: (Units=GPa)
#
#
# Indices 1 2 3 4 5 6 
#
# 1 67.9269 30.1340 -4.6674 0.0000 0.0000 0.0000
# 2 30.1340 70.0300 0.1349 0.0000 0.0000 0.0000
# 3 -4.6674 0.1349 49.5334 0.0000 0.0000 0.0000
# 4 0.0000 0.0000 0.0000 13.6171 0.0000 0.0000
# 5 0.0000 0.0000 0.0000 0.0000 9.7222 0.0000
# 6 0.0000 0.0000 0.0000 0.0000 0.0000 37.8695
#
#
#
# Elastic Compliance Matrix: (Units=1/GPa)
#
#
# Indices 1 2 3 4 5 6 
#
# 1 0.018345 -0.007897 0.001750 0.000000 0.000000 0.000000
# 2 -0.007897 0.017679 -0.000792 0.000000 0.000000 0.000000
# 3 0.001750 -0.000792 0.020355 0.000000 0.000000 0.000000
# 4 0.000000 0.000000 0.000000 0.073437 0.000000 0.000000
# 5 0.000000 0.000000 0.000000 0.000000 0.102857 0.000000
# 6 0.000000 0.000000 0.000000 0.000000 0.000000 0.026406
#
#
# Mechanical properties :
#
#
# Convention : Reuss Voigt Hill
#
# Bulk Modulus (GPa) = 23.52881 26.52150 25.02516
# Shear Modulus (GPa) = 17.41387 23.03435 20.22411
#
# Velocity S-wave (km/s) = 2.78563 3.20379 3.00200
# Velocity P-wave (km/s) = 4.56409 5.05013 4.81325
#
# Compressibility (1/GPa) = 0.04250108
#
# Stress axis : x y z
#
# Youngs Moduli (GPa) = 54.50941 56.56302 49.12688
#
# Poissons Ratio (x) = 0.44670 -0.08598
# Poissons Ratio (y) = 0.43049 0.03892
# Poissons Ratio (z) = -0.09540 0.04482
#
# Static dielectric constant tensor:
#      x y z
#    x 1.804270 0.000000 0.000000 
#    y 0.000000 1.823450 0.000000 
#    z 0.000000 0.000000 1.874920 
# 
# From -- ./inp_files/6550.got.cif
#   From: 2010.05.17/outbox.cif.g08.bks.cpg/sg55_4_cif.got.tgz:6550.got - 2010.06.03 13:27:54.
