data_PCOD9427953
_publ_section_title
;
Structure prediction by ZEFSAII (Michael W. Deem and Ramdas Pophale) SiO2 
 PCOD9427953
Probable space group: P B A M
;
_chemical_formula_sum "Si O2"
_cell_formula_units_Z 64
_cell_length_a 11.646406
_cell_length_b 28.466469
_cell_length_c 9.160119
_cell_angle_alpha 90.000000
_cell_angle_beta 90.000000
_cell_angle_gamma 90.000000
_cell_volume 3036.873079
_symmetry_space_group_name_H-M "P B A M"
_symmetry_group_IT_number 55
_symmetry_cell_setting 'orthorhombic'
loop_
_space_group_symop_operation_xyz
x,y,z
-x,-y,z
1/2+x,1/2-y,-z
1/2-x,1/2+y,-z
-x,-y,-z
x,y,-z
1/2-x,1/2+y,z
1/2+x,1/2-y,z
loop_
_atom_site_type_symbol
_atom_site_label
_atom_site_fract_x
_atom_site_fract_y
_atom_site_fract_z
Si Si1 0.213342 0.157796 0.333614
Si Si2 0.172667 0.923190 0.174970
Si Si3 0.303861 0.013012 0.827739
Si Si4 0.152429 0.734740 0.166983
Si Si5 0.431321 0.832287 0.832737
Si Si6 0.705324 0.676380 0.327377
Si Si7 0.583583 0.419296 0.830332
Si Si8 0.939075 0.410212 0.332568
O O1 0.189677 0.171405 0.500000
O O2 0.248329 0.202579 0.238120
O O3 0.113102 0.125966 0.266629
O O4 0.325360 0.123346 0.333453
O O5 0.181660 0.873768 0.254691
O O6 0.041705 0.939976 0.201420
O O7 0.266874 0.961291 0.222432
O O8 0.185087 0.917935 0.000000
O O9 0.186210 0.043466 0.814523
O O10 0.398734 0.040717 0.736196
O O11 0.334544 0.012293 0.000000
O O12 0.131994 0.781557 0.259098
O O13 0.039779 0.702280 0.167551
O O14 0.181341 0.746730 0.000000
O O15 0.334446 0.812778 0.726528
O O16 0.472731 0.882342 0.769687
O O17 0.390868 0.837004 0.000000
O O18 0.695132 0.674458 0.500000
O O19 0.584148 0.404340 0.000000
O O20 0.978509 0.414486 0.500000
#
# Coordination Sequence:
#
# PCOD9427953 Si02
#       8
#     8   8   8   8   8   8   8   8
#     4   9  17  30  51  82 116 146 179 223 274 328
#     4  10  21  37  55  77 111 152 193 236 278 326
#     4   9  17  32  56  84 112 147 191 234 277 326
#     4  10  21  39  63  86 108 141 185 229 273 326
#     4  10  21  40  65  87 110 143 184 229 275 326
#     4  12  26  41  58  82 115 150 183 226 279 333
#     4   9  17  31  54  83 114 149 189 232 278 328
#     4   9  17  31  54  84 115 144 178 224 277 330
#
# _framework density 21.074307999999998
#
# number of rings (size 3 to 8) (size 9 to 14) (size 15 to 20)
#    0.000    2.250    0.000    3.000    0.000    8.000 
#    0.000    1.875    0.000    7.500    0.000    0.000 
#    0.000    0.000    0.000    0.000    0.000    0.000 
#
# Total GULP energy -357611.750106 kJ/mol
# GULP energy per Si atom -5587.683595 kJ/mol
# Density = 2.102634 g / cm^3
# Si number density = 21.074308 Si / 1000 Ang^3
#
#
#
# Elastic Constant Matrix: (Units=GPa)
#
#
# Indices 1 2 3 4 5 6 
#
# 1 23.4962 8.4263 0.9441 0.0000 0.0000 0.0000
# 2 8.4263 89.5662 37.1069 0.0000 0.0000 0.0000
# 3 0.9441 37.1069 84.8292 0.0000 0.0000 0.0000
# 4 0.0000 0.0000 0.0000 12.1053 0.0000 0.0000
# 5 0.0000 0.0000 0.0000 0.0000 20.4218 0.0000
# 6 0.0000 0.0000 0.0000 0.0000 0.0000 21.6311
#
#
#
# Elastic Compliance Matrix: (Units=1/GPa)
#
#
# Indices 1 2 3 4 5 6 
#
# 1 0.044228 -0.004833 0.001622 0.000000 0.000000 0.000000
# 2 -0.004833 0.014164 -0.006142 0.000000 0.000000 0.000000
# 3 0.001622 -0.006142 0.014457 0.000000 0.000000 0.000000
# 4 0.000000 0.000000 0.000000 0.082609 0.000000 0.000000
# 5 0.000000 0.000000 0.000000 0.000000 0.048967 0.000000
# 6 0.000000 0.000000 0.000000 0.000000 0.000000 0.046230
#
#
# Mechanical properties :
#
#
# Convention : Reuss Voigt Hill
#
# Bulk Modulus (GPa) = 18.46955 32.31624 25.39290
# Shear Modulus (GPa) = 17.39680 20.92592 19.16136
#
# Velocity S-wave (km/s) = 2.87627 3.15454 3.01861
# Velocity P-wave (km/s) = 4.45124 5.35125 4.92186
#
# Compressibility (1/GPa) = 0.05414317
#
# Stress axis : x y z
#
# Youngs Moduli (GPa) = 22.61006 70.60033 69.17030
#
# Poissons Ratio (x) = 0.34120 -0.11218
# Poissons Ratio (y) = 0.10927 0.42485
# Poissons Ratio (z) = -0.03667 0.43363
#
# Static dielectric constant tensor:
#      x y z
#    x 1.803010 0.000000 0.000000 
#    y 0.000000 1.752720 0.000000 
#    z 0.000000 0.000000 1.710070 
# 
# From -- ./inp_files/4696.got.cif
#   From: 2010.05.17/outbox.cif.g08.bks.cpg/sg55_3_cif.got.tgz:4696.got - 2010.06.03 13:27:54.
