data_PCOD9427826
_publ_section_title
;
Structure prediction by ZEFSAII (Michael W. Deem and Ramdas Pophale) SiO2 
 PCOD9427826
Probable space group: P B A M
;
_chemical_formula_sum "Si O2"
_cell_formula_units_Z 40
_cell_length_a 8.096261
_cell_length_b 24.280319
_cell_length_c 7.413729
_cell_angle_alpha 90.000000
_cell_angle_beta 90.000000
_cell_angle_gamma 90.000000
_cell_volume 1457.389362
_symmetry_space_group_name_H-M "P B A M"
_symmetry_group_IT_number 55
_symmetry_cell_setting 'orthorhombic'
loop_
_space_group_symop_operation_xyz
x,y,z
-x,-y,z
1/2+x,1/2-y,-z
1/2-x,1/2+y,-z
-x,-y,-z
x,y,-z
1/2-x,1/2+y,z
1/2+x,1/2-y,z
loop_
_atom_site_type_symbol
_atom_site_label
_atom_site_fract_x
_atom_site_fract_y
_atom_site_fract_z
Si Si1 0.550226 0.834367 0.716988
Si Si2 0.958126 0.134207 0.218693
Si Si3 0.147627 0.235954 0.290469
Si Si4 0.830132 0.963300 0.788199
Si Si5 0.143082 0.435175 0.215155
O O1 0.553093 0.831331 0.500000
O O2 0.401455 0.795017 0.786457
O O3 0.710685 0.802753 0.789786
O O4 0.518629 0.898108 0.758253
O O5 0.987223 0.196200 0.279964
O O6 0.108748 0.095094 0.286995
O O7 0.791275 0.104517 0.280864
O O8 0.957741 0.133375 0.000000
O O9 0.186488 0.244324 0.500000
O O10 0.688128 0.003948 0.713792
O O11 0.795730 0.953996 0.000000
O O12 0.000000 0.000000 0.780307
O O13 0.158452 0.441137 0.000000
#
# Coordination Sequence:
#
# PCOD9427826 Si02
#       5
#     8   8   8   8   8
#     4  10  21  36  52  70  95 129 166 203 245 291
#     4   9  17  31  53  78 101 127 161 200 240 284
#     4  10  21  36  52  70  95 129 166 203 245 291
#     4   7  12  26  48  73 100 128 158 193 234 281
#     4   9  17  31  53  78 101 127 161 200 240 284
#
# _framework density 27.446335999999999
#
# number of rings (size 3 to 8) (size 9 to 14) (size 15 to 20)
#    0.000    3.000    0.000    3.600    0.000    4.000 
#    0.000    2.000    0.000    9.600    0.000    0.000 
#    0.000    0.000    0.000    0.000    0.000    0.000 
#
# Total GULP energy -223626.111684 kJ/mol
# GULP energy per Si atom -5590.652792 kJ/mol
# Density = 2.738387 g / cm^3
# Si number density = 27.446336 Si / 1000 Ang^3
#
#
#
# Elastic Constant Matrix: (Units=GPa)
#
#
# Indices 1 2 3 4 5 6 
#
# 1 90.2824 24.8638 -4.6857 0.0000 0.0000 0.0000
# 2 24.8638 201.6286 -4.4000 0.0000 0.0000 0.0000
# 3 -4.6857 -4.4000 105.2762 0.0000 0.0000 0.0000
# 4 0.0000 0.0000 0.0000 14.9884 0.0000 0.0000
# 5 0.0000 0.0000 0.0000 0.0000 8.4719 0.0000
# 6 0.0000 0.0000 0.0000 0.0000 0.0000 56.5349
#
#
#
# Elastic Compliance Matrix: (Units=1/GPa)
#
#
# Indices 1 2 3 4 5 6 
#
# 1 0.011487 -0.001407 0.000452 0.000000 0.000000 0.000000
# 2 -0.001407 0.005136 0.000152 0.000000 0.000000 0.000000
# 3 0.000452 0.000152 0.009525 0.000000 0.000000 0.000000
# 4 0.000000 0.000000 0.000000 0.066718 0.000000 0.000000
# 5 0.000000 0.000000 0.000000 0.000000 0.118038 0.000000
# 6 0.000000 0.000000 0.000000 0.000000 0.000000 0.017688
#
#
# Mechanical properties :
#
#
# Convention : Reuss Voigt Hill
#
# Bulk Modulus (GPa) = 40.74194 47.63813 44.19004
# Shear Modulus (GPa) = 20.97499 41.42631 31.20065
#
# Velocity S-wave (km/s) = 2.76745 3.88926 3.37529
# Velocity P-wave (km/s) = 5.00881 6.12886 5.59692
#
# Compressibility (1/GPa) = 0.02454473
#
# Stress axis : x y z
#
# Youngs Moduli (GPa) = 87.05310 194.68905 104.98336
#
# Poissons Ratio (x) = 0.27386 -0.04750
# Poissons Ratio (y) = 0.12246 -0.01596
# Poissons Ratio (z) = -0.03939 -0.02961
#
# Static dielectric constant tensor:
#      x y z
#    x 2.302160 0.000000 0.000000 
#    y 0.000000 2.099220 0.000000 
#    z 0.000000 0.000000 2.013460 
# 
# From -- ./inp_files/2298.got.cif
#   From: 2010.05.17/outbox.cif.g08.bks.cpg/sg55_2_cif.got.tgz:2298.got - 2010.06.03 13:27:54.
