data_PCOD9427241
_publ_section_title
;
Structure prediction by ZEFSAII (Michael W. Deem and Ramdas Pophale) SiO2 
 PCOD9427241
Probable space group: P B A M
;
_chemical_formula_sum "Si O2"
_cell_formula_units_Z 56
_cell_length_a 14.395537
_cell_length_b 22.066694
_cell_length_c 7.621390
_cell_angle_alpha 90.000000
_cell_angle_beta 90.000000
_cell_angle_gamma 90.000000
_cell_volume 2421.025304
_symmetry_space_group_name_H-M "P B A M"
_symmetry_group_IT_number 55
_symmetry_cell_setting 'orthorhombic'
loop_
_space_group_symop_operation_xyz
x,y,z
-x,-y,z
1/2+x,1/2-y,-z
1/2-x,1/2+y,-z
-x,-y,-z
x,y,-z
1/2-x,1/2+y,z
1/2+x,1/2-y,z
loop_
_atom_site_type_symbol
_atom_site_label
_atom_site_fract_x
_atom_site_fract_y
_atom_site_fract_z
Si Si1 0.789727 0.238844 0.296945
Si Si2 0.294402 0.522897 0.699369
Si Si3 0.452957 0.864701 0.709380
Si Si4 0.161739 0.152813 0.706096
Si Si5 0.751831 0.604004 0.715082
Si Si6 0.086794 0.538827 0.796650
Si Si7 0.998604 0.235158 0.204466
O O1 0.757871 0.234710 0.500000
O O2 0.732429 0.295786 0.220192
O O3 0.777130 0.170815 0.223185
O O4 0.899883 0.248435 0.291658
O O5 0.331085 0.519531 0.500000
O O6 0.331357 0.585115 0.783032
O O7 0.303757 0.455252 0.777718
O O8 0.182805 0.532480 0.697461
O O9 0.459570 0.866604 0.500000
O O10 0.360545 0.900728 0.763740
O O11 0.545607 0.893533 0.787078
O O12 0.441620 0.795761 0.767140
O O13 0.186299 0.146013 0.500000
O O14 0.058883 0.180156 0.721458
O O15 0.746684 0.603007 0.500000
O O16 0.000000 0.500000 0.724226
O O17 0.101765 0.522800 0.000000
O O18 0.982883 0.225129 0.000000
#
# Coordination Sequence:
#
# PCOD9427241 Si02
#       7
#     8   8   8   8   8   8   8
#     4  10  20  39  63  87 116 156 205 250 293 348
#     4  10  20  36  59  87 116 154 201 249 296 346
#     4  11  20  36  60  83 112 152 199 245 292 349
#     4  10  21  39  63  89 117 154 199 247 298 351
#     4   9  18  34  59  87 113 145 196 248 289 337
#     4  11  22  33  49  83 125 159 190 230 293 362
#     4  12  25  39  59  89 122 154 195 246 306 366
#
# _framework density 23.130696
#
# number of rings (size 3 to 8) (size 9 to 14) (size 15 to 20)
#    0.000    1.571    2.857    3.000    0.000    2.857 
#    0.000    1.429    0.000    4.286    0.000    0.000 
#    0.000    0.000    0.000    0.000    0.000    0.000 
#
# Total GULP energy -312718.341937 kJ/mol
# GULP energy per Si atom -5584.256106 kJ/mol
# Density = 2.307805 g / cm^3
# Si number density = 23.130696 Si / 1000 Ang^3
#
#
#
# Elastic Constant Matrix: (Units=GPa)
#
#
# Indices 1 2 3 4 5 6 
#
# 1 20.7757 -9.9852 -4.4212 0.0000 0.0000 0.0000
# 2 -9.9852 132.8983 11.8119 0.0000 0.0000 0.0000
# 3 -4.4212 11.8119 58.2674 0.0000 0.0000 0.0000
# 4 0.0000 0.0000 0.0000 4.7436 0.0000 0.0000
# 5 0.0000 0.0000 0.0000 0.0000 -296.9075 0.0000
# 6 0.0000 0.0000 0.0000 0.0000 0.0000 38.5443
#
#
#
# Elastic Compliance Matrix: (Units=1/GPa)
#
#
# Indices 1 2 3 4 5 6 
#
# 1 0.050487 0.003516 0.003118 0.000000 0.000000 0.000000
# 2 0.003516 0.007907 -0.001336 0.000000 0.000000 0.000000
# 3 0.003118 -0.001336 0.017670 0.000000 0.000000 0.000000
# 4 0.000000 0.000000 0.000000 0.210812 0.000000 0.000000
# 5 0.000000 0.000000 0.000000 0.000000 -0.003368 0.000000
# 6 0.000000 0.000000 0.000000 0.000000 0.000000 0.025944
#
#
# Mechanical properties :
#
#
# Convention : Reuss Voigt Hill
#
# Bulk Modulus (GPa) = 11.53937 22.97249 17.25593
# Shear Modulus (GPa) = 15.25586 -36.42154 -10.58284
#
# Velocity S-wave (km/s) = 2.57096 -3.97242 -2.14130
# Velocity P-wave (km/s) = 3.71654 3.32972 1.16740
#
# Compressibility (1/GPa) = 0.08665984
#
# Stress axis : x y z
#
# Youngs Moduli (GPa) = 19.80721 126.46233 56.59396
#
# Poissons Ratio (x) = -0.44466 -0.17646
# Poissons Ratio (y) = -0.06964 0.07562
# Poissons Ratio (z) = -0.06176 0.16898
#
# Static dielectric constant tensor:
#      x y z
#    x 1.840770 0.000000 0.000000 
#    y 0.000000 1.978100 0.000000 
#    z 0.000000 0.000000 1.846320 
# 
# From -- ./inp_files/6082.got.cif
#   From: 2010.05.17/outbox.cif.g08.bks.cpg/sg55_4_cif.got.tgz:6082.got - 2010.06.03 13:27:54.
