data_PCOD9427352
_publ_section_title
;
Structure prediction by ZEFSAII (Michael W. Deem and Ramdas Pophale) SiO2 
 PCOD9427352
Probable space group: P B A M
;
_chemical_formula_sum "Si O2"
_cell_formula_units_Z 56
_cell_length_a 14.211403
_cell_length_b 7.894118
_cell_length_c 22.563290
_cell_angle_alpha 90.000000
_cell_angle_beta 90.000000
_cell_angle_gamma 90.000000
_cell_volume 2531.296358
_symmetry_space_group_name_H-M "P B A M"
_symmetry_group_IT_number 55
_symmetry_cell_setting 'orthorhombic'
loop_
_space_group_symop_operation_xyz
x,y,z
-x,-y,z
1/2+x,1/2-y,-z
1/2-x,1/2+y,-z
-x,-y,-z
x,y,-z
1/2-x,1/2+y,z
1/2+x,1/2-y,z
loop_
_atom_site_type_symbol
_atom_site_label
_atom_site_fract_x
_atom_site_fract_y
_atom_site_fract_z
Si Si1 0.105098 0.816045 0.500000
Si Si2 0.308586 0.707095 0.370859
Si Si3 0.044472 0.313743 0.717598
Si Si4 0.604619 0.669207 0.630059
Si Si5 0.946691 0.683210 0.852641
Si Si6 0.291574 0.972930 0.068736
Si Si7 0.193562 0.192337 0.500000
Si Si8 0.101657 0.832804 0.931987
O O1 0.058288 0.802313 0.435405
O O2 0.192915 0.687786 0.500000
O O3 0.150406 0.004728 0.500000
O O4 0.360089 0.810425 0.319956
O O5 0.196235 0.711713 0.364056
O O6 0.350762 0.518108 0.368054
O O7 0.330354 0.775913 0.437171
O O8 0.969655 0.201022 0.681396
O O9 0.062769 0.259153 0.784963
O O10 0.000000 0.500000 0.718413
O O11 0.013510 0.807229 0.889802
O O12 0.000000 0.500000 0.851752
O O13 0.850318 0.643533 0.886667
O O14 0.180999 0.970247 0.083137
O O15 0.338581 0.157283 0.071062
O O16 0.300587 0.913516 0.000000
O O17 0.070879 0.852934 0.000000
#
# Coordination Sequence:
#
# PCOD9427352 Si02
#       8
#     4   8   8   8   8   8   4   8
#     4   8  16  31  54  79 102 130 168 217 270 319
#     4  10  20  37  58  80 106 137 175 221 271 319
#     4  11  23  37  52  76 109 146 185 218 256 311
#     4  10  20  37  58  80 106 137 175 221 271 319
#     4   9  19  35  53  73 102 140 177 210 248 302
#     4   9  17  32  55  80 103 130 167 211 258 305
#     4   8  16  31  54  79 102 130 168 217 270 319
#     4   9  17  32  55  80 103 130 167 211 258 305
#
# _framework density 22.123052000000001
#
# number of rings (size 3 to 8) (size 9 to 14) (size 15 to 20)
#    0.000    2.571    0.000    1.714    0.000    4.571 
#    0.000    9.286    0.000    3.429    0.000    0.000 
#    0.000    0.000    0.000    0.000    0.000    0.000 
#
# Total GULP energy -312846.210014 kJ/mol
# GULP energy per Si atom -5586.539465 kJ/mol
# Density = 2.207270 g / cm^3
# Si number density = 22.123052 Si / 1000 Ang^3
#
#
#
# Elastic Constant Matrix: (Units=GPa)
#
#
# Indices 1 2 3 4 5 6 
#
# 1 80.4198 16.8124 48.7798 0.0000 0.0000 0.0000
# 2 16.8124 55.1980 31.1271 0.0000 0.0000 0.0000
# 3 48.7798 31.1271 118.4626 0.0000 0.0000 0.0000
# 4 0.0000 0.0000 0.0000 19.7818 0.0000 0.0000
# 5 0.0000 0.0000 0.0000 0.0000 12.7433 0.0000
# 6 0.0000 0.0000 0.0000 0.0000 0.0000 37.0878
#
#
#
# Elastic Compliance Matrix: (Units=1/GPa)
#
#
# Indices 1 2 3 4 5 6 
#
# 1 0.016668 -0.001416 -0.006491 0.000000 0.000000 0.000000
# 2 -0.001416 0.021388 -0.005037 0.000000 0.000000 0.000000
# 3 -0.006491 -0.005037 0.012438 0.000000 0.000000 0.000000
# 4 0.000000 0.000000 0.000000 0.050551 0.000000 0.000000
# 5 0.000000 0.000000 0.000000 0.000000 0.078473 0.000000
# 6 0.000000 0.000000 0.000000 0.000000 0.000000 0.026963
#
#
# Mechanical properties :
#
#
# Convention : Reuss Voigt Hill
#
# Bulk Modulus (GPa) = 40.64118 49.72433 45.18276
# Shear Modulus (GPa) = 20.78375 24.41332 22.59853
#
# Velocity S-wave (km/s) = 3.06839 3.32554 3.19955
# Velocity P-wave (km/s) = 5.56451 6.10497 5.84099
#
# Compressibility (1/GPa) = 0.02460558
#
# Stress axis : x y z
#
# Youngs Moduli (GPa) = 59.99410 46.75455 80.39912
#
# Poissons Ratio (x) = 0.06622 0.52191
# Poissons Ratio (y) = 0.08497 0.40495
# Poissons Ratio (z) = 0.38945 0.23549
#
# Static dielectric constant tensor:
#      x y z
#    x 1.812000 0.000000 0.000000 
#    y 0.000000 1.867660 0.000000 
#    z 0.000000 0.000000 1.790490 
# 
# From -- ./inp_files/22654.got.cif
#   From: 2010.05.17/outbox.cif.g08.bks.cpg/sg55_12_cif.got.tgz:22654.got - 2010.06.03 13:27:54.
