data_PCOD9427891
_publ_section_title
;
Structure prediction by ZEFSAII (Michael W. Deem and Ramdas Pophale) SiO2 
 PCOD9427891
Probable space group: P B A M
;
_chemical_formula_sum "Si O2"
_cell_formula_units_Z 56
_cell_length_a 13.985766
_cell_length_b 5.280205
_cell_length_c 35.421359
_cell_angle_alpha 90.000000
_cell_angle_beta 90.000000
_cell_angle_gamma 90.000000
_cell_volume 2615.786303
_symmetry_space_group_name_H-M "P B A M"
_symmetry_group_IT_number 55
_symmetry_cell_setting 'orthorhombic'
loop_
_space_group_symop_operation_xyz
x,y,z
-x,-y,z
1/2+x,1/2-y,-z
1/2-x,1/2+y,-z
-x,-y,-z
x,y,-z
1/2-x,1/2+y,z
1/2+x,1/2-y,z
loop_
_atom_site_type_symbol
_atom_site_label
_atom_site_fract_x
_atom_site_fract_y
_atom_site_fract_z
Si Si1 0.186084 0.321363 0.303874
Si Si2 0.358314 0.634246 0.150717
Si Si3 0.310147 0.708963 0.615722
Si Si4 0.065150 0.250412 0.541537
Si Si5 0.934427 0.248589 0.042085
Si Si6 0.063595 0.252110 0.229062
Si Si7 0.357121 0.134824 0.880240
O O1 0.233326 0.599899 0.302305
O O2 0.137332 0.272733 0.344730
O O3 0.118089 0.287172 0.268359
O O4 0.364415 0.715935 0.193981
O O5 0.250175 0.599711 0.135626
O O6 0.402882 0.358526 0.144457
O O7 0.401973 0.859158 0.125676
O O8 0.274527 0.418834 0.616235
O O9 0.366820 0.752726 0.577426
O O10 0.113672 0.247044 0.500000
O O11 0.000000 0.500000 0.542873
O O12 0.000000 0.000000 0.543741
O O13 0.861560 0.277747 0.076593
O O14 0.000000 0.500000 0.042738
O O15 0.891035 0.230120 0.000000
O O16 0.000000 0.000000 0.047562
O O17 0.000000 0.500000 0.221969
O O18 0.000000 0.000000 0.230860
#
# Coordination Sequence:
#
# PCOD9427891 Si02
#       7
#     8   8   8   8   8   8   8
#     4  10  23  41  65  86 120 163 197 249 305 371
#     4  10  23  38  58  85 117 151 196 239 290 352
#     4  10  21  38  59  89 116 155 208 247 304 362
#     4  10  21  36  56  85 121 162 202 250 312 366
#     4  10  21  37  60  89 121 155 192 241 292 336
#     4  12  26  41  62  93 120 152 202 253 302 355
#     4  10  21  39  60  85 115 162 195 231 291 354
#
# _framework density 21.408476
#
# number of rings (size 3 to 8) (size 9 to 14) (size 15 to 20)
#    0.000    1.714    0.000    3.429    4.000    5.143 
#    0.000    2.857    0.000    0.000    0.000    0.000 
#    0.000    0.000    0.000    0.000    0.000    0.000 
#
# Total GULP energy -312801.002225 kJ/mol
# GULP energy per Si atom -5585.732183 kJ/mol
# Density = 2.135975 g / cm^3
# Si number density = 21.408476 Si / 1000 Ang^3
#
#
#
# Elastic Constant Matrix: (Units=GPa)
#
#
# Indices 1 2 3 4 5 6 
#
# 1 41.5122 6.6844 40.5343 0.0000 0.0000 0.0000
# 2 6.6844 149.9647 2.2305 0.0000 0.0000 0.0000
# 3 40.5343 2.2305 192.0482 0.0000 0.0000 0.0000
# 4 0.0000 0.0000 0.0000 33.3239 0.0000 0.0000
# 5 0.0000 0.0000 0.0000 0.0000 -127.0838 0.0000
# 6 0.0000 0.0000 0.0000 0.0000 0.0000 20.0630
#
#
#
# Elastic Compliance Matrix: (Units=1/GPa)
#
#
# Indices 1 2 3 4 5 6 
#
# 1 0.030582 -0.001267 -0.006440 0.000000 0.000000 0.000000
# 2 -0.001267 0.006722 0.000189 0.000000 0.000000 0.000000
# 3 -0.006440 0.000189 0.006564 0.000000 0.000000 0.000000
# 4 0.000000 0.000000 0.000000 0.030008 0.000000 0.000000
# 5 0.000000 0.000000 0.000000 0.000000 -0.007869 0.000000
# 6 0.000000 0.000000 0.000000 0.000000 0.000000 0.049843
#
#
# Mechanical properties :
#
#
# Convention : Reuss Voigt Hill
#
# Bulk Modulus (GPa) = 34.68385 53.60260 44.14322
# Shear Modulus (GPa) = 35.58811 7.53238 21.56024
#
# Velocity S-wave (km/s) = 4.08160 1.87778 3.17691
# Velocity P-wave (km/s) = 6.20071 5.45837 5.84134
#
# Compressibility (1/GPa) = 0.02883186
#
# Stress axis : x y z
#
# Youngs Moduli (GPa) = 32.69944 148.76732 152.34484
#
# Poissons Ratio (x) = 0.18854 0.98109
# Poissons Ratio (y) = 0.04144 -0.02886
# Poissons Ratio (z) = 0.21058 -0.02818
#
# Static dielectric constant tensor:
#      x y z
#    x 1.610890 0.000000 0.000000 
#    y 0.000000 1.824990 0.000000 
#    z 0.000000 0.000000 1.785540 
# 
# From -- ./inp_files/24180.got.cif
#   From: 2010.05.17/outbox.cif.g08.bks.cpg/sg55_13_cif.got.tgz:24180.got - 2010.06.03 13:27:54.
