data_PCOD9427918
_publ_section_title
;
Structure prediction by ZEFSAII (Michael W. Deem and Ramdas Pophale) SiO2 
 PCOD9427918
Probable space group: P B A M
;
_chemical_formula_sum "Si O2"
_cell_formula_units_Z 58
_cell_length_a 18.377818
_cell_length_b 17.081776
_cell_length_c 10.451215
_cell_angle_alpha 90.000000
_cell_angle_beta 90.000000
_cell_angle_gamma 90.000000
_cell_volume 3280.905721
_symmetry_space_group_name_H-M "P B A M"
_symmetry_group_IT_number 55
_symmetry_cell_setting 'orthorhombic'
loop_
_space_group_symop_operation_xyz
x,y,z
-x,-y,z
1/2+x,1/2-y,-z
1/2-x,1/2+y,-z
-x,-y,-z
x,y,-z
1/2-x,1/2+y,z
1/2+x,1/2-y,z
loop_
_atom_site_type_symbol
_atom_site_label
_atom_site_fract_x
_atom_site_fract_y
_atom_site_fract_z
Si Si1 0.875982 0.644170 0.145148
Si Si2 0.673728 0.969957 0.855321
Si Si3 0.000000 0.500000 0.500000
Si Si4 0.428029 0.452939 0.344671
Si Si5 0.545633 0.720077 0.351366
Si Si6 0.035226 0.611870 0.745399
Si Si7 0.129113 0.231973 0.642395
Si Si8 0.706698 0.435265 0.351988
O O1 0.831747 0.563772 0.154349
O O2 0.850341 0.707455 0.248014
O O3 0.959215 0.623102 0.181144
O O4 0.872563 0.673741 0.000000
O O5 0.594070 0.935808 0.825662
O O6 0.727752 0.940425 0.746398
O O7 0.695804 0.949075 0.000000
O O8 0.018549 0.565601 0.613646
O O9 0.500000 0.500000 0.300414
O O10 0.433936 0.448965 0.500000
O O11 0.426493 0.363078 0.298964
O O12 0.355777 0.502006 0.316765
O O13 0.567812 0.726455 0.500000
O O14 0.565435 0.800877 0.283025
O O15 0.457421 0.715998 0.348196
O O16 0.142151 0.265564 0.500000
O O17 0.170326 0.150162 0.652476
O O18 0.729434 0.449836 0.500000
#
# Coordination Sequence:
#
# PCOD9427918 Si02
#       8
#     8   8   2   8   8   8   8   8
#     4  10  21  37  59  82 109 149 194 232 277 343
#     4  11  24  40  56  76 115 159 191 229 284 350
#     4  12  20  32  58  92 114 148 180 248 300 322
#     4   9  15  30  56  83 112 142 177 227 285 334
#     4   9  16  28  53  86 116 136 172 227 285 336
#     4  11  21  34  57  86 117 146 188 236 292 338
#     4   9  18  33  56  86 111 138 181 235 286 334
#     4  10  21  36  58  85 111 148 191 236 285 344
#
# _framework density 17.678045000000001
#
# number of rings (size 3 to 8) (size 9 to 14) (size 15 to 20)
#    0.000    2.069    3.448    0.414    1.931    2.207 
#    2.483    0.000    0.000    3.724    0.000    0.000 
#    0.000    0.000    0.000    0.000    0.000    0.000 
#
# Total GULP energy -322935.088276 kJ/mol
# GULP energy per Si atom -5567.846350 kJ/mol
# Density = 1.763781 g / cm^3
# Si number density = 17.678045 Si / 1000 Ang^3
#
#
#
# Elastic Constant Matrix: (Units=GPa)
#
#
# Indices 1 2 3 4 5 6 
#
# 1 17.4325 7.6325 23.1814 0.0000 0.0000 0.0000
# 2 7.6325 101.5702 43.6817 0.0000 0.0000 0.0000
# 3 23.1814 43.6817 105.5768 0.0000 0.0000 0.0000
# 4 0.0000 0.0000 0.0000 20.4106 0.0000 0.0000
# 5 0.0000 0.0000 0.0000 0.0000 6.7212 0.0000
# 6 0.0000 0.0000 0.0000 0.0000 0.0000 13.1510
#
#
#
# Elastic Compliance Matrix: (Units=1/GPa)
#
#
# Indices 1 2 3 4 5 6 
#
# 1 0.081323 0.001908 -0.018645 0.000000 0.000000 0.000000
# 2 0.001908 0.012021 -0.005393 0.000000 0.000000 0.000000
# 3 -0.018645 -0.005393 0.015797 0.000000 0.000000 0.000000
# 4 0.000000 0.000000 0.000000 0.048994 0.000000 0.000000
# 5 0.000000 0.000000 0.000000 0.000000 0.148783 0.000000
# 6 0.000000 0.000000 0.000000 0.000000 0.000000 0.076040
#
#
# Mechanical properties :
#
#
# Convention : Reuss Voigt Hill
#
# Bulk Modulus (GPa) = 15.41293 41.50787 28.46040
# Shear Modulus (GPa) = 11.13969 18.06215 14.60092
#
# Velocity S-wave (km/s) = 2.51299 3.19992 2.87703
# Velocity P-wave (km/s) = 4.14219 6.09783 5.21254
#
# Compressibility (1/GPa) = 0.06488060
#
# Stress axis : x y z
#
# Youngs Moduli (GPa) = 12.29664 83.18637 63.30369
#
# Poissons Ratio (x) = -0.15869 1.18032
# Poissons Ratio (y) = -0.02346 0.34137
# Poissons Ratio (z) = 0.22928 0.44859
#
# Static dielectric constant tensor:
#      x y z
#    x 1.590620 0.000000 0.000000 
#    y 0.000000 1.615770 0.000000 
#    z 0.000000 0.000000 1.594390 
# 
# From -- ./inp_files/7744.got.cif
#   From: 2010.05.17/outbox.cif.g08.bks.cpg/sg55_4_cif.got.tgz:7744.got - 2010.06.03 13:27:54.
