data_PCOD9427279
_publ_section_title
;
Structure prediction by ZEFSAII (Michael W. Deem and Ramdas Pophale) SiO2 
 PCOD9427279
Probable space group: P B A M
;
_chemical_formula_sum "Si O2"
_cell_formula_units_Z 64
_cell_length_a 8.219613
_cell_length_b 24.619013
_cell_length_c 15.203335
_cell_angle_alpha 90.000000
_cell_angle_beta 90.000000
_cell_angle_gamma 90.000000
_cell_volume 3076.528008
_symmetry_space_group_name_H-M "P B A M"
_symmetry_group_IT_number 55
_symmetry_cell_setting 'orthorhombic'
loop_
_space_group_symop_operation_xyz
x,y,z
-x,-y,z
1/2+x,1/2-y,-z
1/2-x,1/2+y,-z
-x,-y,-z
x,y,-z
1/2-x,1/2+y,z
1/2+x,1/2-y,z
loop_
_atom_site_type_symbol
_atom_site_label
_atom_site_fract_x
_atom_site_fract_y
_atom_site_fract_z
Si Si1 0.188792 0.688011 0.603921
Si Si2 0.811740 0.738622 0.896259
Si Si3 0.499890 0.335299 0.099750
Si Si4 0.139427 0.076585 0.368715
Si Si5 0.445163 0.444465 0.198459
Si Si6 0.325238 0.974093 0.339646
Si Si7 0.203318 0.870501 0.594147
Si Si8 0.857871 0.715477 0.299045
O O1 0.196112 0.701883 0.500000
O O2 0.239968 0.625706 0.614933
O O3 0.306648 0.726045 0.662614
O O4 0.013048 0.697324 0.645501
O O5 0.631926 0.713268 0.893669
O O6 0.886709 0.714059 0.805706
O O7 0.833274 0.803234 0.879539
O O8 0.865791 0.729044 0.000000
O O9 0.437438 0.387952 0.149007
O O10 0.513239 0.353096 0.000000
O O11 0.090332 0.066416 0.267848
O O12 0.967707 0.097570 0.406108
O O13 0.219245 0.019049 0.392684
O O14 0.500000 0.500000 0.150046
O O15 0.281157 0.456857 0.253822
O O16 0.335128 0.917895 0.392428
O O17 0.500000 0.000000 0.320039
O O18 0.223822 0.842646 0.500000
O O19 0.216509 0.826661 0.671402
#
# Coordination Sequence:
#
# PCOD9427279 Si02
#       8
#     8   8   8   8   8   8   8   8
#     4  12  24  38  57  84 121 160 201 245 295 360
#     4  10  21  38  61  88 118 152 196 252 308 367
#     4  10  20  36  60  90 121 154 196 250 314 373
#     4  10  21  37  58  82 112 157 203 245 292 348
#     4   9  19  37  59  85 120 162 209 252 302 367
#     4  10  21  37  58  83 111 151 201 251 299 350
#     4  11  22  37  57  82 117 157 199 245 296 356
#     4  12  24  39  59  85 119 159 200 246 306 364
#
# _framework density 20.802672000000001
#
# number of rings (size 3 to 8) (size 9 to 14) (size 15 to 20)
#    0.000    1.500    0.000    7.125    0.000    2.000 
#    0.000    1.250    0.000    0.375    0.000    3.500 
#    0.000    0.000    0.000    0.000    0.000    0.000 
#
# Total GULP energy -356647.829992 kJ/mol
# GULP energy per Si atom -5572.622344 kJ/mol
# Density = 2.075532 g / cm^3
# Si number density = 20.802672 Si / 1000 Ang^3
#
#
#
# Elastic Constant Matrix: (Units=GPa)
#
#
# Indices 1 2 3 4 5 6 
#
# 1 63.2115 26.8064 25.5800 0.0000 0.0000 0.0000
# 2 26.8064 116.7247 48.9390 0.0000 0.0000 0.0000
# 3 25.5800 48.9390 114.3641 0.0000 0.0000 0.0000
# 4 0.0000 0.0000 0.0000 -3.9966 0.0000 0.0000
# 5 0.0000 0.0000 0.0000 0.0000 1.6112 0.0000
# 6 0.0000 0.0000 0.0000 0.0000 0.0000 37.9172
#
#
#
# Elastic Compliance Matrix: (Units=1/GPa)
#
#
# Indices 1 2 3 4 5 6 
#
# 1 0.018227 -0.003018 -0.002785 0.000000 0.000000 0.000000
# 2 -0.003018 0.010940 -0.004006 0.000000 0.000000 0.000000
# 3 -0.002785 -0.004006 0.011081 0.000000 0.000000 0.000000
# 4 0.000000 0.000000 0.000000 -0.250210 0.000000 0.000000
# 5 0.000000 0.000000 0.000000 0.000000 0.620671 0.000000
# 6 0.000000 0.000000 0.000000 0.000000 0.000000 0.026373
#
#
# Mechanical properties :
#
#
# Convention : Reuss Voigt Hill
#
# Bulk Modulus (GPa) = 48.47614 55.21680 51.84647
# Shear Modulus (GPa) = 10.78565 19.97135 15.37850
#
# Velocity S-wave (km/s) = 2.27947 3.10181 2.72188
# Velocity P-wave (km/s) = 5.50286 6.27925 5.90383
#
# Compressibility (1/GPa) = 0.02062871
#
# Stress axis : x y z
#
# Youngs Moduli (GPa) = 54.86379 91.40717 90.24097
#
# Poissons Ratio (x) = 0.27588 0.25135
# Poissons Ratio (y) = 0.16559 0.36154
# Poissons Ratio (z) = 0.15281 0.36622
#
# Static dielectric constant tensor:
#      x y z
#    x 1.810810 0.000000 0.000000 
#    y 0.000000 1.783100 0.000000 
#    z 0.000000 0.000000 1.773410 
# 
# From -- ./inp_files/17832.got.cif
#   From: 2010.05.17/outbox.cif.g08.bks.cpg/sg55_9_cif.got.tgz:17832.got - 2010.06.03 13:27:54.
