data_PCOD9427435
_publ_section_title
;
Structure prediction by ZEFSAII (Michael W. Deem and Ramdas Pophale) SiO2 
 PCOD9427435
Probable space group: P B A M
;
_chemical_formula_sum "Si O2"
_cell_formula_units_Z 48
_cell_length_a 12.181913
_cell_length_b 23.101482
_cell_length_c 9.026169
_cell_angle_alpha 90.000000
_cell_angle_beta 90.000000
_cell_angle_gamma 90.000000
_cell_volume 2540.146681
_symmetry_space_group_name_H-M "P B A M"
_symmetry_group_IT_number 55
_symmetry_cell_setting 'orthorhombic'
loop_
_space_group_symop_operation_xyz
x,y,z
-x,-y,z
1/2+x,1/2-y,-z
1/2-x,1/2+y,-z
-x,-y,-z
x,y,-z
1/2-x,1/2+y,z
1/2+x,1/2-y,z
loop_
_atom_site_type_symbol
_atom_site_label
_atom_site_fract_x
_atom_site_fract_y
_atom_site_fract_z
Si Si1 0.993218 0.123010 0.676330
Si Si2 0.648970 0.269970 0.676361
Si Si3 0.419043 0.849689 0.177168
Si Si4 0.167158 0.042760 0.174236
Si Si5 0.737702 0.576234 0.323684
Si Si6 0.825632 0.347943 0.825251
O O1 0.007778 0.113010 0.500000
O O2 0.052107 0.183687 0.711475
O O3 0.057432 0.072725 0.763037
O O4 0.864374 0.119502 0.708550
O O5 0.651891 0.260932 0.500000
O O6 0.626339 0.210423 0.758705
O O7 0.760456 0.300295 0.731393
O O8 0.346503 0.900687 0.245849
O O9 0.547565 0.853893 0.216504
O O10 0.409776 0.850728 0.000000
O O11 0.261172 0.091626 0.193364
O O12 0.200367 0.985728 0.262340
O O13 0.155374 0.030164 0.000000
O O14 0.752673 0.573926 0.500000
O O15 0.819115 0.332648 0.000000
#
# Coordination Sequence:
#
# PCOD9427435 Si02
#       6
#     8   8   8   8   8   8
#     4   9  20  38  59  85 117 153 190 236 291 345
#     4  10  21  38  61  86 114 149 191 239 293 348
#     4  11  24  40  58  84 116 153 196 241 290 343
#     4  10  20  37  61  87 116 152 195 241 291 342
#     4  11  23  38  57  86 121 155 194 238 291 346
#     4   9  21  41  61  83 114 154 195 238 290 348
#
# _framework density 18.896547999999999
#
# number of rings (size 3 to 8) (size 9 to 14) (size 15 to 20)
#    0.000    2.000    0.000    2.500    2.333    6.667 
#    0.000    3.333    0.000    0.000    0.000    0.000 
#    0.000    0.000    0.000    0.000    0.000    0.000 
#
# Total GULP energy -268236.485919 kJ/mol
# GULP energy per Si atom -5588.260123 kJ/mol
# Density = 1.885354 g / cm^3
# Si number density = 18.896548 Si / 1000 Ang^3
#
#
#
# Elastic Constant Matrix: (Units=GPa)
#
#
# Indices 1 2 3 4 5 6 
#
# 1 93.5667 -0.0455 31.4522 0.0000 0.0000 0.0000
# 2 -0.0455 25.0602 12.6677 0.0000 0.0000 0.0000
# 3 31.4522 12.6677 42.4540 0.0000 0.0000 0.0000
# 4 0.0000 0.0000 0.0000 35.3473 0.0000 0.0000
# 5 0.0000 0.0000 0.0000 0.0000 29.9735 0.0000
# 6 0.0000 0.0000 0.0000 0.0000 0.0000 10.3098
#
#
#
# Elastic Compliance Matrix: (Units=1/GPa)
#
#
# Indices 1 2 3 4 5 6 
#
# 1 0.015132 0.006706 -0.013211 0.000000 0.000000 0.000000
# 2 0.006706 0.049963 -0.019876 0.000000 0.000000 0.000000
# 3 -0.013211 -0.019876 0.039273 0.000000 0.000000 0.000000
# 4 0.000000 0.000000 0.000000 0.028291 0.000000 0.000000
# 5 0.000000 0.000000 0.000000 0.000000 0.033363 0.000000
# 6 0.000000 0.000000 0.000000 0.000000 0.000000 0.096995
#
#
# Mechanical properties :
#
#
# Convention : Reuss Voigt Hill
#
# Bulk Modulus (GPa) = 19.37814 27.69222 23.53518
# Shear Modulus (GPa) = 15.01579 22.92656 18.97117
#
# Velocity S-wave (km/s) = 2.82198 3.48698 3.17195
# Velocity P-wave (km/s) = 4.57113 5.55864 5.08889
#
# Compressibility (1/GPa) = 0.05160455
#
# Stress axis : x y z
#
# Youngs Moduli (GPa) = 66.08608 20.01466 25.46249
#
# Poissons Ratio (x) = -0.13421 0.33639
# Poissons Ratio (y) = -0.44315 0.50610
# Poissons Ratio (z) = 0.87309 0.39782
#
# Static dielectric constant tensor:
#      x y z
#    x 1.648300 0.000000 0.000000 
#    y 0.000000 1.629860 0.000000 
#    z 0.000000 0.000000 1.625610 
# 
# From -- ./inp_files/4049.got.cif
#   From: 2010.05.17/outbox.cif.g08.bks.cpg/sg55_3_cif.got.tgz:4049.got - 2010.06.03 13:27:54.
