data_PCOD9427581
_publ_section_title
;
Structure prediction by ZEFSAII (Michael W. Deem and Ramdas Pophale) SiO2 
 PCOD9427581
Probable space group: P B A M
;
_chemical_formula_sum "Si O2"
_cell_formula_units_Z 56
_cell_length_a 11.336469
_cell_length_b 15.826676
_cell_length_c 15.576323
_cell_angle_alpha 90.000000
_cell_angle_beta 90.000000
_cell_angle_gamma 90.000000
_cell_volume 2794.682406
_symmetry_space_group_name_H-M "P B A M"
_symmetry_group_IT_number 55
_symmetry_cell_setting 'orthorhombic'
loop_
_space_group_symop_operation_xyz
x,y,z
-x,-y,z
1/2+x,1/2-y,-z
1/2-x,1/2+y,-z
-x,-y,-z
x,y,-z
1/2-x,1/2+y,z
1/2+x,1/2-y,z
loop_
_atom_site_type_symbol
_atom_site_label
_atom_site_fract_x
_atom_site_fract_y
_atom_site_fract_z
Si Si1 0.455092 0.274030 0.338687
Si Si2 0.270993 0.673707 0.902647
Si Si3 0.298733 0.366101 0.903344
Si Si4 0.015546 0.100687 0.194010
Si Si5 0.416946 0.119852 0.787182
Si Si6 0.196777 0.316226 0.598306
Si Si7 0.669546 0.052872 0.752029
O O1 0.479416 0.359849 0.285620
O O2 0.421873 0.204743 0.267104
O O3 0.580724 0.243096 0.380344
O O4 0.331889 0.280853 0.391900
O O5 0.263558 0.775212 0.893802
O O6 0.355959 0.633309 0.832227
O O7 0.143131 0.637585 0.877725
O O8 0.303315 0.652456 0.000000
O O9 0.436124 0.357616 0.881397
O O10 0.260276 0.427914 0.827412
O O11 0.280003 0.397105 0.000000
O O12 0.000000 0.000000 0.193050
O O13 0.548647 0.086822 0.793034
O O14 0.347079 0.046039 0.736853
O O15 0.182120 0.343758 0.500000
O O16 0.191201 0.392294 0.667310
#
# Coordination Sequence:
#
# PCOD9427581 Si02
#       7
#     8   8   8   8   8   8   8
#     4  11  22  43  68  94 127 171 215 264 328 395
#     4  11  23  37  58  88 126 169 218 266 315 380
#     4  11  23  39  60  91 128 169 215 263 315 381
#     4  12  24  40  64  92 127 172 220 268 325 386
#     4  10  20  38  63  85 120 162 211 254 324 383
#     4  11  23  42  68  98 132 166 214 267 328 395
#     4  10  21  38  61  91 120 162 204 265 318 384
#
# _framework density 20.038055
#
# number of rings (size 3 to 8) (size 9 to 14) (size 15 to 20)
#    0.000    1.143    2.857    4.286    0.000    3.429 
#    0.000    7.857    0.000    0.857    0.000    0.000 
#    0.000    0.000    0.000    0.000    0.000    0.000 
#
# Total GULP energy -312252.394375 kJ/mol
# GULP energy per Si atom -5575.935614 kJ/mol
# Density = 1.999245 g / cm^3
# Si number density = 20.038055 Si / 1000 Ang^3
#
#
#
# Elastic Constant Matrix: (Units=GPa)
#
#
# Indices 1 2 3 4 5 6 
#
# 1 103.7099 21.7687 43.0129 0.0000 0.0000 0.0000
# 2 21.7687 76.8798 18.2484 0.0000 0.0000 0.0000
# 3 43.0129 18.2484 87.6222 0.0000 0.0000 0.0000
# 4 0.0000 0.0000 0.0000 1.5765 0.0000 0.0000
# 5 0.0000 0.0000 0.0000 0.0000 17.8629 0.0000
# 6 0.0000 0.0000 0.0000 0.0000 0.0000 17.8073
#
#
#
# Elastic Compliance Matrix: (Units=1/GPa)
#
#
# Indices 1 2 3 4 5 6 
#
# 1 0.012446 -0.002182 -0.005655 0.000000 0.000000 0.000000
# 2 -0.002182 0.014066 -0.001858 0.000000 0.000000 0.000000
# 3 -0.005655 -0.001858 0.014576 0.000000 0.000000 0.000000
# 4 0.000000 0.000000 0.000000 0.634311 0.000000 0.000000
# 5 0.000000 0.000000 0.000000 0.000000 0.055982 0.000000
# 6 0.000000 0.000000 0.000000 0.000000 0.000000 0.056157
#
#
# Mechanical properties :
#
#
# Convention : Reuss Voigt Hill
#
# Bulk Modulus (GPa) = 46.08929 48.25244 47.17087
# Shear Modulus (GPa) = 6.14130 19.79480 12.96805
#
# Velocity S-wave (km/s) = 1.75256 3.14643 2.54672
# Velocity P-wave (km/s) = 5.21019 6.11005 5.67798
#
# Compressibility (1/GPa) = 0.02169701
#
# Stress axis : x y z
#
# Youngs Moduli (GPa) = 80.34957 71.09239 68.60732
#
# Poissons Ratio (x) = 0.15510 0.38798
# Poissons Ratio (y) = 0.17530 0.12751
# Poissons Ratio (z) = 0.45438 0.13212
#
# Static dielectric constant tensor:
#      x y z
#    x 1.832930 0.000000 0.000000 
#    y 0.000000 1.715410 0.000000 
#    z 0.000000 0.000000 1.670010 
# 
# From -- ./inp_files/18365.got.cif
#   From: 2010.05.17/outbox.cif.g08.bks.cpg/sg55_10_cif.got.tgz:18365.got - 2010.06.03 13:27:54.
