data_PCOD9427443
_publ_section_title
;
Structure prediction by ZEFSAII (Michael W. Deem and Ramdas Pophale) SiO2 
 PCOD9427443
Probable space group: P B A M
;
_chemical_formula_sum "Si O2"
_cell_formula_units_Z 56
_cell_length_a 9.419595
_cell_length_b 14.046525
_cell_length_c 17.274918
_cell_angle_alpha 90.000000
_cell_angle_beta 90.000000
_cell_angle_gamma 90.000000
_cell_volume 2285.688912
_symmetry_space_group_name_H-M "P B A M"
_symmetry_group_IT_number 55
_symmetry_cell_setting 'orthorhombic'
loop_
_space_group_symop_operation_xyz
x,y,z
-x,-y,z
1/2+x,1/2-y,-z
1/2-x,1/2+y,-z
-x,-y,-z
x,y,-z
1/2-x,1/2+y,z
1/2+x,1/2-y,z
loop_
_atom_site_type_symbol
_atom_site_label
_atom_site_fract_x
_atom_site_fract_y
_atom_site_fract_z
Si Si1 0.465573 0.759455 0.910418
Si Si2 0.354092 0.053116 0.753948
Si Si3 0.769858 0.538711 0.500000
Si Si4 0.568609 0.849840 0.500000
Si Si5 0.984013 0.277652 0.333947
Si Si6 0.226406 0.070462 0.086578
Si Si7 0.708764 0.639203 0.906601
Si Si8 0.790018 0.113693 0.331468
O O1 0.608032 0.720398 0.873489
O O2 0.372564 0.662290 0.912394
O O3 0.366278 0.840689 0.875499
O O4 0.494730 0.785480 0.000000
O O5 0.375872 0.150260 0.708360
O O6 0.335027 0.075084 0.843853
O O7 0.500000 0.000000 0.738542
O O8 0.237479 0.978953 0.721961
O O9 0.801686 0.425209 0.500000
O O10 0.702256 0.574141 0.580332
O O11 0.925320 0.587516 0.500000
O O12 0.559174 0.787329 0.576278
O O13 0.146704 0.317434 0.325043
O O14 0.155665 0.967424 0.100894
O O15 0.287921 0.063126 0.000000
O O16 0.567821 0.672339 0.689635
O O17 0.714553 0.655337 0.000000
#
# Coordination Sequence:
#
# PCOD9427443 Si02
#       8
#     8   8   4   4   8   8   8   8
#     4   9  18  34  56  81 107 136 175 227 287 348
#     4  10  22  39  57  80 114 154 194 239 289 346
#     4   9  15  30  61  92 117 154 193 225 270 336
#     4   9  15  30  61  92 117 154 193 225 270 336
#     4  10  20  37  61  88 119 154 193 232 279 339
#     4  10  21  37  57  80 108 147 195 244 296 347
#     4   9  18  34  56  81 107 136 175 227 287 348
#     4  10  20  37  61  88 119 154 193 232 279 339
#
# _framework density 24.500271000000001
#
# number of rings (size 3 to 8) (size 9 to 14) (size 15 to 20)
#    0.000    2.429    1.429    0.857    0.000    4.286 
#    0.000    9.286    0.000    0.857    0.000    0.000 
#    0.000    0.000    0.000    0.000    0.000    0.000 
#
# Total GULP energy -312736.163392 kJ/mol
# GULP energy per Si atom -5584.574346 kJ/mol
# Density = 2.444451 g / cm^3
# Si number density = 24.500271 Si / 1000 Ang^3
#
#
#
# Elastic Constant Matrix: (Units=GPa)
#
#
# Indices 1 2 3 4 5 6 
#
# 1 49.5121 17.1123 -4.8537 0.0000 0.0000 0.0000
# 2 17.1123 74.4209 5.9269 0.0000 0.0000 0.0000
# 3 -4.8537 5.9269 108.9512 0.0000 0.0000 0.0000
# 4 0.0000 0.0000 0.0000 8.6642 0.0000 0.0000
# 5 0.0000 0.0000 0.0000 0.0000 -51.5087 0.0000
# 6 0.0000 0.0000 0.0000 0.0000 0.0000 39.6827
#
#
#
# Elastic Compliance Matrix: (Units=1/GPa)
#
#
# Indices 1 2 3 4 5 6 
#
# 1 0.022114 -0.005186 0.001267 0.000000 0.000000 0.000000
# 2 -0.005186 0.014712 -0.001031 0.000000 0.000000 0.000000
# 3 0.001267 -0.001031 0.009291 0.000000 0.000000 0.000000
# 4 0.000000 0.000000 0.000000 0.115417 0.000000 0.000000
# 5 0.000000 0.000000 0.000000 0.000000 -0.019414 0.000000
# 6 0.000000 0.000000 0.000000 0.000000 0.000000 0.025200
#
#
# Mechanical properties :
#
#
# Convention : Reuss Voigt Hill
#
# Bulk Modulus (GPa) = 27.61164 29.91725 28.76444
# Shear Modulus (GPa) = 26.41439 13.68088 20.04763
#
# Velocity S-wave (km/s) = 3.28705 2.36561 2.86363
# Velocity P-wave (km/s) = 5.06958 4.43835 4.76443
#
# Compressibility (1/GPa) = 0.03621661
#
# Stress axis : x y z
#
# Youngs Moduli (GPa) = 45.22105 67.97345 107.63127
#
# Poissons Ratio (x) = 0.35249 -0.13640
# Poissons Ratio (y) = 0.23450 0.11100
# Poissons Ratio (z) = -0.05731 0.07010
#
# Static dielectric constant tensor:
#      x y z
#    x 1.985050 0.000000 0.000000 
#    y 0.000000 1.937180 0.000000 
#    z 0.000000 0.000000 1.966350 
# 
# From -- ./inp_files/19555.got.cif
#   From: 2010.05.17/outbox.cif.g08.bks.cpg/sg55_10_cif.got.tgz:19555.got - 2010.06.03 13:27:54.
