data_PCOD9427688
_publ_section_title
;
Structure prediction by ZEFSAII (Michael W. Deem and Ramdas Pophale) SiO2 
 PCOD9427688
Probable space group: P B A M
;
_chemical_formula_sum "Si O2"
_cell_formula_units_Z 58
_cell_length_a 11.873313
_cell_length_b 29.160982
_cell_length_c 7.761758
_cell_angle_alpha 90.000000
_cell_angle_beta 90.000000
_cell_angle_gamma 90.000000
_cell_volume 2687.411427
_symmetry_space_group_name_H-M "P B A M"
_symmetry_group_IT_number 55
_symmetry_cell_setting 'orthorhombic'
loop_
_space_group_symop_operation_xyz
x,y,z
-x,-y,z
1/2+x,1/2-y,-z
1/2-x,1/2+y,-z
-x,-y,-z
x,y,-z
1/2-x,1/2+y,z
1/2+x,1/2-y,z
loop_
_atom_site_type_symbol
_atom_site_label
_atom_site_fract_x
_atom_site_fract_y
_atom_site_fract_z
Si Si1 0.085642 0.152711 0.791419
Si Si2 0.367917 0.465154 0.185862
Si Si3 0.934627 0.381236 0.292888
Si Si4 0.686787 0.107739 0.297418
Si Si5 0.000000 0.000000 0.500000
Si Si6 0.343054 0.311267 0.790329
Si Si7 0.716450 0.438390 0.295142
Si Si8 0.700078 0.791435 0.205837
O O1 0.131270 0.103412 0.735120
O O2 0.180040 0.189147 0.729927
O O3 0.960992 0.166095 0.733813
O O4 0.085777 0.153196 0.000000
O O5 0.270828 0.427721 0.208537
O O6 0.450597 0.465989 0.347446
O O7 0.312236 0.515565 0.195794
O O8 0.423467 0.457368 0.000000
O O9 0.938175 0.381549 0.500000
O O10 0.838127 0.417847 0.245907
O O11 0.891078 0.331018 0.240661
O O12 0.059214 0.392590 0.229045
O O13 0.683993 0.096037 0.500000
O O14 0.740442 0.157824 0.273490
O O15 0.332367 0.258803 0.730018
O O16 0.341957 0.311935 0.000000
O O17 0.710202 0.450889 0.500000
O O18 0.710193 0.787434 0.000000
#
# Coordination Sequence:
#
# PCOD9427688 Si02
#       8
#     8   8   8   8   2   8   8   8
#     4   9  19  35  55  85 119 155 207 262 322 393
#     4  12  26  44  69 100 133 175 224 270 327 393
#     4   9  21  40  65  88 126 169 215 271 332 391
#     4  11  24  43  60  91 131 172 215 272 333 393
#     4  12  26  48  68  96 136 176 218 260 326 382
#     4  10  22  36  57  86 120 162 209 266 331 394
#     4  10  20  40  64  92 123 166 216 272 327 388
#     4   9  19  36  59  86 117 158 209 267 327 391
#
# _framework density 21.582104999999999
#
# number of rings (size 3 to 8) (size 9 to 14) (size 15 to 20)
#    0.000    1.931    1.379    1.034    3.862    3.310 
#    0.000    2.759    0.000    0.000    0.000    0.000 
#    0.000    0.000    0.000    0.000    0.000    0.000 
#
# Total GULP energy -323812.358738 kJ/mol
# GULP energy per Si atom -5582.971702 kJ/mol
# Density = 2.153298 g / cm^3
# Si number density = 21.582105 Si / 1000 Ang^3
#
#
#
# Elastic Constant Matrix: (Units=GPa)
#
#
# Indices 1 2 3 4 5 6 
#
# 1 100.1577 23.1704 24.1893 0.0000 0.0000 0.0000
# 2 23.1704 86.4254 11.0961 0.0000 0.0000 0.0000
# 3 24.1893 11.0961 86.1295 0.0000 0.0000 0.0000
# 4 0.0000 0.0000 0.0000 29.7132 0.0000 0.0000
# 5 0.0000 0.0000 0.0000 0.0000 15.2497 0.0000
# 6 0.0000 0.0000 0.0000 0.0000 0.0000 19.1117
#
#
#
# Elastic Compliance Matrix: (Units=1/GPa)
#
#
# Indices 1 2 3 4 5 6 
#
# 1 0.011283 -0.002662 -0.002826 0.000000 0.000000 0.000000
# 2 -0.002662 0.012393 -0.000849 0.000000 0.000000 0.000000
# 3 -0.002826 -0.000849 0.012513 0.000000 0.000000 0.000000
# 4 0.000000 0.000000 0.000000 0.033655 0.000000 0.000000
# 5 0.000000 0.000000 0.000000 0.000000 0.065575 0.000000
# 6 0.000000 0.000000 0.000000 0.000000 0.000000 0.052324
#
#
# Mechanical properties :
#
#
# Convention : Reuss Voigt Hill
#
# Bulk Modulus (GPa) = 42.52467 43.29158 42.90812
# Shear Modulus (GPa) = 24.00896 27.09871 25.55384
#
# Velocity S-wave (km/s) = 3.33896 3.54730 3.44471
# Velocity P-wave (km/s) = 5.88314 6.07292 5.97878
#
# Compressibility (1/GPa) = 0.02351576
#
# Stress axis : x y z
#
# Youngs Moduli (GPa) = 88.63263 80.68839 79.91434
#
# Poissons Ratio (x) = 0.21479 0.22582
# Poissons Ratio (y) = 0.23594 0.06785
# Poissons Ratio (z) = 0.25045 0.06851
#
# Static dielectric constant tensor:
#      x y z
#    x 1.860260 0.000000 0.000000 
#    y 0.000000 1.773530 0.000000 
#    z 0.000000 0.000000 1.811250 
# 
# From -- ./inp_files/4471.got.cif
#   From: 2010.05.17/outbox.cif.g08.bks.cpg/sg55_3_cif.got.tgz:4471.got - 2010.06.03 13:27:54.
