data_PCOD9427337
_publ_section_title
;
Structure prediction by ZEFSAII (Michael W. Deem and Ramdas Pophale) SiO2 
 PCOD9427337
Probable space group: P B A M
;
_chemical_formula_sum "Si O2"
_cell_formula_units_Z 40
_cell_length_a 13.554584
_cell_length_b 7.773255
_cell_length_c 14.010058
_cell_angle_alpha 90.000000
_cell_angle_beta 90.000000
_cell_angle_gamma 90.000000
_cell_volume 1476.145073
_symmetry_space_group_name_H-M "P B A M"
_symmetry_group_IT_number 55
_symmetry_cell_setting 'orthorhombic'
loop_
_space_group_symop_operation_xyz
x,y,z
-x,-y,z
1/2+x,1/2-y,-z
1/2-x,1/2+y,-z
-x,-y,-z
x,y,-z
1/2-x,1/2+y,z
1/2+x,1/2-y,z
loop_
_atom_site_type_symbol
_atom_site_label
_atom_site_fract_x
_atom_site_fract_y
_atom_site_fract_z
Si Si1 0.626458 0.830508 0.500000
Si Si2 0.609795 0.223905 0.500000
Si Si3 0.117002 0.165299 0.704322
Si Si4 0.831502 0.552841 0.157133
Si Si5 0.838630 0.069017 0.000000
Si Si6 0.034046 0.279297 0.000000
Si Si7 0.383704 0.274437 0.715138
O O1 0.507715 0.805174 0.500000
O O2 0.652131 0.759272 0.605809
O O3 0.652680 0.032365 0.500000
O O4 0.637068 0.329187 0.407326
O O5 0.178836 0.304925 0.760478
O O6 0.003822 0.226204 0.713590
O O7 0.133302 0.973910 0.740591
O O8 0.737401 0.558969 0.087737
O O9 0.922221 0.619857 0.091007
O O10 0.645822 0.875349 0.211332
O O11 0.917379 0.228281 0.000000
O O12 0.906743 0.900882 0.000000
#
# Coordination Sequence:
#
# PCOD9427337 Si02
#       7
#     4   4   8   8   4   4   8
#     4   9  15  29  59 106 173 230 280 321 397 484
#     4   9  15  29  61 104 179 228 276 321 401 479
#     4  10  20  37  65 119 174 227 274 335 404 485
#     4  11  23  48  80 122 155 212 275 343 413 499
#     4  10  26  56  86 115 157 207 277 348 428 507
#     4  10  26  58  86 113 160 210 265 347 433 502
#     4  10  20  36  66 115 174 228 277 333 405 486
#
# _framework density 27.097605999999999
#
# number of rings (size 3 to 8) (size 9 to 14) (size 15 to 20)
#    0.000    2.000    2.000    1.200    0.000    5.600 
#   21.600    7.000    0.000    9.600    0.000   11.200 
#    0.000   12.800    0.000    6.200    0.000    0.000 
#
# Total GULP energy -224470.528432 kJ/mol
# GULP energy per Si atom -5611.763211 kJ/mol
# Density = 2.703593 g / cm^3
# Si number density = 27.097606 Si / 1000 Ang^3
#
#
#
# Elastic Constant Matrix: (Units=GPa)
#
#
# Indices 1 2 3 4 5 6 
#
# 1 197.6950 82.8371 77.0812 0.0000 0.0000 0.0000
# 2 82.8371 186.8951 101.7671 0.0000 0.0000 0.0000
# 3 77.0812 101.7671 253.8435 0.0000 0.0000 0.0000
# 4 0.0000 0.0000 0.0000 70.0020 0.0000 0.0000
# 5 0.0000 0.0000 0.0000 0.0000 -182.2183 0.0000
# 6 0.0000 0.0000 0.0000 0.0000 0.0000 48.8908
#
#
#
# Elastic Compliance Matrix: (Units=1/GPa)
#
#
# Indices 1 2 3 4 5 6 
#
# 1 0.006417 -0.002281 -0.001034 0.000000 0.000000 0.000000
# 2 -0.002281 0.007656 -0.002377 0.000000 0.000000 0.000000
# 3 -0.001034 -0.002377 0.005206 0.000000 0.000000 0.000000
# 4 0.000000 0.000000 0.000000 0.014285 0.000000 0.000000
# 5 0.000000 0.000000 0.000000 0.000000 -0.005488 0.000000
# 6 0.000000 0.000000 0.000000 0.000000 0.000000 0.020454
#
#
# Mechanical properties :
#
#
# Convention : Reuss Voigt Hill
#
# Bulk Modulus (GPa) = 126.65335 129.08939 127.87137
# Shear Modulus (GPa) = 79.94100 12.45144 46.19622
#
# Velocity S-wave (km/s) = 5.43739 2.14593 4.13341
# Velocity P-wave (km/s) = 9.28770 7.34044 8.37089
#
# Compressibility (1/GPa) = 0.00789557
#
# Stress axis : x y z
#
# Youngs Moduli (GPa) = 155.82679 130.62051 192.07867
#
# Poissons Ratio (x) = 0.29798 0.19863
# Poissons Ratio (y) = 0.35548 0.45648
# Poissons Ratio (z) = 0.16114 0.31042
#
# Static dielectric constant tensor:
#      x y z
#    x 2.214020 0.000000 0.000000 
#    y 0.000000 2.040280 0.000000 
#    z 0.000000 0.000000 2.100820 
# 
# From -- ./inp_files/18790.got.cif
#   From: 2010.05.17/outbox.cif.g08.bks.cpg/sg55_10_cif.got.tgz:18790.got - 2010.06.03 13:27:54.
