data_PCOD9427178
_publ_section_title
;
Structure prediction by ZEFSAII (Michael W. Deem and Ramdas Pophale) SiO2 
 PCOD9427178
Probable space group: P B A M
;
_chemical_formula_sum "Si O2"
_cell_formula_units_Z 64
_cell_length_a 16.616787
_cell_length_b 23.150422
_cell_length_c 8.503750
_cell_angle_alpha 90.000000
_cell_angle_beta 90.000000
_cell_angle_gamma 90.000000
_cell_volume 3271.270437
_symmetry_space_group_name_H-M "P B A M"
_symmetry_group_IT_number 55
_symmetry_cell_setting 'orthorhombic'
loop_
_space_group_symop_operation_xyz
x,y,z
-x,-y,z
1/2+x,1/2-y,-z
1/2-x,1/2+y,-z
-x,-y,-z
x,y,-z
1/2-x,1/2+y,z
1/2+x,1/2-y,z
loop_
_atom_site_type_symbol
_atom_site_label
_atom_site_fract_x
_atom_site_fract_y
_atom_site_fract_z
Si Si1 0.430046 0.955107 0.812261
Si Si2 0.089995 0.013583 0.315066
Si Si3 0.247796 0.447485 0.310647
Si Si4 0.545150 0.173051 0.315421
Si Si5 0.616928 0.363655 0.181658
Si Si6 0.321942 0.334507 0.180516
Si Si7 0.314383 0.748367 0.817178
Si Si8 0.522192 0.709918 0.317722
O O1 0.340786 0.967958 0.743003
O O2 0.452762 0.888496 0.770593
O O3 0.500000 0.000000 0.759098
O O4 0.423775 0.959749 0.000000
O O5 0.085776 0.999488 0.500000
O O6 0.105945 0.080789 0.287174
O O7 0.171162 0.981657 0.256190
O O8 0.000000 0.000000 0.248328
O O9 0.247793 0.445618 0.500000
O O10 0.262931 0.384493 0.238290
O O11 0.541380 0.160098 0.500000
O O12 0.625336 0.210689 0.278979
O O13 0.477082 0.221679 0.277202
O O14 0.685643 0.318469 0.231168
O O15 0.539950 0.322632 0.205552
O O16 0.626093 0.381267 0.000000
O O17 0.272606 0.275607 0.186741
O O18 0.396507 0.325249 0.293953
O O19 0.346980 0.345734 0.000000
O O20 0.341837 0.750253 0.000000
O O21 0.495938 0.706069 0.500000
#
# Coordination Sequence:
#
# PCOD9427178 Si02
#       8
#     8   8   8   8   8   8   8   8
#     4  11  24  42  63  86 116 160 209 260 313 366
#     4  10  22  40  60  86 123 163 200 246 303 364
#     4  11  23  39  63  92 123 161 206 257 307 362
#     4  10  20  36  60  86 113 149 193 244 300 358
#     4  10  20  36  58  83 113 151 193 236 290 354
#     4  11  21  35  58  87 118 152 195 242 293 357
#     4   9  19  35  56  82 114 147 184 235 291 350
#     4  10  21  36  56  86 120 153 191 240 298 359
#
# _framework density 19.564264000000001
#
# number of rings (size 3 to 8) (size 9 to 14) (size 15 to 20)
#    0.000    1.750    1.250    3.000    0.000    5.750 
#    2.250    0.000    0.000    0.000    0.000    0.000 
#    0.000    0.000    0.000    0.000    0.000    0.000 
#
# Total GULP energy -356653.878136 kJ/mol
# GULP energy per Si atom -5572.716846 kJ/mol
# Density = 1.951973 g / cm^3
# Si number density = 19.564264 Si / 1000 Ang^3
#
#
#
# Elastic Constant Matrix: (Units=GPa)
#
#
# Indices 1 2 3 4 5 6 
#
# 1 79.5397 28.5457 16.8576 0.0000 0.0000 0.0000
# 2 28.5457 70.5420 0.1854 0.0000 0.0000 0.0000
# 3 16.8576 0.1854 32.1224 0.0000 0.0000 0.0000
# 4 0.0000 0.0000 0.0000 26.9497 0.0000 0.0000
# 5 0.0000 0.0000 0.0000 0.0000 19.1818 0.0000
# 6 0.0000 0.0000 0.0000 0.0000 0.0000 25.7222
#
#
#
# Elastic Compliance Matrix: (Units=1/GPa)
#
#
# Indices 1 2 3 4 5 6 
#
# 1 0.016886 -0.006810 -0.008822 0.000000 0.000000 0.000000
# 2 -0.006810 0.016923 0.003476 0.000000 0.000000 0.000000
# 3 -0.008822 0.003476 0.035741 0.000000 0.000000 0.000000
# 4 0.000000 0.000000 0.000000 0.037106 0.000000 0.000000
# 5 0.000000 0.000000 0.000000 0.000000 0.052133 0.000000
# 6 0.000000 0.000000 0.000000 0.000000 0.000000 0.038877
#
#
# Mechanical properties :
#
#
# Convention : Reuss Voigt Hill
#
# Bulk Modulus (GPa) = 22.10581 30.37574 26.24077
# Shear Modulus (GPa) = 21.09198 23.47844 22.28521
#
# Velocity S-wave (km/s) = 3.28699 3.46796 3.37868
# Velocity P-wave (km/s) = 5.07241 5.62099 5.35373
#
# Compressibility (1/GPa) = 0.04523698
#
# Stress axis : x y z
#
# Youngs Moduli (GPa) = 59.22007 59.09271 27.97921
#
# Poissons Ratio (x) = 0.40242 0.24684
# Poissons Ratio (y) = 0.40329 -0.09726
# Poissons Ratio (z) = 0.52247 -0.20542
#
# Static dielectric constant tensor:
#      x y z
#    x 1.733470 0.000000 0.000000 
#    y 0.000000 1.711530 0.000000 
#    z 0.000000 0.000000 1.690780 
# 
# From -- ./inp_files/7926.got.cif
#   From: 2010.05.17/outbox.cif.g08.bks.cpg/sg55_4_cif.got.tgz:7926.got - 2010.06.03 13:27:54.
