data_PCOD9427480
_publ_section_title
;
Structure prediction by ZEFSAII (Michael W. Deem and Ramdas Pophale) SiO2 
 PCOD9427480
Probable space group: P B A M
;
_chemical_formula_sum "Si O2"
_cell_formula_units_Z 40
_cell_length_a 11.183400
_cell_length_b 8.354230
_cell_length_c 19.759290
_cell_angle_alpha 90.000000
_cell_angle_beta 90.000000
_cell_angle_gamma 90.000000
_cell_volume 1846.084694
_symmetry_space_group_name_H-M "P B A M"
_symmetry_group_IT_number 55
_symmetry_cell_setting 'orthorhombic'
loop_
_space_group_symop_operation_xyz
x,y,z
-x,-y,z
1/2+x,1/2-y,-z
1/2-x,1/2+y,-z
-x,-y,-z
x,y,-z
1/2-x,1/2+y,z
1/2+x,1/2-y,z
loop_
_atom_site_type_symbol
_atom_site_label
_atom_site_fract_x
_atom_site_fract_y
_atom_site_fract_z
Si Si1 0.118440 0.103141 0.922751
Si Si2 0.636655 0.363976 0.577980
Si Si3 0.382105 0.286603 0.374134
Si Si4 0.118208 0.603622 0.232130
Si Si5 0.752109 0.643485 0.155072
O O1 0.139881 0.244835 0.869726
O O2 0.220863 0.973722 0.906183
O O3 0.123275 0.159682 0.000000
O O4 0.000000 0.000000 0.912615
O O5 0.628581 0.417818 0.500000
O O6 0.763169 0.276335 0.587926
O O7 0.632933 0.520993 0.625390
O O8 0.515581 0.263436 0.594056
O O9 0.381472 0.194582 0.303040
O O10 0.219509 0.469053 0.219052
O O11 0.145751 0.738015 0.176014
O O12 0.000000 0.500000 0.223929
#
# Coordination Sequence:
#
# PCOD9427480 Si02
#       5
#     8   8   8   8   8
#     4  10  20  37  62  92 122 162 210 258 313 373
#     4  11  24  46  69  97 131 166 213 265 327 386
#     4  11  25  42  68  97 129 171 214 267 319 389
#     4  11  24  41  61  91 128 167 216 259 318 382
#     4  10  22  40  61  88 128 167 206 262 317 374
#
# _framework density 21.667480000000001
#
# number of rings (size 3 to 8) (size 9 to 14) (size 15 to 20)
#    0.000    1.400    0.000    5.400    5.600    0.000 
#    7.200    2.000    0.000    9.600    0.000    0.000 
#    0.000    0.000    0.000    0.000    0.000    0.000 
#
# Total GULP energy -223104.864644 kJ/mol
# GULP energy per Si atom -5577.621616 kJ/mol
# Density = 2.161816 g / cm^3
# Si number density = 21.667480 Si / 1000 Ang^3
#
#
#
# Elastic Constant Matrix: (Units=GPa)
#
#
# Indices 1 2 3 4 5 6 
#
# 1 110.1961 46.6488 34.6731 0.0000 0.0000 0.0000
# 2 46.6488 100.2486 46.9570 0.0000 0.0000 0.0000
# 3 34.6731 46.9570 95.6951 0.0000 0.0000 0.0000
# 4 0.0000 0.0000 0.0000 19.9967 0.0000 0.0000
# 5 0.0000 0.0000 0.0000 0.0000 22.6120 0.0000
# 6 0.0000 0.0000 0.0000 0.0000 0.0000 41.1071
#
#
#
# Elastic Compliance Matrix: (Units=1/GPa)
#
#
# Indices 1 2 3 4 5 6 
#
# 1 0.011593 -0.004450 -0.002017 0.000000 0.000000 0.000000
# 2 -0.004450 0.014660 -0.005581 0.000000 0.000000 0.000000
# 3 -0.002017 -0.005581 0.013919 0.000000 0.000000 0.000000
# 4 0.000000 0.000000 0.000000 0.050008 0.000000 0.000000
# 5 0.000000 0.000000 0.000000 0.000000 0.044224 0.000000
# 6 0.000000 0.000000 0.000000 0.000000 0.000000 0.024327
#
#
# Mechanical properties :
#
#
# Convention : Reuss Voigt Hill
#
# Bulk Modulus (GPa) = 62.20340 62.52193 62.36267
# Shear Modulus (GPa) = 26.56928 28.60055 27.58491
#
# Velocity S-wave (km/s) = 3.50555 3.63709 3.57193
# Velocity P-wave (km/s) = 6.71980 6.82318 6.77168
#
# Compressibility (1/GPa) = 0.01607629
#
# Stress axis : x y z
#
# Youngs Moduli (GPa) = 86.25807 68.21193 71.84215
#
# Poissons Ratio (x) = 0.30353 0.14491
# Poissons Ratio (y) = 0.38384 0.40098
# Poissons Ratio (z) = 0.17398 0.38071
#
# Static dielectric constant tensor:
#      x y z
#    x 1.829970 0.000000 0.000000 
#    y 0.000000 1.780880 0.000000 
#    z 0.000000 0.000000 1.758300 
# 
# From -- ./inp_files/21185.got.cif
#   From: 2010.05.17/outbox.cif.g08.bks.cpg/sg55_11_cif.got.tgz:21185.got - 2010.06.03 13:27:54.
