data_PCOD9427711
_publ_section_title
;
Structure prediction by ZEFSAII (Michael W. Deem and Ramdas Pophale) SiO2 
 PCOD9427711
Probable space group: P B A M
;
_chemical_formula_sum "Si O2"
_cell_formula_units_Z 38
_cell_length_a 12.805490
_cell_length_b 7.656236
_cell_length_c 18.106150
_cell_angle_alpha 90.000000
_cell_angle_beta 90.000000
_cell_angle_gamma 90.000000
_cell_volume 1775.160506
_symmetry_space_group_name_H-M "P B A M"
_symmetry_group_IT_number 55
_symmetry_cell_setting 'orthorhombic'
loop_
_space_group_symop_operation_xyz
x,y,z
-x,-y,z
1/2+x,1/2-y,-z
1/2-x,1/2+y,-z
-x,-y,-z
x,y,-z
1/2-x,1/2+y,z
1/2+x,1/2-y,z
loop_
_atom_site_type_symbol
_atom_site_label
_atom_site_fract_x
_atom_site_fract_y
_atom_site_fract_z
Si Si1 0.662763 0.269489 0.500000
Si Si2 0.614632 0.076836 0.090003
Si Si3 0.530718 0.190725 0.632649
Si Si4 0.000000 0.000000 0.000000
Si Si5 0.500000 0.500000 0.744515
Si Si6 0.152893 0.025103 0.129700
Si Si7 0.608576 0.675047 0.500000
O O1 0.628032 0.177416 0.576175
O O2 0.619668 0.466635 0.500000
O O3 0.784205 0.273994 0.500000
O O4 0.623192 0.271638 0.121283
O O5 0.500000 0.000000 0.108776
O O6 0.722352 0.988432 0.118175
O O7 0.618811 0.087292 0.000000
O O8 0.535625 0.336040 0.695293
O O9 0.447490 0.262884 0.573810
O O10 0.500000 0.000000 0.661016
O O11 0.085703 0.940546 0.936341
O O12 0.600227 0.545038 0.795652
#
# Coordination Sequence:
#
# PCOD9427711 Si02
#       7
#     4   8   8   2   4   8   4
#     4  11  20  39  70 108 134 180 237 301 343 411
#     4  11  24  43  74 106 132 179 247 307 371 434
#     4  11  22  45  70  98 140 184 237 292 357 428
#     4  10  20  40  72  98 130 184 228 304 346 428
#     4  11  26  48  62 101 148 200 234 295 372 460
#     4  11  25  43  72  99 145 182 241 299 375 430
#     4  11  20  39  72 104 140 174 245 295 345 413
#
# _framework density 21.406514000000001
#
# number of rings (size 3 to 8) (size 9 to 14) (size 15 to 20)
#    0.000    1.053    4.211    3.158    5.895    0.842 
#    3.789    0.000    0.000    0.000    0.000    0.000 
#    0.000    0.000    0.000    0.000    0.000    0.000 
#
# Total GULP energy -211669.196862 kJ/mol
# GULP energy per Si atom -5570.242023 kJ/mol
# Density = 2.135779 g / cm^3
# Si number density = 21.406514 Si / 1000 Ang^3
#
#
#
# Elastic Constant Matrix: (Units=GPa)
#
#
# Indices 1 2 3 4 5 6 
#
# 1 137.6425 -7.4642 27.4042 0.0000 0.0000 0.0000
# 2 -7.4642 77.5288 13.0790 0.0000 0.0000 0.0000
# 3 27.4042 13.0790 116.7129 0.0000 0.0000 0.0000
# 4 0.0000 0.0000 0.0000 15.4374 0.0000 0.0000
# 5 0.0000 0.0000 0.0000 0.0000 42.8209 0.0000
# 6 0.0000 0.0000 0.0000 0.0000 0.0000 30.3572
#
#
#
# Elastic Compliance Matrix: (Units=1/GPa)
#
#
# Indices 1 2 3 4 5 6 
#
# 1 0.007707 0.001067 -0.001929 0.000000 0.000000 0.000000
# 2 0.001067 0.013295 -0.001740 0.000000 0.000000 0.000000
# 3 -0.001929 -0.001740 0.009216 0.000000 0.000000 0.000000
# 4 0.000000 0.000000 0.000000 0.064778 0.000000 0.000000
# 5 0.000000 0.000000 0.000000 0.000000 0.023353 0.000000
# 6 0.000000 0.000000 0.000000 0.000000 0.000000 0.032941
#
#
# Mechanical properties :
#
#
# Convention : Reuss Voigt Hill
#
# Bulk Modulus (GPa) = 39.97831 44.21356 42.09594
# Shear Modulus (GPa) = 30.33383 37.64745 33.99064
#
# Velocity S-wave (km/s) = 3.76844 4.19822 3.98912
# Velocity P-wave (km/s) = 6.13605 6.64825 6.39728
#
# Compressibility (1/GPa) = 0.02501356
#
# Stress axis : x y z
#
# Youngs Moduli (GPa) = 129.74884 75.21726 108.50613
#
# Poissons Ratio (x) = -0.08029 0.20934
# Poissons Ratio (y) = -0.13851 0.18885
# Poissons Ratio (z) = 0.25032 0.13091
#
# Static dielectric constant tensor:
#      x y z
#    x 1.823780 0.000000 0.000000 
#    y 0.000000 1.813310 0.000000 
#    z 0.000000 0.000000 1.613890 
# 
# From -- ./inp_files/21207.got.cif
#   From: 2010.05.17/outbox.cif.g08.bks.cpg/sg55_11_cif.got.tgz:21207.got - 2010.06.03 13:27:54.
