data_PCOD9427440
_publ_section_title
;
Structure prediction by ZEFSAII (Michael W. Deem and Ramdas Pophale) SiO2 
 PCOD9427440
Probable space group: P B A M
;
_chemical_formula_sum "Si O2"
_cell_formula_units_Z 60
_cell_length_a 16.102871
_cell_length_b 15.345393
_cell_length_c 12.818365
_cell_angle_alpha 90.000000
_cell_angle_beta 90.000000
_cell_angle_gamma 90.000000
_cell_volume 3167.480595
_symmetry_space_group_name_H-M "P B A M"
_symmetry_group_IT_number 55
_symmetry_cell_setting 'orthorhombic'
loop_
_space_group_symop_operation_xyz
x,y,z
-x,-y,z
1/2+x,1/2-y,-z
1/2-x,1/2+y,-z
-x,-y,-z
x,y,-z
1/2-x,1/2+y,z
1/2+x,1/2-y,z
loop_
_atom_site_type_symbol
_atom_site_label
_atom_site_fract_x
_atom_site_fract_y
_atom_site_fract_z
Si Si1 0.127096 0.141701 0.873591
Si Si2 0.086736 0.886046 0.614967
Si Si3 0.568171 0.816018 0.619700
Si Si4 0.292354 0.092988 0.740089
Si Si5 0.000000 0.000000 0.790558
Si Si6 0.401679 0.989530 0.113457
Si Si7 0.280751 0.908765 0.618590
Si Si8 0.090994 0.320405 0.755567
O O1 0.209977 0.120917 0.803770
O O2 0.091071 0.229536 0.818147
O O3 0.061421 0.062855 0.855415
O O4 0.141349 0.152074 0.000000
O O5 0.065350 0.923121 0.500000
O O6 0.055030 0.787693 0.618824
O O7 0.185643 0.880672 0.619942
O O8 0.053243 0.940414 0.711540
O O9 0.560249 0.848152 0.500000
O O10 0.659297 0.840294 0.664134
O O11 0.494243 0.846037 0.696200
O O12 0.361126 0.067753 0.824826
O O13 0.281437 0.002178 0.677076
O O14 0.386736 0.896529 0.164218
O O15 0.500000 0.000000 0.109147
O O16 0.363709 0.989842 0.000000
O O17 0.308869 0.922616 0.500000
O O18 0.336899 0.833665 0.669930
#
# Coordination Sequence:
#
# PCOD9427440 Si02
#       8
#     8   8   8   8   4   8   8   8
#     4  12  26  44  66  91 124 167 221 271 324 374
#     4  10  21  39  61  88 123 157 202 250 306 377
#     4  11  22  38  62  95 128 164 201 249 314 381
#     4  11  22  40  63  92 129 163 204 264 311 377
#     4  12  22  44  66  90 116 160 212 266 320 362
#     4  10  20  37  61  87 119 164 210 253 309 369
#     4  10  21  38  63  94 126 165 202 248 311 382
#     4  11  22  40  62  90 131 164 207 260 310 377
#
# _framework density 18.942499999999999
#
# number of rings (size 3 to 8) (size 9 to 14) (size 15 to 20)
#    0.000    1.200    4.000    2.800    0.000    0.000 
#    0.000    4.000    0.000    0.000    0.000    0.000 
#    0.000    0.000    0.000    0.000    0.000    0.000 
#
# Total GULP energy -334350.675756 kJ/mol
# GULP energy per Si atom -5572.511263 kJ/mol
# Density = 1.889939 g / cm^3
# Si number density = 18.942500 Si / 1000 Ang^3
#
#
#
# Elastic Constant Matrix: (Units=GPa)
#
#
# Indices 1 2 3 4 5 6 
#
# 1 62.5296 11.9803 27.1598 0.0000 0.0000 0.0000
# 2 11.9803 54.3683 30.2781 0.0000 0.0000 0.0000
# 3 27.1598 30.2781 133.5725 0.0000 0.0000 0.0000
# 4 0.0000 0.0000 0.0000 18.8014 0.0000 0.0000
# 5 0.0000 0.0000 0.0000 0.0000 18.1146 0.0000
# 6 0.0000 0.0000 0.0000 0.0000 0.0000 28.4831
#
#
#
# Elastic Compliance Matrix: (Units=1/GPa)
#
#
# Indices 1 2 3 4 5 6 
#
# 1 0.017764 -0.002178 -0.003118 0.000000 0.000000 0.000000
# 2 -0.002178 0.021317 -0.004389 0.000000 0.000000 0.000000
# 3 -0.003118 -0.004389 0.009116 0.000000 0.000000 0.000000
# 4 0.000000 0.000000 0.000000 0.053188 0.000000 0.000000
# 5 0.000000 0.000000 0.000000 0.000000 0.055204 0.000000
# 6 0.000000 0.000000 0.000000 0.000000 0.000000 0.035109
#
#
# Mechanical properties :
#
#
# Convention : Reuss Voigt Hill
#
# Bulk Modulus (GPa) = 34.69077 43.25632 38.97354
# Shear Modulus (GPa) = 22.65753 25.14997 23.90375
#
# Velocity S-wave (km/s) = 3.46225 3.64772 3.55619
# Velocity P-wave (km/s) = 5.85973 6.37387 6.12220
#
# Compressibility (1/GPa) = 0.02882611
#
# Stress axis : x y z
#
# Youngs Moduli (GPa) = 56.29315 46.90994 109.70162
#
# Poissons Ratio (x) = 0.10216 0.34209
# Poissons Ratio (y) = 0.12259 0.48153
# Poissons Ratio (z) = 0.17554 0.20591
#
# Static dielectric constant tensor:
#      x y z
#    x 1.665320 0.000000 0.000000 
#    y 0.000000 1.643860 0.000000 
#    z 0.000000 0.000000 1.693170 
# 
# From -- ./inp_files/14955.got.cif
#   From: 2010.05.17/outbox.cif.g08.bks.cpg/sg55_8_cif.got.tgz:14955.got - 2010.06.03 13:27:54.
