data_PCOD9427547
_publ_section_title
;
Structure prediction by ZEFSAII (Michael W. Deem and Ramdas Pophale) SiO2 
 PCOD9427547
Probable space group: P B A M
;
_chemical_formula_sum "Si O2"
_cell_formula_units_Z 64
_cell_length_a 24.412659
_cell_length_b 15.842947
_cell_length_c 8.347923
_cell_angle_alpha 90.000000
_cell_angle_beta 90.000000
_cell_angle_gamma 90.000000
_cell_volume 3228.713345
_symmetry_space_group_name_H-M "P B A M"
_symmetry_group_IT_number 55
_symmetry_cell_setting 'orthorhombic'
loop_
_space_group_symop_operation_xyz
x,y,z
-x,-y,z
1/2+x,1/2-y,-z
1/2-x,1/2+y,-z
-x,-y,-z
x,y,-z
1/2-x,1/2+y,z
1/2+x,1/2-y,z
loop_
_atom_site_type_symbol
_atom_site_label
_atom_site_fract_x
_atom_site_fract_y
_atom_site_fract_z
Si Si1 0.894248 0.911263 0.688818
Si Si2 0.699784 0.746859 0.195865
Si Si3 0.124632 0.600288 0.808200
Si Si4 0.607488 0.085029 0.806405
Si Si5 0.994330 0.349133 0.312066
Si Si6 0.877260 0.093255 0.806468
Si Si7 0.326232 0.749348 0.194401
Si Si8 0.503254 0.662223 0.810001
O O1 0.902905 0.908166 0.500000
O O2 0.856652 0.833309 0.742256
O O3 0.953156 0.899738 0.773388
O O4 0.868565 0.000504 0.737783
O O5 0.666922 0.829560 0.253019
O O6 0.666769 0.663180 0.245394
O O7 0.762919 0.747617 0.244597
O O8 0.698780 0.747377 0.000000
O O9 0.130913 0.504530 0.748444
O O10 0.062924 0.629261 0.771371
O O11 0.131238 0.598181 0.000000
O O12 0.544952 0.096640 0.752624
O O13 0.642029 0.166204 0.752580
O O14 0.608332 0.084684 0.000000
O O15 0.988439 0.363031 0.500000
O O16 0.007130 0.251065 0.276450
O O17 0.938071 0.125140 0.760430
O O18 0.875885 0.088266 0.000000
O O19 0.328243 0.746732 0.000000
O O20 0.505223 0.679038 0.000000
#
# Coordination Sequence:
#
# PCOD9427547 Si02
#       8
#     8   8   8   8   8   8   8   8
#     4  12  25  39  58  89 126 161 196 238 294 360
#     4   9  19  38  64  91 115 148 202 255 292 337
#     4  10  20  38  61  88 119 154 196 244 293 351
#     4  10  21  36  59  87 117 156 198 241 294 347
#     4  12  23  35  57  88 122 157 191 237 299 359
#     4  10  21  39  64  91 119 153 196 247 298 350
#     4  10  21  39  63  88 116 155 203 252 294 340
#     4  11  21  38  64  90 118 153 195 244 299 353
#
# _framework density 19.822139
#
# number of rings (size 3 to 8) (size 9 to 14) (size 15 to 20)
#    0.000    1.500    2.500    3.375    0.000    5.500 
#    0.000    5.000    0.000    1.500    0.000    0.000 
#    0.000    0.000    0.000    0.000    0.000    0.000 
#
# Total GULP energy -357751.966155 kJ/mol
# GULP energy per Si atom -5589.874471 kJ/mol
# Density = 1.977702 g / cm^3
# Si number density = 19.822139 Si / 1000 Ang^3
#
#
#
# Elastic Constant Matrix: (Units=GPa)
#
#
# Indices 1 2 3 4 5 6 
#
# 1 110.0134 28.7163 1.4317 0.0000 0.0000 0.0000
# 2 28.7163 107.7271 6.4557 0.0000 0.0000 0.0000
# 3 1.4317 6.4557 6.9025 0.0000 0.0000 0.0000
# 4 0.0000 0.0000 0.0000 -5.7656 0.0000 0.0000
# 5 0.0000 0.0000 0.0000 0.0000 -8.3902 0.0000
# 6 0.0000 0.0000 0.0000 0.0000 0.0000 4.5268
#
#
#
# Elastic Compliance Matrix: (Units=1/GPa)
#
#
# Indices 1 2 3 4 5 6 
#
# 1 0.009771 -0.002631 0.000434 0.000000 0.000000 0.000000
# 2 -0.002631 0.010542 -0.009314 0.000000 0.000000 0.000000
# 3 0.000434 -0.009314 0.153495 0.000000 0.000000 0.000000
# 4 0.000000 0.000000 0.000000 -0.173442 0.000000 0.000000
# 5 0.000000 0.000000 0.000000 0.000000 -0.119187 0.000000
# 6 0.000000 0.000000 0.000000 0.000000 0.000000 0.220909
#
#
# Mechanical properties :
#
#
# Convention : Reuss Voigt Hill
#
# Bulk Modulus (GPa) = 6.63190 33.09451 19.86320
# Shear Modulus (GPa) = 28.51078 10.61014 19.56046
#
# Velocity S-wave (km/s) = 3.79665 2.31609 3.14474
# Velocity P-wave (km/s) = 4.75103 4.88716 4.81958
#
# Compressibility (1/GPa) = 0.15078640
#
# Stress axis : x y z
#
# Youngs Moduli (GPa) = 102.34576 94.85794 6.51485
#
# Poissons Ratio (x) = 0.24953 -0.00282
# Poissons Ratio (y) = 0.26922 0.06068
# Poissons Ratio (z) = -0.04438 0.88351
#
# Static dielectric constant tensor:
#      x y z
#    x 1.661240 0.000000 0.000000 
#    y 0.000000 1.698730 0.000000 
#    z 0.000000 0.000000 1.671410 
# 
# From -- ./inp_files/9649.got.cif
#   From: 2010.05.17/outbox.cif.g08.bks.cpg/sg55_5_cif.got.tgz:9649.got - 2010.06.03 13:27:54.
