data_PCOD9427745
_publ_section_title
;
Structure prediction by ZEFSAII (Michael W. Deem and Ramdas Pophale) SiO2 
 PCOD9427745
Probable space group: P B A M
;
_chemical_formula_sum "Si O2"
_cell_formula_units_Z 58
_cell_length_a 18.453690
_cell_length_b 15.349207
_cell_length_c 9.250023
_cell_angle_alpha 90.000000
_cell_angle_beta 90.000000
_cell_angle_gamma 90.000000
_cell_volume 2620.064461
_symmetry_space_group_name_H-M "P B A M"
_symmetry_group_IT_number 55
_symmetry_cell_setting 'orthorhombic'
loop_
_space_group_symop_operation_xyz
x,y,z
-x,-y,z
1/2+x,1/2-y,-z
1/2-x,1/2+y,-z
-x,-y,-z
x,y,-z
1/2-x,1/2+y,z
1/2+x,1/2-y,z
loop_
_atom_site_type_symbol
_atom_site_label
_atom_site_fract_x
_atom_site_fract_y
_atom_site_fract_z
Si Si1 0.205460 0.464018 0.834139
Si Si2 0.492911 0.173538 0.841254
Si Si3 0.073330 0.198417 0.664164
Si Si4 0.423310 0.407627 0.339527
Si Si5 0.229338 0.805346 0.668180
Si Si6 0.137024 0.054037 0.160689
Si Si7 0.000000 0.500000 0.000000
Si Si8 0.348564 0.133326 0.325970
O O1 0.219622 0.369529 0.761744
O O2 0.285181 0.508190 0.840975
O O3 0.162942 0.537516 0.742774
O O4 0.177113 0.458621 0.000000
O O5 0.559401 0.220530 0.766499
O O6 0.511123 0.075010 0.877254
O O7 0.422981 0.171231 0.738982
O O8 0.474997 0.214137 0.000000
O O9 0.088234 0.222274 0.500000
O O10 0.995923 0.147991 0.669798
O O11 0.131552 0.132833 0.728202
O O12 0.421288 0.449744 0.500000
O O13 0.350989 0.349356 0.329045
O O14 0.417138 0.480143 0.218043
O O15 0.252583 0.806157 0.500000
O O16 0.213065 0.705530 0.714266
O O17 0.118536 0.084186 0.000000
O O18 0.350718 0.129028 0.500000
#
# Coordination Sequence:
#
# PCOD9427745 Si02
#       8
#     8   8   8   8   8   8   2   8
#     4  10  22  38  56  85 124 165 204 251 310 368
#     4  10  21  40  64  87 117 150 200 251 307 353
#     4  11  20  33  56  87 116 155 200 243 295 356
#     4   9  17  31  50  79 118 151 186 235 289 349
#     4   9  18  35  57  84 117 151 197 253 300 357
#     4  10  21  34  49  79 124 164 196 232 293 360
#     4   8  24  44  62  88 114 152 182 240 314 354
#     4  11  21  38  66  94 119 155 207 256 307 367
#
# _framework density 22.136859999999999
#
# number of rings (size 3 to 8) (size 9 to 14) (size 15 to 20)
#    0.414    1.655    1.379    2.483    0.000    5.517 
#    0.000    2.759    0.000    0.000    0.000    0.000 
#    0.000    0.000    0.000    0.000    0.000    0.000 
#
# Total GULP energy -323392.711167 kJ/mol
# GULP energy per Si atom -5575.736399 kJ/mol
# Density = 2.208648 g / cm^3
# Si number density = 22.136860 Si / 1000 Ang^3
#
#
#
# Elastic Constant Matrix: (Units=GPa)
#
#
# Indices 1 2 3 4 5 6 
#
# 1 72.2021 19.7377 17.6296 0.0000 0.0000 0.0000
# 2 19.7377 90.7840 37.1267 0.0000 0.0000 0.0000
# 3 17.6296 37.1267 101.1779 0.0000 0.0000 0.0000
# 4 0.0000 0.0000 0.0000 231.4455 0.0000 0.0000
# 5 0.0000 0.0000 0.0000 0.0000 1.4860 0.0000
# 6 0.0000 0.0000 0.0000 0.0000 0.0000 29.2152
#
#
#
# Elastic Compliance Matrix: (Units=1/GPa)
#
#
# Indices 1 2 3 4 5 6 
#
# 1 0.014959 -0.002572 -0.001663 0.000000 0.000000 0.000000
# 2 -0.002572 0.013402 -0.004470 0.000000 0.000000 0.000000
# 3 -0.001663 -0.004470 0.011813 0.000000 0.000000 0.000000
# 4 0.000000 0.000000 0.000000 0.004321 0.000000 0.000000
# 5 0.000000 0.000000 0.000000 0.000000 0.672939 0.000000
# 6 0.000000 0.000000 0.000000 0.000000 0.000000 0.034229
#
#
# Mechanical properties :
#
#
# Convention : Reuss Voigt Hill
#
# Bulk Modulus (GPa) = 43.92606 45.90577 44.91591
# Shear Modulus (GPa) = 6.43781 65.07401 35.75591
#
# Velocity S-wave (km/s) = 1.70719 5.42771 4.02334
# Velocity P-wave (km/s) = 4.87566 7.74999 6.47435
#
# Compressibility (1/GPa) = 0.02276553
#
# Stress axis : x y z
#
# Youngs Moduli (GPa) = 66.84858 74.61384 84.64957
#
# Poissons Ratio (x) = 0.19194 0.14074
# Poissons Ratio (y) = 0.17196 0.37836
# Poissons Ratio (z) = 0.11114 0.33350
#
# Static dielectric constant tensor:
#      x y z
#    x 1.856700 0.000000 0.000000 
#    y 0.000000 1.824160 0.000000 
#    z 0.000000 0.000000 1.786860 
# 
# From -- ./inp_files/9611.got.cif
#   From: 2010.05.17/outbox.cif.g08.bks.cpg/sg55_5_cif.got.tgz:9611.got - 2010.06.03 13:27:54.
