data_PCOD9427212
_publ_section_title
;
Structure prediction by ZEFSAII (Michael W. Deem and Ramdas Pophale) SiO2 
 PCOD9427212
Probable space group: P B A M
;
_chemical_formula_sum "Si O2"
_cell_formula_units_Z 48
_cell_length_a 15.494069
_cell_length_b 19.462926
_cell_length_c 8.728715
_cell_angle_alpha 90.000000
_cell_angle_beta 90.000000
_cell_angle_gamma 90.000000
_cell_volume 2632.230583
_symmetry_space_group_name_H-M "P B A M"
_symmetry_group_IT_number 55
_symmetry_cell_setting 'orthorhombic'
loop_
_space_group_symop_operation_xyz
x,y,z
-x,-y,z
1/2+x,1/2-y,-z
1/2-x,1/2+y,-z
-x,-y,-z
x,y,-z
1/2-x,1/2+y,z
1/2+x,1/2-y,z
loop_
_atom_site_type_symbol
_atom_site_label
_atom_site_fract_x
_atom_site_fract_y
_atom_site_fract_z
Si Si1 0.498416 0.078472 0.315351
Si Si2 0.649243 0.325613 0.183994
Si Si3 0.000143 0.919687 0.683800
Si Si4 0.154346 0.829913 0.815808
Si Si5 0.156148 0.324860 0.684304
Si Si6 0.651043 0.828467 0.816437
O O1 0.496989 0.077551 0.500000
O O2 0.583810 0.120320 0.268691
O O3 0.415057 0.119462 0.258729
O O4 0.500000 0.000000 0.260188
O O5 0.582784 0.380669 0.248826
O O6 0.631040 0.250304 0.252825
O O7 0.748894 0.342175 0.223710
O O8 0.642398 0.321882 0.000000
O O9 0.999171 0.914448 0.500000
O O10 0.084502 0.881502 0.748046
O O11 0.000000 0.000000 0.726111
O O12 0.250208 0.842745 0.752127
O O13 0.131832 0.750825 0.773091
O O14 0.155363 0.833957 0.000000
O O15 0.161130 0.322479 0.500000
O O16 0.643484 0.833105 0.000000
#
# Coordination Sequence:
#
# PCOD9427212 Si02
#       6
#     8   8   8   8   8   8
#     4  10  22  37  53  78 112 147 181 221 270 322
#     4  10  21  38  59  84 113 144 185 234 281 332
#     4  11  24  39  56  82 115 150 188 231 283 343
#     4  10  21  38  60  84 111 144 185 234 283 333
#     4  10  20  36  59  84 111 146 188 232 278 330
#     4   9  20  37  57  82 108 139 181 227 273 324
#
# _framework density 18.235484
#
# number of rings (size 3 to 8) (size 9 to 14) (size 15 to 20)
#    0.000    2.000    0.000    4.000    0.000   11.000 
#    0.000    5.000    0.000    0.000    0.000    0.000 
#    0.000    0.000    0.000    0.000    0.000    0.000 
#
# Total GULP energy -268156.498976 kJ/mol
# GULP energy per Si atom -5586.593729 kJ/mol
# Density = 1.819398 g / cm^3
# Si number density = 18.235484 Si / 1000 Ang^3
#
#
#
# Elastic Constant Matrix: (Units=GPa)
#
#
# Indices 1 2 3 4 5 6 
#
# 1 140.9268 138.6766 49.0626 0.0000 0.0000 0.0000
# 2 138.6766 181.4568 58.1260 0.0000 0.0000 0.0000
# 3 49.0626 58.1260 47.0046 0.0000 0.0000 0.0000
# 4 0.0000 0.0000 0.0000 -35.9995 0.0000 0.0000
# 5 0.0000 0.0000 0.0000 0.0000 39.4462 0.0000
# 6 0.0000 0.0000 0.0000 0.0000 0.0000 -19.0230
#
#
#
# Elastic Compliance Matrix: (Units=1/GPa)
#
#
# Indices 1 2 3 4 5 6 
#
# 1 0.029252 -0.020823 -0.004782 0.000000 0.000000 0.000000
# 2 -0.020823 0.023950 -0.007881 0.000000 0.000000 0.000000
# 3 -0.004782 -0.007881 0.036011 0.000000 0.000000 0.000000
# 4 0.000000 0.000000 0.000000 -0.027778 0.000000 0.000000
# 5 0.000000 0.000000 0.000000 0.000000 0.025351 0.000000
# 6 0.000000 0.000000 0.000000 0.000000 0.000000 -0.052568
#
#
# Mechanical properties :
#
#
# Convention : Reuss Voigt Hill
#
# Bulk Modulus (GPa) = 44.96428 95.67984 70.32206
# Shear Modulus (GPa) = 46.03896 5.11961 25.57929
#
# Velocity S-wave (km/s) = 5.03008 1.67738 3.74935
# Velocity P-wave (km/s) = 7.64505 7.50563 7.57566
#
# Compressibility (1/GPa) = 0.02223987
#
# Stress axis : x y z
#
# Youngs Moduli (GPa) = 34.18608 41.75438 27.76893
#
# Poissons Ratio (x) = 0.86947 0.13279
# Poissons Ratio (y) = 0.71187 0.21885
# Poissons Ratio (z) = 0.16348 0.32906
#
# Static dielectric constant tensor:
#      x y z
#    x 1.605010 0.000000 0.000000 
#    y 0.000000 1.604380 0.000000 
#    z 0.000000 0.000000 1.614500 
# 
# From -- ./inp_files/5592.got.cif
#   From: 2010.05.17/outbox.cif.g08.bks.cpg/sg55_3_cif.got.tgz:5592.got - 2010.06.03 13:27:54.
