data_PCOD9427114
_publ_section_title
;
Structure prediction by ZEFSAII (Michael W. Deem and Ramdas Pophale) SiO2 
 PCOD9427114
Probable space group: P B A M
;
_chemical_formula_sum "Si O2"
_cell_formula_units_Z 56
_cell_length_a 14.145640
_cell_length_b 8.139719
_cell_length_c 22.473028
_cell_angle_alpha 90.000000
_cell_angle_beta 90.000000
_cell_angle_gamma 90.000000
_cell_volume 2587.578933
_symmetry_space_group_name_H-M "P B A M"
_symmetry_group_IT_number 55
_symmetry_cell_setting 'orthorhombic'
loop_
_space_group_symop_operation_xyz
x,y,z
-x,-y,z
1/2+x,1/2-y,-z
1/2-x,1/2+y,-z
-x,-y,-z
x,y,-z
1/2-x,1/2+y,z
1/2+x,1/2-y,z
loop_
_atom_site_type_symbol
_atom_site_label
_atom_site_fract_x
_atom_site_fract_y
_atom_site_fract_z
Si Si1 0.854836 0.370883 0.679752
Si Si2 0.458939 0.669150 0.352038
Si Si3 0.951696 0.181495 0.931711
Si Si4 0.325852 0.778294 0.262340
Si Si5 0.874099 0.689159 0.874000
Si Si6 0.889317 0.555228 0.432853
Si Si7 0.269412 0.509106 0.069798
O O1 0.954290 0.279355 0.671978
O O2 0.858841 0.540798 0.716510
O O3 0.778509 0.257302 0.712458
O O4 0.834077 0.434160 0.612127
O O5 0.500000 0.500000 0.375684
O O6 0.390532 0.644966 0.296034
O O7 0.398750 0.768963 0.400728
O O8 0.015355 0.290662 0.888112
O O9 0.844954 0.135297 0.914667
O O10 0.954048 0.244557 0.000000
O O11 0.000000 0.000000 0.932777
O O12 0.343427 0.768786 0.192657
O O13 0.825539 0.519854 0.893352
O O14 0.823973 0.824111 0.916032
O O15 0.852881 0.558831 0.500000
O O16 0.000000 0.500000 0.435099
O O17 0.249546 0.500297 0.000000
#
# Coordination Sequence:
#
# PCOD9427114 Si02
#       7
#     8   8   8   8   8   8   8
#     4  10  21  39  58  82 120 157 193 241 291 342
#     4  10  21  37  60  87 117 157 197 246 306 352
#     4   8  16  32  52  73 101 137 176 222 280 344
#     4  11  22  36  55  82 117 156 198 240 289 355
#     4  11  21  34  55  80 105 143 188 233 284 346
#     4   8  16  34  59  85 115 153 194 237 287 339
#     4  10  20  36  56  78 106 140 182 235 293 347
#
# _framework density 21.641853000000001
#
# number of rings (size 3 to 8) (size 9 to 14) (size 15 to 20)
#    0.000    2.286    0.000    5.143    0.000    3.143 
#    0.000    5.000    0.000    6.000    0.000    0.000 
#    0.000    0.000    0.000    0.000    0.000    0.000 
#
# Total GULP energy -312561.527474 kJ/mol
# GULP energy per Si atom -5581.455848 kJ/mol
# Density = 2.159259 g / cm^3
# Si number density = 21.641853 Si / 1000 Ang^3
#
#
#
# Elastic Constant Matrix: (Units=GPa)
#
#
# Indices 1 2 3 4 5 6 
#
# 1 84.9030 7.5335 25.6808 0.0000 0.0000 0.0000
# 2 7.5335 47.7395 -4.1701 0.0000 0.0000 0.0000
# 3 25.6808 -4.1701 85.6988 0.0000 0.0000 0.0000
# 4 0.0000 0.0000 0.0000 8.3692 0.0000 0.0000
# 5 0.0000 0.0000 0.0000 0.0000 17.0836 0.0000
# 6 0.0000 0.0000 0.0000 0.0000 0.0000 29.6920
#
#
#
# Elastic Compliance Matrix: (Units=1/GPa)
#
#
# Indices 1 2 3 4 5 6 
#
# 1 0.013230 -0.002444 -0.004084 0.000000 0.000000 0.000000
# 2 -0.002444 0.021488 0.001778 0.000000 0.000000 0.000000
# 3 -0.004084 0.001778 0.012979 0.000000 0.000000 0.000000
# 4 0.000000 0.000000 0.000000 0.119485 0.000000 0.000000
# 5 0.000000 0.000000 0.000000 0.000000 0.058536 0.000000
# 6 0.000000 0.000000 0.000000 0.000000 0.000000 0.033679
#
#
# Mechanical properties :
#
#
# Convention : Reuss Voigt Hill
#
# Bulk Modulus (GPa) = 26.17976 30.71442 28.44709
# Shear Modulus (GPa) = 17.75382 23.64878 20.70130
#
# Velocity S-wave (km/s) = 2.86728 3.30924 3.09615
# Velocity P-wave (km/s) = 4.80466 5.36883 5.09456
#
# Compressibility (1/GPa) = 0.03819744
#
# Stress axis : x y z
#
# Youngs Moduli (GPa) = 75.58455 46.53743 77.04761
#
# Poissons Ratio (x) = 0.11376 0.31463
# Poissons Ratio (y) = 0.18477 -0.13700
# Poissons Ratio (z) = 0.30865 -0.08275
#
# Static dielectric constant tensor:
#      x y z
#    x 1.830210 0.000000 0.000000 
#    y 0.000000 1.833240 0.000000 
#    z 0.000000 0.000000 1.753600 
# 
# From -- ./inp_files/22986.got.cif
#   From: 2010.05.17/outbox.cif.g08.bks.cpg/sg55_12_cif.got.tgz:22986.got - 2010.06.03 13:27:54.
