data_PCOD9427200
_publ_section_title
;
Structure prediction by ZEFSAII (Michael W. Deem and Ramdas Pophale) SiO2 
 PCOD9427200
Probable space group: P B A M
;
_chemical_formula_sum "Si O2"
_cell_formula_units_Z 64
_cell_length_a 23.054978
_cell_length_b 8.703857
_cell_length_c 13.417942
_cell_angle_alpha 90.000000
_cell_angle_beta 90.000000
_cell_angle_gamma 90.000000
_cell_volume 2692.541276
_symmetry_space_group_name_H-M "P B A M"
_symmetry_group_IT_number 55
_symmetry_cell_setting 'orthorhombic'
loop_
_space_group_symop_operation_xyz
x,y,z
-x,-y,z
1/2+x,1/2-y,-z
1/2-x,1/2+y,-z
-x,-y,-z
x,y,-z
1/2-x,1/2+y,z
1/2+x,1/2-y,z
loop_
_atom_site_type_symbol
_atom_site_label
_atom_site_fract_x
_atom_site_fract_y
_atom_site_fract_z
Si Si1 0.579558 0.062020 0.112341
Si Si2 0.907056 0.327346 0.276825
Si Si3 0.783106 0.516834 0.891283
Si Si4 0.694849 0.340384 0.391334
Si Si5 0.079362 0.980972 0.382724
Si Si6 0.945373 0.897189 0.826006
Si Si7 0.652463 0.620479 0.110719
Si Si8 0.197844 0.495861 0.324000
O O1 0.650774 0.083000 0.113760
O O2 0.551659 0.225500 0.135752
O O3 0.562518 0.943909 0.199922
O O4 0.565915 0.010587 0.000000
O O5 0.932360 0.193860 0.346879
O O6 0.870028 0.229833 0.196688
O O7 0.865216 0.435087 0.341555
O O8 0.721968 0.607166 0.889649
O O9 0.780347 0.441933 0.783414
O O10 0.780961 0.436939 0.000000
O O11 0.680943 0.273427 0.500000
O O12 0.647057 0.471275 0.372223
O O13 0.755055 0.429269 0.393992
O O14 0.696324 0.188846 0.323237
O O15 0.064526 0.002792 0.500000
O O16 0.053957 0.089027 0.294908
O O17 0.884364 0.966267 0.866005
O O18 0.000000 0.000000 0.860795
O O19 0.634405 0.670919 0.000000
#
# Coordination Sequence:
#
# PCOD9427200 Si02
#       8
#     8   8   8   8   8   8   8   8
#     4  10  21  38  61  93 130 167 210 260 316 385
#     4  10  21  35  56  84 119 161 206 258 319 387
#     4   9  19  33  54  84 119 160 201 244 300 368
#     4  11  22  35  55  84 119 164 217 270 329 391
#     4  10  22  41  62  85 117 160 214 274 328 380
#     4  11  24  43  67  94 127 169 220 270 324 390
#     4  10  20  36  58  87 124 166 210 258 315 379
#     4  11  20  34  53  81 124 165 208 262 322 386
#
# _framework density 23.769365000000001
#
# number of rings (size 3 to 8) (size 9 to 14) (size 15 to 20)
#    0.000    1.750    0.000    5.625    0.000    5.750 
#    0.000   11.250    0.000    5.250    0.000    0.000 
#    0.000    0.000    0.000    0.000    0.000    0.000 
#
# Total GULP energy -356760.559644 kJ/mol
# GULP energy per Si atom -5574.383744 kJ/mol
# Density = 2.371526 g / cm^3
# Si number density = 23.769365 Si / 1000 Ang^3
#
#
#
# Elastic Constant Matrix: (Units=GPa)
#
#
# Indices 1 2 3 4 5 6 
#
# 1 113.1633 34.4094 15.2817 0.0000 0.0000 0.0000
# 2 34.4094 103.0029 0.0313 0.0000 0.0000 0.0000
# 3 15.2817 0.0313 102.4847 0.0000 0.0000 0.0000
# 4 0.0000 0.0000 0.0000 4.7905 0.0000 0.0000
# 5 0.0000 0.0000 0.0000 0.0000 -206.8371 0.0000
# 6 0.0000 0.0000 0.0000 0.0000 0.0000 31.8186
#
#
#
# Elastic Compliance Matrix: (Units=1/GPa)
#
#
# Indices 1 2 3 4 5 6 
#
# 1 0.010061 -0.003361 -0.001499 0.000000 0.000000 0.000000
# 2 -0.003361 0.010831 0.000498 0.000000 0.000000 0.000000
# 3 -0.001499 0.000498 0.009981 0.000000 0.000000 0.000000
# 4 0.000000 0.000000 0.000000 0.208746 0.000000 0.000000
# 5 0.000000 0.000000 0.000000 0.000000 -0.004835 0.000000
# 6 0.000000 0.000000 0.000000 0.000000 0.000000 0.031428
#
#
# Mechanical properties :
#
#
# Convention : Reuss Voigt Hill
#
# Bulk Modulus (GPa) = 45.14871 46.45507 45.80189
# Shear Modulus (GPa) = 17.71046 -16.11703 0.79672
#
# Velocity S-wave (km/s) = 2.73261 -2.60678 0.57958
# Velocity P-wave (km/s) = 5.38441 3.24440 4.44511
#
# Compressibility (1/GPa) = 0.02214903
#
# Stress axis : x y z
#
# Youngs Moduli (GPa) = 99.39285 92.32794 100.19086
#
# Poissons Ratio (x) = 0.31027 0.15021
# Poissons Ratio (y) = 0.33402 -0.04987
# Poissons Ratio (z) = 0.14901 -0.04596
#
# Static dielectric constant tensor:
#      x y z
#    x 1.969800 0.000000 0.000000 
#    y 0.000000 1.946050 0.000000 
#    z 0.000000 0.000000 1.913130 
# 
# From -- ./inp_files/19948.got.cif
#   From: 2010.05.17/outbox.cif.g08.bks.cpg/sg55_10_cif.got.tgz:19948.got - 2010.06.03 13:27:54.
