data_PCOD9427016
_publ_section_title
;
Structure prediction by ZEFSAII (Michael W. Deem and Ramdas Pophale) SiO2 
 PCOD9427016
Probable space group: P B A M
;
_chemical_formula_sum "Si O2"
_cell_formula_units_Z 52
_cell_length_a 15.096168
_cell_length_b 9.344862
_cell_length_c 16.590281
_cell_angle_alpha 90.000000
_cell_angle_beta 90.000000
_cell_angle_gamma 90.000000
_cell_volume 2340.417596
_symmetry_space_group_name_H-M "P B A M"
_symmetry_group_IT_number 55
_symmetry_cell_setting 'orthorhombic'
loop_
_space_group_symop_operation_xyz
x,y,z
-x,-y,z
1/2+x,1/2-y,-z
1/2-x,1/2+y,-z
-x,-y,-z
x,y,-z
1/2-x,1/2+y,z
1/2+x,1/2-y,z
loop_
_atom_site_type_symbol
_atom_site_label
_atom_site_fract_x
_atom_site_fract_y
_atom_site_fract_z
Si Si1 0.805792 0.928834 0.500000
Si Si2 0.914086 0.659536 0.500000
Si Si3 0.180037 0.448962 0.360937
Si Si4 0.456629 0.841000 0.907458
Si Si5 0.868604 0.200196 0.155940
Si Si6 0.178035 0.742839 0.675508
Si Si7 0.215498 0.497256 0.097464
Si Si8 0.596495 0.689492 0.500000
O O1 0.752125 0.982118 0.577244
O O2 0.894809 0.019761 0.500000
O O3 0.828334 0.763645 0.500000
O O4 0.903811 0.574693 0.417600
O O5 0.000811 0.748089 0.500000
O O6 0.222624 0.306163 0.326438
O O7 0.167411 0.577380 0.300564
O O8 0.529955 0.735124 0.869498
O O9 0.358351 0.878147 0.874626
O O10 0.500000 0.000000 0.906670
O O11 0.446001 0.794482 0.000000
O O12 0.869264 0.175431 0.252448
O O13 0.813405 0.345332 0.130204
O O14 0.812005 0.067310 0.119880
O O15 0.140495 0.760773 0.584667
O O16 0.208993 0.506770 0.000000
#
# Coordination Sequence:
#
# PCOD9427016 Si02
#       8
#     4   4   8   8   8   8   8   4
#     4   9  17  35  59  76 102 141 195 238 295 354
#     4  11  19  36  59  82 100 146 204 250 298 336
#     4  10  20  35  58  76 106 146 192 241 293 344
#     4   8  16  34  58  85 117 151 188 232 290 361
#     4  11  21  37  60  89 123 157 197 246 296 349
#     4  11  22  39  54  82 117 154 195 245 290 344
#     4  10  20  38  65  92 117 154 198 238 295 369
#     4  10  23  37  54  83 117 150 201 248 289 353
#
# _framework density 22.218257000000001
#
# number of rings (size 3 to 8) (size 9 to 14) (size 15 to 20)
#    0.000    2.000    1.538    4.846    0.000    1.231 
#   11.077    0.769    0.000    2.769    0.000    0.000 
#    0.000    0.000    0.000    0.000    0.000    0.000 
#
# Total GULP energy -289733.880692 kJ/mol
# GULP energy per Si atom -5571.805398 kJ/mol
# Density = 2.216769 g / cm^3
# Si number density = 22.218257 Si / 1000 Ang^3
#
#
#
# Elastic Constant Matrix: (Units=GPa)
#
#
# Indices 1 2 3 4 5 6 
#
# 1 51.9070 -0.0265 5.2090 0.0000 0.0000 0.0000
# 2 -0.0265 59.9933 -1.0820 0.0000 0.0000 0.0000
# 3 5.2090 -1.0820 88.2393 0.0000 0.0000 0.0000
# 4 0.0000 0.0000 0.0000 24.5467 0.0000 0.0000
# 5 0.0000 0.0000 0.0000 0.0000 -23.2413 0.0000
# 6 0.0000 0.0000 0.0000 0.0000 0.0000 32.9218
#
#
#
# Elastic Compliance Matrix: (Units=1/GPa)
#
#
# Indices 1 2 3 4 5 6 
#
# 1 0.019380 -0.000012 -0.001144 0.000000 0.000000 0.000000
# 2 -0.000012 0.016672 0.000205 0.000000 0.000000 0.000000
# 3 -0.001144 0.000205 0.011403 0.000000 0.000000 0.000000
# 4 0.000000 0.000000 0.000000 0.040739 0.000000 0.000000
# 5 0.000000 0.000000 0.000000 0.000000 -0.043027 0.000000
# 6 0.000000 0.000000 0.000000 0.000000 0.000000 0.030375
#
#
# Mechanical properties :
#
#
# Convention : Reuss Voigt Hill
#
# Bulk Modulus (GPa) = 21.95250 23.14895 22.55072
# Shear Modulus (GPa) = 53.97905 19.91471 36.94688
#
# Velocity S-wave (km/s) = 4.93433 2.99711 4.08230
# Velocity P-wave (km/s) = 6.50887 4.73481 5.69139
#
# Compressibility (1/GPa) = 0.04555290
#
# Stress axis : x y z
#
# Youngs Moduli (GPa) = 51.59943 59.97996 87.69717
#
# Poissons Ratio (x) = 0.00073 0.10034
# Poissons Ratio (y) = 0.00062 -0.01799
# Poissons Ratio (z) = 0.05904 -0.01231
#
# Static dielectric constant tensor:
#      x y z
#    x 1.845360 0.000000 0.000000 
#    y 0.000000 1.900050 0.000000 
#    z 0.000000 0.000000 1.878040 
# 
# From -- ./inp_files/21787.got.cif
#   From: 2010.05.17/outbox.cif.g08.bks.cpg/sg55_11_cif.got.tgz:21787.got - 2010.06.03 13:27:54.
