data_PCOD9427905
_publ_section_title
;
Structure prediction by ZEFSAII (Michael W. Deem and Ramdas Pophale) SiO2 
 PCOD9427905
Probable space group: P B A M
;
_chemical_formula_sum "Si O2"
_cell_formula_units_Z 64
_cell_length_a 23.450089
_cell_length_b 15.594351
_cell_length_c 9.346328
_cell_angle_alpha 90.000000
_cell_angle_beta 90.000000
_cell_angle_gamma 90.000000
_cell_volume 3417.848582
_symmetry_space_group_name_H-M "P B A M"
_symmetry_group_IT_number 55
_symmetry_cell_setting 'orthorhombic'
loop_
_space_group_symop_operation_xyz
x,y,z
-x,-y,z
1/2+x,1/2-y,-z
1/2-x,1/2+y,-z
-x,-y,-z
x,y,-z
1/2-x,1/2+y,z
1/2+x,1/2-y,z
loop_
_atom_site_type_symbol
_atom_site_label
_atom_site_fract_x
_atom_site_fract_y
_atom_site_fract_z
Si Si1 0.427409 0.756472 0.330795
Si Si2 0.320747 0.195465 0.670068
Si Si3 0.621556 0.652093 0.169113
Si Si4 0.487532 0.399147 0.664167
Si Si5 0.793433 0.997827 0.169411
Si Si6 0.164428 0.518084 0.169648
Si Si7 0.954341 0.573994 0.171334
Si Si8 0.809476 0.819653 0.328490
O O1 0.427078 0.777242 0.500000
O O2 0.459541 0.665303 0.314449
O O3 0.458176 0.834053 0.248383
O O4 0.362127 0.739855 0.281984
O O5 0.327890 0.193989 0.500000
O O6 0.359530 0.265247 0.744275
O O7 0.335817 0.103952 0.737505
O O8 0.253971 0.214979 0.701915
O O9 0.559790 0.624696 0.221536
O O10 0.665282 0.575673 0.204451
O O11 0.623569 0.667878 0.000000
O O12 0.500000 0.500000 0.676518
O O13 0.467162 0.384513 0.500000
O O14 0.727143 0.021189 0.196858
O O15 0.810612 0.912840 0.255315
O O16 0.798456 0.979335 0.000000
O O17 0.109514 0.460764 0.201899
O O18 0.161560 0.539265 0.000000
O O19 0.000000 0.500000 0.214035
O O20 0.960450 0.585529 0.000000
O O21 0.814694 0.830505 0.500000
#
# Coordination Sequence:
#
# PCOD9427905 Si02
#       8
#     8   8   8   8   8   8   8   8
#     4  10  22  39  61  89 118 152 196 242 290 346
#     4  10  21  36  57  86 116 149 188 233 288 347
#     4  11  23  36  56  85 118 152 192 238 284 343
#     4  10  22  41  63  87 118 158 197 239 295 352
#     4   9  19  35  56  84 114 150 191 231 283 344
#     4   9  19  38  59  80 113 151 189 235 288 344
#     4  10  23  40  59  84 114 153 198 243 295 348
#     4   9  19  37  59  85 116 148 187 235 288 344
#
# _framework density 18.72523
#
# number of rings (size 3 to 8) (size 9 to 14) (size 15 to 20)
#    0.000    2.250    0.000    1.500    3.500    4.500 
#    0.000    0.000    0.000    0.000    0.000    0.000 
#    0.000    0.000    0.000    0.000    0.000    0.000 
#
# Total GULP energy -357147.670981 kJ/mol
# GULP energy per Si atom -5580.432359 kJ/mol
# Density = 1.868261 g / cm^3
# Si number density = 18.725230 Si / 1000 Ang^3
#
#
#
# Elastic Constant Matrix: (Units=GPa)
#
#
# Indices 1 2 3 4 5 6 
#
# 1 51.4841 23.0309 22.6687 0.0000 0.0000 0.0000
# 2 23.0309 63.0101 22.6287 0.0000 0.0000 0.0000
# 3 22.6687 22.6287 19.7219 0.0000 0.0000 0.0000
# 4 0.0000 0.0000 0.0000 7.4474 0.0000 0.0000
# 5 0.0000 0.0000 0.0000 0.0000 24.3902 0.0000
# 6 0.0000 0.0000 0.0000 0.0000 0.0000 24.7863
#
#
#
# Elastic Compliance Matrix: (Units=1/GPa)
#
#
# Indices 1 2 3 4 5 6 
#
# 1 0.039700 0.003192 -0.049295 0.000000 0.000000 0.000000
# 2 0.003192 0.027250 -0.034936 0.000000 0.000000 0.000000
# 3 -0.049295 -0.034936 0.147450 0.000000 0.000000 0.000000
# 4 0.000000 0.000000 0.000000 0.134275 0.000000 0.000000
# 5 0.000000 0.000000 0.000000 0.000000 0.041000 0.000000
# 6 0.000000 0.000000 0.000000 0.000000 0.000000 0.040345
#
#
# Mechanical properties :
#
#
# Convention : Reuss Voigt Hill
#
# Bulk Modulus (GPa) = 19.11172 30.09699 24.60435
# Shear Modulus (GPa) = 8.20292 15.71729 11.96010
#
# Velocity S-wave (km/s) = 2.09528 2.90032 2.53002
# Velocity P-wave (km/s) = 4.01025 5.22720 4.65864
#
# Compressibility (1/GPa) = 0.05232392
#
# Stress axis : x y z
#
# Youngs Moduli (GPa) = 25.18880 36.69709 6.78194
#
# Poissons Ratio (x) = -0.11715 0.33432
# Poissons Ratio (y) = -0.08041 0.23693
# Poissons Ratio (z) = 1.24168 1.28204
#
# Static dielectric constant tensor:
#      x y z
#    x 1.673260 0.000000 0.000000 
#    y 0.000000 1.610450 0.000000 
#    z 0.000000 0.000000 1.626060 
# 
# From -- ./inp_files/6548.got.cif
#   From: 2010.05.17/outbox.cif.g08.bks.cpg/sg55_4_cif.got.tgz:6548.got - 2010.06.03 13:27:54.
