data_PCOD9427051
_publ_section_title
;
Structure prediction by ZEFSAII (Michael W. Deem and Ramdas Pophale) SiO2 
 PCOD9427051
Probable space group: P B A M
;
_chemical_formula_sum "Si O2"
_cell_formula_units_Z 44
_cell_length_a 9.665609
_cell_length_b 21.881676
_cell_length_c 7.913975
_cell_angle_alpha 90.000000
_cell_angle_beta 90.000000
_cell_angle_gamma 90.000000
_cell_volume 1673.803532
_symmetry_space_group_name_H-M "P B A M"
_symmetry_group_IT_number 55
_symmetry_cell_setting 'orthorhombic'
loop_
_space_group_symop_operation_xyz
x,y,z
-x,-y,z
1/2+x,1/2-y,-z
1/2-x,1/2+y,-z
-x,-y,-z
x,y,-z
1/2-x,1/2+y,z
1/2+x,1/2-y,z
loop_
_atom_site_type_symbol
_atom_site_label
_atom_site_fract_x
_atom_site_fract_y
_atom_site_fract_z
Si Si1 0.067344 0.744261 0.816878
Si Si2 0.777894 0.316715 0.500000
Si Si3 0.526298 0.368982 0.314281
Si Si4 0.608189 0.144563 0.306859
Si Si5 0.825055 0.041264 0.800666
Si Si6 0.614860 0.946115 0.194514
O O1 0.150121 0.724636 0.650514
O O2 0.030057 0.815254 0.802659
O O3 0.925779 0.704217 0.800047
O O4 0.130171 0.730917 0.000000
O O5 0.684844 0.354160 0.354031
O O6 0.459282 0.361895 0.500000
O O7 0.474980 0.434477 0.251459
O O8 0.631865 0.162409 0.500000
O O9 0.725124 0.099230 0.241146
O O10 0.464522 0.105391 0.300127
O O11 0.745171 0.982302 0.728344
O O12 0.823732 0.031615 0.000000
O O13 0.500000 0.000000 0.181361
O O14 0.639874 0.924675 0.000000
#
# Coordination Sequence:
#
# PCOD9427051 Si02
#       6
#     8   4   8   8   8   8
#     4  12  24  41  64  88 119 161 200 244 302 349
#     4  10  24  46  58  85 122 157 202 254 278 354
#     4  10  23  39  61  82 121 153 197 242 290 343
#     4  11  21  34  58  88 122 153 198 248 302 359
#     4  10  20  35  58  89 121 155 196 241 306 365
#     4   8  16  32  52  83 120 150 189 245 301 362
#
# _framework density 26.287434000000001
#
# number of rings (size 3 to 8) (size 9 to 14) (size 15 to 20)
#    0.545    1.273    1.818    3.818    2.545    5.455 
#    0.000    0.000    0.000    2.182    0.000    3.818 
#    0.000    0.000    0.000    0.000    0.000    0.000 
#
# Total GULP energy -245096.022564 kJ/mol
# GULP energy per Si atom -5570.364149 kJ/mol
# Density = 2.622760 g / cm^3
# Si number density = 26.287434 Si / 1000 Ang^3
#
#
#
# Elastic Constant Matrix: (Units=GPa)
#
#
# Indices 1 2 3 4 5 6 
#
# 1 118.7944 15.8510 2.9219 0.0000 0.0000 0.0000
# 2 15.8510 110.9772 14.9432 0.0000 0.0000 0.0000
# 3 2.9219 14.9432 150.1776 0.0000 0.0000 0.0000
# 4 0.0000 0.0000 0.0000 8.7955 0.0000 0.0000
# 5 0.0000 0.0000 0.0000 0.0000 109.3271 0.0000
# 6 0.0000 0.0000 0.0000 0.0000 0.0000 46.7288
#
#
#
# Elastic Compliance Matrix: (Units=1/GPa)
#
#
# Indices 1 2 3 4 5 6 
#
# 1 0.008582 -0.001220 -0.000046 0.000000 0.000000 0.000000
# 2 -0.001220 0.009307 -0.000902 0.000000 0.000000 0.000000
# 3 -0.000046 -0.000902 0.006749 0.000000 0.000000 0.000000
# 4 0.000000 0.000000 0.000000 0.113694 0.000000 0.000000
# 5 0.000000 0.000000 0.000000 0.000000 0.009147 0.000000
# 6 0.000000 0.000000 0.000000 0.000000 0.000000 0.021400
#
#
# Mechanical properties :
#
#
# Convention : Reuss Voigt Hill
#
# Bulk Modulus (GPa) = 49.25450 49.70907 49.48178
# Shear Modulus (GPa) = 27.78061 56.05249 41.91655
#
# Velocity S-wave (km/s) = 3.25438 4.62268 3.99751
# Velocity P-wave (km/s) = 5.73575 6.88790 6.33806
#
# Compressibility (1/GPa) = 0.02030271
#
# Stress axis : x y z
#
# Youngs Moduli (GPa) = 116.52619 107.45115 148.16012
#
# Poissons Ratio (x) = 0.13105 0.00676
# Poissons Ratio (y) = 0.14212 0.13369
# Poissons Ratio (z) = 0.00532 0.09695
#
# Static dielectric constant tensor:
#      x y z
#    x 2.191190 0.000000 0.000000 
#    y 0.000000 2.076420 0.000000 
#    z 0.000000 0.000000 2.003450 
# 
# From -- ./inp_files/3989.got.cif
#   From: 2010.05.17/outbox.cif.g08.bks.cpg/sg55_2_cif.got.tgz:3989.got - 2010.06.03 13:27:54.
