data_PCOD9427013
_publ_section_title
;
Structure prediction by ZEFSAII (Michael W. Deem and Ramdas Pophale) SiO2 
 PCOD9427013
Probable space group: P B A M
;
_chemical_formula_sum "Si O2"
_cell_formula_units_Z 64
_cell_length_a 7.340494
_cell_length_b 23.350739
_cell_length_c 15.834899
_cell_angle_alpha 90.000000
_cell_angle_beta 90.000000
_cell_angle_gamma 90.000000
_cell_volume 2714.196057
_symmetry_space_group_name_H-M "P B A M"
_symmetry_group_IT_number 55
_symmetry_cell_setting 'orthorhombic'
loop_
_space_group_symop_operation_xyz
x,y,z
-x,-y,z
1/2+x,1/2-y,-z
1/2-x,1/2+y,-z
-x,-y,-z
x,y,-z
1/2-x,1/2+y,z
1/2+x,1/2-y,z
loop_
_atom_site_type_symbol
_atom_site_label
_atom_site_fract_x
_atom_site_fract_y
_atom_site_fract_z
Si Si1 0.254537 0.664070 0.404149
Si Si2 0.849338 0.118655 0.905399
Si Si3 0.718528 0.217897 0.317346
Si Si4 0.426152 0.160373 0.903767
Si Si5 0.147404 0.581631 0.251463
Si Si6 0.275062 0.457350 0.251224
Si Si7 0.162912 0.880612 0.405813
Si Si8 0.532064 0.720447 0.821806
O O1 0.190617 0.654375 0.500000
O O2 0.212547 0.728544 0.372353
O O3 0.188965 0.620504 0.332444
O O4 0.474325 0.655393 0.406634
O O5 0.646214 0.148198 0.901791
O O6 0.854602 0.070509 0.833737
O O7 0.993589 0.169670 0.887627
O O8 0.871616 0.095875 0.000000
O O9 0.681413 0.165738 0.379815
O O10 0.848896 0.187455 0.248930
O O11 0.592915 0.247595 0.246919
O O12 0.340800 0.119735 0.832746
O O13 0.391285 0.225897 0.874894
O O14 0.369714 0.150242 0.000000
O O15 0.274239 0.525892 0.249643
O O16 0.938491 0.560905 0.253733
O O17 0.351787 0.430420 0.337266
O O18 0.195028 0.902760 0.500000
#
# Coordination Sequence:
#
# PCOD9427013 Si02
#       8
#     8   8   8   8   8   8   8   8
#     4  11  24  40  60  89 121 158 201 246 304 367
#     4  10  20  36  60  90 123 159 197 242 297 356
#     4  12  21  38  61  86 121 155 192 239 296 357
#     4  10  20  35  57  89 123 156 197 245 296 352
#     4  10  22  39  63  86 117 158 207 256 302 354
#     4  10  21  41  61  87 117 158 207 256 303 353
#     4  11  24  41  61  88 120 157 199 245 303 369
#     4  12  20  36  61  86 120 158 193 235 296 356
#
# _framework density 23.579726999999998
#
# number of rings (size 3 to 8) (size 9 to 14) (size 15 to 20)
#    0.000    1.250    5.000    1.500    0.000    2.000 
#    0.000    5.000    0.000    0.000    0.000    2.625 
#    0.000    0.000    0.000    0.000    0.000    0.000 
#
# Total GULP energy -357391.591527 kJ/mol
# GULP energy per Si atom -5584.243618 kJ/mol
# Density = 2.352606 g / cm^3
# Si number density = 23.579727 Si / 1000 Ang^3
#
#
#
# Elastic Constant Matrix: (Units=GPa)
#
#
# Indices 1 2 3 4 5 6 
#
# 1 38.9472 27.2937 31.9053 0.0000 0.0000 0.0000
# 2 27.2937 147.2127 97.9333 0.0000 0.0000 0.0000
# 3 31.9053 97.9333 259.3988 0.0000 0.0000 0.0000
# 4 0.0000 0.0000 0.0000 16.7303 0.0000 0.0000
# 5 0.0000 0.0000 0.0000 0.0000 35.3548 0.0000
# 6 0.0000 0.0000 0.0000 0.0000 0.0000 30.1582
#
#
#
# Elastic Compliance Matrix: (Units=1/GPa)
#
#
# Indices 1 2 3 4 5 6 
#
# 1 0.030382 -0.004202 -0.002150 0.000000 0.000000 0.000000
# 2 -0.004202 0.009652 -0.003127 0.000000 0.000000 0.000000
# 3 -0.002150 -0.003127 0.005300 0.000000 0.000000 0.000000
# 4 0.000000 0.000000 0.000000 0.059772 0.000000 0.000000
# 5 0.000000 0.000000 0.000000 0.000000 0.028285 0.000000
# 6 0.000000 0.000000 0.000000 0.000000 0.000000 0.033158
#
#
# Mechanical properties :
#
#
# Convention : Reuss Voigt Hill
#
# Bulk Modulus (GPa) = 37.91486 84.42482 61.16984
# Shear Modulus (GPa) = 25.73313 35.67709 30.70511
#
# Velocity S-wave (km/s) = 3.30710 3.89400 3.61249
# Velocity P-wave (km/s) = 5.54048 7.48995 6.58773
#
# Compressibility (1/GPa) = 0.02637488
#
# Stress axis : x y z
#
# Youngs Moduli (GPa) = 32.91379 103.60034 188.67086
#
# Poissons Ratio (x) = 0.43538 0.40571
# Poissons Ratio (y) = 0.13832 0.59003
# Poissons Ratio (z) = 0.07078 0.32399
#
# Static dielectric constant tensor:
#      x y z
#    x 2.201940 0.000000 0.000000 
#    y 0.000000 1.796920 0.000000 
#    z 0.000000 0.000000 1.851650 
# 
# From -- ./inp_files/17860.got.cif
#   From: 2010.05.17/outbox.cif.g08.bks.cpg/sg55_9_cif.got.tgz:17860.got - 2010.06.03 13:27:54.
