data_PCOD9427254
_publ_section_title
;
Structure prediction by ZEFSAII (Michael W. Deem and Ramdas Pophale) SiO2 
 PCOD9427254
Probable space group: P B A M
;
_chemical_formula_sum "Si O2"
_cell_formula_units_Z 64
_cell_length_a 9.064987
_cell_length_b 16.436162
_cell_length_c 20.670565
_cell_angle_alpha 90.000000
_cell_angle_beta 90.000000
_cell_angle_gamma 90.000000
_cell_volume 3079.781787
_symmetry_space_group_name_H-M "P B A M"
_symmetry_group_IT_number 55
_symmetry_cell_setting 'orthorhombic'
loop_
_space_group_symop_operation_xyz
x,y,z
-x,-y,z
1/2+x,1/2-y,-z
1/2-x,1/2+y,-z
-x,-y,-z
x,y,-z
1/2-x,1/2+y,z
1/2+x,1/2-y,z
loop_
_atom_site_type_symbol
_atom_site_label
_atom_site_fract_x
_atom_site_fract_y
_atom_site_fract_z
Si Si1 0.793939 0.319758 0.871832
Si Si2 0.823454 0.068655 0.229927
Si Si3 0.728550 0.436093 0.331269
Si Si4 0.597180 0.180715 0.071963
Si Si5 0.346585 0.950565 0.571724
Si Si6 0.452262 0.867597 0.697671
Si Si7 0.917877 0.809798 0.253957
Si Si8 0.670063 0.003883 0.113909
O O1 0.720647 0.247285 0.912381
O O2 0.709585 0.315664 0.802069
O O3 0.789881 0.410580 0.904457
O O4 0.970261 0.306229 0.873896
O O5 0.663354 0.102643 0.249114
O O6 0.799817 0.024925 0.162900
O O7 0.944070 0.137993 0.229104
O O8 0.845135 0.999940 0.283140
O O9 0.736037 0.481374 0.399572
O O10 0.645206 0.353127 0.318664
O O11 0.896553 0.418151 0.307617
O O12 0.655515 0.087320 0.072958
O O13 0.535880 0.195265 0.000000
O O14 0.308449 0.920690 0.500000
O O15 0.372338 0.883512 0.627999
O O16 0.500000 0.000000 0.567208
O O17 0.475510 0.775860 0.719781
O O18 0.500000 0.000000 0.140358
#
# Coordination Sequence:
#
# PCOD9427254 Si02
#       8
#     8   8   8   8   8   8   8   8
#     4  11  26  42  68  97 130 172 214 269 329 392
#     4  11  21  37  59  87 130 156 205 255 319 390
#     4  10  20  36  59  90 125 166 204 262 318 378
#     4  11  26  47  69  96 129 171 222 268 321 391
#     4   8  16  35  61  87 116 165 221 260 302 373
#     4  10  21  34  60  88 123 166 209 261 316 378
#     4  12  24  36  57  94 133 163 201 269 334 380
#     4  10  22  42  69  96 125 171 214 260 324 396
#
# _framework density 20.780692999999999
#
# number of rings (size 3 to 8) (size 9 to 14) (size 15 to 20)
#    0.000    1.625    1.250    4.125    7.000    2.750 
#    0.000    0.625    0.000   15.000    0.000    0.000 
#    0.000    0.000    0.000    0.000    0.000    0.000 
#
# Total GULP energy -356539.820288 kJ/mol
# GULP energy per Si atom -5570.934692 kJ/mol
# Density = 2.073340 g / cm^3
# Si number density = 20.780693 Si / 1000 Ang^3
#
#
#
# Elastic Constant Matrix: (Units=GPa)
#
#
# Indices 1 2 3 4 5 6 
#
# 1 58.5408 46.6850 10.4185 0.0000 0.0000 0.0000
# 2 46.6850 128.3691 32.6506 0.0000 0.0000 0.0000
# 3 10.4185 32.6506 81.9125 0.0000 0.0000 0.0000
# 4 0.0000 0.0000 0.0000 25.9574 0.0000 0.0000
# 5 0.0000 0.0000 0.0000 0.0000 23.2595 0.0000
# 6 0.0000 0.0000 0.0000 0.0000 0.0000 39.3448
#
#
#
# Elastic Compliance Matrix: (Units=1/GPa)
#
#
# Indices 1 2 3 4 5 6 
#
# 1 0.024077 -0.008877 0.000476 0.000000 0.000000 0.000000
# 2 -0.008877 0.011942 -0.003631 0.000000 0.000000 0.000000
# 3 0.000476 -0.003631 0.013595 0.000000 0.000000 0.000000
# 4 0.000000 0.000000 0.000000 0.038525 0.000000 0.000000
# 5 0.000000 0.000000 0.000000 0.000000 0.042993 0.000000
# 6 0.000000 0.000000 0.000000 0.000000 0.000000 0.025416
#
#
# Mechanical properties :
#
#
# Convention : Reuss Voigt Hill
#
# Bulk Modulus (GPa) = 39.13978 49.81452 44.47715
# Shear Modulus (GPa) = 26.43700 29.65021 28.04361
#
# Velocity S-wave (km/s) = 3.57065 3.78142 3.67754
# Velocity P-wave (km/s) = 5.98957 6.56423 6.28347
#
# Compressibility (1/GPa) = 0.02554945
#
# Stress axis : x y z
#
# Youngs Moduli (GPa) = 41.53375 83.73755 73.55684
#
# Poissons Ratio (x) = 0.74336 -0.03503
# Poissons Ratio (y) = 0.36871 0.26709
# Poissons Ratio (z) = -0.01978 0.30405
#
# Static dielectric constant tensor:
#      x y z
#    x 1.875560 0.000000 0.000000 
#    y 0.000000 1.894420 0.000000 
#    z 0.000000 0.000000 1.778820 
# 
# From -- ./inp_files/23466.got.cif
#   From: 2010.05.17/outbox.cif.g08.bks.cpg/sg55_12_cif.got.tgz:23466.got - 2010.06.03 13:27:54.
