data_PCOD9427690
_publ_section_title
;
Structure prediction by ZEFSAII (Michael W. Deem and Ramdas Pophale) SiO2 
 PCOD9427690
Probable space group: P B A M
;
_chemical_formula_sum "Si O2"
_cell_formula_units_Z 58
_cell_length_a 8.548000
_cell_length_b 18.134186
_cell_length_c 18.319658
_cell_angle_alpha 90.000000
_cell_angle_beta 90.000000
_cell_angle_gamma 90.000000
_cell_volume 2839.748908
_symmetry_space_group_name_H-M "P B A M"
_symmetry_group_IT_number 55
_symmetry_cell_setting 'orthorhombic'
loop_
_space_group_symop_operation_xyz
x,y,z
-x,-y,z
1/2+x,1/2-y,-z
1/2-x,1/2+y,-z
-x,-y,-z
x,y,-z
1/2-x,1/2+y,z
1/2+x,1/2-y,z
loop_
_atom_site_type_symbol
_atom_site_label
_atom_site_fract_x
_atom_site_fract_y
_atom_site_fract_z
Si Si1 0.512740 0.224268 0.158379
Si Si2 0.479401 0.864263 0.382049
Si Si3 0.000000 0.500000 0.500000
Si Si4 0.285497 0.666452 0.916384
Si Si5 0.334762 0.903778 0.768462
Si Si6 0.997869 0.840910 0.282625
Si Si7 0.153456 0.777773 0.414637
Si Si8 0.163181 0.043300 0.193308
O O1 0.339066 0.202727 0.137993
O O2 0.567249 0.280579 0.096133
O O3 0.607513 0.148675 0.166562
O O4 0.527744 0.267214 0.235177
O O5 0.492329 0.933739 0.436314
O O6 0.449329 0.893094 0.300132
O O7 0.323695 0.814561 0.401180
O O8 0.624271 0.806982 0.389799
O O9 0.316914 0.587332 0.881517
O O10 0.236794 0.663806 0.000000
O O11 0.164318 0.873278 0.744423
O O12 0.302674 0.987375 0.791087
O O13 0.028372 0.823591 0.366563
O O14 0.865034 0.898201 0.258798
O O15 0.119651 0.781735 0.500000
O O16 0.000000 0.000000 0.188594
#
# Coordination Sequence:
#
# PCOD9427690 Si02
#       8
#     8   8   2   8   8   8   8   8
#     4  11  20  38  65  95 121 163 214 266 311 376
#     4  11  24  40  67  88 131 162 221 265 328 383
#     4  12  24  44  52  94 132 174 194 274 326 386
#     4  11  24  40  62  94 130 165 208 264 326 388
#     4  10  20  40  64  93 118 164 216 266 313 373
#     4   9  19  37  65  91 123 163 217 258 305 377
#     4  11  20  40  65  97 122 174 212 267 318 384
#     4   9  21  41  64  91 129 169 213 260 317 392
#
# _framework density 20.424340999999998
#
# number of rings (size 3 to 8) (size 9 to 14) (size 15 to 20)
#    0.000    1.655    4.138    0.414    0.000    1.931 
#    2.483    2.069    0.000    2.897    0.000    0.000 
#    0.000    0.000    0.000    0.000    0.000    0.000 
#
# Total GULP energy -323268.329528 kJ/mol
# GULP energy per Si atom -5573.591888 kJ/mol
# Density = 2.037785 g / cm^3
# Si number density = 20.424341 Si / 1000 Ang^3
#
#
#
# Elastic Constant Matrix: (Units=GPa)
#
#
# Indices 1 2 3 4 5 6 
#
# 1 46.6502 36.8450 4.0022 0.0000 0.0000 0.0000
# 2 36.8450 128.7522 31.9617 0.0000 0.0000 0.0000
# 3 4.0022 31.9617 67.6943 0.0000 0.0000 0.0000
# 4 0.0000 0.0000 0.0000 14.5653 0.0000 0.0000
# 5 0.0000 0.0000 0.0000 0.0000 11.9503 0.0000
# 6 0.0000 0.0000 0.0000 0.0000 0.0000 31.9971
#
#
#
# Elastic Compliance Matrix: (Units=1/GPa)
#
#
# Indices 1 2 3 4 5 6 
#
# 1 0.028040 -0.008623 0.002414 0.000000 0.000000 0.000000
# 2 -0.008623 0.011450 -0.004896 0.000000 0.000000 0.000000
# 3 0.002414 -0.004896 0.016941 0.000000 0.000000 0.000000
# 4 0.000000 0.000000 0.000000 0.068656 0.000000 0.000000
# 5 0.000000 0.000000 0.000000 0.000000 0.083680 0.000000
# 6 0.000000 0.000000 0.000000 0.000000 0.000000 0.031253
#
#
# Mechanical properties :
#
#
# Convention : Reuss Voigt Hill
#
# Bulk Modulus (GPa) = 29.22311 43.19051 36.20681
# Shear Modulus (GPa) = 18.27223 23.05504 20.66364
#
# Velocity S-wave (km/s) = 2.99428 3.36341 3.18420
# Velocity P-wave (km/s) = 5.12770 6.02295 5.59326
#
# Compressibility (1/GPa) = 0.03421950
#
# Stress axis : x y z
#
# Youngs Moduli (GPa) = 35.66343 87.33567 59.02715
#
# Poissons Ratio (x) = 0.75313 -0.14248
# Poissons Ratio (y) = 0.30754 0.28901
# Poissons Ratio (z) = -0.08608 0.42762
#
# Static dielectric constant tensor:
#      x y z
#    x 1.772300 0.000000 0.000000 
#    y 0.000000 1.787230 0.000000 
#    z 0.000000 0.000000 1.707110 
# 
# From -- ./inp_files/20983.got.cif
#   From: 2010.05.17/outbox.cif.g08.bks.cpg/sg55_11_cif.got.tgz:20983.got - 2010.06.03 13:27:54.
