data_PCOD9427129
_publ_section_title
;
Structure prediction by ZEFSAII (Michael W. Deem and Ramdas Pophale) SiO2 
 PCOD9427129
Probable space group: P B A M
;
_chemical_formula_sum "Si O2"
_cell_formula_units_Z 40
_cell_length_a 8.174831
_cell_length_b 24.402853
_cell_length_c 7.731724
_cell_angle_alpha 90.000000
_cell_angle_beta 90.000000
_cell_angle_gamma 90.000000
_cell_volume 1542.395429
_symmetry_space_group_name_H-M "P B A M"
_symmetry_group_IT_number 55
_symmetry_cell_setting 'orthorhombic'
loop_
_space_group_symop_operation_xyz
x,y,z
-x,-y,z
1/2+x,1/2-y,-z
1/2-x,1/2+y,-z
-x,-y,-z
x,y,-z
1/2-x,1/2+y,z
1/2+x,1/2-y,z
loop_
_atom_site_type_symbol
_atom_site_label
_atom_site_fract_x
_atom_site_fract_y
_atom_site_fract_z
Si Si1 0.842113 0.534203 0.288761
Si Si2 0.162896 0.069451 0.710706
Si Si3 0.336221 0.364494 0.708494
Si Si4 0.865272 0.331443 0.304521
Si Si5 0.053933 0.230010 0.192665
O O1 0.845320 0.536704 0.500000
O O2 0.696783 0.492551 0.237783
O O3 0.812368 0.596616 0.232655
O O4 0.000000 0.500000 0.234193
O O5 0.169648 0.070124 0.500000
O O6 0.305321 0.110994 0.772314
O O7 0.992706 0.097415 0.754648
O O8 0.329108 0.357784 0.500000
O O9 0.388874 0.306283 0.784014
O O10 0.920308 0.341875 0.500000
O O11 0.000426 0.292138 0.223362
O O12 0.695434 0.296070 0.309319
O O13 0.116926 0.222504 0.000000
#
# Coordination Sequence:
#
# PCOD9427129 Si02
#       5
#     8   8   8   8   8
#     4   9  16  26  45  76 105 127 163 219 272 310
#     4   8  15  28  47  71  98 131 171 215 259 308
#     4   9  17  31  51  72  99 137 176 211 255 317
#     4  10  20  36  57  79 105 141 185 224 264 320
#     4  11  22  36  54  79 111 142 177 223 274 320
#
# _framework density 25.933689000000001
#
# number of rings (size 3 to 8) (size 9 to 14) (size 15 to 20)
#    0.000    2.600    0.000    4.200    0.000    4.000 
#    0.000    4.000    0.000   11.400    0.000    0.000 
#    0.000    0.000    0.000    0.000    0.000    0.000 
#
# Total GULP energy -223611.446255 kJ/mol
# GULP energy per Si atom -5590.286156 kJ/mol
# Density = 2.587466 g / cm^3
# Si number density = 25.933689 Si / 1000 Ang^3
#
#
#
# Elastic Constant Matrix: (Units=GPa)
#
#
# Indices 1 2 3 4 5 6 
#
# 1 75.9227 9.1077 -4.5259 0.0000 0.0000 0.0000
# 2 9.1077 160.5114 1.3928 0.0000 0.0000 0.0000
# 3 -4.5259 1.3928 55.9894 0.0000 0.0000 0.0000
# 4 0.0000 0.0000 0.0000 93.2309 0.0000 0.0000
# 5 0.0000 0.0000 0.0000 0.0000 0.3249 0.0000
# 6 0.0000 0.0000 0.0000 0.0000 0.0000 50.0230
#
#
#
# Elastic Compliance Matrix: (Units=1/GPa)
#
#
# Indices 1 2 3 4 5 6 
#
# 1 0.013329 -0.000766 0.001096 0.000000 0.000000 0.000000
# 2 -0.000766 0.006275 -0.000218 0.000000 0.000000 0.000000
# 3 0.001096 -0.000218 0.017955 0.000000 0.000000 0.000000
# 4 0.000000 0.000000 0.000000 0.010726 0.000000 0.000000
# 5 0.000000 0.000000 0.000000 0.000000 3.077667 0.000000
# 6 0.000000 0.000000 0.000000 0.000000 0.000000 0.019991
#
#
# Mechanical properties :
#
#
# Convention : Reuss Voigt Hill
#
# Bulk Modulus (GPa) = 26.46635 33.81919 30.14277
# Shear Modulus (GPa) = 1.58312 47.81236 24.69774
#
# Velocity S-wave (km/s) = 0.78216 4.29842 3.08935
# Velocity P-wave (km/s) = 3.32314 6.14037 4.93697
#
# Compressibility (1/GPa) = 0.03778383
#
# Stress axis : x y z
#
# Youngs Moduli (GPa) = 75.02712 159.35158 55.69611
#
# Poissons Ratio (x) = 0.12203 -0.06107
# Poissons Ratio (y) = 0.05746 0.01214
# Poissons Ratio (z) = -0.08226 0.03474
#
# Static dielectric constant tensor:
#      x y z
#    x 2.142030 0.000000 0.000000 
#    y 0.000000 2.012140 0.000000 
#    z 0.000000 0.000000 1.994280 
# 
# From -- ./inp_files/2286.got.cif
#   From: 2010.05.17/outbox.cif.g08.bks.cpg/sg55_2_cif.got.tgz:2286.got - 2010.06.03 13:27:54.
