data_PCOD9427022
_publ_section_title
;
Structure prediction by ZEFSAII (Michael W. Deem and Ramdas Pophale) SiO2 
 PCOD9427022
Probable space group: P B A M
;
_chemical_formula_sum "Si O2"
_cell_formula_units_Z 64
_cell_length_a 24.299281
_cell_length_b 15.933376
_cell_length_c 7.828298
_cell_angle_alpha 90.000000
_cell_angle_beta 90.000000
_cell_angle_gamma 90.000000
_cell_volume 3030.878854
_symmetry_space_group_name_H-M "P B A M"
_symmetry_group_IT_number 55
_symmetry_cell_setting 'orthorhombic'
loop_
_space_group_symop_operation_xyz
x,y,z
-x,-y,z
1/2+x,1/2-y,-z
1/2-x,1/2+y,-z
-x,-y,-z
x,y,-z
1/2-x,1/2+y,z
1/2+x,1/2-y,z
loop_
_atom_site_type_symbol
_atom_site_label
_atom_site_fract_x
_atom_site_fract_y
_atom_site_fract_z
Si Si1 0.257346 0.584579 0.800686
Si Si2 0.865907 0.171095 0.206705
Si Si3 0.373816 0.641493 0.302239
Si Si4 0.436931 0.990158 0.290749
Si Si5 0.872548 0.673806 0.703890
Si Si6 0.639951 0.856612 0.297362
Si Si7 0.940183 0.019247 0.800001
Si Si8 0.246946 0.391664 0.206555
O O1 0.308275 0.627386 0.707889
O O2 0.200256 0.633236 0.782720
O O3 0.247958 0.489201 0.738494
O O4 0.272786 0.580202 0.000000
O O5 0.882470 0.264243 0.259792
O O6 0.906465 0.098288 0.271853
O O7 0.803502 0.151391 0.265095
O O8 0.864853 0.167342 0.000000
O O9 0.390902 0.638730 0.500000
O O10 0.386274 0.733603 0.228319
O O11 0.403138 0.563701 0.212859
O O12 0.436388 0.989626 0.500000
O O13 0.409109 0.903529 0.231051
O O14 0.500000 0.000000 0.236954
O O15 0.399761 0.068941 0.235599
O O16 0.880721 0.677669 0.500000
O O17 0.808655 0.652343 0.734069
O O18 0.646517 0.866671 0.500000
O O19 0.948737 0.039239 0.000000
O O20 0.000000 0.000000 0.723485
O O21 0.246163 0.390581 0.000000
#
# Coordination Sequence:
#
# PCOD9427022 Si02
#       8
#     8   8   8   8   8   8   8   8
#     4  11  21  37  60  85 118 155 191 236 290 353
#     4  10  21  39  59  84 116 152 192 236 290 348
#     4  11  23  37  59  90 120 151 192 244 296 345
#     4   9  19  37  58  79 110 152 192 231 280 340
#     4  10  21  37  57  84 116 149 187 235 288 345
#     4  11  22  36  59  90 116 150 195 239 293 348
#     4  10  22  42  64  84 114 159 204 243 291 351
#     4  10  20  35  58  84 111 150 190 230 286 346
#
# _framework density 21.115988000000002
#
# number of rings (size 3 to 8) (size 9 to 14) (size 15 to 20)
#    0.000    1.750    2.500    1.875    0.000    5.750 
#    0.000    1.250    0.000    3.375    0.000    0.000 
#    0.000    0.000    0.000    0.000    0.000    0.000 
#
# Total GULP energy -357675.531624 kJ/mol
# GULP energy per Si atom -5588.680182 kJ/mol
# Density = 2.106793 g / cm^3
# Si number density = 21.115988 Si / 1000 Ang^3
#
#
#
# Elastic Constant Matrix: (Units=GPa)
#
#
# Indices 1 2 3 4 5 6 
#
# 1 112.0226 41.3990 -9.6194 0.0000 0.0000 0.0000
# 2 41.3990 155.7918 -9.1164 0.0000 0.0000 0.0000
# 3 -9.6194 -9.1164 24.7181 0.0000 0.0000 0.0000
# 4 0.0000 0.0000 0.0000 12.6377 0.0000 0.0000
# 5 0.0000 0.0000 0.0000 0.0000 14.8753 0.0000
# 6 0.0000 0.0000 0.0000 0.0000 0.0000 -3.0565
#
#
#
# Elastic Compliance Matrix: (Units=1/GPa)
#
#
# Indices 1 2 3 4 5 6 
#
# 1 0.010113 -0.002511 0.003010 0.000000 0.000000 0.000000
# 2 -0.002511 0.007184 0.001672 0.000000 0.000000 0.000000
# 3 0.003010 0.001672 0.042244 0.000000 0.000000 0.000000
# 4 0.000000 0.000000 0.000000 0.079128 0.000000 0.000000
# 5 0.000000 0.000000 0.000000 0.000000 0.067226 0.000000
# 6 0.000000 0.000000 0.000000 0.000000 0.000000 -0.327175
#
#
# Mechanical properties :
#
#
# Convention : Reuss Voigt Hill
#
# Bulk Modulus (GPa) = 15.65377 37.53987 26.59682
# Shear Modulus (GPa) = -47.92629 22.88259 -12.52185
#
# Velocity S-wave (km/s) = -4.76927 3.29547 -2.43781
# Velocity P-wave (km/s) = 4.78525 5.68302 2.16773
#
# Compressibility (1/GPa) = 0.06388237
#
# Stress axis : x y z
#
# Youngs Moduli (GPa) = 98.87988 139.19788 23.67191
#
# Poissons Ratio (x) = 0.34957 -0.07124
# Poissons Ratio (y) = 0.24832 -0.03959
# Poissons Ratio (z) = -0.29758 -0.23277
#
# Static dielectric constant tensor:
#      x y z
#    x 1.723450 0.000000 0.000000 
#    y 0.000000 1.760420 0.000000 
#    z 0.000000 0.000000 1.789160 
# 
# From -- ./inp_files/9020.got.cif
#   From: 2010.05.17/outbox.cif.g08.bks.cpg/sg55_5_cif.got.tgz:9020.got - 2010.06.03 13:27:54.
