data_PCOD9427910
_publ_section_title
;
Structure prediction by ZEFSAII (Michael W. Deem and Ramdas Pophale) SiO2 
 PCOD9427910
Probable space group: P B A M
;
_chemical_formula_sum "Si O2"
_cell_formula_units_Z 38
_cell_length_a 5.047729
_cell_length_b 10.732050
_cell_length_c 27.442927
_cell_angle_alpha 90.000000
_cell_angle_beta 90.000000
_cell_angle_gamma 90.000000
_cell_volume 1486.651414
_symmetry_space_group_name_H-M "P B A M"
_symmetry_group_IT_number 55
_symmetry_cell_setting 'orthorhombic'
loop_
_space_group_symop_operation_xyz
x,y,z
-x,-y,z
1/2+x,1/2-y,-z
1/2-x,1/2+y,-z
-x,-y,-z
x,y,-z
1/2-x,1/2+y,z
1/2+x,1/2-y,z
loop_
_atom_site_type_symbol
_atom_site_label
_atom_site_fract_x
_atom_site_fract_y
_atom_site_fract_z
Si Si1 0.500000 0.500000 0.664311
Si Si2 0.250182 0.411212 0.051323
Si Si3 0.665642 0.680761 0.159569
Si Si4 0.500000 0.000000 0.500000
Si Si5 0.185727 0.162206 0.422929
Si Si6 0.191492 0.336606 0.738658
O O1 0.649820 0.400282 0.629827
O O2 0.285733 0.430841 0.697689
O O3 0.500000 0.500000 0.049125
O O4 0.266983 0.351267 0.104154
O O5 0.000000 0.500000 0.051558
O O6 0.243156 0.335813 0.000000
O O7 0.351879 0.696578 0.164697
O O8 0.762843 0.606915 0.207077
O O9 0.704451 0.944654 0.458041
O O10 0.402033 0.271918 0.431270
O O11 0.400740 0.221266 0.734824
#
# Coordination Sequence:
#
# PCOD9427910 Si02
#       6
#     4   8   8   2   8   8
#     4  12  26  47  78 110 151 212 242 302 394 416
#     4  10  21  36  57  87 122 163 217 282 352 433
#     4  10  21  39  60  88 125 168 223 288 352 420
#     4  12  28  54  84 114 152 210 236 286 390 402
#     4  12  28  49  78 117 157 195 256 311 351 445
#     4  10  24  44  65 100 142 183 246 305 355 441
#
# _framework density 25.560801000000001
#
# number of rings (size 3 to 8) (size 9 to 14) (size 15 to 20)
#    0.000    1.263    0.000    4.421    1.474    8.000 
#    0.000    0.000    0.000    0.000    0.000    0.000 
#    0.000    0.000    0.000    0.000    0.000    0.000 
#
# Total GULP energy -211988.788798 kJ/mol
# GULP energy per Si atom -5578.652337 kJ/mol
# Density = 2.550262 g / cm^3
# Si number density = 25.560801 Si / 1000 Ang^3
#
#
#
# Elastic Constant Matrix: (Units=GPa)
#
#
# Indices 1 2 3 4 5 6 
#
# 1 143.1344 35.0882 20.9403 0.0000 0.0000 0.0000
# 2 35.0882 57.9802 27.9170 0.0000 0.0000 0.0000
# 3 20.9403 27.9170 186.1015 0.0000 0.0000 0.0000
# 4 0.0000 0.0000 0.0000 100.0011 0.0000 0.0000
# 5 0.0000 0.0000 0.0000 0.0000 45.2940 0.0000
# 6 0.0000 0.0000 0.0000 0.0000 0.0000 57.2071
#
#
#
# Elastic Compliance Matrix: (Units=1/GPa)
#
#
# Indices 1 2 3 4 5 6 
#
# 1 0.008210 -0.004876 -0.000192 0.000000 0.000000 0.000000
# 2 -0.004876 0.021486 -0.002674 0.000000 0.000000 0.000000
# 3 -0.000192 -0.002674 0.005796 0.000000 0.000000 0.000000
# 4 0.000000 0.000000 0.000000 0.010000 0.000000 0.000000
# 5 0.000000 0.000000 0.000000 0.000000 0.022078 0.000000
# 6 0.000000 0.000000 0.000000 0.000000 0.000000 0.017480
#
#
# Mechanical properties :
#
#
# Convention : Reuss Voigt Hill
#
# Bulk Modulus (GPa) = 49.98345 61.67857 55.83101
# Shear Modulus (GPa) = 46.64006 60.71846 53.67926
#
# Velocity S-wave (km/s) = 4.27625 4.87915 4.58761
# Velocity P-wave (km/s) = 6.63166 7.47823 7.06763
#
# Compressibility (1/GPa) = 0.02000662
#
# Stress axis : x y z
#
# Youngs Moduli (GPa) = 121.80518 46.54268 172.52540
#
# Poissons Ratio (x) = 0.22693 0.03319
# Poissons Ratio (y) = 0.59389 0.46141
# Poissons Ratio (z) = 0.02343 0.12448
#
# Static dielectric constant tensor:
#      x y z
#    x 1.951340 0.000000 0.000000 
#    y 0.000000 2.091070 0.000000 
#    z 0.000000 0.000000 2.057170 
# 
# From -- ./inp_files/23748.got.cif
#   From: 2010.05.17/outbox.cif.g08.bks.cpg/sg55_12_cif.got.tgz:23748.got - 2010.06.03 13:27:54.
