data_PCOD9427654
_publ_section_title
;
Structure prediction by ZEFSAII (Michael W. Deem and Ramdas Pophale) SiO2 
 PCOD9427654
Probable space group: P B A M
;
_chemical_formula_sum "Si O2"
_cell_formula_units_Z 64
_cell_length_a 24.410213
_cell_length_b 14.046769
_cell_length_c 7.739549
_cell_angle_alpha 90.000000
_cell_angle_beta 90.000000
_cell_angle_gamma 90.000000
_cell_volume 2653.772343
_symmetry_space_group_name_H-M "P B A M"
_symmetry_group_IT_number 55
_symmetry_cell_setting 'orthorhombic'
loop_
_space_group_symop_operation_xyz
x,y,z
-x,-y,z
1/2+x,1/2-y,-z
1/2-x,1/2+y,-z
-x,-y,-z
x,y,-z
1/2-x,1/2+y,z
1/2+x,1/2-y,z
loop_
_atom_site_type_symbol
_atom_site_label
_atom_site_fract_x
_atom_site_fract_y
_atom_site_fract_z
Si Si1 0.337837 0.299450 0.795837
Si Si2 0.350198 0.746626 0.302763
Si Si3 0.262939 0.900384 0.296960
Si Si4 0.065643 0.585207 0.794040
Si Si5 0.452609 0.369508 0.200717
Si Si6 0.574130 0.416033 0.295463
Si Si7 0.688538 0.897329 0.791367
Si Si8 0.546150 0.139685 0.794022
O O1 0.298263 0.388339 0.771919
O O2 0.399112 0.314791 0.724618
O O3 0.299550 0.210729 0.735178
O O4 0.345977 0.284311 0.000000
O O5 0.333490 0.725274 0.500000
O O6 0.305710 0.820375 0.223007
O O7 0.374687 0.647479 0.226756
O O8 0.406157 0.807548 0.303074
O O9 0.261640 0.883882 0.500000
O O10 0.282304 0.008318 0.270751
O O11 0.125873 0.600112 0.728689
O O12 0.055248 0.473242 0.775067
O O13 0.015962 0.649443 0.728496
O O14 0.066354 0.602780 0.000000
O O15 0.514337 0.365153 0.274870
O O16 0.434214 0.480656 0.212158
O O17 0.458540 0.342853 0.000000
O O18 0.582581 0.430050 0.500000
O O19 0.691563 0.903250 0.000000
O O20 0.550186 0.161921 0.000000
#
# Coordination Sequence:
#
# PCOD9427654 Si02
#       8
#     8   8   8   8   8   8   8   8
#     4  10  24  42  64  91 118 154 201 256 310 361
#     4  10  22  37  53  82 120 158 197 239 288 347
#     4  11  24  42  61  85 123 163 204 251 299 361
#     4   8  15  28  50  81 113 146 183 225 276 338
#     4  10  21  40  63  91 120 148 198 260 308 355
#     4  10  21  38  61  88 124 166 200 239 301 366
#     4  10  20  39  63  87 117 152 193 246 302 356
#     4   9  16  28  51  81 112 150 189 224 277 338
#
# _framework density 24.116612
#
# number of rings (size 3 to 8) (size 9 to 14) (size 15 to 20)
#    0.000    2.250    1.250    2.625    1.750    4.000 
#    0.000    4.375    0.000    0.000    0.000    0.000 
#    0.000    0.000    0.000    0.000    0.000    0.000 
#
# Total GULP energy -356950.166549 kJ/mol
# GULP energy per Si atom -5577.346352 kJ/mol
# Density = 2.406172 g / cm^3
# Si number density = 24.116612 Si / 1000 Ang^3
#
#
#
# Elastic Constant Matrix: (Units=GPa)
#
#
# Indices 1 2 3 4 5 6 
#
# 1 76.7304 30.7601 -15.2902 0.0000 0.0000 0.0000
# 2 30.7601 87.9134 -1.4016 0.0000 0.0000 0.0000
# 3 -15.2902 -1.4016 32.4423 0.0000 0.0000 0.0000
# 4 0.0000 0.0000 0.0000 13.4507 0.0000 0.0000
# 5 0.0000 0.0000 0.0000 0.0000 25.2687 0.0000
# 6 0.0000 0.0000 0.0000 0.0000 0.0000 36.1628
#
#
#
# Elastic Compliance Matrix: (Units=1/GPa)
#
#
# Indices 1 2 3 4 5 6 
#
# 1 0.016889 -0.005786 0.007710 0.000000 0.000000 0.000000
# 2 -0.005786 0.013365 -0.002150 0.000000 0.000000 0.000000
# 3 0.007710 -0.002150 0.034365 0.000000 0.000000 0.000000
# 4 0.000000 0.000000 0.000000 0.074345 0.000000 0.000000
# 5 0.000000 0.000000 0.000000 0.000000 0.039575 0.000000
# 6 0.000000 0.000000 0.000000 0.000000 0.000000 0.027653
#
#
# Mechanical properties :
#
#
# Convention : Reuss Voigt Hill
#
# Bulk Modulus (GPa) = 15.58460 25.02474 20.30467
# Shear Modulus (GPa) = 21.92673 27.17764 24.55218
#
# Velocity S-wave (km/s) = 3.01856 3.36061 3.19417
# Velocity P-wave (km/s) = 4.31569 5.04553 4.69481
#
# Compressibility (1/GPa) = 0.06416590
#
# Stress axis : x y z
#
# Youngs Moduli (GPa) = 59.21159 74.82165 29.09966
#
# Poissons Ratio (x) = 0.43294 -0.22435
# Poissons Ratio (y) = 0.34261 0.06255
# Poissons Ratio (z) = -0.45650 0.16084
#
# Static dielectric constant tensor:
#      x y z
#    x 1.953750 0.000000 0.000000 
#    y 0.000000 1.987530 0.000000 
#    z 0.000000 0.000000 1.913950 
# 
# From -- ./inp_files/9743.got.cif
#   From: 2010.05.17/outbox.cif.g08.bks.cpg/sg55_5_cif.got.tgz:9743.got - 2010.06.03 13:27:54.
