data_PCOD9427977
_publ_section_title
;
Structure prediction by ZEFSAII (Michael W. Deem and Ramdas Pophale) SiO2 
 PCOD9427977
Probable space group: P B A M
;
_chemical_formula_sum "Si O2"
_cell_formula_units_Z 64
_cell_length_a 14.079594
_cell_length_b 16.453435
_cell_length_c 14.310281
_cell_angle_alpha 90.000000
_cell_angle_beta 90.000000
_cell_angle_gamma 90.000000
_cell_volume 3315.086564
_symmetry_space_group_name_H-M "P B A M"
_symmetry_group_IT_number 55
_symmetry_cell_setting 'orthorhombic'
loop_
_space_group_symop_operation_xyz
x,y,z
-x,-y,z
1/2+x,1/2-y,-z
1/2-x,1/2+y,-z
-x,-y,-z
x,y,-z
1/2-x,1/2+y,z
1/2+x,1/2-y,z
loop_
_atom_site_type_symbol
_atom_site_label
_atom_site_fract_x
_atom_site_fract_y
_atom_site_fract_z
Si Si1 0.503459 0.229151 0.393581
Si Si2 0.730682 0.897340 0.750876
Si Si3 0.892429 0.018472 0.785802
Si Si4 0.101267 0.532217 0.107260
Si Si5 0.855764 0.122804 0.391103
Si Si6 0.244613 0.378955 0.107218
Si Si7 0.197437 0.279221 0.713598
Si Si8 0.409267 0.053194 0.392478
O O1 0.542158 0.232141 0.500000
O O2 0.434451 0.305799 0.381508
O O3 0.590067 0.226707 0.321962
O O4 0.442865 0.146609 0.386245
O O5 0.755397 0.809539 0.711888
O O6 0.682444 0.954409 0.672082
O O7 0.825809 0.939167 0.788773
O O8 0.650203 0.898669 0.830888
O O9 0.886299 0.052544 0.680087
O O10 0.843273 0.085444 0.852386
O O11 0.000000 0.000000 0.811193
O O12 0.172247 0.455337 0.109728
O O13 0.000000 0.500000 0.142143
O O14 0.089166 0.558512 0.000000
O O15 0.849637 0.099719 0.500000
O O16 0.757153 0.160784 0.353493
O O17 0.207225 0.313608 0.181481
O O18 0.251989 0.351203 0.000000
O O19 0.387707 0.032854 0.500000
O O20 0.500000 0.000000 0.363768
#
# Coordination Sequence:
#
# PCOD9427977 Si02
#       8
#     8   8   8   8   8   8   8   8
#     4  10  21  37  57  81 115 155 193 234 286 342
#     4  11  22  36  59  85 115 152 191 244 286 345
#     4  10  22  39  59  84 113 153 201 243 291 347
#     4   9  19  36  59  86 113 144 184 235 298 354
#     4  10  21  38  56  80 116 153 193 240 289 343
#     4   9  21  39  59  85 114 150 191 241 295 350
#     4  11  22  35  58  83 113 152 192 237 287 351
#     4  10  22  36  55  86 118 150 191 235 286 348
#
# _framework density 19.305679999999999
#
# number of rings (size 3 to 8) (size 9 to 14) (size 15 to 20)
#    0.000    2.000    1.250    1.500    7.000    2.000 
#    0.000    0.000    0.000    7.500    0.000    0.000 
#    0.000    0.000    0.000    0.000    0.000    0.000 
#
# Total GULP energy -357395.059142 kJ/mol
# GULP energy per Si atom -5584.297799 kJ/mol
# Density = 1.926174 g / cm^3
# Si number density = 19.305680 Si / 1000 Ang^3
#
#
#
# Elastic Constant Matrix: (Units=GPa)
#
#
# Indices 1 2 3 4 5 6 
#
# 1 86.3182 -8.3977 30.8157 0.0000 0.0000 0.0000
# 2 -8.3977 20.6968 -4.7496 0.0000 0.0000 0.0000
# 3 30.8157 -4.7496 107.6298 0.0000 0.0000 0.0000
# 4 0.0000 0.0000 0.0000 19.7306 0.0000 0.0000
# 5 0.0000 0.0000 0.0000 0.0000 -7.0138 0.0000
# 6 0.0000 0.0000 0.0000 0.0000 0.0000 15.5562
#
#
#
# Elastic Compliance Matrix: (Units=1/GPa)
#
#
# Indices 1 2 3 4 5 6 
#
# 1 0.013320 0.004576 -0.003612 0.000000 0.000000 0.000000
# 2 0.004576 0.050383 0.000913 0.000000 0.000000 0.000000
# 3 -0.003612 0.000913 0.010365 0.000000 0.000000 0.000000
# 4 0.000000 0.000000 0.000000 0.050683 0.000000 0.000000
# 5 0.000000 0.000000 0.000000 0.000000 -0.142577 0.000000
# 6 0.000000 0.000000 0.000000 0.000000 0.000000 0.064283
#
#
# Mechanical properties :
#
#
# Convention : Reuss Voigt Hill
#
# Bulk Modulus (GPa) = 12.84981 27.77574 20.31277
# Shear Modulus (GPa) = 72.84102 18.78638 45.81370
#
# Velocity S-wave (km/s) = 6.14917 3.12284 4.87670
# Velocity P-wave (km/s) = 7.55558 5.23655 6.50032
#
# Compressibility (1/GPa) = 0.07782217
#
# Stress axis : x y z
#
# Youngs Moduli (GPa) = 75.07758 19.84809 96.47426
#
# Poissons Ratio (x) = -0.09082 0.34843
# Poissons Ratio (y) = -0.34352 -0.08811
# Poissons Ratio (z) = 0.27115 -0.01813
#
# Static dielectric constant tensor:
#      x y z
#    x 1.679010 0.000000 0.000000 
#    y 0.000000 1.666880 0.000000 
#    z 0.000000 0.000000 1.692530 
# 
# From -- ./inp_files/18555.got.cif
#   From: 2010.05.17/outbox.cif.g08.bks.cpg/sg55_10_cif.got.tgz:18555.got - 2010.06.03 13:27:54.
