data_PCOD9427703
_publ_section_title
;
Structure prediction by ZEFSAII (Michael W. Deem and Ramdas Pophale) SiO2 
 PCOD9427703
Probable space group: P B A M
;
_chemical_formula_sum "Si O2"
_cell_formula_units_Z 32
_cell_length_a 10.085910
_cell_length_b 9.701173
_cell_length_c 11.308192
_cell_angle_alpha 90.000000
_cell_angle_beta 90.000000
_cell_angle_gamma 90.000000
_cell_volume 1106.451830
_symmetry_space_group_name_H-M "P B A M"
_symmetry_group_IT_number 55
_symmetry_cell_setting 'orthorhombic'
loop_
_space_group_symop_operation_xyz
x,y,z
-x,-y,z
1/2+x,1/2-y,-z
1/2-x,1/2+y,-z
-x,-y,-z
x,y,-z
1/2-x,1/2+y,z
1/2+x,1/2-y,z
loop_
_atom_site_type_symbol
_atom_site_label
_atom_site_fract_x
_atom_site_fract_y
_atom_site_fract_z
Si Si1 0.294775 0.427700 0.000000
Si Si2 0.588167 0.842810 0.000000
Si Si3 0.930213 0.678329 0.500000
Si Si4 0.696295 0.473576 0.500000
Si Si5 0.194131 0.026349 0.754303
Si Si6 0.428651 0.820442 0.242440
O O1 0.288930 0.264177 0.000000
O O2 0.362172 0.469904 0.122737
O O3 0.155752 0.508240 0.000000
O O4 0.512110 0.815143 0.122444
O O5 0.843363 0.538275 0.500000
O O6 0.998671 0.687887 0.628520
O O7 0.826956 0.808915 0.500000
O O8 0.640106 0.521749 0.373380
O O9 0.340639 0.959286 0.755759
O O10 0.172119 0.189781 0.758448
#
# Coordination Sequence:
#
# PCOD9427703 Si02
#       6
#     4   4   4   4   8   8
#     4  12  26  46  66  92 132 182 242 294 342 400
#     4  12  28  48  68  92 130 182 238 294 346 400
#     4   8  16  34  62  98 138 178 216 258 326 414
#     4   8  16  32  62  98 138 180 208 254 330 414
#     4  10  20  40  68 104 142 174 216 270 340 424
#     4  10  21  40  69 104 141 178 218 272 340 416
#
# _framework density 28.921279999999999
#
# number of rings (size 3 to 8) (size 9 to 14) (size 15 to 20)
#    0.000    2.000    0.000    3.000    0.000    4.000 
#    0.000    5.000    0.000    9.000    0.000    0.000 
#    0.000    0.000    0.000    0.000    0.000    0.000 
#
# Total GULP energy -178992.735083 kJ/mol
# GULP energy per Si atom -5593.522971 kJ/mol
# Density = 2.885545 g / cm^3
# Si number density = 28.921280 Si / 1000 Ang^3
#
#
#
# Elastic Constant Matrix: (Units=GPa)
#
#
# Indices 1 2 3 4 5 6 
#
# 1 99.0624 35.6830 73.2643 0.0000 0.0000 0.0000
# 2 35.6830 163.0797 65.1711 0.0000 0.0000 0.0000
# 3 73.2643 65.1711 399.1316 0.0000 0.0000 0.0000
# 4 0.0000 0.0000 0.0000 18.6895 0.0000 0.0000
# 5 0.0000 0.0000 0.0000 0.0000 -61.8059 0.0000
# 6 0.0000 0.0000 0.0000 0.0000 0.0000 60.9347
#
#
#
# Elastic Compliance Matrix: (Units=1/GPa)
#
#
# Indices 1 2 3 4 5 6 
#
# 1 0.012207 -0.001899 -0.001930 0.000000 0.000000 0.000000
# 2 -0.001899 0.006856 -0.000771 0.000000 0.000000 0.000000
# 3 -0.001930 -0.000771 0.002986 0.000000 0.000000 0.000000
# 4 0.000000 0.000000 0.000000 0.053506 0.000000 0.000000
# 5 0.000000 0.000000 0.000000 0.000000 -0.016180 0.000000
# 6 0.000000 0.000000 0.000000 0.000000 0.000000 0.016411
#
#
# Mechanical properties :
#
#
# Convention : Reuss Voigt Hill
#
# Bulk Modulus (GPa) = 77.84208 112.16783 95.00495
# Shear Modulus (GPa) = 56.01071 36.04068 46.02569
#
# Velocity S-wave (km/s) = 4.40553 3.53394 3.99358
# Velocity P-wave (km/s) = 7.26992 7.45115 7.36109
#
# Compressibility (1/GPa) = 0.01284652
#
# Stress axis : x y z
#
# Youngs Moduli (GPa) = 81.92308 145.86647 334.93585
#
# Poissons Ratio (x) = 0.27706 0.64659
# Poissons Ratio (y) = 0.15561 0.25815
# Poissons Ratio (z) = 0.15815 0.11243
#
# Static dielectric constant tensor:
#      x y z
#    x 2.220720 0.000000 0.000000 
#    y 0.000000 2.175960 0.000000 
#    z 0.000000 0.000000 2.233660 
# 
# From -- ./inp_files/11701.got.cif
#   From: 2010.05.17/outbox.cif.g08.bks.cpg/sg55_6_cif.got.tgz:11701.got - 2010.06.03 13:27:54.
