data_PCOD9427149
_publ_section_title
;
Structure prediction by ZEFSAII (Michael W. Deem and Ramdas Pophale) SiO2 
 PCOD9427149
Probable space group: P B A M
;
_chemical_formula_sum "Si O2"
_cell_formula_units_Z 58
_cell_length_a 15.345192
_cell_length_b 23.672286
_cell_length_c 8.855225
_cell_angle_alpha 90.000000
_cell_angle_beta 90.000000
_cell_angle_gamma 90.000000
_cell_volume 3216.711609
_symmetry_space_group_name_H-M "P B A M"
_symmetry_group_IT_number 55
_symmetry_cell_setting 'orthorhombic'
loop_
_space_group_symop_operation_xyz
x,y,z
-x,-y,z
1/2+x,1/2-y,-z
1/2-x,1/2+y,-z
-x,-y,-z
x,y,-z
1/2-x,1/2+y,z
1/2+x,1/2-y,z
loop_
_atom_site_type_symbol
_atom_site_label
_atom_site_fract_x
_atom_site_fract_y
_atom_site_fract_z
Si Si1 0.000000 0.500000 0.500000
Si Si2 0.124179 0.028992 0.818902
Si Si3 0.052410 0.920909 0.681205
Si Si4 0.923549 0.209917 0.680412
Si Si5 0.766439 0.761712 0.319908
Si Si6 0.543610 0.887023 0.666711
Si Si7 0.731127 0.880696 0.180453
Si Si8 0.065654 0.292273 0.820353
O O1 0.986253 0.450217 0.371170
O O2 0.209835 0.065013 0.781750
O O3 0.040503 0.061978 0.752548
O O4 0.119791 0.966799 0.746995
O O5 0.115844 0.025114 0.000000
O O6 0.048015 0.926828 0.500000
O O7 0.075054 0.856457 0.718549
O O8 0.939502 0.214337 0.500000
O O9 0.829632 0.237249 0.713208
O O10 0.997856 0.243899 0.767714
O O11 0.777659 0.763647 0.500000
O O12 0.772252 0.824483 0.252254
O O13 0.840938 0.723169 0.248089
O O14 0.559088 0.859728 0.500000
O O15 0.634282 0.886587 0.754930
O O16 0.472568 0.850186 0.753067
O O17 0.729130 0.874553 0.000000
O O18 0.069592 0.294538 0.000000
#
# Coordination Sequence:
#
# PCOD9427149 Si02
#       8
#     2   8   8   8   8   8   8   8
#     4   8  24  44  70  88 112 162 218 262 312 368
#     4  10  21  36  55  82 120 159 198 244 305 375
#     4  10  20  36  57  84 118 155 204 250 301 364
#     4  10  22  40  61  90 121 160 204 252 309 378
#     4  11  23  39  62  93 125 166 210 255 311 384
#     4  10  21  43  66  88 116 162 210 259 312 374
#     4  11  22  38  62  95 125 158 210 264 317 379
#     4  12  24  39  64  94 130 165 201 263 326 386
#
# _framework density 18.030835
#
# number of rings (size 3 to 8) (size 9 to 14) (size 15 to 20)
#    0.414    1.103    1.379    4.966    0.000    6.069 
#    2.483    1.379    0.000    0.000    0.000    0.000 
#    0.000    0.000    0.000    0.000    0.000    0.000 
#
# Total GULP energy -323406.171667 kJ/mol
# GULP energy per Si atom -5575.968477 kJ/mol
# Density = 1.798980 g / cm^3
# Si number density = 18.030835 Si / 1000 Ang^3
#
#
#
# Elastic Constant Matrix: (Units=GPa)
#
#
# Indices 1 2 3 4 5 6 
#
# 1 33.0900 6.5458 16.7815 0.0000 0.0000 0.0000
# 2 6.5458 104.9209 21.8935 0.0000 0.0000 0.0000
# 3 16.7815 21.8935 65.6050 0.0000 0.0000 0.0000
# 4 0.0000 0.0000 0.0000 19.0196 0.0000 0.0000
# 5 0.0000 0.0000 0.0000 0.0000 35.7343 0.0000
# 6 0.0000 0.0000 0.0000 0.0000 0.0000 28.0488
#
#
#
# Elastic Compliance Matrix: (Units=1/GPa)
#
#
# Indices 1 2 3 4 5 6 
#
# 1 0.034736 -0.000336 -0.008773 0.000000 0.000000 0.000000
# 2 -0.000336 0.010248 -0.003334 0.000000 0.000000 0.000000
# 3 -0.008773 -0.003334 0.018599 0.000000 0.000000 0.000000
# 4 0.000000 0.000000 0.000000 0.052577 0.000000 0.000000
# 5 0.000000 0.000000 0.000000 0.000000 0.027984 0.000000
# 6 0.000000 0.000000 0.000000 0.000000 0.000000 0.035652
#
#
# Mechanical properties :
#
#
# Convention : Reuss Voigt Hill
#
# Bulk Modulus (GPa) = 25.84195 32.67305 29.25750
# Shear Modulus (GPa) = 22.97974 27.12022 25.04998
#
# Velocity S-wave (km/s) = 3.57384 3.88248 3.73136
# Velocity P-wave (km/s) = 5.60295 6.18532 5.90132
#
# Compressibility (1/GPa) = 0.03869676
#
# Stress axis : x y z
#
# Youngs Moduli (GPa) = 28.78819 97.58363 53.76519
#
# Poissons Ratio (x) = 0.03283 0.47169
# Poissons Ratio (y) = 0.00969 0.17924
# Poissons Ratio (z) = 0.25256 0.32532
#
# Static dielectric constant tensor:
#      x y z
#    x 1.599320 0.000000 0.000000 
#    y 0.000000 1.609800 0.000000 
#    z 0.000000 0.000000 1.607230 
# 
# From -- ./inp_files/6479.got.cif
#   From: 2010.05.17/outbox.cif.g08.bks.cpg/sg55_4_cif.got.tgz:6479.got - 2010.06.03 13:27:54.
