data_PCOD9427719
_publ_section_title
;
Structure prediction by ZEFSAII (Michael W. Deem and Ramdas Pophale) SiO2 
 PCOD9427719
Probable space group: P B A M
;
_chemical_formula_sum "Si O2"
_cell_formula_units_Z 34
_cell_length_a 20.302508
_cell_length_b 8.835733
_cell_length_c 8.201045
_cell_angle_alpha 90.000000
_cell_angle_beta 90.000000
_cell_angle_gamma 90.000000
_cell_volume 1471.165287
_symmetry_space_group_name_H-M "P B A M"
_symmetry_group_IT_number 55
_symmetry_cell_setting 'orthorhombic'
loop_
_space_group_symop_operation_xyz
x,y,z
-x,-y,z
1/2+x,1/2-y,-z
1/2-x,1/2+y,-z
-x,-y,-z
x,y,-z
1/2-x,1/2+y,z
1/2+x,1/2-y,z
loop_
_atom_site_type_symbol
_atom_site_label
_atom_site_fract_x
_atom_site_fract_y
_atom_site_fract_z
Si Si1 0.534222 0.146699 0.813813
Si Si2 0.577454 0.596649 0.187118
Si Si3 0.000000 0.000000 0.500000
Si Si4 0.709309 0.792321 0.185427
Si Si5 0.826731 0.615400 0.683710
O O1 0.479347 0.274931 0.817211
O O2 0.602392 0.182265 0.728459
O O3 0.500000 0.000000 0.735170
O O4 0.551665 0.106810 0.000000
O O5 0.556921 0.509558 0.351842
O O6 0.646733 0.682213 0.208682
O O7 0.578007 0.526665 0.000000
O O8 0.769704 0.737914 0.294165
O O9 0.688273 0.965249 0.212105
O O10 0.732218 0.774442 0.000000
O O11 0.828851 0.559989 0.500000
#
# Coordination Sequence:
#
# PCOD9427719 Si02
#       5
#     8   8   2   8   8
#     4  10  20  41  71  99 127 170 230 278 333 408
#     4  10  24  44  71 101 135 183 233 281 343 422
#     4  12  26  40  70  94 148 176 224 280 358 396
#     4  11  24  47  71  96 136 187 232 283 348 414
#     4  12  26  41  69 105 140 175 232 290 349 417
#
# _framework density 23.110931999999998
#
# number of rings (size 3 to 8) (size 9 to 14) (size 15 to 20)
#    0.000    1.176    2.353    3.176    4.941    2.353 
#    0.000    2.353    0.000    0.000    0.000    0.000 
#    0.000    0.000    0.000    0.000    0.000    0.000 
#
# Total GULP energy -189521.272226 kJ/mol
# GULP energy per Si atom -5574.155065 kJ/mol
# Density = 2.305833 g / cm^3
# Si number density = 23.110932 Si / 1000 Ang^3
#
#
#
# Elastic Constant Matrix: (Units=GPa)
#
#
# Indices 1 2 3 4 5 6 
#
# 1 137.9402 17.7280 25.9519 0.0000 0.0000 0.0000
# 2 17.7280 40.3077 21.5520 0.0000 0.0000 0.0000
# 3 25.9519 21.5520 124.0366 0.0000 0.0000 0.0000
# 4 0.0000 0.0000 0.0000 18.7057 0.0000 0.0000
# 5 0.0000 0.0000 0.0000 0.0000 64.7719 0.0000
# 6 0.0000 0.0000 0.0000 0.0000 0.0000 34.9336
#
#
#
# Elastic Compliance Matrix: (Units=1/GPa)
#
#
# Indices 1 2 3 4 5 6 
#
# 1 0.007829 -0.002830 -0.001146 0.000000 0.000000 0.000000
# 2 -0.002830 0.028373 -0.004338 0.000000 0.000000 0.000000
# 3 -0.001146 -0.004338 0.009056 0.000000 0.000000 0.000000
# 4 0.000000 0.000000 0.000000 0.053460 0.000000 0.000000
# 5 0.000000 0.000000 0.000000 0.000000 0.015439 0.000000
# 6 0.000000 0.000000 0.000000 0.000000 0.000000 0.028626
#
#
# Mechanical properties :
#
#
# Convention : Reuss Voigt Hill
#
# Bulk Modulus (GPa) = 34.92956 48.08316 41.50636
# Shear Modulus (GPa) = 29.59383 39.48575 34.53979
#
# Velocity S-wave (km/s) = 3.58231 4.13792 3.87010
# Velocity P-wave (km/s) = 5.67955 6.60912 6.16189
#
# Compressibility (1/GPa) = 0.02862905
#
# Stress axis : x y z
#
# Youngs Moduli (GPa) = 127.73131 35.24432 110.42804
#
# Poissons Ratio (x) = 0.09976 0.12658
# Poissons Ratio (y) = 0.36153 0.47901
# Poissons Ratio (z) = 0.14641 0.15288
#
# Static dielectric constant tensor:
#      x y z
#    x 1.823410 0.000000 0.000000 
#    y 0.000000 1.885600 0.000000 
#    z 0.000000 0.000000 1.858650 
# 
# From -- ./inp_files/8354.got.cif
#   From: 2010.05.17/outbox.cif.g08.bks.cpg/sg55_5_cif.got.tgz:8354.got - 2010.06.03 13:27:54.
