data_PCOD9427406
_publ_section_title
;
Structure prediction by ZEFSAII (Michael W. Deem and Ramdas Pophale) SiO2 
 PCOD9427406
Probable space group: P B A M
;
_chemical_formula_sum "Si O2"
_cell_formula_units_Z 64
_cell_length_a 35.128656
_cell_length_b 11.385703
_cell_length_c 8.772661
_cell_angle_alpha 90.000000
_cell_angle_beta 90.000000
_cell_angle_gamma 90.000000
_cell_volume 3508.752479
_symmetry_space_group_name_H-M "P B A M"
_symmetry_group_IT_number 55
_symmetry_cell_setting 'orthorhombic'
loop_
_space_group_symop_operation_xyz
x,y,z
-x,-y,z
1/2+x,1/2-y,-z
1/2-x,1/2+y,-z
-x,-y,-z
x,y,-z
1/2-x,1/2+y,z
1/2+x,1/2-y,z
loop_
_atom_site_type_symbol
_atom_site_label
_atom_site_fract_x
_atom_site_fract_y
_atom_site_fract_z
Si Si1 0.276099 0.648176 0.184430
Si Si2 0.930898 0.740085 0.319468
Si Si3 0.080797 0.745979 0.824348
Si Si4 0.351547 0.363659 0.321145
Si Si5 0.268550 0.381757 0.183762
Si Si6 0.990665 0.136730 0.321764
Si Si7 0.455825 0.990379 0.178373
Si Si8 0.635757 0.391369 0.181537
O O1 0.260813 0.518095 0.235726
O O2 0.256317 0.769441 0.238603
O O3 0.321187 0.649474 0.219483
O O4 0.272436 0.648088 0.000000
O O5 0.926903 0.760427 0.500000
O O6 0.934011 0.604039 0.278726
O O7 0.896215 0.800836 0.233138
O O8 0.971633 0.794210 0.270350
O O9 0.118174 0.765487 0.724664
O O10 0.046574 0.829756 0.771255
O O11 0.063968 0.615900 0.810880
O O12 0.090607 0.769761 0.000000
O O13 0.344054 0.364404 0.500000
O O14 0.311900 0.355678 0.231646
O O15 0.370248 0.486542 0.268925
O O16 0.265746 0.384340 0.000000
O O17 0.983725 0.166208 0.500000
O O18 0.000000 0.000000 0.311163
O O19 0.500000 0.000000 0.225722
O O20 0.455491 0.953189 0.000000
O O21 0.634177 0.410949 0.000000
#
# Coordination Sequence:
#
# PCOD9427406 Si02
#       8
#     8   8   8   8   8   8   8   8
#     4   8  16  32  58  85 112 144 186 231 275 327
#     4  11  22  35  55  82 114 150 185 226 282 337
#     4  11  22  37  58  80 104 142 190 235 280 328
#     4  11  22  37  57  83 116 148 181 228 285 339
#     4   9  17  35  59  85 113 148 188 229 278 337
#     4  10  21  35  52  77 109 143 178 223 278 336
#     4  10  21  39  58  77 106 146 192 238 280 330
#     4  10  20  37  60  85 114 148 189 233 276 328
#
# _framework density 18.240100000000002
#
# number of rings (size 3 to 8) (size 9 to 14) (size 15 to 20)
#    0.000    2.000    1.250    3.750    0.000    3.000 
#    2.250    3.125    0.000    0.000    0.000    0.000 
#    0.000    0.000    0.000    0.000    0.000    0.000 
#
# Total GULP energy -357074.167371 kJ/mol
# GULP energy per Si atom -5579.283865 kJ/mol
# Density = 1.819859 g / cm^3
# Si number density = 18.240100 Si / 1000 Ang^3
#
#
#
# Elastic Constant Matrix: (Units=GPa)
#
#
# Indices 1 2 3 4 5 6 
#
# 1 43.2830 20.4811 -2.1654 0.0000 0.0000 0.0000
# 2 20.4811 48.3245 2.4090 0.0000 0.0000 0.0000
# 3 -2.1654 2.4090 11.6268 0.0000 0.0000 0.0000
# 4 0.0000 0.0000 0.0000 10.5349 0.0000 0.0000
# 5 0.0000 0.0000 0.0000 0.0000 5.4576 0.0000
# 6 0.0000 0.0000 0.0000 0.0000 0.0000 30.9441
#
#
#
# Elastic Compliance Matrix: (Units=1/GPa)
#
#
# Indices 1 2 3 4 5 6 
#
# 1 0.029656 -0.012978 0.008212 0.000000 0.000000 0.000000
# 2 -0.012978 0.026589 -0.007926 0.000000 0.000000 0.000000
# 3 0.008212 -0.007926 0.089180 0.000000 0.000000 0.000000
# 4 0.000000 0.000000 0.000000 0.094923 0.000000 0.000000
# 5 0.000000 0.000000 0.000000 0.000000 0.183230 0.000000
# 6 0.000000 0.000000 0.000000 0.000000 0.000000 0.032316
#
#
# Mechanical properties :
#
#
# Convention : Reuss Voigt Hill
#
# Bulk Modulus (GPa) = 8.33055 16.07596 12.20326
# Shear Modulus (GPa) = 9.59157 14.88796 12.23977
#
# Velocity S-wave (km/s) = 2.29563 2.86006 2.59325
# Velocity P-wave (km/s) = 3.40641 4.44289 3.95872
#
# Compressibility (1/GPa) = 0.12004004
#
# Stress axis : x y z
#
# Youngs Moduli (GPa) = 33.72024 37.60944 11.21333
#
# Poissons Ratio (x) = 0.48810 -0.09209
# Poissons Ratio (y) = 0.43763 0.08888
# Poissons Ratio (z) = -0.27692 0.29810
#
# Static dielectric constant tensor:
#      x y z
#    x 1.603160 0.000000 0.000000 
#    y 0.000000 1.651420 0.000000 
#    z 0.000000 0.000000 1.626940 
# 
# From -- ./inp_files/10778.got.cif
#   From: 2010.05.17/outbox.cif.g08.bks.cpg/sg55_6_cif.got.tgz:10778.got - 2010.06.03 13:27:54.
