data_PCOD9427105
_publ_section_title
;
Structure prediction by ZEFSAII (Michael W. Deem and Ramdas Pophale) SiO2 
 PCOD9427105
Probable space group: P B A M
;
_chemical_formula_sum "Si O2"
_cell_formula_units_Z 32
_cell_length_a 19.319296
_cell_length_b 4.969048
_cell_length_c 16.123064
_cell_angle_alpha 90.000000
_cell_angle_beta 90.000000
_cell_angle_gamma 90.000000
_cell_volume 1547.790107
_symmetry_space_group_name_H-M "P B A M"
_symmetry_group_IT_number 55
_symmetry_cell_setting 'orthorhombic'
loop_
_space_group_symop_operation_xyz
x,y,z
-x,-y,z
1/2+x,1/2-y,-z
1/2-x,1/2+y,-z
-x,-y,-z
x,y,-z
1/2-x,1/2+y,z
1/2+x,1/2-y,z
loop_
_atom_site_type_symbol
_atom_site_label
_atom_site_fract_x
_atom_site_fract_y
_atom_site_fract_z
Si Si1 0.800213 0.263780 0.683530
Si Si2 0.406188 0.552324 0.093928
Si Si3 0.072801 0.571398 0.201764
Si Si4 0.705468 0.871518 0.500000
Si Si5 0.711844 0.694211 0.000000
O O1 0.761582 0.980788 0.695210
O O2 0.865416 0.319623 0.741774
O O3 0.826487 0.296038 0.588259
O O4 0.402431 0.808351 0.152323
O O5 0.330819 0.415253 0.078158
O O6 0.446160 0.304018 0.135463
O O7 0.428742 0.622480 0.000000
O O8 0.000000 0.500000 0.245726
O O9 0.724892 0.185900 0.500000
O O10 0.780761 0.513328 0.000000
#
# Coordination Sequence:
#
# PCOD9427105 Si02
#       5
#     8   8   8   4   4
#     4  10  21  38  62  88 116 151 190 234 286 343
#     4  10  24  39  55  81 106 157 197 240 280 335
#     4  12  24  39  58  87 118 151 194 241 287 343
#     4   8  16  34  59  86 113 146 188 228 276 346
#     4  10  20  36  55  78 107 140 184 240 288 326
#
# _framework density 20.67464
#
# number of rings (size 3 to 8) (size 9 to 14) (size 15 to 20)
#    0.750    1.000    0.000    4.500    0.000    9.000 
#    0.000    0.625    0.000    0.000    0.000   14.000 
#    0.000    0.000    0.000    0.000    0.000    0.000 
#
# Total GULP energy -178515.745019 kJ/mol
# GULP energy per Si atom -5578.617032 kJ/mol
# Density = 2.062758 g / cm^3
# Si number density = 20.674640 Si / 1000 Ang^3
#
#
#
# Elastic Constant Matrix: (Units=GPa)
#
#
# Indices 1 2 3 4 5 6 
#
# 1 57.7330 -13.5011 22.5012 0.0000 0.0000 0.0000
# 2 -13.5011 76.5755 -7.0356 0.0000 0.0000 0.0000
# 3 22.5012 -7.0356 84.0544 0.0000 0.0000 0.0000
# 4 0.0000 0.0000 0.0000 21.8176 0.0000 0.0000
# 5 0.0000 0.0000 0.0000 0.0000 13.0486 0.0000
# 6 0.0000 0.0000 0.0000 0.0000 0.0000 30.3485
#
#
#
# Elastic Compliance Matrix: (Units=1/GPa)
#
#
# Indices 1 2 3 4 5 6 
#
# 1 0.020027 0.003062 -0.005105 0.000000 0.000000 0.000000
# 2 0.003062 0.013628 0.000321 0.000000 0.000000 0.000000
# 3 -0.005105 0.000321 0.013290 0.000000 0.000000 0.000000
# 4 0.000000 0.000000 0.000000 0.045835 0.000000 0.000000
# 5 0.000000 0.000000 0.000000 0.000000 0.076636 0.000000
# 6 0.000000 0.000000 0.000000 0.000000 0.000000 0.032951
#
#
# Mechanical properties :
#
#
# Convention : Reuss Voigt Hill
#
# Bulk Modulus (GPa) = 22.98751 24.69910 23.84330
# Shear Modulus (GPa) = 22.69514 27.46950 25.08232
#
# Velocity S-wave (km/s) = 3.31679 3.64903 3.48687
# Velocity P-wave (km/s) = 5.08045 5.45219 5.26960
#
# Compressibility (1/GPa) = 0.04350189
#
# Stress axis : x y z
#
# Youngs Moduli (GPa) = 49.93326 73.37642 75.24184
#
# Poissons Ratio (x) = -0.22467 0.38410
# Poissons Ratio (y) = -0.15289 -0.02416
# Poissons Ratio (z) = 0.25490 -0.02356
#
# Static dielectric constant tensor:
#      x y z
#    x 1.819550 0.000000 0.000000 
#    y 0.000000 1.726890 0.000000 
#    z 0.000000 0.000000 1.770370 
# 
# From -- ./inp_files/19189.got.cif
#   From: 2010.05.17/outbox.cif.g08.bks.cpg/sg55_10_cif.got.tgz:19189.got - 2010.06.03 13:27:54.
