data_PCOD9427844
_publ_section_title
;
Structure prediction by ZEFSAII (Michael W. Deem and Ramdas Pophale) SiO2 
 PCOD9427844
Probable space group: P B A M
;
_chemical_formula_sum "Si O2"
_cell_formula_units_Z 44
_cell_length_a 16.941146
_cell_length_b 5.221469
_cell_length_c 27.790306
_cell_angle_alpha 90.000000
_cell_angle_beta 90.000000
_cell_angle_gamma 90.000000
_cell_volume 2458.265680
_symmetry_space_group_name_H-M "P B A M"
_symmetry_group_IT_number 55
_symmetry_cell_setting 'orthorhombic'
loop_
_space_group_symop_operation_xyz
x,y,z
-x,-y,z
1/2+x,1/2-y,-z
1/2-x,1/2+y,-z
-x,-y,-z
x,y,-z
1/2-x,1/2+y,z
1/2+x,1/2-y,z
loop_
_atom_site_type_symbol
_atom_site_label
_atom_site_fract_x
_atom_site_fract_y
_atom_site_fract_z
Si Si1 0.946262 0.250303 0.259757
Si Si2 0.303123 0.236229 0.074799
Si Si3 0.444289 0.249569 0.000000
Si Si4 0.802880 0.211870 0.555838
Si Si5 0.553937 0.750774 0.629290
Si Si6 0.300784 0.211673 0.188582
O O1 0.917329 0.256305 0.315210
O O2 0.875441 0.248043 0.222302
O O3 0.000000 0.500000 0.252273
O O4 0.000000 0.000000 0.254007
O O5 0.248535 0.482993 0.063818
O O6 0.383911 0.246002 0.045068
O O7 0.320747 0.231803 0.131876
O O8 0.500000 0.500000 0.000000
O O9 0.500000 0.000000 0.000000
O O10 0.829420 0.224344 0.500000
O O11 0.741016 0.442247 0.563157
O O12 0.874724 0.242794 0.592163
O O13 0.500000 0.500000 0.623497
O O14 0.500000 0.000000 0.621635
O O15 0.237347 0.435078 0.197895
#
# Coordination Sequence:
#
# PCOD9427844 Si02
#       6
#     8   8   4   8   8   8
#     4  10  21  36  54  78 110 141 171 216 268 310
#     4  10  21  39  58  77 108 146 177 213 264 317
#     4  12  24  36  56  86 110 136 180 224 262 310
#     4  10  21  36  54  78 106 136 173 219 267 309
#     4  10  21  36  54  78 106 140 178 212 258 318
#     4  10  21  36  57  82 105 138 183 218 255 314
#
# _framework density 17.898799
#
# number of rings (size 3 to 8) (size 9 to 14) (size 15 to 20)
#    0.000    1.818    0.000    3.818    0.000    3.636 
#    0.000    0.000    0.000    0.000    0.000    0.000 
#    0.000    0.000    0.000    0.000    0.000    0.000 
#
# Total GULP energy -245824.192026 kJ/mol
# GULP energy per Si atom -5586.913455 kJ/mol
# Density = 1.785806 g / cm^3
# Si number density = 17.898799 Si / 1000 Ang^3
#
#
#
# Elastic Constant Matrix: (Units=GPa)
#
#
# Indices 1 2 3 4 5 6 
#
# 1 101.8703 23.4540 78.1410 0.0000 0.0000 0.0000
# 2 23.4540 105.0483 17.7938 0.0000 0.0000 0.0000
# 3 78.1410 17.7938 93.8944 0.0000 0.0000 0.0000
# 4 0.0000 0.0000 0.0000 19.8994 0.0000 0.0000
# 5 0.0000 0.0000 0.0000 0.0000 58.4213 0.0000
# 6 0.0000 0.0000 0.0000 0.0000 0.0000 18.8524
#
#
#
# Elastic Compliance Matrix: (Units=1/GPa)
#
#
# Indices 1 2 3 4 5 6 
#
# 1 0.027697 -0.002355 -0.022604 0.000000 0.000000 0.000000
# 2 -0.002355 0.010035 0.000058 0.000000 0.000000 0.000000
# 3 -0.022604 0.000058 0.029451 0.000000 0.000000 0.000000
# 4 0.000000 0.000000 0.000000 0.050253 0.000000 0.000000
# 5 0.000000 0.000000 0.000000 0.000000 0.017117 0.000000
# 6 0.000000 0.000000 0.000000 0.000000 0.000000 0.053044
#
#
# Mechanical properties :
#
#
# Convention : Reuss Voigt Hill
#
# Bulk Modulus (GPa) = 57.53201 59.95452 58.74326
# Shear Modulus (GPa) = 20.55983 31.52957 26.04470
#
# Velocity S-wave (km/s) = 3.39288 4.20163 3.81873
# Velocity P-wave (km/s) = 6.89649 7.55694 7.23426
#
# Compressibility (1/GPa) = 0.01738163
#
# Stress axis : x y z
#
# Youngs Moduli (GPa) = 36.10458 99.64729 33.95497
#
# Poissons Ratio (x) = 0.23468 0.76752
# Poissons Ratio (y) = 0.08503 -0.00198
# Poissons Ratio (z) = 0.81611 -0.00580
#
# Static dielectric constant tensor:
#      x y z
#    x 1.551830 0.000000 0.000000 
#    y 0.000000 1.602270 0.000000 
#    z 0.000000 0.000000 1.608640 
# 
# From -- ./inp_files/23959.got.cif
#   From: 2010.05.17/outbox.cif.g08.bks.cpg/sg55_12_cif.got.tgz:23959.got - 2010.06.03 13:27:54.
