data_PCOD9427521
_publ_section_title
;
Structure prediction by ZEFSAII (Michael W. Deem and Ramdas Pophale) SiO2 
 PCOD9427521
Probable space group: P B A M
;
_chemical_formula_sum "Si O2"
_cell_formula_units_Z 64
_cell_length_a 19.278125
_cell_length_b 19.514065
_cell_length_c 7.558627
_cell_angle_alpha 90.000000
_cell_angle_beta 90.000000
_cell_angle_gamma 90.000000
_cell_volume 2843.514542
_symmetry_space_group_name_H-M "P B A M"
_symmetry_group_IT_number 55
_symmetry_cell_setting 'orthorhombic'
loop_
_space_group_symop_operation_xyz
x,y,z
-x,-y,z
1/2+x,1/2-y,-z
1/2-x,1/2+y,-z
-x,-y,-z
x,y,-z
1/2-x,1/2+y,z
1/2+x,1/2-y,z
loop_
_atom_site_type_symbol
_atom_site_label
_atom_site_fract_x
_atom_site_fract_y
_atom_site_fract_z
Si Si1 0.839675 0.639598 0.202029
Si Si2 0.334709 0.611336 0.199061
Si Si3 0.418756 0.998024 0.782887
Si Si4 0.072317 0.234468 0.297936
Si Si5 0.709982 0.730373 0.786261
Si Si6 0.434543 0.338006 0.290413
Si Si7 0.686758 0.886781 0.786713
Si Si8 0.080654 0.985832 0.301075
O O1 0.875081 0.569915 0.275130
O O2 0.898196 0.698777 0.203791
O O3 0.772022 0.680005 0.279641
O O4 0.820299 0.622181 0.000000
O O5 0.369671 0.674711 0.298199
O O6 0.261146 0.579976 0.255742
O O7 0.386658 0.548657 0.201413
O O8 0.325132 0.638197 0.000000
O O9 0.500000 0.000000 0.728767
O O10 0.376747 0.066352 0.724092
O O11 0.419127 0.996471 0.000000
O O12 0.057965 0.255019 0.500000
O O13 0.002391 0.200839 0.220577
O O14 0.635141 0.703227 0.733158
O O15 0.704392 0.809467 0.725558
O O16 0.716849 0.731637 0.000000
O O17 0.449579 0.349860 0.500000
O O18 0.416566 0.412006 0.213442
O O19 0.676976 0.883287 0.000000
O O20 0.111803 0.984690 0.500000
O O21 0.000000 0.000000 0.318653
#
# Coordination Sequence:
#
# PCOD9427521 Si02
#       8
#     8   8   8   8   8   8   8   8
#     4  10  21  38  60  89 118 148 198 252 298 353
#     4  11  21  35  58  86 117 148 192 243 287 345
#     4   9  19  35  58  85 116 155 194 235 295 358
#     4  11  22  39  60  82 116 158 195 238 300 357
#     4  10  21  37  58  86 119 149 190 251 302 342
#     4  10  23  39  56  81 115 156 197 237 287 356
#     4   9  19  36  55  82 117 149 184 237 296 348
#     4  10  20  38  56  76 116 157 190 229 280 347
#
# _framework density 22.507356000000001
#
# number of rings (size 3 to 8) (size 9 to 14) (size 15 to 20)
#    0.000    2.000    2.500    0.750    3.500    2.250 
#    0.000    0.000    0.000    1.125    0.000    0.000 
#    0.000    0.000    0.000    0.000    0.000    0.000 
#
# Total GULP energy -356815.764299 kJ/mol
# GULP energy per Si atom -5575.246317 kJ/mol
# Density = 2.245613 g / cm^3
# Si number density = 22.507356 Si / 1000 Ang^3
#
#
#
# Elastic Constant Matrix: (Units=GPa)
#
#
# Indices 1 2 3 4 5 6 
#
# 1 131.9317 70.9786 -1.3460 0.0000 0.0000 0.0000
# 2 70.9786 100.2229 -3.5135 0.0000 0.0000 0.0000
# 3 -1.3460 -3.5135 51.1081 0.0000 0.0000 0.0000
# 4 0.0000 0.0000 0.0000 10.9457 0.0000 0.0000
# 5 0.0000 0.0000 0.0000 0.0000 5.2246 0.0000
# 6 0.0000 0.0000 0.0000 0.0000 0.0000 37.8725
#
#
#
# Elastic Compliance Matrix: (Units=1/GPa)
#
#
# Indices 1 2 3 4 5 6 
#
# 1 0.012249 -0.008685 -0.000274 0.000000 0.000000 0.000000
# 2 -0.008685 0.016159 0.000882 0.000000 0.000000 0.000000
# 3 -0.000274 0.000882 0.019620 0.000000 0.000000 0.000000
# 4 0.000000 0.000000 0.000000 0.091360 0.000000 0.000000
# 5 0.000000 0.000000 0.000000 0.000000 0.191403 0.000000
# 6 0.000000 0.000000 0.000000 0.000000 0.000000 0.026404
#
#
# Mechanical properties :
#
#
# Convention : Reuss Voigt Hill
#
# Bulk Modulus (GPa) = 31.37310 46.16677 38.76994
# Shear Modulus (GPa) = 13.02172 25.28480 19.15326
#
# Velocity S-wave (km/s) = 2.40792 3.35535 2.92032
# Velocity P-wave (km/s) = 4.65834 5.96386 5.35106
#
# Compressibility (1/GPa) = 0.03187444
#
# Stress axis : x y z
#
# Youngs Moduli (GPa) = 81.63851 61.88451 50.96891
#
# Poissons Ratio (x) = 0.53744 0.01399
# Poissons Ratio (y) = 0.70899 -0.04496
# Poissons Ratio (z) = 0.02240 -0.05459
#
# Static dielectric constant tensor:
#      x y z
#    x 1.896910 0.000000 0.000000 
#    y 0.000000 1.831090 0.000000 
#    z 0.000000 0.000000 1.952030 
# 
# From -- ./inp_files/8094.got.cif
#   From: 2010.05.17/outbox.cif.g08.bks.cpg/sg55_5_cif.got.tgz:8094.got - 2010.06.03 13:27:54.
