data_PCOD9427531
_publ_section_title
;
Structure prediction by ZEFSAII (Michael W. Deem and Ramdas Pophale) SiO2 
 PCOD9427531
Probable space group: P B A M
;
_chemical_formula_sum "Si O2"
_cell_formula_units_Z 56
_cell_length_a 21.241608
_cell_length_b 14.957743
_cell_length_c 7.665365
_cell_angle_alpha 90.000000
_cell_angle_beta 90.000000
_cell_angle_gamma 90.000000
_cell_volume 2435.489695
_symmetry_space_group_name_H-M "P B A M"
_symmetry_group_IT_number 55
_symmetry_cell_setting 'orthorhombic'
loop_
_space_group_symop_operation_xyz
x,y,z
-x,-y,z
1/2+x,1/2-y,-z
1/2-x,1/2+y,-z
-x,-y,-z
x,y,-z
1/2-x,1/2+y,z
1/2+x,1/2-y,z
loop_
_atom_site_type_symbol
_atom_site_label
_atom_site_fract_x
_atom_site_fract_y
_atom_site_fract_z
Si Si1 0.678932 0.095502 0.796170
Si Si2 0.401963 0.415933 0.701406
Si Si3 0.117218 0.110856 0.289620
Si Si4 0.495779 0.720212 0.799967
Si Si5 0.763869 0.403370 0.711349
Si Si6 0.295437 0.288368 0.704102
Si Si7 0.535173 0.089581 0.214087
O O1 0.726668 0.166886 0.713778
O O2 0.607684 0.093770 0.727292
O O3 0.707537 0.996027 0.776077
O O4 0.676390 0.117856 0.000000
O O5 0.383513 0.432882 0.500000
O O6 0.410876 0.515363 0.771874
O O7 0.463094 0.354465 0.706057
O O8 0.345192 0.358354 0.782459
O O9 0.112003 0.121083 0.500000
O O10 0.076742 0.190107 0.209429
O O11 0.190394 0.106624 0.242889
O O12 0.500248 0.820336 0.729337
O O13 0.516878 0.719910 0.000000
O O14 0.766944 0.406271 0.500000
O O15 0.796525 0.312107 0.775923
O O16 0.311983 0.278956 0.500000
O O17 0.500000 0.000000 0.269877
O O18 0.535758 0.090187 0.000000
#
# Coordination Sequence:
#
# PCOD9427531 Si02
#       7
#     8   8   8   8   8   8   8
#     4  11  22  37  62  90 118 154 195 244 292 348
#     4  10  21  38  58  83 117 155 192 235 294 354
#     4  10  20  38  60  83 117 157 188 228 295 359
#     4  11  23  37  59  86 114 151 198 247 284 338
#     4  10  21  38  62  88 117 156 195 238 296 351
#     4  10  21  39  62  86 119 158 197 243 292 354
#     4   9  21  41  59  80 118 161 193 230 293 352
#
# _framework density 22.993324000000001
#
# number of rings (size 3 to 8) (size 9 to 14) (size 15 to 20)
#    0.000    1.857    1.429    2.143    2.000    4.000 
#    0.000    2.143    0.000    3.429    0.000    0.000 
#    0.000    0.000    0.000    0.000    0.000    0.000 
#
# Total GULP energy -313049.151456 kJ/mol
# GULP energy per Si atom -5590.163419 kJ/mol
# Density = 2.294099 g / cm^3
# Si number density = 22.993324 Si / 1000 Ang^3
#
#
#
# Elastic Constant Matrix: (Units=GPa)
#
#
# Indices 1 2 3 4 5 6 
#
# 1 46.3101 -8.7176 -7.6048 0.0000 0.0000 0.0000
# 2 -8.7176 122.5118 -2.5263 0.0000 0.0000 0.0000
# 3 -7.6048 -2.5263 39.0725 0.0000 0.0000 0.0000
# 4 0.0000 0.0000 0.0000 -3.8795 0.0000 0.0000
# 5 0.0000 0.0000 0.0000 0.0000 16.5771 0.0000
# 6 0.0000 0.0000 0.0000 0.0000 0.0000 28.0326
#
#
#
# Elastic Compliance Matrix: (Units=1/GPa)
#
#
# Indices 1 2 3 4 5 6 
#
# 1 0.022657 0.001705 0.004520 0.000000 0.000000 0.000000
# 2 0.001705 0.008302 0.000869 0.000000 0.000000 0.000000
# 3 0.004520 0.000869 0.026529 0.000000 0.000000 0.000000
# 4 0.000000 0.000000 0.000000 -0.257762 0.000000 0.000000
# 5 0.000000 0.000000 0.000000 0.000000 0.060324 0.000000
# 6 0.000000 0.000000 0.000000 0.000000 0.000000 0.035673
#
#
# Mechanical properties :
#
#
# Convention : Reuss Voigt Hill
#
# Bulk Modulus (GPa) = 13.95164 18.91079 16.43122
# Shear Modulus (GPa) = -52.86881 23.26224 -14.80329
#
# Velocity S-wave (km/s) = -4.80032 3.18417 -2.54009
# Velocity P-wave (km/s) = 4.96419 4.66486 1.20048
#
# Compressibility (1/GPa) = 0.07167614
#
# Stress axis : x y z
#
# Youngs Moduli (GPa) = 44.13683 120.45663 37.69406
#
# Poissons Ratio (x) = -0.20543 -0.17038
# Poissons Ratio (y) = -0.07527 -0.03274
# Poissons Ratio (z) = -0.19950 -0.10464
#
# Static dielectric constant tensor:
#      x y z
#    x 1.847310 0.000000 0.000000 
#    y 0.000000 1.847310 0.000000 
#    z 0.000000 0.000000 1.873860 
# 
# From -- ./inp_files/6177.got.cif
#   From: 2010.05.17/outbox.cif.g08.bks.cpg/sg55_4_cif.got.tgz:6177.got - 2010.06.03 13:27:54.
