data_PCOD9427383
_publ_section_title
;
Structure prediction by ZEFSAII (Michael W. Deem and Ramdas Pophale) SiO2 
 PCOD9427383
Probable space group: P B A M
;
_chemical_formula_sum "Si O2"
_cell_formula_units_Z 64
_cell_length_a 14.818961
_cell_length_b 25.735964
_cell_length_c 8.712865
_cell_angle_alpha 90.000000
_cell_angle_beta 90.000000
_cell_angle_gamma 90.000000
_cell_volume 3322.914604
_symmetry_space_group_name_H-M "P B A M"
_symmetry_group_IT_number 55
_symmetry_cell_setting 'orthorhombic'
loop_
_space_group_symop_operation_xyz
x,y,z
-x,-y,z
1/2+x,1/2-y,-z
1/2-x,1/2+y,-z
-x,-y,-z
x,y,-z
1/2-x,1/2+y,z
1/2+x,1/2-y,z
loop_
_atom_site_type_symbol
_atom_site_label
_atom_site_fract_x
_atom_site_fract_y
_atom_site_fract_z
Si Si1 0.250517 0.069664 0.814685
Si Si2 0.654278 0.729606 0.683050
Si Si3 0.102795 0.367976 0.685322
Si Si4 0.601164 0.514168 0.812733
Si Si5 0.295511 0.382572 0.815925
Si Si6 0.448124 0.052683 0.315282
Si Si7 0.292842 0.686683 0.816761
Si Si8 0.446680 0.751274 0.316184
O O1 0.349618 0.055419 0.756453
O O2 0.226937 0.128162 0.764201
O O3 0.174166 0.028948 0.763618
O O4 0.251137 0.068898 0.000000
O O5 0.665893 0.726385 0.500000
O O6 0.673757 0.673171 0.752853
O O7 0.722277 0.772572 0.746967
O O8 0.552264 0.746810 0.717543
O O9 0.110240 0.370259 0.500000
O O10 0.193580 0.391210 0.756646
O O11 0.091390 0.307726 0.730340
O O12 0.013448 0.399754 0.729935
O O13 0.500000 0.500000 0.761152
O O14 0.638415 0.570730 0.765863
O O15 0.599596 0.513992 0.000000
O O16 0.294637 0.381206 0.000000
O O17 0.438804 0.053809 0.500000
O O18 0.500000 0.000000 0.273005
O O19 0.390598 0.706430 0.765255
O O20 0.286070 0.688193 0.000000
O O21 0.434915 0.746863 0.500000
#
# Coordination Sequence:
#
# PCOD9427383 Si02
#       8
#     8   8   8   8   8   8   8   8
#     4  10  22  39  60  88 120 156 198 249 302 353
#     4  11  23  40  61  86 122 163 200 241 300 363
#     4  10  20  37  59  84 118 157 193 237 296 359
#     4   9  20  39  61  84 117 160 200 241 299 360
#     4  11  22  36  61  91 116 153 202 248 296 348
#     4  10  21  37  60  89 119 156 197 240 295 355
#     4  11  23  38  60  91 122 153 198 251 297 349
#     4  10  22  38  58  82 113 160 201 238 294 359
#
# _framework density 19.260199
#
# number of rings (size 3 to 8) (size 9 to 14) (size 15 to 20)
#    0.000    1.750    1.250    2.625    1.750    3.750 
#    0.000    0.625    0.000    1.875    0.000    0.000 
#    0.000    0.000    0.000    0.000    0.000    0.000 
#
# Total GULP energy -357651.762387 kJ/mol
# GULP energy per Si atom -5588.308787 kJ/mol
# Density = 1.921636 g / cm^3
# Si number density = 19.260199 Si / 1000 Ang^3
#
#
#
# Elastic Constant Matrix: (Units=GPa)
#
#
# Indices 1 2 3 4 5 6 
#
# 1 79.5755 17.5467 18.9487 0.0000 0.0000 0.0000
# 2 17.5467 98.7105 12.6434 0.0000 0.0000 0.0000
# 3 18.9487 12.6434 13.1873 0.0000 0.0000 0.0000
# 4 0.0000 0.0000 0.0000 5.8672 0.0000 0.0000
# 5 0.0000 0.0000 0.0000 0.0000 35.5057 0.0000
# 6 0.0000 0.0000 0.0000 0.0000 0.0000 37.9427
#
#
#
# Elastic Compliance Matrix: (Units=1/GPa)
#
#
# Indices 1 2 3 4 5 6 
#
# 1 0.019104 0.000137 -0.027582 0.000000 0.000000 0.000000
# 2 0.000137 0.011550 -0.011270 0.000000 0.000000 0.000000
# 3 -0.027582 -0.011270 0.126268 0.000000 0.000000 0.000000
# 4 0.000000 0.000000 0.000000 0.170439 0.000000 0.000000
# 5 0.000000 0.000000 0.000000 0.000000 0.028164 0.000000
# 6 0.000000 0.000000 0.000000 0.000000 0.000000 0.026356
#
#
# Mechanical properties :
#
#
# Convention : Reuss Voigt Hill
#
# Bulk Modulus (GPa) = 12.57992 32.19455 22.38723
# Shear Modulus (GPa) = 10.29210 25.35210 17.82210
#
# Velocity S-wave (km/s) = 2.31416 3.63201 3.04523
# Velocity P-wave (km/s) = 3.69948 5.86008 4.90034
#
# Compressibility (1/GPa) = 0.07949179
#
# Stress axis : x y z
#
# Youngs Moduli (GPa) = 52.34398 86.58117 7.91964
#
# Poissons Ratio (x) = -0.01185 0.21844
# Poissons Ratio (y) = -0.00717 0.08926
# Poissons Ratio (z) = 1.44376 0.97579
#
# Static dielectric constant tensor:
#      x y z
#    x 1.657360 0.000000 0.000000 
#    y 0.000000 1.663960 0.000000 
#    z 0.000000 0.000000 1.653440 
# 
# From -- ./inp_files/6731.got.cif
#   From: 2010.05.17/outbox.cif.g08.bks.cpg/sg55_4_cif.got.tgz:6731.got - 2010.06.03 13:27:54.
