data_PCOD9427247
_publ_section_title
;
Structure prediction by ZEFSAII (Michael W. Deem and Ramdas Pophale) SiO2 
 PCOD9427247
Probable space group: P B A M
;
_chemical_formula_sum "Si O2"
_cell_formula_units_Z 36
_cell_length_a 9.745523
_cell_length_b 20.814525
_cell_length_c 7.647949
_cell_angle_alpha 90.000000
_cell_angle_beta 90.000000
_cell_angle_gamma 90.000000
_cell_volume 1551.374464
_symmetry_space_group_name_H-M "P B A M"
_symmetry_group_IT_number 55
_symmetry_cell_setting 'orthorhombic'
loop_
_space_group_symop_operation_xyz
x,y,z
-x,-y,z
1/2+x,1/2-y,-z
1/2-x,1/2+y,-z
-x,-y,-z
x,y,-z
1/2-x,1/2+y,z
1/2+x,1/2-y,z
loop_
_atom_site_type_symbol
_atom_site_label
_atom_site_fract_x
_atom_site_fract_y
_atom_site_fract_z
Si Si1 0.510091 0.637663 0.788457
Si Si2 0.208010 0.603973 0.786895
Si Si3 0.000000 0.500000 0.247959
Si Si4 0.309723 0.895819 0.301874
Si Si5 0.998273 0.284414 0.789927
O O1 0.366649 0.605714 0.737138
O O2 0.648574 0.603857 0.727994
O O3 0.510309 0.711727 0.726085
O O4 0.513164 0.638602 0.000000
O O5 0.119707 0.549291 0.693482
O O6 0.134747 0.672142 0.748787
O O7 0.197874 0.593768 0.000000
O O8 0.896881 0.556133 0.181822
O O9 0.342371 0.916022 0.500000
O O10 0.370623 0.824637 0.274482
O O11 0.008974 0.281642 0.000000
#
# Coordination Sequence:
#
# PCOD9427247 Si02
#       5
#     8   8   4   8   8
#     4  10  20  36  59  88 116 143 182 233 287 337
#     4   9  18  33  57  84 109 143 187 235 283 334
#     4  10  22  40  54  74 111 156 197 236 281 330
#     4  11  23  38  57  82 114 152 190 230 277 331
#     4   9  18  36  61  86 113 145 181 226 281 338
#
# _framework density 23.205227000000001
#
# number of rings (size 3 to 8) (size 9 to 14) (size 15 to 20)
#    0.000    2.222    0.000    2.667    0.000    8.000 
#    0.000    8.889    0.000    0.000    0.000    0.000 
#    0.000    0.000    0.000    0.000    0.000    0.000 
#
# Total GULP energy -200705.501097 kJ/mol
# GULP energy per Si atom -5575.152808 kJ/mol
# Density = 2.315241 g / cm^3
# Si number density = 23.205227 Si / 1000 Ang^3
#
#
#
# Elastic Constant Matrix: (Units=GPa)
#
#
# Indices 1 2 3 4 5 6 
#
# 1 235.0718 61.7347 27.5381 0.0000 0.0000 0.0000
# 2 61.7347 112.2808 19.6284 0.0000 0.0000 0.0000
# 3 27.5381 19.6284 73.4147 0.0000 0.0000 0.0000
# 4 0.0000 0.0000 0.0000 -18.5406 0.0000 0.0000
# 5 0.0000 0.0000 0.0000 0.0000 13.8025 0.0000
# 6 0.0000 0.0000 0.0000 0.0000 0.0000 10.5103
#
#
#
# Elastic Compliance Matrix: (Units=1/GPa)
#
#
# Indices 1 2 3 4 5 6 
#
# 1 0.005073 -0.002577 -0.001214 0.000000 0.000000 0.000000
# 2 -0.002577 0.010652 -0.001881 0.000000 0.000000 0.000000
# 3 -0.001214 -0.001881 0.014580 0.000000 0.000000 0.000000
# 4 0.000000 0.000000 0.000000 -0.053936 0.000000 0.000000
# 5 0.000000 0.000000 0.000000 0.000000 0.072451 0.000000
# 6 0.000000 0.000000 0.000000 0.000000 0.000000 0.095145
#
#
# Mechanical properties :
#
#
# Convention : Reuss Voigt Hill
#
# Bulk Modulus (GPa) = 52.74227 70.95220 61.84723
# Shear Modulus (GPa) = 30.93503 21.94552 26.44028
#
# Velocity S-wave (km/s) = 3.65513 3.07858 3.37918
# Velocity P-wave (km/s) = 6.37113 6.57870 6.47574
#
# Compressibility (1/GPa) = 0.01896012
#
# Stress axis : x y z
#
# Youngs Moduli (GPa) = 197.12156 93.87861 68.58909
#
# Poissons Ratio (x) = 0.24193 0.08326
# Poissons Ratio (y) = 0.50799 0.12904
# Poissons Ratio (z) = 0.23928 0.17661
#
# Static dielectric constant tensor:
#      x y z
#    x 1.815090 0.000000 0.000000 
#    y 0.000000 1.836660 0.000000 
#    z 0.000000 0.000000 2.015330 
# 
# From -- ./inp_files/2131.got.cif
#   From: 2010.05.17/outbox.cif.g08.bks.cpg/sg55_2_cif.got.tgz:2131.got - 2010.06.03 13:27:54.
