data_PCOD9427808
_publ_section_title
;
Structure prediction by ZEFSAII (Michael W. Deem and Ramdas Pophale) SiO2 
 PCOD9427808
Probable space group: P B A M
;
_chemical_formula_sum "Si O2"
_cell_formula_units_Z 64
_cell_length_a 17.949110
_cell_length_b 9.228506
_cell_length_c 18.416134
_cell_angle_alpha 90.000000
_cell_angle_beta 90.000000
_cell_angle_gamma 90.000000
_cell_volume 3050.512327
_symmetry_space_group_name_H-M "P B A M"
_symmetry_group_IT_number 55
_symmetry_cell_setting 'orthorhombic'
loop_
_space_group_symop_operation_xyz
x,y,z
-x,-y,z
1/2+x,1/2-y,-z
1/2-x,1/2+y,-z
-x,-y,-z
x,y,-z
1/2-x,1/2+y,z
1/2+x,1/2-y,z
loop_
_atom_site_type_symbol
_atom_site_label
_atom_site_fract_x
_atom_site_fract_y
_atom_site_fract_z
Si Si1 0.618273 0.383501 0.768866
Si Si2 0.081601 0.946033 0.639266
Si Si3 0.884514 0.372483 0.584124
Si Si4 0.132208 0.389133 0.685047
Si Si5 0.207298 0.808696 0.915626
Si Si6 0.583184 0.444484 0.923658
Si Si7 0.216419 0.537340 0.815668
Si Si8 0.208077 0.169000 0.583672
O O1 0.588906 0.523844 0.725857
O O2 0.592793 0.358300 0.850371
O O3 0.707252 0.406679 0.777073
O O4 0.592176 0.247405 0.721583
O O5 0.148535 0.043692 0.604831
O O6 0.092028 0.780816 0.617198
O O7 0.000000 0.000000 0.615406
O O8 0.905525 0.380219 0.500000
O O9 0.911574 0.508470 0.630628
O O10 0.793786 0.378552 0.589256
O O11 0.164396 0.485284 0.750504
O O12 0.194199 0.304103 0.637100
O O13 0.190924 0.665491 0.869116
O O14 0.137263 0.917209 0.917857
O O15 0.266165 0.901246 0.868334
O O16 0.227950 0.778063 0.000000
O O17 0.500000 0.500000 0.925885
O O18 0.601117 0.368542 0.000000
O O19 0.194552 0.212013 0.500000
#
# Coordination Sequence:
#
# PCOD9427808 Si02
#       8
#     8   8   8   8   8   8   8   8
#     4  10  21  37  57  87 121 159 199 250 307 365
#     4  11  24  41  67  96 125 163 215 269 319 375
#     4  11  23  38  62  92 123 164 209 259 314 377
#     4  11  21  35  55  84 119 158 201 245 308 369
#     4  10  21  35  57  90 124 156 198 253 312 365
#     4   9  19  37  62  87 114 156 206 251 300 365
#     4  11  20  35  58  88 121 163 197 252 305 368
#     4  10  21  39  62  89 124 161 206 263 317 379
#
# _framework density 20.980083
#
# number of rings (size 3 to 8) (size 9 to 14) (size 15 to 20)
#    0.000    1.625    1.250    4.500    3.500    3.500 
#    0.000    2.500    0.000    3.750    0.000    2.625 
#    0.000    0.000    0.000    0.000    0.000    0.000 
#
# Total GULP energy -357352.489872 kJ/mol
# GULP energy per Si atom -5583.632654 kJ/mol
# Density = 2.093233 g / cm^3
# Si number density = 20.980083 Si / 1000 Ang^3
#
#
#
# Elastic Constant Matrix: (Units=GPa)
#
#
# Indices 1 2 3 4 5 6 
#
# 1 33.3993 -17.5905 -3.5979 0.0000 0.0000 0.0000
# 2 -17.5905 94.9862 60.1990 0.0000 0.0000 0.0000
# 3 -3.5979 60.1990 163.4223 0.0000 0.0000 0.0000
# 4 0.0000 0.0000 0.0000 33.9008 0.0000 0.0000
# 5 0.0000 0.0000 0.0000 0.0000 9.1218 0.0000
# 6 0.0000 0.0000 0.0000 0.0000 0.0000 9.2034
#
#
#
# Elastic Compliance Matrix: (Units=1/GPa)
#
#
# Indices 1 2 3 4 5 6 
#
# 1 0.033685 0.007525 -0.002030 0.000000 0.000000 0.000000
# 2 0.007525 0.015415 -0.005513 0.000000 0.000000 0.000000
# 3 -0.002030 -0.005513 0.008105 0.000000 0.000000 0.000000
# 4 0.000000 0.000000 0.000000 0.029498 0.000000 0.000000
# 5 0.000000 0.000000 0.000000 0.000000 0.109627 0.000000
# 6 0.000000 0.000000 0.000000 0.000000 0.000000 0.108655
#
#
# Mechanical properties :
#
#
# Convention : Reuss Voigt Hill
#
# Bulk Modulus (GPa) = 17.49191 41.09211 29.29201
# Shear Modulus (GPa) = 15.42836 27.29834 21.36335
#
# Velocity S-wave (km/s) = 2.71473 3.61107 3.19449
# Velocity P-wave (km/s) = 4.26402 6.08401 5.25343
#
# Compressibility (1/GPa) = 0.05716928
#
# Stress axis : x y z
#
# Youngs Moduli (GPa) = 29.68658 64.87117 123.37894
#
# Poissons Ratio (x) = -0.48815 0.25050
# Poissons Ratio (y) = -0.22339 0.68016
# Poissons Ratio (z) = 0.06027 0.35762
#
# Static dielectric constant tensor:
#      x y z
#    x 1.764810 0.000000 0.000000 
#    y 0.000000 1.754480 0.000000 
#    z 0.000000 0.000000 1.810290 
# 
# From -- ./inp_files/21954.got.cif
#   From: 2010.05.17/outbox.cif.g08.bks.cpg/sg55_11_cif.got.tgz:21954.got - 2010.06.03 13:27:54.
