data_PCOD9427683
_publ_section_title
;
Structure prediction by ZEFSAII (Michael W. Deem and Ramdas Pophale) SiO2 
 PCOD9427683
Probable space group: P B A M
;
_chemical_formula_sum "Si O2"
_cell_formula_units_Z 48
_cell_length_a 9.419485
_cell_length_b 28.778413
_cell_length_c 9.257408
_cell_angle_alpha 90.000000
_cell_angle_beta 90.000000
_cell_angle_gamma 90.000000
_cell_volume 2509.478068
_symmetry_space_group_name_H-M "P B A M"
_symmetry_group_IT_number 55
_symmetry_cell_setting 'orthorhombic'
loop_
_space_group_symop_operation_xyz
x,y,z
-x,-y,z
1/2+x,1/2-y,-z
1/2-x,1/2+y,-z
-x,-y,-z
x,y,-z
1/2-x,1/2+y,z
1/2+x,1/2-y,z
loop_
_atom_site_type_symbol
_atom_site_label
_atom_site_fract_x
_atom_site_fract_y
_atom_site_fract_z
Si Si1 0.379357 0.460429 0.165976
Si Si2 0.176661 0.782669 0.673418
Si Si3 0.988738 0.859876 0.827873
Si Si4 0.660329 0.982220 0.664646
Si Si5 0.000373 0.307898 0.673796
Si Si6 0.830125 0.384947 0.172994
O O1 0.500000 0.500000 0.171385
O O2 0.446534 0.410823 0.202532
O O3 0.257797 0.477079 0.272448
O O4 0.326882 0.458479 0.000000
O O5 0.167524 0.786559 0.500000
O O6 0.076991 0.821337 0.744398
O O7 0.112386 0.732457 0.711997
O O8 0.341072 0.790945 0.713421
O O9 0.822111 0.861621 0.791267
O O10 0.000501 0.852102 0.000000
O O11 0.701527 0.970765 0.500000
O O12 0.673465 0.936715 0.763360
O O13 0.500000 0.000000 0.665758
O O14 0.996551 0.314897 0.500000
O O15 0.953419 0.354559 0.754399
O O16 0.844609 0.386492 0.000000
#
# Coordination Sequence:
#
# PCOD9427683 Si02
#       6
#     8   8   8   8   8   8
#     4  10  20  40  63  86 120 160 203 247 292 349
#     4  10  22  40  64  90 121 158 196 243 299 356
#     4  10  22  39  61  89 121 156 200 248 295 352
#     4  11  25  41  59  88 124 159 201 250 297 353
#     4  10  22  41  63  90 121 155 198 245 296 355
#     4  11  23  41  63  88 119 160 201 245 300 355
#
# _framework density 19.127483000000002
#
# number of rings (size 3 to 8) (size 9 to 14) (size 15 to 20)
#    0.000    1.667    1.667    2.000    2.333    6.333 
#    0.000    0.000    0.000    0.000    0.000    0.000 
#    0.000    0.000    0.000    0.000    0.000    0.000 
#
# Total GULP energy -268231.144954 kJ/mol
# GULP energy per Si atom -5588.148853 kJ/mol
# Density = 1.908395 g / cm^3
# Si number density = 19.127483 Si / 1000 Ang^3
#
#
#
# Elastic Constant Matrix: (Units=GPa)
#
#
# Indices 1 2 3 4 5 6 
#
# 1 77.2276 1.9678 30.7494 0.0000 0.0000 0.0000
# 2 1.9678 51.8382 15.7405 0.0000 0.0000 0.0000
# 3 30.7494 15.7405 36.9316 0.0000 0.0000 0.0000
# 4 0.0000 0.0000 0.0000 26.3564 0.0000 0.0000
# 5 0.0000 0.0000 0.0000 0.0000 34.1542 0.0000
# 6 0.0000 0.0000 0.0000 0.0000 0.0000 35.4366
#
#
#
# Elastic Compliance Matrix: (Units=1/GPa)
#
#
# Indices 1 2 3 4 5 6 
#
# 1 0.020460 0.005049 -0.019187 0.000000 0.000000 0.000000
# 2 0.005049 0.023405 -0.014179 0.000000 0.000000 0.000000
# 3 -0.019187 -0.014179 0.049095 0.000000 0.000000 0.000000
# 4 0.000000 0.000000 0.000000 0.037941 0.000000 0.000000
# 5 0.000000 0.000000 0.000000 0.000000 0.029279 0.000000
# 6 0.000000 0.000000 0.000000 0.000000 0.000000 0.028219
#
#
# Mechanical properties :
#
#
# Convention : Reuss Voigt Hill
#
# Bulk Modulus (GPa) = 27.52843 29.21253 28.37048
# Shear Modulus (GPa) = 19.44453 27.02542 23.23497
#
# Velocity S-wave (km/s) = 3.19184 3.76295 3.48910
# Velocity P-wave (km/s) = 5.29217 5.84683 5.57640
#
# Compressibility (1/GPa) = 0.03632608
#
# Stress axis : x y z
#
# Youngs Moduli (GPa) = 48.87676 42.72657 20.36851
#
# Poissons Ratio (x) = -0.21574 0.39081
# Poissons Ratio (y) = -0.24680 0.28881
# Poissons Ratio (z) = 0.93779 0.60583
#
# Static dielectric constant tensor:
#      x y z
#    x 1.674280 0.000000 0.000000 
#    y 0.000000 1.633300 0.000000 
#    z 0.000000 0.000000 1.646690 
# 
# From -- ./inp_files/2913.got.cif
#   From: 2010.05.17/outbox.cif.g08.bks.cpg/sg55_2_cif.got.tgz:2913.got - 2010.06.03 13:27:54.
