data_PCOD9427834
_publ_section_title
;
Structure prediction by ZEFSAII (Michael W. Deem and Ramdas Pophale) SiO2 
 PCOD9427834
Probable space group: P B A M
;
_chemical_formula_sum "Si O2"
_cell_formula_units_Z 64
_cell_length_a 18.166000
_cell_length_b 7.948573
_cell_length_c 21.026107
_cell_angle_alpha 90.000000
_cell_angle_beta 90.000000
_cell_angle_gamma 90.000000
_cell_volume 3036.039008
_symmetry_space_group_name_H-M "P B A M"
_symmetry_group_IT_number 55
_symmetry_cell_setting 'orthorhombic'
loop_
_space_group_symop_operation_xyz
x,y,z
-x,-y,z
1/2+x,1/2-y,-z
1/2-x,1/2+y,-z
-x,-y,-z
x,y,-z
1/2-x,1/2+y,z
1/2+x,1/2-y,z
loop_
_atom_site_type_symbol
_atom_site_label
_atom_site_fract_x
_atom_site_fract_y
_atom_site_fract_z
Si Si1 0.384186 0.088790 0.323542
Si Si2 0.463600 0.729668 0.820938
Si Si3 0.281780 0.948457 0.427339
Si Si4 0.786416 0.268109 0.928130
Si Si5 0.468058 0.727174 0.322814
Si Si6 0.616691 0.909567 0.820108
Si Si7 0.367004 0.590976 0.071631
Si Si8 0.366977 0.591510 0.572327
O O1 0.322742 0.064901 0.376463
O O2 0.446929 0.227698 0.335638
O O3 0.354991 0.115673 0.251982
O O4 0.427130 0.909121 0.323376
O O5 0.457091 0.662463 0.748992
O O6 0.548255 0.782334 0.830847
O O7 0.427801 0.615120 0.874699
O O8 0.418439 0.905275 0.823441
O O9 0.291040 0.011383 0.500000
O O10 0.194644 0.951191 0.414425
O O11 0.319535 0.765765 0.425119
O O12 0.822906 0.377253 0.873022
O O13 0.698449 0.272309 0.920962
O O14 0.823502 0.085215 0.923643
O O15 0.801368 0.332967 0.000000
O O16 0.429770 0.614101 0.375721
O O17 0.397813 0.604939 0.000000
O O18 0.394903 0.572596 0.500000
#
# Coordination Sequence:
#
# PCOD9427834 Si02
#       8
#     8   8   8   8   8   8   8   8
#     4   8  15  29  48  70  95 122 156 197 235 273
#     4   9  18  33  52  73  99 130 161 196 240 289
#     4   9  17  29  46  68  94 124 157 194 235 278
#     4  10  21  36  53  73  98 127 160 200 242 285
#     4   8  15  29  48  70  95 122 156 197 235 273
#     4   9  18  33  52  73  99 130 161 196 240 289
#     4  10  21  36  53  73  98 127 160 200 242 285
#     4   9  17  29  46  68  94 124 157 194 235 278
#
# _framework density 21.080096999999999
#
# number of rings (size 3 to 8) (size 9 to 14) (size 15 to 20)
#    0.000    3.000    0.000    2.250    0.000    4.000 
#    0.000    8.750    0.000    2.250    0.000    3.500 
#    0.000    0.000    0.000    0.000    0.000    0.000 
#
# Total GULP energy -357360.464094 kJ/mol
# GULP energy per Si atom -5583.757251 kJ/mol
# Density = 2.103212 g / cm^3
# Si number density = 21.080097 Si / 1000 Ang^3
#
#
#
# Elastic Constant Matrix: (Units=GPa)
#
#
# Indices 1 2 3 4 5 6 
#
# 1 50.5449 15.2310 56.6155 0.0000 0.0000 0.0000
# 2 15.2310 66.6192 36.6630 0.0000 0.0000 0.0000
# 3 56.6155 36.6630 93.5242 0.0000 0.0000 0.0000
# 4 0.0000 0.0000 0.0000 -1.9377 0.0000 0.0000
# 5 0.0000 0.0000 0.0000 0.0000 33.1643 0.0000
# 6 0.0000 0.0000 0.0000 0.0000 0.0000 33.8031
#
#
#
# Elastic Compliance Matrix: (Units=1/GPa)
#
#
# Indices 1 2 3 4 5 6 
#
# 1 0.065171 0.008686 -0.042856 0.000000 0.000000 0.000000
# 2 0.008686 0.020298 -0.013215 0.000000 0.000000 0.000000
# 3 -0.042856 -0.013215 0.041816 0.000000 0.000000 0.000000
# 4 0.000000 0.000000 0.000000 -0.516085 0.000000 0.000000
# 5 0.000000 0.000000 0.000000 0.000000 0.030153 0.000000
# 6 0.000000 0.000000 0.000000 0.000000 0.000000 0.029583
#
#
# Mechanical properties :
#
#
# Convention : Reuss Voigt Hill
#
# Bulk Modulus (GPa) = 30.75674 47.52303 39.13988
# Shear Modulus (GPa) = -22.37582 19.81788 -1.27897
#
# Velocity S-wave (km/s) = -3.26155 3.06947 -0.77977
# Velocity P-wave (km/s) = 0.66218 5.92918 4.21863
#
# Compressibility (1/GPa) = 0.03251320
#
# Stress axis : x y z
#
# Youngs Moduli (GPa) = 15.34433 49.26704 23.91414
#
# Poissons Ratio (x) = -0.42792 1.02487
# Poissons Ratio (y) = -0.13328 0.31602
# Poissons Ratio (z) = 0.65760 0.65106
#
# Static dielectric constant tensor:
#      x y z
#    x 1.713990 0.000000 0.000000 
#    y 0.000000 1.820340 0.000000 
#    z 0.000000 0.000000 1.731680 
# 
# From -- ./inp_files/23088.got.cif
#   From: 2010.05.17/outbox.cif.g08.bks.cpg/sg55_12_cif.got.tgz:23088.got - 2010.06.03 13:27:54.
