data_PCOD9427398
_publ_section_title
;
Structure prediction by ZEFSAII (Michael W. Deem and Ramdas Pophale) SiO2 
 PCOD9427398
Probable space group: P B A M
;
_chemical_formula_sum "Si O2"
_cell_formula_units_Z 40
_cell_length_a 8.055281
_cell_length_b 23.820385
_cell_length_c 8.106293
_cell_angle_alpha 90.000000
_cell_angle_beta 90.000000
_cell_angle_gamma 90.000000
_cell_volume 1555.434647
_symmetry_space_group_name_H-M "P B A M"
_symmetry_group_IT_number 55
_symmetry_cell_setting 'orthorhombic'
loop_
_space_group_symop_operation_xyz
x,y,z
-x,-y,z
1/2+x,1/2-y,-z
1/2-x,1/2+y,-z
-x,-y,-z
x,y,-z
1/2-x,1/2+y,z
1/2+x,1/2-y,z
loop_
_atom_site_type_symbol
_atom_site_label
_atom_site_fract_x
_atom_site_fract_y
_atom_site_fract_z
Si Si1 0.630985 0.570807 0.812033
Si Si2 0.668324 0.969111 0.699613
Si Si3 0.049552 0.766209 0.189021
Si Si4 0.669981 0.360963 0.689147
Si Si5 0.648235 0.165186 0.311701
O O1 0.686725 0.508430 0.769522
O O2 0.491707 0.597892 0.696154
O O3 0.791451 0.610986 0.787312
O O4 0.573145 0.575500 0.000000
O O5 0.676822 0.969813 0.500000
O O6 0.500000 0.000000 0.750178
O O7 0.689537 0.904259 0.749820
O O8 0.889374 0.807242 0.208885
O O9 0.996994 0.704204 0.241692
O O10 0.190219 0.793883 0.301688
O O11 0.105334 0.768642 0.000000
O O12 0.700349 0.343997 0.500000
O O13 0.615010 0.148889 0.500000
#
# Coordination Sequence:
#
# PCOD9427398 Si02
#       5
#     8   8   8   8   8
#     4  11  22  37  58  84 114 148 189 235 284 336
#     4  10  22  39  58  82 113 148 188 234 283 338
#     4  11  22  38  59  86 118 149 188 239 291 336
#     4  10  20  37  60  83 110 149 194 233 278 340
#     4  11  22  39  61  85 115 153 195 233 280 343
#
# _framework density 25.716286
#
# number of rings (size 3 to 8) (size 9 to 14) (size 15 to 20)
#    0.000    1.400    0.000    9.000    0.000    6.000 
#    0.000    6.000    0.000    0.000    0.000    0.000 
#    0.000    0.000    0.000    0.000    0.000    0.000 
#
# Total GULP energy -224189.295650 kJ/mol
# GULP energy per Si atom -5604.732391 kJ/mol
# Density = 2.565776 g / cm^3
# Si number density = 25.716286 Si / 1000 Ang^3
#
#
#
# Elastic Constant Matrix: (Units=GPa)
#
#
# Indices 1 2 3 4 5 6 
#
# 1 75.3998 4.5156 -1.0447 0.0000 0.0000 0.0000
# 2 4.5156 147.6871 12.1159 0.0000 0.0000 0.0000
# 3 -1.0447 12.1159 85.1332 0.0000 0.0000 0.0000
# 4 0.0000 0.0000 0.0000 18.4508 0.0000 0.0000
# 5 0.0000 0.0000 0.0000 0.0000 8.3501 0.0000
# 6 0.0000 0.0000 0.0000 0.0000 0.0000 57.7597
#
#
#
# Elastic Compliance Matrix: (Units=1/GPa)
#
#
# Indices 1 2 3 4 5 6 
#
# 1 0.013291 -0.000425 0.000224 0.000000 0.000000 0.000000
# 2 -0.000425 0.006865 -0.000982 0.000000 0.000000 0.000000
# 3 0.000224 -0.000982 0.011889 0.000000 0.000000 0.000000
# 4 0.000000 0.000000 0.000000 0.054198 0.000000 0.000000
# 5 0.000000 0.000000 0.000000 0.000000 0.119759 0.000000
# 6 0.000000 0.000000 0.000000 0.000000 0.000000 0.017313
#
#
# Mechanical properties :
#
#
# Convention : Reuss Voigt Hill
#
# Bulk Modulus (GPa) = 33.69507 37.71042 35.70274
# Shear Modulus (GPa) = 21.22473 36.42099 28.82286
#
# Velocity S-wave (km/s) = 2.87599 3.76741 3.35147
# Velocity P-wave (km/s) = 4.91523 5.79830 5.37493
#
# Compressibility (1/GPa) = 0.02967793
#
# Stress axis : x y z
#
# Youngs Moduli (GPa) = 75.23790 145.67421 84.11259
#
# Poissons Ratio (x) = 0.06187 -0.01880
# Poissons Ratio (y) = 0.03196 0.08261
# Poissons Ratio (z) = -0.01682 0.14308
#
# Static dielectric constant tensor:
#      x y z
#    x 2.161810 0.000000 0.000000 
#    y 0.000000 2.009640 0.000000 
#    z 0.000000 0.000000 1.865410 
# 
# From -- ./inp_files/2333.got.cif
#   From: 2010.05.17/outbox.cif.g08.bks.cpg/sg55_2_cif.got.tgz:2333.got - 2010.06.03 13:27:54.
