data_PCOD9427151
_publ_section_title
;
Structure prediction by ZEFSAII (Michael W. Deem and Ramdas Pophale) SiO2 
 PCOD9427151
Probable space group: P B A M
;
_chemical_formula_sum "Si O2"
_cell_formula_units_Z 64
_cell_length_a 15.616481
_cell_length_b 14.573682
_cell_length_c 14.125905
_cell_angle_alpha 90.000000
_cell_angle_beta 90.000000
_cell_angle_gamma 90.000000
_cell_volume 3214.909465
_symmetry_space_group_name_H-M "P B A M"
_symmetry_group_IT_number 55
_symmetry_cell_setting 'orthorhombic'
loop_
_space_group_symop_operation_xyz
x,y,z
-x,-y,z
1/2+x,1/2-y,-z
1/2-x,1/2+y,-z
-x,-y,-z
x,y,-z
1/2-x,1/2+y,z
1/2+x,1/2-y,z
loop_
_atom_site_type_symbol
_atom_site_label
_atom_site_fract_x
_atom_site_fract_y
_atom_site_fract_z
Si Si1 0.289110 0.415332 0.607355
Si Si2 0.078146 0.570421 0.106868
Si Si3 0.576332 0.747437 0.783603
Si Si4 0.898244 0.062446 0.109590
Si Si5 0.868811 0.928428 0.278555
Si Si6 0.305629 0.911738 0.108057
Si Si7 0.515623 0.659924 0.393067
Si Si8 0.278962 0.767202 0.257394
O O1 0.264084 0.437590 0.500000
O O2 0.298977 0.502793 0.675466
O O3 0.387857 0.379948 0.605742
O O4 0.230321 0.335714 0.652576
O O5 0.054250 0.660152 0.163339
O O6 0.156268 0.508139 0.143405
O O7 0.000000 0.500000 0.105177
O O8 0.100376 0.599471 0.000000
O O9 0.561470 0.653759 0.843136
O O10 0.524953 0.738743 0.685652
O O11 0.679057 0.750718 0.767592
O O12 0.796444 0.080912 0.105930
O O13 0.903772 0.976997 0.182659
O O14 0.923996 0.049442 0.000000
O O15 0.826227 0.829065 0.266427
O O16 0.946319 0.910984 0.352157
O O17 0.324140 0.826739 0.175527
O O18 0.337178 0.898380 0.000000
O O19 0.493087 0.686834 0.500000
#
# Coordination Sequence:
#
# PCOD9427151 Si02
#       8
#     8   8   8   8   8   8   8   8
#     4  10  21  40  60  82 115 149 192 242 287 341
#     4  10  21  35  58  86 115 157 198 232 281 349
#     4  10  20  39  59  83 114 158 188 238 292 338
#     4  10  20  36  57  86 118 147 189 235 285 345
#     4  12  21  36  60  89 114 152 190 238 290 347
#     4   9  18  36  57  81 114 152 194 230 273 344
#     4  10  22  39  60  83 110 149 195 237 287 348
#     4  10  22  36  59  86 118 146 193 237 288 340
#
# _framework density 19.907247000000002
#
# number of rings (size 3 to 8) (size 9 to 14) (size 15 to 20)
#    0.000    1.875    3.750    1.875    1.750    3.000 
#    0.000    1.875    0.000    0.375    0.000    0.000 
#    0.000    0.000    0.000    0.000    0.000    0.000 
#
# Total GULP energy -357095.709220 kJ/mol
# GULP energy per Si atom -5579.620457 kJ/mol
# Density = 1.986194 g / cm^3
# Si number density = 19.907247 Si / 1000 Ang^3
#
#
#
# Elastic Constant Matrix: (Units=GPa)
#
#
# Indices 1 2 3 4 5 6 
#
# 1 28.2016 30.9537 24.8238 0.0000 0.0000 0.0000
# 2 30.9537 162.3417 93.0825 0.0000 0.0000 0.0000
# 3 24.8238 93.0825 162.3633 0.0000 0.0000 0.0000
# 4 0.0000 0.0000 0.0000 20.1071 0.0000 0.0000
# 5 0.0000 0.0000 0.0000 0.0000 10.6007 0.0000
# 6 0.0000 0.0000 0.0000 0.0000 0.0000 23.9214
#
#
#
# Elastic Compliance Matrix: (Units=1/GPa)
#
#
# Indices 1 2 3 4 5 6 
#
# 1 0.045787 -0.007026 -0.002972 0.000000 0.000000 0.000000
# 2 -0.007026 0.010254 -0.004805 0.000000 0.000000 0.000000
# 3 -0.002972 -0.004805 0.009368 0.000000 0.000000 0.000000
# 4 0.000000 0.000000 0.000000 0.049734 0.000000 0.000000
# 5 0.000000 0.000000 0.000000 0.000000 0.094334 0.000000
# 6 0.000000 0.000000 0.000000 0.000000 0.000000 0.041804
#
#
# Mechanical properties :
#
#
# Convention : Reuss Voigt Hill
#
# Bulk Modulus (GPa) = 27.93039 72.29186 50.11112
# Shear Modulus (GPa) = 17.07532 24.52894 20.80213
#
# Velocity S-wave (km/s) = 2.93190 3.51402 3.23608
# Velocity P-wave (km/s) = 5.05194 7.27033 6.26018
#
# Compressibility (1/GPa) = 0.03580330
#
# Stress axis : x y z
#
# Youngs Moduli (GPa) = 21.84032 97.52020 106.74696
#
# Poissons Ratio (x) = 0.68516 0.31730
# Poissons Ratio (y) = 0.15345 0.51287
# Poissons Ratio (z) = 0.06492 0.46854
#
# Static dielectric constant tensor:
#      x y z
#    x 1.746300 0.000000 0.000000 
#    y 0.000000 1.690980 0.000000 
#    z 0.000000 0.000000 1.743920 
# 
# From -- ./inp_files/19535.got.cif
#   From: 2010.05.17/outbox.cif.g08.bks.cpg/sg55_10_cif.got.tgz:19535.got - 2010.06.03 13:27:54.
