data_PCOD9427960
_publ_section_title
;
Structure prediction by ZEFSAII (Michael W. Deem and Ramdas Pophale) SiO2 
 PCOD9427960
Probable space group: P B A M
;
_chemical_formula_sum "Si O2"
_cell_formula_units_Z 48
_cell_length_a 17.719352
_cell_length_b 17.117582
_cell_length_c 7.644903
_cell_angle_alpha 90.000000
_cell_angle_beta 90.000000
_cell_angle_gamma 90.000000
_cell_volume 2318.794342
_symmetry_space_group_name_H-M "P B A M"
_symmetry_group_IT_number 55
_symmetry_cell_setting 'orthorhombic'
loop_
_space_group_symop_operation_xyz
x,y,z
-x,-y,z
1/2+x,1/2-y,-z
1/2-x,1/2+y,-z
-x,-y,-z
x,y,-z
1/2-x,1/2+y,z
1/2+x,1/2-y,z
loop_
_atom_site_type_symbol
_atom_site_label
_atom_site_fract_x
_atom_site_fract_y
_atom_site_fract_z
Si Si1 0.651139 0.331786 0.704416
Si Si2 0.998064 0.090430 0.285516
Si Si3 0.182808 0.643819 0.711610
Si Si4 0.915104 0.507514 0.208792
Si Si5 0.319904 0.845475 0.207951
Si Si6 0.149874 0.818290 0.710795
O O1 0.651238 0.353483 0.500000
O O2 0.573873 0.366403 0.777242
O O3 0.730845 0.362632 0.777764
O O4 0.654976 0.238043 0.716863
O O5 0.996925 0.093027 0.500000
O O6 0.922276 0.133971 0.225368
O O7 0.000000 0.000000 0.234747
O O8 0.185632 0.646836 0.500000
O O9 0.131459 0.571413 0.761604
O O10 0.151583 0.728053 0.771801
O O11 0.868766 0.582197 0.277235
O O12 0.000000 0.500000 0.279540
O O13 0.921084 0.518825 0.000000
O O14 0.230802 0.855077 0.243122
O O15 0.329827 0.840125 0.000000
O O16 0.146142 0.816530 0.500000
#
# Coordination Sequence:
#
# PCOD9427960 Si02
#       6
#     8   8   8   8   8   8
#     4   9  19  36  58  84 111 139 177 221 268 322
#     4   9  18  32  56  86 112 140 174 217 268 320
#     4   9  19  34  54  83 109 136 177 222 267 316
#     4  10  23  39  54  76 107 144 184 223 266 318
#     4  10  21  37  56  78 106 144 185 220 268 323
#     4   9  19  36  58  83 110 140 178 221 268 321
#
# _framework density 20.700412
#
# number of rings (size 3 to 8) (size 9 to 14) (size 15 to 20)
#    0.000    2.667    0.000    1.500    4.667    4.333 
#    0.000    0.833    0.000    1.000    0.000    0.000 
#    0.000    0.000    0.000    0.000    0.000    0.000 
#
# Total GULP energy -267939.798282 kJ/mol
# GULP energy per Si atom -5582.079131 kJ/mol
# Density = 2.065330 g / cm^3
# Si number density = 20.700412 Si / 1000 Ang^3
#
#
#
# Elastic Constant Matrix: (Units=GPa)
#
#
# Indices 1 2 3 4 5 6 
#
# 1 219.4579 131.4626 -2.2695 0.0000 0.0000 0.0000
# 2 131.4626 117.0587 -11.8042 0.0000 0.0000 0.0000
# 3 -2.2695 -11.8042 34.6205 0.0000 0.0000 0.0000
# 4 0.0000 0.0000 0.0000 30.5847 0.0000 0.0000
# 5 0.0000 0.0000 0.0000 0.0000 10.4893 0.0000
# 6 0.0000 0.0000 0.0000 0.0000 0.0000 31.4267
#
#
#
# Elastic Compliance Matrix: (Units=1/GPa)
#
#
# Indices 1 2 3 4 5 6 
#
# 1 0.014661 -0.016951 -0.004819 0.000000 0.000000 0.000000
# 2 -0.016951 0.028445 0.008588 0.000000 0.000000 0.000000
# 3 -0.004819 0.008588 0.031497 0.000000 0.000000 0.000000
# 4 0.000000 0.000000 0.000000 0.032696 0.000000 0.000000
# 5 0.000000 0.000000 0.000000 0.000000 0.095335 0.000000
# 6 0.000000 0.000000 0.000000 0.000000 0.000000 0.031820
#
#
# Mechanical properties :
#
#
# Convention : Reuss Voigt Hill
#
# Bulk Modulus (GPa) = 20.72992 67.32386 44.02689
# Shear Modulus (GPa) = 18.05716 31.41667 24.73692
#
# Velocity S-wave (km/s) = 2.95669 3.89997 3.46062
# Velocity P-wave (km/s) = 4.65747 7.27140 6.10595
#
# Compressibility (1/GPa) = 0.04823945
#
# Stress axis : x y z
#
# Youngs Moduli (GPa) = 68.20795 35.15500 31.74927
#
# Poissons Ratio (x) = 0.59591 0.15298
# Poissons Ratio (y) = 1.15619 -0.27265
# Poissons Ratio (z) = 0.32866 -0.30190
#
# Static dielectric constant tensor:
#      x y z
#    x 1.731520 0.000000 0.000000 
#    y 0.000000 1.698570 0.000000 
#    z 0.000000 0.000000 1.767190 
# 
# From -- ./inp_files/5670.got.cif
#   From: 2010.05.17/outbox.cif.g08.bks.cpg/sg55_3_cif.got.tgz:5670.got - 2010.06.03 13:27:54.
