data_PCOD9427122
_publ_section_title
;
Structure prediction by ZEFSAII (Michael W. Deem and Ramdas Pophale) SiO2 
 PCOD9427122
Probable space group: P B A M
;
_chemical_formula_sum "Si O2"
_cell_formula_units_Z 40
_cell_length_a 13.918750
_cell_length_b 7.964361
_cell_length_c 17.089309
_cell_angle_alpha 90.000000
_cell_angle_beta 90.000000
_cell_angle_gamma 90.000000
_cell_volume 1894.417400
_symmetry_space_group_name_H-M "P B A M"
_symmetry_group_IT_number 55
_symmetry_cell_setting 'orthorhombic'
loop_
_space_group_symop_operation_xyz
x,y,z
-x,-y,z
1/2+x,1/2-y,-z
1/2-x,1/2+y,-z
-x,-y,-z
x,y,-z
1/2-x,1/2+y,z
1/2+x,1/2-y,z
loop_
_atom_site_type_symbol
_atom_site_label
_atom_site_fract_x
_atom_site_fract_y
_atom_site_fract_z
Si Si1 0.810818 0.794647 0.500000
Si Si2 0.957809 0.688521 0.377719
Si Si3 0.896182 0.167598 0.500000
Si Si4 0.401018 0.328069 0.089015
Si Si5 0.446361 0.818083 0.801709
Si Si6 0.207094 0.470559 0.909901
O O1 0.696464 0.787933 0.500000
O O2 0.858629 0.704314 0.425195
O O3 0.851384 0.983150 0.500000
O O4 0.036239 0.798151 0.425054
O O5 0.000000 0.500000 0.381003
O O6 0.940313 0.736870 0.288031
O O7 0.487376 0.305892 0.148333
O O8 0.320702 0.467380 0.105141
O O9 0.339817 0.154197 0.093191
O O10 0.436448 0.342465 0.000000
O O11 0.348161 0.856972 0.847152
O O12 0.500000 0.000000 0.801214
O O13 0.193285 0.409220 0.000000
#
# Coordination Sequence:
#
# PCOD9427122 Si02
#       6
#     4   8   4   8   8   8
#     4  11  22  39  60  80 104 137 174 211 260 316
#     4  10  20  36  56  82 111 136 171 216 262 314
#     4  11  22  39  60  80 104 137 174 211 260 316
#     4   9  17  31  50  72 100 136 176 213 250 295
#     4   9  18  32  52  76 103 136 170 207 253 305
#     4   9  17  31  50  72 100 136 176 213 250 295
#
# _framework density 21.114668999999999
#
# number of rings (size 3 to 8) (size 9 to 14) (size 15 to 20)
#    0.000    2.400    0.000    4.200    0.000    4.000 
#    0.000    9.000    0.000    4.800    0.000    0.000 
#    0.000    0.000    0.000    0.000    0.000    0.000 
#
# Total GULP energy -223523.484481 kJ/mol
# GULP energy per Si atom -5588.087112 kJ/mol
# Density = 2.106661 g / cm^3
# Si number density = 21.114669 Si / 1000 Ang^3
#
#
#
# Elastic Constant Matrix: (Units=GPa)
#
#
# Indices 1 2 3 4 5 6 
#
# 1 88.2008 9.8946 57.1445 0.0000 0.0000 0.0000
# 2 9.8946 69.3035 25.2268 0.0000 0.0000 0.0000
# 3 57.1445 25.2268 130.7803 0.0000 0.0000 0.0000
# 4 0.0000 0.0000 0.0000 21.6246 0.0000 0.0000
# 5 0.0000 0.0000 0.0000 0.0000 1360.5639 0.0000
# 6 0.0000 0.0000 0.0000 0.0000 0.0000 42.1188
#
#
#
# Elastic Compliance Matrix: (Units=1/GPa)
#
#
# Indices 1 2 3 4 5 6 
#
# 1 0.015820 0.000277 -0.006966 0.000000 0.000000 0.000000
# 2 0.000277 0.015524 -0.003116 0.000000 0.000000 0.000000
# 3 -0.006966 -0.003116 0.011291 0.000000 0.000000 0.000000
# 4 0.000000 0.000000 0.000000 0.046244 0.000000 0.000000
# 5 0.000000 0.000000 0.000000 0.000000 0.000735 0.000000
# 6 0.000000 0.000000 0.000000 0.000000 0.000000 0.023742
#
#
# Mechanical properties :
#
#
# Convention : Reuss Voigt Hill
#
# Bulk Modulus (GPa) = 43.42923 52.53515 47.98219
# Shear Modulus (GPa) = 35.55178 297.92936 166.74057
#
# Velocity S-wave (km/s) = 4.10780 11.89147 8.89609
# Velocity P-wave (km/s) = 6.56595 14.61087 11.32672
#
# Compressibility (1/GPa) = 0.02302596
#
# Stress axis : x y z
#
# Youngs Moduli (GPa) = 63.21166 64.41723 88.56494
#
# Poissons Ratio (x) = -0.01784 0.61694
# Poissons Ratio (y) = -0.01751 0.27592
# Poissons Ratio (z) = 0.44033 0.20069
#
# Static dielectric constant tensor:
#      x y z
#    x 1.738770 0.000000 0.000000 
#    y 0.000000 1.820370 0.000000 
#    z 0.000000 0.000000 1.720490 
# 
# From -- ./inp_files/21441.got.cif
#   From: 2010.05.17/outbox.cif.g08.bks.cpg/sg55_11_cif.got.tgz:21441.got - 2010.06.03 13:27:54.
