data_PCOD9427697
_publ_section_title
;
Structure prediction by ZEFSAII (Michael W. Deem and Ramdas Pophale) SiO2 
 PCOD9427697
Probable space group: P B A M
;
_chemical_formula_sum "Si O2"
_cell_formula_units_Z 58
_cell_length_a 17.934720
_cell_length_b 18.634728
_cell_length_c 7.515578
_cell_angle_alpha 90.000000
_cell_angle_beta 90.000000
_cell_angle_gamma 90.000000
_cell_volume 2511.771019
_symmetry_space_group_name_H-M "P B A M"
_symmetry_group_IT_number 55
_symmetry_cell_setting 'orthorhombic'
loop_
_space_group_symop_operation_xyz
x,y,z
-x,-y,z
1/2+x,1/2-y,-z
1/2-x,1/2+y,-z
-x,-y,-z
x,y,-z
1/2-x,1/2+y,z
1/2+x,1/2-y,z
loop_
_atom_site_type_symbol
_atom_site_label
_atom_site_fract_x
_atom_site_fract_y
_atom_site_fract_z
Si Si1 0.946414 0.179401 0.796109
Si Si2 0.148640 0.418696 0.290038
Si Si3 0.079696 0.077700 0.783420
Si Si4 0.770168 0.836883 0.783627
Si Si5 0.279122 0.318173 0.785412
Si Si6 0.986516 0.671208 0.702059
Si Si7 0.622626 0.918475 0.794884
Si Si8 0.000000 0.000000 0.500000
O O1 0.863805 0.178907 0.716325
O O2 0.977724 0.260083 0.793869
O O3 0.011023 0.128974 0.721635
O O4 0.938429 0.155566 0.000000
O O5 0.134426 0.424939 0.500000
O O6 0.230256 0.387010 0.260331
O O7 0.135434 0.496944 0.212692
O O8 0.088773 0.361207 0.217724
O O9 0.155281 0.120211 0.737310
O O10 0.064551 0.009880 0.659526
O O11 0.078504 0.065487 0.000000
O O12 0.762338 0.754568 0.723102
O O13 0.695999 0.878596 0.723879
O O14 0.769686 0.836341 0.000000
O O15 0.283031 0.312990 0.000000
O O16 0.971226 0.694272 0.500000
O O17 0.047903 0.608325 0.702255
O O18 0.613689 0.896372 0.000000
#
# Coordination Sequence:
#
# PCOD9427697 Si02
#       8
#     8   8   8   8   8   8   8   2
#     4  10  21  40  68  95 123 164 213 265 323 380
#     4  11  25  41  56  90 132 166 203 257 321 381
#     4  10  23  44  67  94 132 173 216 278 332 383
#     4   9  19  40  66  90 123 164 211 262 320 383
#     4  10  20  40  66  94 124 161 211 263 316 384
#     4  11  23  39  62  91 130 167 204 259 320 385
#     4  11  22  40  65  92 123 168 218 258 312 386
#     4  12  26  44  64  94 124 168 226 276 324 410
#
# _framework density 23.091276000000001
#
# number of rings (size 3 to 8) (size 9 to 14) (size 15 to 20)
#    0.000    1.655    1.379    2.690    0.966    6.621 
#    6.207    4.138    0.000    0.000    0.000    0.000 
#    0.000    0.000    0.000    0.000    0.000    0.000 
#
# Total GULP energy -323717.128970 kJ/mol
# GULP energy per Si atom -5581.329810 kJ/mol
# Density = 2.303872 g / cm^3
# Si number density = 23.091276 Si / 1000 Ang^3
#
#
#
# Elastic Constant Matrix: (Units=GPa)
#
#
# Indices 1 2 3 4 5 6 
#
# 1 62.9484 22.4367 1.0140 0.0000 0.0000 0.0000
# 2 22.4367 45.6688 -12.4985 0.0000 0.0000 0.0000
# 3 1.0140 -12.4985 85.9611 0.0000 0.0000 0.0000
# 4 0.0000 0.0000 0.0000 41.1664 0.0000 0.0000
# 5 0.0000 0.0000 0.0000 0.0000 -5.4972 0.0000
# 6 0.0000 0.0000 0.0000 0.0000 0.0000 -13.2972
#
#
#
# Elastic Compliance Matrix: (Units=1/GPa)
#
#
# Indices 1 2 3 4 5 6 
#
# 1 0.019491 -0.010038 -0.001689 0.000000 0.000000 0.000000
# 2 -0.010038 0.027974 0.004186 0.000000 0.000000 0.000000
# 3 -0.001689 0.004186 0.012262 0.000000 0.000000 0.000000
# 4 0.000000 0.000000 0.000000 0.024292 0.000000 0.000000
# 5 0.000000 0.000000 0.000000 0.000000 -0.181909 0.000000
# 6 0.000000 0.000000 0.000000 0.000000 0.000000 -0.075204
#
#
# Mechanical properties :
#
#
# Convention : Reuss Voigt Hill
#
# Bulk Modulus (GPa) = 22.39988 24.05363 23.22675
# Shear Modulus (GPa) = -34.93334 16.71612 -9.10861
#
# Velocity S-wave (km/s) = -3.89374 2.69349 -1.98826
# Velocity P-wave (km/s) = 3.23934 4.48470 2.19308
#
# Compressibility (1/GPa) = 0.04464310
#
# Stress axis : x y z
#
# Youngs Moduli (GPa) = 51.30534 35.74742 81.55475
#
# Poissons Ratio (x) = 0.35884 0.13778
# Poissons Ratio (y) = 0.51501 -0.34137
# Poissons Ratio (z) = 0.08668 -0.14963
#
# Static dielectric constant tensor:
#      x y z
#    x 1.846160 0.000000 0.000000 
#    y 0.000000 1.891490 0.000000 
#    z 0.000000 0.000000 1.894410 
# 
# From -- ./inp_files/7746.got.cif
#   From: 2010.05.17/outbox.cif.g08.bks.cpg/sg55_4_cif.got.tgz:7746.got - 2010.06.03 13:27:54.
