data_PCOD9427536
_publ_section_title
;
Structure prediction by ZEFSAII (Michael W. Deem and Ramdas Pophale) SiO2 
 PCOD9427536
Probable space group: P B A M
;
_chemical_formula_sum "Si O2"
_cell_formula_units_Z 48
_cell_length_a 10.174188
_cell_length_b 30.143652
_cell_length_c 8.235664
_cell_angle_alpha 90.000000
_cell_angle_beta 90.000000
_cell_angle_gamma 90.000000
_cell_volume 2525.772588
_symmetry_space_group_name_H-M "P B A M"
_symmetry_group_IT_number 55
_symmetry_cell_setting 'orthorhombic'
loop_
_space_group_symop_operation_xyz
x,y,z
-x,-y,z
1/2+x,1/2-y,-z
1/2-x,1/2+y,-z
-x,-y,-z
x,y,-z
1/2-x,1/2+y,z
1/2+x,1/2-y,z
loop_
_atom_site_type_symbol
_atom_site_label
_atom_site_fract_x
_atom_site_fract_y
_atom_site_fract_z
Si Si1 0.926619 0.635770 0.678507
Si Si2 0.155602 0.281278 0.500000
Si Si3 0.548610 0.702835 0.500000
Si Si4 0.222017 0.929759 0.184862
Si Si5 0.700654 0.889771 0.811614
Si Si6 0.502746 0.360774 0.804813
Si Si7 0.145415 0.514101 0.689084
O O1 0.902674 0.614897 0.500000
O O2 0.881453 0.686415 0.652017
O O3 0.836499 0.607288 0.796825
O O4 0.079572 0.631953 0.716528
O O5 0.310174 0.273281 0.500000
O O6 0.068916 0.237841 0.500000
O O7 0.540919 0.673867 0.665824
O O8 0.087321 0.904248 0.222160
O O9 0.259969 0.972149 0.289882
O O10 0.217613 0.945395 0.000000
O O11 0.844622 0.871389 0.773379
O O12 0.694727 0.942300 0.779394
O O13 0.675754 0.881193 0.000000
O O14 0.487507 0.348981 0.000000
O O15 0.132691 0.525788 0.500000
O O16 0.000000 0.500000 0.749164
#
# Coordination Sequence:
#
# PCOD9427536 Si02
#       7
#     8   4   4   8   8   8   8
#     4  10  20  38  60  91 122 157 215 251 310 382
#     4  10  26  40  72  99 123 163 210 252 328 386
#     4  12  24  48  72  97 132 166 201 267 325 393
#     4  11  21  39  63  87 125 173 211 262 314 367
#     4  11  23  39  60  93 128 170 215 263 316 367
#     4  10  25  44  67  95 131 172 213 262 320 385
#     4  11  23  35  56  90 128 166 218 269 307 367
#
# _framework density 19.004086000000001
#
# number of rings (size 3 to 8) (size 9 to 14) (size 15 to 20)
#    0.500    0.833    3.333    2.000    5.833    1.333 
#    0.000    5.833    0.000    0.000    0.000    0.000 
#    0.000    0.000    0.000    0.000    0.000    0.000 
#
# Total GULP energy -267776.110902 kJ/mol
# GULP energy per Si atom -5578.668977 kJ/mol
# Density = 1.896083 g / cm^3
# Si number density = 19.004086 Si / 1000 Ang^3
#
#
#
# Elastic Constant Matrix: (Units=GPa)
#
#
# Indices 1 2 3 4 5 6 
#
# 1 90.8190 6.2335 16.5917 0.0000 0.0000 0.0000
# 2 6.2335 32.5694 15.1614 0.0000 0.0000 0.0000
# 3 16.5917 15.1614 34.0717 0.0000 0.0000 0.0000
# 4 0.0000 0.0000 0.0000 6.8892 0.0000 0.0000
# 5 0.0000 0.0000 0.0000 0.0000 13.7472 0.0000
# 6 0.0000 0.0000 0.0000 0.0000 0.0000 32.6751
#
#
#
# Elastic Compliance Matrix: (Units=1/GPa)
#
#
# Indices 1 2 3 4 5 6 
#
# 1 0.012094 0.000538 -0.006129 0.000000 0.000000 0.000000
# 2 0.000538 0.038749 -0.017505 0.000000 0.000000 0.000000
# 3 -0.006129 -0.017505 0.040124 0.000000 0.000000 0.000000
# 4 0.000000 0.000000 0.000000 0.145156 0.000000 0.000000
# 5 0.000000 0.000000 0.000000 0.000000 0.072742 0.000000
# 6 0.000000 0.000000 0.000000 0.000000 0.000000 0.030604
#
#
# Mechanical properties :
#
#
# Convention : Reuss Voigt Hill
#
# Bulk Modulus (GPa) = 22.33338 25.93702 24.13520
# Shear Modulus (GPa) = 12.48174 18.62718 15.55446
#
# Velocity S-wave (km/s) = 2.56558 3.13416 2.86401
# Velocity P-wave (km/s) = 4.53361 5.17446 4.86460
#
# Compressibility (1/GPa) = 0.04477603
#
# Stress axis : x y z
#
# Youngs Moduli (GPa) = 82.68824 25.80686 24.92288
#
# Poissons Ratio (x) = -0.01389 0.15275
# Poissons Ratio (y) = -0.04452 0.43628
# Poissons Ratio (z) = 0.50677 0.45175
#
# Static dielectric constant tensor:
#      x y z
#    x 1.659040 0.000000 0.000000 
#    y 0.000000 1.631370 0.000000 
#    z 0.000000 0.000000 1.666210 
# 
# From -- ./inp_files/2933.got.cif
#   From: 2010.05.17/outbox.cif.g08.bks.cpg/sg55_2_cif.got.tgz:2933.got - 2010.06.03 13:27:54.
