data_PCOD9427528
_publ_section_title
;
Structure prediction by ZEFSAII (Michael W. Deem and Ramdas Pophale) SiO2 
 PCOD9427528
Probable space group: P B A M
;
_chemical_formula_sum "Si O2"
_cell_formula_units_Z 48
_cell_length_a 9.055423
_cell_length_b 14.986493
_cell_length_c 16.719745
_cell_angle_alpha 90.000000
_cell_angle_beta 90.000000
_cell_angle_gamma 90.000000
_cell_volume 2269.020433
_symmetry_space_group_name_H-M "P B A M"
_symmetry_group_IT_number 55
_symmetry_cell_setting 'orthorhombic'
loop_
_space_group_symop_operation_xyz
x,y,z
-x,-y,z
1/2+x,1/2-y,-z
1/2-x,1/2+y,-z
-x,-y,-z
x,y,-z
1/2-x,1/2+y,z
1/2+x,1/2-y,z
loop_
_atom_site_type_symbol
_atom_site_label
_atom_site_fract_x
_atom_site_fract_y
_atom_site_fract_z
Si Si1 0.637423 0.871513 0.413910
Si Si2 0.295591 0.915641 0.411725
Si Si3 0.166498 0.870483 0.085987
Si Si4 0.440554 0.768160 0.855063
Si Si5 0.658525 0.535957 0.744059
Si Si6 0.204811 0.653664 0.243853
O O1 0.680536 0.833722 0.500000
O O2 0.459915 0.875511 0.407735
O O3 0.702403 0.822762 0.337467
O O4 0.686494 0.975818 0.412791
O O5 0.231473 0.892159 0.500000
O O6 0.214417 0.900146 0.327251
O O7 0.046996 0.791309 0.090410
O O8 0.330284 0.830355 0.095634
O O9 0.140126 0.921764 0.168734
O O10 0.152698 0.917569 0.000000
O O11 0.549990 0.822253 0.797066
O O12 0.334151 0.704427 0.802761
O O13 0.500000 0.500000 0.716971
O O14 0.766420 0.452135 0.757475
#
# Coordination Sequence:
#
# PCOD9427528 Si02
#       6
#     8   8   8   8   8   8
#     4   8  14  28  52  81 111 149 190 236 284 333
#     4   8  15  28  51  82 116 149 188 233 284 339
#     4  11  23  41  62  87 115 149 192 239 292 356
#     4  10  22  40  61  82 113 157 190 229 292 362
#     4  11  21  36  57  89 117 152 197 248 296 328
#     4  10  20  38  59  84 116 153 194 239 287 348
#
# _framework density 21.154502999999998
#
# number of rings (size 3 to 8) (size 9 to 14) (size 15 to 20)
#    0.000    2.333    1.667    2.500    0.000    2.667 
#    0.000    3.333    0.000    4.000    0.000    0.000 
#    0.000    0.000    0.000    0.000    0.000    0.000 
#
# Total GULP energy -267815.895968 kJ/mol
# GULP energy per Si atom -5579.497833 kJ/mol
# Density = 2.110635 g / cm^3
# Si number density = 21.154503 Si / 1000 Ang^3
#
#
#
# Elastic Constant Matrix: (Units=GPa)
#
#
# Indices 1 2 3 4 5 6 
#
# 1 66.0557 -0.4386 13.4221 0.0000 0.0000 0.0000
# 2 -0.4386 27.4812 -1.0434 0.0000 0.0000 0.0000
# 3 13.4221 -1.0434 143.8889 0.0000 0.0000 0.0000
# 4 0.0000 0.0000 0.0000 17.8769 0.0000 0.0000
# 5 0.0000 0.0000 0.0000 0.0000 -3.2841 0.0000
# 6 0.0000 0.0000 0.0000 0.0000 0.0000 17.6319
#
#
#
# Elastic Compliance Matrix: (Units=1/GPa)
#
#
# Indices 1 2 3 4 5 6 
#
# 1 0.015432 0.000192 -0.001438 0.000000 0.000000 0.000000
# 2 0.000192 0.036401 0.000246 0.000000 0.000000 0.000000
# 3 -0.001438 0.000246 0.007086 0.000000 0.000000 0.000000
# 4 0.000000 0.000000 0.000000 0.055938 0.000000 0.000000
# 5 0.000000 0.000000 0.000000 0.000000 -0.304501 0.000000
# 6 0.000000 0.000000 0.000000 0.000000 0.000000 0.056715
#
#
# Mechanical properties :
#
#
# Convention : Reuss Voigt Hill
#
# Bulk Modulus (GPa) = 17.56910 29.03401 23.30156
# Shear Modulus (GPa) = -44.66057 21.47733 -11.59162
#
# Velocity S-wave (km/s) = -4.59972 3.18977 -2.34337
# Velocity P-wave (km/s) = 4.45946 5.22692 1.92795
#
# Compressibility (1/GPa) = 0.05691810
#
# Stress axis : x y z
#
# Youngs Moduli (GPa) = 64.79948 27.47188 141.12848
#
# Poissons Ratio (x) = -0.00527 0.20296
# Poissons Ratio (y) = -0.01242 -0.03473
# Poissons Ratio (z) = 0.09319 -0.00676
#
# Static dielectric constant tensor:
#      x y z
#    x 1.684050 0.000000 0.000000 
#    y 0.000000 1.793370 0.000000 
#    z 0.000000 0.000000 1.820560 
# 
# From -- ./inp_files/17356.got.cif
#   From: 2010.05.17/outbox.cif.g08.bks.cpg/sg55_9_cif.got.tgz:17356.got - 2010.06.03 13:27:54.
