data_PCOD9427775
_publ_section_title
;
Structure prediction by ZEFSAII (Michael W. Deem and Ramdas Pophale) SiO2 
 PCOD9427775
Probable space group: P B A M
;
_chemical_formula_sum "Si O2"
_cell_formula_units_Z 56
_cell_length_a 23.087217
_cell_length_b 14.419868
_cell_length_c 7.396645
_cell_angle_alpha 90.000000
_cell_angle_beta 90.000000
_cell_angle_gamma 90.000000
_cell_volume 2462.451271
_symmetry_space_group_name_H-M "P B A M"
_symmetry_group_IT_number 55
_symmetry_cell_setting 'orthorhombic'
loop_
_space_group_symop_operation_xyz
x,y,z
-x,-y,z
1/2+x,1/2-y,-z
1/2-x,1/2+y,-z
-x,-y,-z
x,y,-z
1/2-x,1/2+y,z
1/2+x,1/2-y,z
loop_
_atom_site_type_symbol
_atom_site_label
_atom_site_fract_x
_atom_site_fract_y
_atom_site_fract_z
Si Si1 0.947016 0.441915 0.708448
Si Si2 0.340205 0.736421 0.788310
Si Si3 0.332103 0.943678 0.220846
Si Si4 0.369804 0.223151 0.280059
Si Si5 0.755921 0.394397 0.208892
Si Si6 0.423499 0.410767 0.279971
Si Si7 0.556180 0.385256 0.717466
O O1 0.963496 0.422371 0.500000
O O2 0.891154 0.508136 0.716133
O O3 0.922614 0.344156 0.781337
O O4 0.000000 0.500000 0.790905
O O5 0.329850 0.838568 0.714680
O O6 0.298675 0.657605 0.707741
O O7 0.405683 0.701483 0.774281
O O8 0.325185 0.743037 0.000000
O O9 0.279740 0.009109 0.284918
O O10 0.333368 0.945773 0.000000
O O11 0.368868 0.220072 0.500000
O O12 0.310208 0.176720 0.216863
O O13 0.380936 0.328687 0.221833
O O14 0.742021 0.414241 0.000000
O O15 0.422055 0.411422 0.500000
O O16 0.415228 0.517126 0.220887
O O17 0.489282 0.384679 0.225670
O O18 0.555515 0.386524 0.500000
#
# Coordination Sequence:
#
# PCOD9427775 Si02
#       7
#     8   8   8   8   8   8   8
#     4   9  18  30  48  76 103 128 162 203 247 296
#     4  10  21  35  52  75 102 133 170 213 257 297
#     4   9  19  35  51  70 100 134 166 204 251 301
#     4   9  17  31  51  73 100 130 164 208 251 296
#     4   9  19  36  52  69  99 135 171 207 249 300
#     4   8  16  32  52  75 103 133 163 204 253 304
#     4   9  18  33  53  75 100 132 169 203 250 309
#
# _framework density 22.741565999999999
#
# number of rings (size 3 to 8) (size 9 to 14) (size 15 to 20)
#    0.000    3.000    0.000    0.857    2.000    2.571 
#    0.000    4.286    0.000    0.000    0.000    0.000 
#    0.000    0.000    0.000    0.000    0.000    0.000 
#
# Total GULP energy -312501.567493 kJ/mol
# GULP energy per Si atom -5580.385134 kJ/mol
# Density = 2.268980 g / cm^3
# Si number density = 22.741566 Si / 1000 Ang^3
#
#
#
# Elastic Constant Matrix: (Units=GPa)
#
#
# Indices 1 2 3 4 5 6 
#
# 1 15.2804 11.3599 -10.4502 0.0000 0.0000 0.0000
# 2 11.3599 116.1626 -4.6188 0.0000 0.0000 0.0000
# 3 -10.4502 -4.6188 77.4431 0.0000 0.0000 0.0000
# 4 0.0000 0.0000 0.0000 6.7923 0.0000 0.0000
# 5 0.0000 0.0000 0.0000 0.0000 6.2704 0.0000
# 6 0.0000 0.0000 0.0000 0.0000 0.0000 16.1702
#
#
#
# Elastic Compliance Matrix: (Units=1/GPa)
#
#
# Indices 1 2 3 4 5 6 
#
# 1 0.077666 -0.007196 0.010051 0.000000 0.000000 0.000000
# 2 -0.007196 0.009296 -0.000417 0.000000 0.000000 0.000000
# 3 0.010051 -0.000417 0.014244 0.000000 0.000000 0.000000
# 4 0.000000 0.000000 0.000000 0.147226 0.000000 0.000000
# 5 0.000000 0.000000 0.000000 0.000000 0.159479 0.000000
# 6 0.000000 0.000000 0.000000 0.000000 0.000000 0.061842
#
#
# Mechanical properties :
#
#
# Convention : Reuss Voigt Hill
#
# Bulk Modulus (GPa) = 9.42644 22.38530 15.90587
# Shear Modulus (GPa) = 9.99527 20.01961 15.00744
#
# Velocity S-wave (km/s) = 2.09874 2.97022 2.57166
# Velocity P-wave (km/s) = 3.16654 4.65055 3.97835
#
# Compressibility (1/GPa) = 0.10608463
#
# Stress axis : x y z
#
# Youngs Moduli (GPa) = 12.87557 107.57627 70.20406
#
# Poissons Ratio (x) = 0.77407 -0.70564
# Poissons Ratio (y) = 0.09265 0.02924
# Poissons Ratio (z) = -0.12942 0.04481
#
# Static dielectric constant tensor:
#      x y z
#    x 1.810220 0.000000 0.000000 
#    y 0.000000 1.853260 0.000000 
#    z 0.000000 0.000000 1.869060 
# 
# From -- ./inp_files/15712.got.cif
#   From: 2010.05.17/outbox.cif.g08.bks.cpg/sg55_8_cif.got.tgz:15712.got - 2010.06.03 13:27:54.
