data_PCOD9427598
_publ_section_title
;
Structure prediction by ZEFSAII (Michael W. Deem and Ramdas Pophale) SiO2 
 PCOD9427598
Probable space group: P B A M
;
_chemical_formula_sum "Si O2"
_cell_formula_units_Z 36
_cell_length_a 14.039963
_cell_length_b 9.595957
_cell_length_c 13.054234
_cell_angle_alpha 90.000000
_cell_angle_beta 90.000000
_cell_angle_gamma 90.000000
_cell_volume 1758.756234
_symmetry_space_group_name_H-M "P B A M"
_symmetry_group_IT_number 55
_symmetry_cell_setting 'orthorhombic'
loop_
_space_group_symop_operation_xyz
x,y,z
-x,-y,z
1/2+x,1/2-y,-z
1/2-x,1/2+y,-z
-x,-y,-z
x,y,-z
1/2-x,1/2+y,z
1/2+x,1/2-y,z
loop_
_atom_site_type_symbol
_atom_site_label
_atom_site_fract_x
_atom_site_fract_y
_atom_site_fract_z
Si Si1 0.000000 0.500000 0.319937
Si Si2 0.869357 0.610808 0.500000
Si Si3 0.904556 0.912332 0.000000
Si Si4 0.159564 0.690646 0.276770
Si Si5 0.598840 0.086731 0.000000
Si Si6 0.783199 0.322911 0.500000
Si Si7 0.764855 0.036598 0.833911
O O1 0.070013 0.419218 0.398126
O O2 0.057937 0.616377 0.257738
O O3 0.789975 0.489546 0.500000
O O4 0.821212 0.759499 0.500000
O O5 0.925460 0.749477 0.000000
O O6 0.840998 0.956896 0.096693
O O7 0.000000 0.000000 0.000000
O O8 0.164796 0.727257 0.396614
O O9 0.234537 0.566554 0.256517
O O10 0.190141 0.819926 0.207051
O O11 0.669862 0.059745 0.903134
O O12 0.500000 0.000000 0.000000
#
# Coordination Sequence:
#
# PCOD9427598 Si02
#       7
#     4   4   4   8   4   4   8
#     4   9  20  34  64  95 128 176 242 273 336 409
#     4   9  18  38  60  89 124 180 236 281 326 403
#     4  11  26  46  67  99 137 168 224 293 345 410
#     4  11  22  41  68  97 138 186 228 285 341 416
#     4  11  26  46  75 100 130 179 227 283 353 419
#     4  10  20  38  64  88 136 184 218 276 340 392
#     4  11  25  44  69 100 138 176 229 283 351 409
#
# _framework density 20.469010000000001
#
# number of rings (size 3 to 8) (size 9 to 14) (size 15 to 20)
#    0.000    1.556    2.222    3.333    4.667    0.000 
#    4.000    0.000    0.000   10.667    0.000    0.000 
#    0.000    0.000    0.000    0.000    0.000    0.000 
#
# Total GULP energy -201041.317981 kJ/mol
# GULP energy per Si atom -5584.481055 kJ/mol
# Density = 2.042242 g / cm^3
# Si number density = 20.469010 Si / 1000 Ang^3
#
#
#
# Elastic Constant Matrix: (Units=GPa)
#
#
# Indices 1 2 3 4 5 6 
#
# 1 129.6880 87.3328 37.9881 0.0000 0.0000 0.0000
# 2 87.3328 150.1734 45.2435 0.0000 0.0000 0.0000
# 3 37.9881 45.2435 93.4339 0.0000 0.0000 0.0000
# 4 0.0000 0.0000 0.0000 14.8787 0.0000 0.0000
# 5 0.0000 0.0000 0.0000 0.0000 10.9128 0.0000
# 6 0.0000 0.0000 0.0000 0.0000 0.0000 53.6596
#
#
#
# Elastic Compliance Matrix: (Units=1/GPa)
#
#
# Indices 1 2 3 4 5 6 
#
# 1 0.012955 -0.006963 -0.001896 0.000000 0.000000 0.000000
# 2 -0.006963 0.011539 -0.002756 0.000000 0.000000 0.000000
# 3 -0.001896 -0.002756 0.012808 0.000000 0.000000 0.000000
# 4 0.000000 0.000000 0.000000 0.067210 0.000000 0.000000
# 5 0.000000 0.000000 0.000000 0.000000 0.091635 0.000000
# 6 0.000000 0.000000 0.000000 0.000000 0.000000 0.018636
#
#
# Mechanical properties :
#
#
# Convention : Reuss Voigt Hill
#
# Bulk Modulus (GPa) = 71.06258 79.38047 75.22152
# Shear Modulus (GPa) = 20.60129 29.40563 25.00346
#
# Velocity S-wave (km/s) = 3.17592 3.79435 3.49883
# Velocity P-wave (km/s) = 6.94559 7.61979 7.29048
#
# Compressibility (1/GPa) = 0.01407210
#
# Stress axis : x y z
#
# Youngs Moduli (GPa) = 77.19136 86.66589 78.07507
#
# Poissons Ratio (x) = 0.60343 0.14800
# Poissons Ratio (y) = 0.53746 0.21521
# Poissons Ratio (z) = 0.14632 0.23889
#
# Static dielectric constant tensor:
#      x y z
#    x 1.749650 0.000000 0.000000 
#    y 0.000000 1.690850 0.000000 
#    z 0.000000 0.000000 1.792560 
# 
# From -- ./inp_files/17029.got.cif
#   From: 2010.05.17/outbox.cif.g08.bks.cpg/sg55_9_cif.got.tgz:17029.got - 2010.06.03 13:27:54.
