data_PCOD9427054
_publ_section_title
;
Structure prediction by ZEFSAII (Michael W. Deem and Ramdas Pophale) SiO2 
 PCOD9427054
Probable space group: P B A M
;
_chemical_formula_sum "Si O2"
_cell_formula_units_Z 40
_cell_length_a 28.057518
_cell_length_b 7.680166
_cell_length_c 9.118913
_cell_angle_alpha 90.000000
_cell_angle_beta 90.000000
_cell_angle_gamma 90.000000
_cell_volume 1965.001696
_symmetry_space_group_name_H-M "P B A M"
_symmetry_group_IT_number 55
_symmetry_cell_setting 'orthorhombic'
loop_
_space_group_symop_operation_xyz
x,y,z
-x,-y,z
1/2+x,1/2-y,-z
1/2-x,1/2+y,-z
-x,-y,-z
x,y,-z
1/2-x,1/2+y,z
1/2+x,1/2-y,z
loop_
_atom_site_type_symbol
_atom_site_label
_atom_site_fract_x
_atom_site_fract_y
_atom_site_fract_z
Si Si1 0.613588 0.788110 0.174649
Si Si2 0.091344 0.095648 0.174552
Si Si3 0.293798 0.118470 0.330388
Si Si4 0.187624 0.207441 0.329716
Si Si5 0.552174 0.083286 0.329384
O O1 0.586244 0.608536 0.209594
O O2 0.667296 0.779330 0.236504
O O3 0.587788 0.951198 0.248741
O O4 0.614678 0.809637 0.000000
O O5 0.144003 0.148092 0.230548
O O6 0.056024 0.228232 0.254903
O O7 0.087711 0.117714 0.000000
O O8 0.295522 0.179457 0.500000
O O9 0.239177 0.136632 0.281698
O O10 0.307907 0.916147 0.326455
O O11 0.179524 0.154437 0.500000
O O12 0.565936 0.097845 0.500000
O O13 0.500000 0.000000 0.319352
#
# Coordination Sequence:
#
# PCOD9427054 Si02
#       5
#     8   8   8   8   8
#     4  11  24  41  63  93 129 168 207 255 316 378
#     4  11  24  41  63  93 129 168 207 255 316 378
#     4  10  20  35  58  89 125 168 213 257 307 366
#     4  10  20  35  58  89 125 168 213 257 307 366
#     4  11  25  45  69  95 123 161 211 267 322 375
#
# _framework density 20.356217999999998
#
# number of rings (size 3 to 8) (size 9 to 14) (size 15 to 20)
#    0.000    1.400    2.000    3.000    0.000    8.000 
#    0.000    4.000    0.000    0.000    0.000    0.000 
#    0.000    0.000    0.000    0.000    0.000    0.000 
#
# Total GULP energy -223711.806524 kJ/mol
# GULP energy per Si atom -5592.795163 kJ/mol
# Density = 2.030989 g / cm^3
# Si number density = 20.356218 Si / 1000 Ang^3
#
#
#
# Elastic Constant Matrix: (Units=GPa)
#
#
# Indices 1 2 3 4 5 6 
#
# 1 29.8169 -17.5904 -1.5363 0.0000 0.0000 0.0000
# 2 -17.5904 41.7055 8.5831 0.0000 0.0000 0.0000
# 3 -1.5363 8.5831 45.4731 0.0000 0.0000 0.0000
# 4 0.0000 0.0000 0.0000 14.7625 0.0000 0.0000
# 5 0.0000 0.0000 0.0000 0.0000 49.3852 0.0000
# 6 0.0000 0.0000 0.0000 0.0000 0.0000 27.5527
#
#
#
# Elastic Compliance Matrix: (Units=1/GPa)
#
#
# Indices 1 2 3 4 5 6 
#
# 1 0.044846 0.019355 -0.002138 0.000000 0.000000 0.000000
# 2 0.019355 0.033300 -0.005632 0.000000 0.000000 0.000000
# 3 -0.002138 -0.005632 0.022982 0.000000 0.000000 0.000000
# 4 0.000000 0.000000 0.000000 0.067739 0.000000 0.000000
# 5 0.000000 0.000000 0.000000 0.000000 0.020249 0.000000
# 6 0.000000 0.000000 0.000000 0.000000 0.000000 0.036294
#
#
# Mechanical properties :
#
#
# Convention : Reuss Voigt Hill
#
# Bulk Modulus (GPa) = 8.04510 10.65648 9.35079
# Shear Modulus (GPa) = 20.51933 26.84270 23.68102
#
# Velocity S-wave (km/s) = 3.17837 3.63526 3.41446
# Velocity P-wave (km/s) = 4.17494 4.78189 4.48869
#
# Compressibility (1/GPa) = 0.12429921
#
# Stress axis : x y z
#
# Youngs Moduli (GPa) = 22.29836 30.02988 43.51283
#
# Poissons Ratio (x) = -0.58123 0.09304
# Poissons Ratio (y) = -0.43159 0.24504
# Poissons Ratio (z) = 0.04768 0.16911
#
# Static dielectric constant tensor:
#      x y z
#    x 1.719810 0.000000 0.000000 
#    y 0.000000 1.731130 0.000000 
#    z 0.000000 0.000000 1.684810 
# 
# From -- ./inp_files/9997.got.cif
#   From: 2010.05.17/outbox.cif.g08.bks.cpg/sg55_5_cif.got.tgz:9997.got - 2010.06.03 13:27:54.
