data_PCOD9427152
_publ_section_title
;
Structure prediction by ZEFSAII (Michael W. Deem and Ramdas Pophale) SiO2 
 PCOD9427152
Probable space group: P B A M
;
_chemical_formula_sum "Si O2"
_cell_formula_units_Z 60
_cell_length_a 29.242885
_cell_length_b 9.115019
_cell_length_c 11.712964
_cell_angle_alpha 90.000000
_cell_angle_beta 90.000000
_cell_angle_gamma 90.000000
_cell_volume 3122.084140
_symmetry_space_group_name_H-M "P B A M"
_symmetry_group_IT_number 55
_symmetry_cell_setting 'orthorhombic'
loop_
_space_group_symop_operation_xyz
x,y,z
-x,-y,z
1/2+x,1/2-y,-z
1/2-x,1/2+y,-z
-x,-y,-z
x,y,-z
1/2-x,1/2+y,z
1/2+x,1/2-y,z
loop_
_atom_site_type_symbol
_atom_site_label
_atom_site_fract_x
_atom_site_fract_y
_atom_site_fract_z
Si Si1 0.900992 0.204847 0.223429
Si Si2 0.748079 0.010787 0.249641
Si Si3 0.449206 0.063565 0.366819
Si Si4 0.899050 0.406544 0.000000
Si Si5 0.594906 0.149592 0.203126
Si Si6 0.550402 0.431601 0.134413
Si Si7 0.808812 0.253712 0.365088
Si Si8 0.690766 0.262256 0.864650
O O1 0.940191 0.291861 0.292645
O O2 0.855319 0.223185 0.296966
O O3 0.915677 0.039002 0.201033
O O4 0.895146 0.281628 0.101019
O O5 0.713725 0.902605 0.315898
O O6 0.782911 0.904154 0.182787
O O7 0.774754 0.119747 0.334310
O O8 0.721013 0.117701 0.163277
O O9 0.441753 0.091409 0.500000
O O10 0.500000 0.000000 0.350353
O O11 0.414431 0.942034 0.317062
O O12 0.903968 0.533608 0.900048
O O13 0.555288 0.268070 0.181701
O O14 0.642777 0.234867 0.197832
O O15 0.500000 0.500000 0.143834
O O16 0.562296 0.427231 0.000000
O O17 0.816105 0.264112 0.500000
O O18 0.683449 0.274441 0.000000
#
# Coordination Sequence:
#
# PCOD9427152 Si02
#       8
#     8   8   8   4   8   8   8   8
#     4  11  22  39  62  91 120 158 203 244 308 358
#     4  10  23  40  59  91 116 157 201 249 298 353
#     4  10  22  41  62  87 120 160 210 258 297 349
#     4  10  20  36  57  88 116 152 194 244 288 358
#     4  11  21  38  62  86 122 161 198 247 302 363
#     4  11  22  38  58  90 127 160 197 244 306 366
#     4  11  23  41  64  86 120 158 204 249 295 355
#     4  11  21  38  60  86 125 155 196 242 305 363
#
# _framework density 19.217931
#
# number of rings (size 3 to 8) (size 9 to 14) (size 15 to 20)
#    0.000    1.333    2.000    4.400    0.000    0.000 
#    6.000    8.000    0.000    3.600    0.000    0.000 
#    0.000    0.000    0.000    0.000    0.000    0.000 
#
# Total GULP energy -334232.251296 kJ/mol
# GULP energy per Si atom -5570.537522 kJ/mol
# Density = 1.917419 g / cm^3
# Si number density = 19.217931 Si / 1000 Ang^3
#
#
#
# Elastic Constant Matrix: (Units=GPa)
#
#
# Indices 1 2 3 4 5 6 
#
# 1 43.6279 -3.5030 21.8948 0.0000 0.0000 0.0000
# 2 -3.5030 69.9510 0.3686 0.0000 0.0000 0.0000
# 3 21.8948 0.3686 59.2376 0.0000 0.0000 0.0000
# 4 0.0000 0.0000 0.0000 10.7185 0.0000 0.0000
# 5 0.0000 0.0000 0.0000 0.0000 13.6465 0.0000
# 6 0.0000 0.0000 0.0000 0.0000 0.0000 23.0533
#
#
#
# Elastic Compliance Matrix: (Units=1/GPa)
#
#
# Indices 1 2 3 4 5 6 
#
# 1 0.028292 0.001472 -0.010466 0.000000 0.000000 0.000000
# 2 0.001472 0.014373 -0.000633 0.000000 0.000000 0.000000
# 3 -0.010466 -0.000633 0.020753 0.000000 0.000000 0.000000
# 4 0.000000 0.000000 0.000000 0.093297 0.000000 0.000000
# 5 0.000000 0.000000 0.000000 0.000000 0.073279 0.000000
# 6 0.000000 0.000000 0.000000 0.000000 0.000000 0.043378
#
#
# Mechanical properties :
#
#
# Convention : Reuss Voigt Hill
#
# Bulk Modulus (GPa) = 22.64351 23.37082 23.00716
# Shear Modulus (GPa) = 16.26824 19.75407 18.01115
#
# Velocity S-wave (km/s) = 2.91265 3.20956 3.06470
# Velocity P-wave (km/s) = 4.80827 5.09140 4.95186
#
# Compressibility (1/GPa) = 0.04416276
#
# Stress axis : x y z
#
# Youngs Moduli (GPa) = 35.34605 69.57603 48.18474
#
# Poissons Ratio (x) = -0.10241 0.50430
# Poissons Ratio (y) = -0.05203 0.03052
# Poissons Ratio (z) = 0.36993 0.04408
#
# Static dielectric constant tensor:
#      x y z
#    x 1.712330 0.000000 0.000000 
#    y 0.000000 1.668500 0.000000 
#    z 0.000000 0.000000 1.619380 
# 
# From -- ./inp_files/15998.got.cif
#   From: 2010.05.17/outbox.cif.g08.bks.cpg/sg55_8_cif.got.tgz:15998.got - 2010.06.03 13:27:54.
