data_PCOD9427148
_publ_section_title
;
Structure prediction by ZEFSAII (Michael W. Deem and Ramdas Pophale) SiO2 
 PCOD9427148
Probable space group: P B A M
;
_chemical_formula_sum "Si O2"
_cell_formula_units_Z 64
_cell_length_a 12.805959
_cell_length_b 29.249961
_cell_length_c 7.687602
_cell_angle_alpha 90.000000
_cell_angle_beta 90.000000
_cell_angle_gamma 90.000000
_cell_volume 2879.574304
_symmetry_space_group_name_H-M "P B A M"
_symmetry_group_IT_number 55
_symmetry_cell_setting 'orthorhombic'
loop_
_space_group_symop_operation_xyz
x,y,z
-x,-y,z
1/2+x,1/2-y,-z
1/2-x,1/2+y,-z
-x,-y,-z
x,y,-z
1/2-x,1/2+y,z
1/2+x,1/2-y,z
loop_
_atom_site_type_symbol
_atom_site_label
_atom_site_fract_x
_atom_site_fract_y
_atom_site_fract_z
Si Si1 0.358252 0.118645 0.297045
Si Si2 0.374963 0.634039 0.789268
Si Si3 0.518880 0.551410 0.210199
Si Si4 0.745678 0.070963 0.703532
Si Si5 0.060465 0.802339 0.798946
Si Si6 0.882937 0.484198 0.711617
Si Si7 0.491341 0.201892 0.298999
Si Si8 0.286371 0.828316 0.799376
O O1 0.388183 0.113848 0.500000
O O2 0.240863 0.137230 0.283172
O O3 0.362675 0.067209 0.222895
O O4 0.436022 0.156719 0.222530
O O5 0.426072 0.585416 0.740274
O O6 0.458797 0.671681 0.727286
O O7 0.366246 0.636484 0.000000
O O8 0.500000 0.500000 0.271636
O O9 0.629934 0.569134 0.275354
O O10 0.523919 0.551292 0.000000
O O11 0.718468 0.074788 0.500000
O O12 0.704159 0.116873 0.791141
O O13 0.696542 0.023634 0.771955
O O14 0.172977 0.815532 0.722325
O O15 0.042365 0.748511 0.791433
O O16 0.066570 0.818177 0.000000
O O17 0.873681 0.483036 0.500000
O O18 0.000000 0.500000 0.753921
O O19 0.458687 0.206535 0.500000
O O20 0.615053 0.194533 0.290460
O O21 0.289169 0.812961 0.000000
#
# Coordination Sequence:
#
# PCOD9427148 Si02
#       8
#     8   8   8   8   8   8   8   8
#     4  10  22  40  61  90 126 163 201 251 310 364
#     4  10  21  39  60  85 119 159 202 245 298 367
#     4  10  20  36  57  83 119 162 204 251 307 365
#     4  11  21  34  59  91 120 156 204 257 307 364
#     4  10  23  43  64  87 117 160 204 247 307 370
#     4   9  18  35  58  83 120 164 202 243 303 367
#     4  11  25  42  64  94 124 154 201 258 312 364
#     4  11  23  43  67  90 123 163 206 251 305 373
#
# _framework density 22.22551
#
# number of rings (size 3 to 8) (size 9 to 14) (size 15 to 20)
#    0.000    1.750    1.250    2.625    1.750    5.250 
#    0.000    0.625    0.000    2.625    0.000    0.000 
#    0.000    0.000    0.000    0.000    0.000    0.000 
#
# Total GULP energy -357768.447852 kJ/mol
# GULP energy per Si atom -5590.131998 kJ/mol
# Density = 2.217492 g / cm^3
# Si number density = 22.225510 Si / 1000 Ang^3
#
#
#
# Elastic Constant Matrix: (Units=GPa)
#
#
# Indices 1 2 3 4 5 6 
#
# 1 103.1524 43.7771 -10.0131 0.0000 0.0000 0.0000
# 2 43.7771 121.7355 -4.5482 0.0000 0.0000 0.0000
# 3 -10.0131 -4.5482 37.7265 0.0000 0.0000 0.0000
# 4 0.0000 0.0000 0.0000 19.5469 0.0000 0.0000
# 5 0.0000 0.0000 0.0000 0.0000 -3.7418 0.0000
# 6 0.0000 0.0000 0.0000 0.0000 0.0000 36.1609
#
#
#
# Elastic Compliance Matrix: (Units=1/GPa)
#
#
# Indices 1 2 3 4 5 6 
#
# 1 0.011690 -0.004106 0.002608 0.000000 0.000000 0.000000
# 2 -0.004106 0.009694 0.000079 0.000000 0.000000 0.000000
# 3 0.002608 0.000079 0.027208 0.000000 0.000000 0.000000
# 4 0.000000 0.000000 0.000000 0.051159 0.000000 0.000000
# 5 0.000000 0.000000 0.000000 0.000000 -0.267251 0.000000
# 6 0.000000 0.000000 0.000000 0.000000 0.000000 0.027654
#
#
# Mechanical properties :
#
#
# Convention : Reuss Voigt Hill
#
# Bulk Modulus (GPa) = 21.85668 35.67178 28.76423
# Shear Modulus (GPa) = -41.06619 25.95310 -7.55654
#
# Velocity S-wave (km/s) = -4.30316 3.42089 -1.84589
# Velocity P-wave (km/s) = 3.85151 5.62922 2.90293
#
# Compressibility (1/GPa) = 0.04575260
#
# Stress axis : x y z
#
# Youngs Moduli (GPa) = 85.54108 103.15438 36.75367
#
# Poissons Ratio (x) = 0.42360 -0.09584
# Poissons Ratio (y) = 0.35127 -0.00290
# Poissons Ratio (z) = -0.22306 -0.00813
#
# Static dielectric constant tensor:
#      x y z
#    x 1.781330 0.000000 0.000000 
#    y 0.000000 1.803640 0.000000 
#    z 0.000000 0.000000 1.823820 
# 
# From -- ./inp_files/4519.got.cif
#   From: 2010.05.17/outbox.cif.g08.bks.cpg/sg55_3_cif.got.tgz:4519.got - 2010.06.03 13:27:54.
