data_PCOD9427220
_publ_section_title
;
Structure prediction by ZEFSAII (Michael W. Deem and Ramdas Pophale) SiO2 
 PCOD9427220
Probable space group: P B A M
;
_chemical_formula_sum "Si O2"
_cell_formula_units_Z 56
_cell_length_a 14.579210
_cell_length_b 7.957673
_cell_length_c 20.241591
_cell_angle_alpha 90.000000
_cell_angle_beta 90.000000
_cell_angle_gamma 90.000000
_cell_volume 2348.360279
_symmetry_space_group_name_H-M "P B A M"
_symmetry_group_IT_number 55
_symmetry_cell_setting 'orthorhombic'
loop_
_space_group_symop_operation_xyz
x,y,z
-x,-y,z
1/2+x,1/2-y,-z
1/2-x,1/2+y,-z
-x,-y,-z
x,y,-z
1/2-x,1/2+y,z
1/2+x,1/2-y,z
loop_
_atom_site_type_symbol
_atom_site_label
_atom_site_fract_x
_atom_site_fract_y
_atom_site_fract_z
Si Si1 0.121272 0.176927 0.863298
Si Si2 0.294999 0.088092 0.360590
Si Si3 0.134181 0.274115 0.287966
Si Si4 0.772147 0.511414 0.921745
Si Si5 0.402023 0.632310 0.500000
Si Si6 0.051249 0.682282 0.076236
Si Si7 0.517233 0.799551 0.385023
Si Si8 0.751599 0.584586 0.500000
O O1 0.137252 0.221314 0.787241
O O2 0.174957 0.317291 0.906213
O O3 0.176645 0.011291 0.883795
O O4 0.014720 0.197482 0.881839
O O5 0.202130 0.164280 0.333123
O O6 0.374609 0.222754 0.376138
O O7 0.283605 0.992223 0.429866
O O8 0.333718 0.963442 0.304491
O O9 0.031993 0.262904 0.316028
O O10 0.846554 0.367756 0.901647
O O11 0.756939 0.498708 0.000000
O O12 0.462979 0.688885 0.438083
O O13 0.358308 0.446292 0.500000
O O14 0.307427 0.740984 0.500000
O O15 0.000000 0.500000 0.076391
O O16 0.054781 0.740793 0.000000
O O17 0.500000 0.000000 0.401555
#
# Coordination Sequence:
#
# PCOD9427220 Si02
#       8
#     8   8   8   8   4   8   8   4
#     4  11  21  35  57  84 117 150 188 234 285 346
#     4  11  22  39  60  82 115 152 191 242 287 336
#     4  11  23  37  56  85 117 153 191 230 289 350
#     4  10  20  36  59  85 112 147 191 239 285 335
#     4  12  20  37  64  94 113 149 200 241 299 330
#     4   8  16  32  55  81 109 141 185 232 274 327
#     4  10  20  36  60  84 111 150 197 235 276 351
#     4  12  19  36  65  85 119 147 194 250 284 328
#
# _framework density 23.846426999999998
#
# number of rings (size 3 to 8) (size 9 to 14) (size 15 to 20)
#    0.000    1.571    4.286    3.643    0.000    6.286 
#    0.000    1.429    0.000    7.714    0.000    0.000 
#    0.000    0.000    0.000    0.000    0.000    0.000 
#
# Total GULP energy -313195.302759 kJ/mol
# GULP energy per Si atom -5592.773264 kJ/mol
# Density = 2.379215 g / cm^3
# Si number density = 23.846427 Si / 1000 Ang^3
#
#
#
# Elastic Constant Matrix: (Units=GPa)
#
#
# Indices 1 2 3 4 5 6 
#
# 1 98.8524 17.8701 23.7148 0.0000 0.0000 0.0000
# 2 17.8701 49.5544 10.2092 0.0000 0.0000 0.0000
# 3 23.7148 10.2092 81.5835 0.0000 0.0000 0.0000
# 4 0.0000 0.0000 0.0000 -22.3468 0.0000 0.0000
# 5 0.0000 0.0000 0.0000 0.0000 17.7610 0.0000
# 6 0.0000 0.0000 0.0000 0.0000 0.0000 43.9380
#
#
#
# Elastic Compliance Matrix: (Units=1/GPa)
#
#
# Indices 1 2 3 4 5 6 
#
# 1 0.011447 -0.003534 -0.002885 0.000000 0.000000 0.000000
# 2 -0.003534 0.021805 -0.001701 0.000000 0.000000 0.000000
# 3 -0.002885 -0.001701 0.013309 0.000000 0.000000 0.000000
# 4 0.000000 0.000000 0.000000 -0.044749 0.000000 0.000000
# 5 0.000000 0.000000 0.000000 0.000000 0.056303 0.000000
# 6 0.000000 0.000000 0.000000 0.000000 0.000000 0.022759
#
#
# Mechanical properties :
#
#
# Convention : Reuss Voigt Hill
#
# Bulk Modulus (GPa) = 32.98139 37.06429 35.02284
# Shear Modulus (GPa) = 46.63249 19.75018 33.19133
#
# Velocity S-wave (km/s) = 4.42694 2.88101 3.73484
# Velocity P-wave (km/s) = 6.32386 5.16174 5.77212
#
# Compressibility (1/GPa) = 0.03032013
#
# Stress axis : x y z
#
# Youngs Moduli (GPa) = 87.35874 45.86175 75.13714
#
# Poissons Ratio (x) = 0.16206 0.21679
# Poissons Ratio (y) = 0.30869 0.12784
# Poissons Ratio (z) = 0.25205 0.07803
#
# Static dielectric constant tensor:
#      x y z
#    x 1.916910 0.000000 0.000000 
#    y 0.000000 2.031530 0.000000 
#    z 0.000000 0.000000 1.814770 
# 
# From -- ./inp_files/22993.got.cif
#   From: 2010.05.17/outbox.cif.g08.bks.cpg/sg55_12_cif.got.tgz:22993.got - 2010.06.03 13:27:54.
