data_PCOD9427902
_publ_section_title
;
Structure prediction by ZEFSAII (Michael W. Deem and Ramdas Pophale) SiO2 
 PCOD9427902
Probable space group: P B A M
;
_chemical_formula_sum "Si O2"
_cell_formula_units_Z 64
_cell_length_a 30.517408
_cell_length_b 11.578320
_cell_length_c 8.057623
_cell_angle_alpha 90.000000
_cell_angle_beta 90.000000
_cell_angle_gamma 90.000000
_cell_volume 2847.083052
_symmetry_space_group_name_H-M "P B A M"
_symmetry_group_IT_number 55
_symmetry_cell_setting 'orthorhombic'
loop_
_space_group_symop_operation_xyz
x,y,z
-x,-y,z
1/2+x,1/2-y,-z
1/2-x,1/2+y,-z
-x,-y,-z
x,y,-z
1/2-x,1/2+y,z
1/2+x,1/2-y,z
loop_
_atom_site_type_symbol
_atom_site_label
_atom_site_fract_x
_atom_site_fract_y
_atom_site_fract_z
Si Si1 0.917016 0.171245 0.307453
Si Si2 0.848906 0.715674 0.194821
Si Si3 0.408154 0.583185 0.195079
Si Si4 0.065286 0.447047 0.806708
Si Si5 0.772964 0.397772 0.303926
Si Si6 0.987682 0.757502 0.695598
Si Si7 0.630431 0.872717 0.193495
Si Si8 0.743442 0.148376 0.308111
O O1 0.913941 0.204384 0.500000
O O2 0.878762 0.237867 0.213048
O O3 0.964483 0.209724 0.240176
O O4 0.912967 0.035032 0.290601
O O5 0.866448 0.840730 0.248519
O O6 0.891526 0.634507 0.204903
O O7 0.808681 0.670086 0.299051
O O8 0.836157 0.719029 0.000000
O O9 0.451121 0.662150 0.220274
O O10 0.403708 0.559337 0.000000
O O11 0.026571 0.375146 0.723308
O O12 0.086111 0.565271 0.740264
O O13 0.053437 0.461083 0.000000
O O14 0.762420 0.394311 0.500000
O O15 0.825208 0.408844 0.281671
O O16 0.761585 0.269693 0.233554
O O17 0.751023 0.517359 0.237104
O O18 0.986579 0.782593 0.500000
O O19 0.634701 0.904570 0.000000
O O20 0.758561 0.143995 0.500000
#
# Coordination Sequence:
#
# PCOD9427902 Si02
#       8
#     8   8   8   8   8   8   8   8
#     4  11  24  39  55  82 119 156 196 245 297 354
#     4   9  18  35  58  85 114 145 190 239 285 341
#     4  10  21  37  58  85 118 156 198 245 295 352
#     4   9  19  36  58  83 113 149 194 243 290 347
#     4  10  22  40  60  87 121 157 197 245 299 359
#     4  10  21  36  57  85 116 153 198 245 297 351
#     4  11  23  40  61  84 113 153 197 243 298 355
#     4  10  21  37  60  88 119 156 198 242 296 359
#
# _framework density 22.479147000000001
#
# number of rings (size 3 to 8) (size 9 to 14) (size 15 to 20)
#    0.000    2.000    1.250    2.625    0.000    9.000 
#    0.000    3.750    0.000    0.000    0.000    0.000 
#    0.000    0.000    0.000    0.000    0.000    0.000 
#
# Total GULP energy -357221.242592 kJ/mol
# GULP energy per Si atom -5581.581916 kJ/mol
# Density = 2.242798 g / cm^3
# Si number density = 22.479147 Si / 1000 Ang^3
#
#
#
# Elastic Constant Matrix: (Units=GPa)
#
#
# Indices 1 2 3 4 5 6 
#
# 1 24.9597 26.3267 -3.9198 0.0000 0.0000 0.0000
# 2 26.3267 152.2980 -1.3102 0.0000 0.0000 0.0000
# 3 -3.9198 -1.3102 20.2441 0.0000 0.0000 0.0000
# 4 0.0000 0.0000 0.0000 10.0205 0.0000 0.0000
# 5 0.0000 0.0000 0.0000 0.0000 24.5114 0.0000
# 6 0.0000 0.0000 0.0000 0.0000 0.0000 26.5848
#
#
#
# Elastic Compliance Matrix: (Units=1/GPa)
#
#
# Indices 1 2 3 4 5 6 
#
# 1 0.050672 -0.008680 0.009250 0.000000 0.000000 0.000000
# 2 -0.008680 0.008057 -0.001159 0.000000 0.000000 0.000000
# 3 0.009250 -0.001159 0.051113 0.000000 0.000000 0.000000
# 4 0.000000 0.000000 0.000000 0.099795 0.000000 0.000000
# 5 0.000000 0.000000 0.000000 0.000000 0.040797 0.000000
# 6 0.000000 0.000000 0.000000 0.000000 0.000000 0.037616
#
#
# Mechanical properties :
#
#
# Convention : Reuss Voigt Hill
#
# Bulk Modulus (GPa) = 9.20271 26.63281 17.91776
# Shear Modulus (GPa) = 15.36335 23.98368 19.67352
#
# Velocity S-wave (km/s) = 2.61712 3.26993 2.96157
# Velocity P-wave (km/s) = 3.63802 5.11176 4.43652
#
# Compressibility (1/GPa) = 0.10866361
#
# Stress axis : x y z
#
# Youngs Moduli (GPa) = 19.73459 124.12302 19.56442
#
# Poissons Ratio (x) = 1.07737 -0.18097
# Poissons Ratio (y) = 0.17129 0.02268
# Poissons Ratio (z) = -0.18254 0.14389
#
# Static dielectric constant tensor:
#      x y z
#    x 1.803490 0.000000 0.000000 
#    y 0.000000 1.893470 0.000000 
#    z 0.000000 0.000000 1.791590 
# 
# From -- ./inp_files/10793.got.cif
#   From: 2010.05.17/outbox.cif.g08.bks.cpg/sg55_6_cif.got.tgz:10793.got - 2010.06.03 13:27:54.
