data_PCOD9427954
_publ_section_title
;
Structure prediction by ZEFSAII (Michael W. Deem and Ramdas Pophale) SiO2 
 PCOD9427954
Probable space group: P B A M
;
_chemical_formula_sum "Si O2"
_cell_formula_units_Z 48
_cell_length_a 10.235644
_cell_length_b 30.760589
_cell_length_c 8.736166
_cell_angle_alpha 90.000000
_cell_angle_beta 90.000000
_cell_angle_gamma 90.000000
_cell_volume 2750.620638
_symmetry_space_group_name_H-M "P B A M"
_symmetry_group_IT_number 55
_symmetry_cell_setting 'orthorhombic'
loop_
_space_group_symop_operation_xyz
x,y,z
-x,-y,z
1/2+x,1/2-y,-z
1/2-x,1/2+y,-z
-x,-y,-z
x,y,-z
1/2-x,1/2+y,z
1/2+x,1/2-y,z
loop_
_atom_site_type_symbol
_atom_site_label
_atom_site_fract_x
_atom_site_fract_y
_atom_site_fract_z
Si Si1 0.148679 0.950350 0.316062
Si Si2 0.649425 0.118107 0.816725
Si Si3 0.639684 0.218419 0.184360
Si Si4 0.148155 0.715607 0.316906
Si Si5 0.150575 0.620348 0.183649
Si Si6 0.652477 0.450049 0.685240
O O1 0.151546 0.949580 0.500000
O O2 0.249146 0.915300 0.253935
O O3 0.998442 0.941239 0.270812
O O4 0.181363 0.999952 0.269834
O O5 0.674452 0.168440 0.774217
O O6 0.498970 0.108511 0.773530
O O7 0.658372 0.115228 0.000000
O O8 0.744277 0.251331 0.253128
O O9 0.494667 0.226728 0.249071
O O10 0.636641 0.221623 0.000000
O O11 0.144256 0.716893 0.500000
O O12 0.179826 0.666856 0.259750
O O13 0.249945 0.583845 0.239421
O O14 0.155427 0.625285 0.000000
O O15 0.661548 0.447129 0.500000
#
# Coordination Sequence:
#
# PCOD9427954 Si02
#       6
#     8   8   8   8   8   8
#     4   9  19  35  55  77 106 140 176 220 269 316
#     4   9  20  36  54  77 106 138 176 217 261 316
#     4  10  21  39  58  79 111 148 180 220 274 329
#     4  11  22  37  58  84 110 141 183 229 270 320
#     4  10  21  37  55  78 108 143 178 219 270 323
#     4   9  19  36  54  77 107 140 178 221 266 318
#
# _framework density 17.450604999999999
#
# number of rings (size 3 to 8) (size 9 to 14) (size 15 to 20)
#    0.000    2.333    0.000    4.500    0.000    7.333 
#    0.000    8.333    0.000    0.000    0.000    0.000 
#    0.000    0.000    0.000    0.000    0.000    0.000 
#
# Total GULP energy -267909.002806 kJ/mol
# GULP energy per Si atom -5581.437558 kJ/mol
# Density = 1.741089 g / cm^3
# Si number density = 17.450605 Si / 1000 Ang^3
#
#
#
# Elastic Constant Matrix: (Units=GPa)
#
#
# Indices 1 2 3 4 5 6 
#
# 1 154.5192 146.9274 63.2065 0.0000 0.0000 0.0000
# 2 146.9274 161.1077 65.6670 0.0000 0.0000 0.0000
# 3 63.2065 65.6670 73.6639 0.0000 0.0000 0.0000
# 4 0.0000 0.0000 0.0000 35.2423 0.0000 0.0000
# 5 0.0000 0.0000 0.0000 0.0000 18.4399 0.0000
# 6 0.0000 0.0000 0.0000 0.0000 0.0000 44.3663
#
#
#
# Elastic Compliance Matrix: (Units=1/GPa)
#
#
# Indices 1 2 3 4 5 6 
#
# 1 0.049288 -0.043528 -0.003488 0.000000 0.000000 0.000000
# 2 -0.043528 0.048190 -0.005610 0.000000 0.000000 0.000000
# 3 -0.003488 -0.005610 0.021570 0.000000 0.000000 0.000000
# 4 0.000000 0.000000 0.000000 0.028375 0.000000 0.000000
# 5 0.000000 0.000000 0.000000 0.000000 0.054230 0.000000
# 6 0.000000 0.000000 0.000000 0.000000 0.000000 0.022540
#
#
# Mechanical properties :
#
#
# Convention : Reuss Voigt Hill
#
# Bulk Modulus (GPa) = 72.49126 104.54363 88.51744
# Shear Modulus (GPa) = 14.96810 27.17568 21.07189
#
# Velocity S-wave (km/s) = 2.93190 3.95053 3.47870
# Velocity P-wave (km/s) = 7.28645 8.99151 8.18351
#
# Compressibility (1/GPa) = 0.01379477
#
# Stress axis : x y z
#
# Youngs Moduli (GPa) = 20.28903 20.75108 46.36139
#
# Poissons Ratio (x) = 0.90325 0.16173
# Poissons Ratio (y) = 0.88313 0.26010
# Poissons Ratio (z) = 0.07078 0.11642
#
# Static dielectric constant tensor:
#      x y z
#    x 1.572240 0.000000 0.000000 
#    y 0.000000 1.572490 0.000000 
#    z 0.000000 0.000000 1.586720 
# 
# From -- ./inp_files/2757.got.cif
#   From: 2010.05.17/outbox.cif.g08.bks.cpg/sg55_2_cif.got.tgz:2757.got - 2010.06.03 13:27:54.
