data_PCOD9427351
_publ_section_title
;
Structure prediction by ZEFSAII (Michael W. Deem and Ramdas Pophale) SiO2 
 PCOD9427351
Probable space group: P B A M
;
_chemical_formula_sum "Si O2"
_cell_formula_units_Z 64
_cell_length_a 22.303993
_cell_length_b 10.252500
_cell_length_c 15.713393
_cell_angle_alpha 90.000000
_cell_angle_beta 90.000000
_cell_angle_gamma 90.000000
_cell_volume 3593.208105
_symmetry_space_group_name_H-M "P B A M"
_symmetry_group_IT_number 55
_symmetry_cell_setting 'orthorhombic'
loop_
_space_group_symop_operation_xyz
x,y,z
-x,-y,z
1/2+x,1/2-y,-z
1/2-x,1/2+y,-z
-x,-y,-z
x,y,-z
1/2-x,1/2+y,z
1/2+x,1/2-y,z
loop_
_atom_site_type_symbol
_atom_site_label
_atom_site_fract_x
_atom_site_fract_y
_atom_site_fract_z
Si Si1 0.201135 0.833285 0.099493
Si Si2 0.740757 0.406400 0.804398
Si Si3 0.970075 0.859041 0.598148
Si Si4 0.921019 0.317707 0.901229
Si Si5 0.534879 0.363287 0.901234
Si Si6 0.051494 0.610154 0.402852
Si Si7 0.128518 0.512996 0.248704
Si Si8 0.379474 0.701595 0.746917
O O1 0.241022 0.713455 0.134091
O O2 0.131808 0.789651 0.111069
O O3 0.217517 0.966089 0.146525
O O4 0.211901 0.850433 0.000000
O O5 0.802307 0.446398 0.758976
O O6 0.687146 0.355948 0.745779
O O7 0.949894 0.841394 0.500000
O O8 0.917711 0.842537 0.665901
O O9 0.019576 0.747722 0.614821
O O10 0.000000 0.000000 0.606242
O O11 0.906395 0.429759 0.833649
O O12 0.985153 0.249953 0.888409
O O13 0.916958 0.361904 0.000000
O O14 0.500000 0.500000 0.889589
O O15 0.587074 0.346603 0.832752
O O16 0.555645 0.358740 0.000000
O O17 0.074535 0.610743 0.500000
O O18 0.099889 0.575999 0.332404
O O19 0.000000 0.500000 0.397767
O O20 0.122596 0.357932 0.251212
#
# Coordination Sequence:
#
# PCOD9427351 Si02
#       8
#     8   8   8   8   8   8   8   8
#     4  10  20  37  58  78 112 160 206 253 295 338
#     4  11  23  39  54  85 115 157 209 251 289 352
#     4  10  22  40  65  99 125 148 191 242 295 361
#     4   9  20  36  55  82 119 155 190 245 304 352
#     4  10  21  36  55  85 118 151 196 241 296 365
#     4  10  20  38  67  94 118 151 190 235 294 359
#     4  11  23  39  58  85 120 155 202 247 292 352
#     4  12  23  38  61  85 118 161 195 246 302 342
#
# _framework density 17.811381000000001
#
# number of rings (size 3 to 8) (size 9 to 14) (size 15 to 20)
#    0.000    1.625    2.500    2.250    0.000    5.000 
#    0.000    1.875    0.000    0.000    0.000    0.000 
#    0.000    0.000    0.000    0.000    0.000    0.000 
#
# Total GULP energy -357568.445449 kJ/mol
# GULP energy per Si atom -5587.006960 kJ/mol
# Density = 1.777084 g / cm^3
# Si number density = 17.811381 Si / 1000 Ang^3
#
#
#
# Elastic Constant Matrix: (Units=GPa)
#
#
# Indices 1 2 3 4 5 6 
#
# 1 58.5985 9.6890 47.8995 0.0000 0.0000 0.0000
# 2 9.6890 94.2870 28.0378 0.0000 0.0000 0.0000
# 3 47.8995 28.0378 83.7990 0.0000 0.0000 0.0000
# 4 0.0000 0.0000 0.0000 26.5258 0.0000 0.0000
# 5 0.0000 0.0000 0.0000 0.0000 15.7958 0.0000
# 6 0.0000 0.0000 0.0000 0.0000 0.0000 174.6024
#
#
#
# Elastic Compliance Matrix: (Units=1/GPa)
#
#
# Indices 1 2 3 4 5 6 
#
# 1 0.032524 0.002428 -0.019403 0.000000 0.000000 0.000000
# 2 0.002428 0.011959 -0.005389 0.000000 0.000000 0.000000
# 3 -0.019403 -0.005389 0.024827 0.000000 0.000000 0.000000
# 4 0.000000 0.000000 0.000000 0.037699 0.000000 0.000000
# 5 0.000000 0.000000 0.000000 0.000000 0.063308 0.000000
# 6 0.000000 0.000000 0.000000 0.000000 0.000000 0.005727
#
#
# Mechanical properties :
#
#
# Convention : Reuss Voigt Hill
#
# Bulk Modulus (GPa) = 40.68079 45.32634 43.00356
# Shear Modulus (GPa) = 21.83714 53.45534 37.64624
#
# Velocity S-wave (km/s) = 3.50526 5.48426 4.60238
# Velocity P-wave (km/s) = 6.26672 8.09975 7.24147
#
# Compressibility (1/GPa) = 0.02458163
#
# Stress axis : x y z
#
# Youngs Moduli (GPa) = 30.74613 83.61957 40.27839
#
# Poissons Ratio (x) = -0.20300 0.78153
# Poissons Ratio (y) = -0.07464 0.21706
# Poissons Ratio (z) = 0.59657 0.45062
#
# Static dielectric constant tensor:
#      x y z
#    x 1.591290 0.000000 0.000000 
#    y 0.000000 1.592810 0.000000 
#    z 0.000000 0.000000 1.591320 
# 
# From -- ./inp_files/17826.got.cif
#   From: 2010.05.17/outbox.cif.g08.bks.cpg/sg55_9_cif.got.tgz:17826.got - 2010.06.03 13:27:54.
