data_PCOD9427791
_publ_section_title
;
Structure prediction by ZEFSAII (Michael W. Deem and Ramdas Pophale) SiO2 
 PCOD9427791
Probable space group: P B A M
;
_chemical_formula_sum "Si O2"
_cell_formula_units_Z 32
_cell_length_a 7.521910
_cell_length_b 14.008783
_cell_length_c 11.852564
_cell_angle_alpha 90.000000
_cell_angle_beta 90.000000
_cell_angle_gamma 90.000000
_cell_volume 1248.937914
_symmetry_space_group_name_H-M "P B A M"
_symmetry_group_IT_number 55
_symmetry_cell_setting 'orthorhombic'
loop_
_space_group_symop_operation_xyz
x,y,z
-x,-y,z
1/2+x,1/2-y,-z
1/2-x,1/2+y,-z
-x,-y,-z
x,y,-z
1/2-x,1/2+y,z
1/2+x,1/2-y,z
loop_
_atom_site_type_symbol
_atom_site_label
_atom_site_fract_x
_atom_site_fract_y
_atom_site_fract_z
Si Si1 0.755889 0.528383 0.500000
Si Si2 0.408102 0.667542 0.500000
Si Si3 0.542670 0.267883 0.749504
Si Si4 0.305571 0.444107 0.261074
Si Si5 0.343243 0.112707 0.868960
O O1 0.581985 0.599344 0.500000
O O2 0.742344 0.413020 0.500000
O O3 0.813460 0.548020 0.373416
O O4 0.403335 0.724699 0.617102
O O5 0.366956 0.336235 0.756887
O O6 0.492412 0.164121 0.793975
O O7 0.672757 0.323901 0.833535
O O8 0.500000 0.500000 0.283023
O O9 0.212177 0.505763 0.164626
O O10 0.384106 0.120035 0.000000
#
# Coordination Sequence:
#
# PCOD9427791 Si02
#       5
#     4   4   8   8   8
#     4   9  10  27  53  82 104 122 170 227 268 306
#     4   9  14  29  55  82 106 129 167 224 280 310
#     4  10  21  35  55  81 107 137 179 228 272 317
#     4   9  16  31  55  77 102 136 180 219 264 313
#     4  11  22  35  52  77 109 145 183 220 260 318
#
# _framework density 25.621769
#
# number of rings (size 3 to 8) (size 9 to 14) (size 15 to 20)
#    0.000    2.250    7.500    0.750    0.000    7.500 
#    0.000    1.250    0.000    3.000    0.000    7.000 
#    0.000    0.000    0.000    0.000    0.000    0.000 
#
# Total GULP energy -178826.220785 kJ/mol
# GULP energy per Si atom -5588.319400 kJ/mol
# Density = 2.556345 g / cm^3
# Si number density = 25.621769 Si / 1000 Ang^3
#
#
#
# Elastic Constant Matrix: (Units=GPa)
#
#
# Indices 1 2 3 4 5 6 
#
# 1 55.1872 17.8564 18.2698 0.0000 0.0000 0.0000
# 2 17.8564 170.7311 83.5493 0.0000 0.0000 0.0000
# 3 18.2698 83.5493 210.2870 0.0000 0.0000 0.0000
# 4 0.0000 0.0000 0.0000 31.6619 0.0000 0.0000
# 5 0.0000 0.0000 0.0000 0.0000 29.4372 0.0000
# 6 0.0000 0.0000 0.0000 0.0000 0.0000 42.5978
#
#
#
# Elastic Compliance Matrix: (Units=1/GPa)
#
#
# Indices 1 2 3 4 5 6 
#
# 1 0.018945 -0.001460 -0.001066 0.000000 0.000000 0.000000
# 2 -0.001460 0.007383 -0.002807 0.000000 0.000000 0.000000
# 3 -0.001066 -0.002807 0.005963 0.000000 0.000000 0.000000
# 4 0.000000 0.000000 0.000000 0.031584 0.000000 0.000000
# 5 0.000000 0.000000 0.000000 0.000000 0.033971 0.000000
# 6 0.000000 0.000000 0.000000 0.000000 0.000000 0.023475
#
#
# Mechanical properties :
#
#
# Convention : Reuss Voigt Hill
#
# Bulk Modulus (GPa) = 46.23859 75.06181 60.65020
# Shear Modulus (GPa) = 35.92074 41.84137 38.88105
#
# Velocity S-wave (km/s) = 3.74834 4.04547 3.89974
# Velocity P-wave (km/s) = 6.06788 7.15408 6.63325
#
# Compressibility (1/GPa) = 0.02162696
#
# Stress axis : x y z
#
# Youngs Moduli (GPa) = 52.78332 135.44070 167.69728
#
# Poissons Ratio (x) = 0.19772 0.17876
# Poissons Ratio (y) = 0.07705 0.47067
# Poissons Ratio (z) = 0.05627 0.38013
#
# Static dielectric constant tensor:
#      x y z
#    x 2.285040 0.000000 0.000000 
#    y 0.000000 2.010210 0.000000 
#    z 0.000000 0.000000 1.892150 
# 
# From -- ./inp_files/11734.got.cif
#   From: 2010.05.17/outbox.cif.g08.bks.cpg/sg55_6_cif.got.tgz:11734.got - 2010.06.03 13:27:54.
