data_PCOD9427759
_publ_section_title
;
Structure prediction by ZEFSAII (Michael W. Deem and Ramdas Pophale) SiO2 
 PCOD9427759
Probable space group: P B A M
;
_chemical_formula_sum "Si O2"
_cell_formula_units_Z 64
_cell_length_a 18.974403
_cell_length_b 21.854822
_cell_length_c 7.556510
_cell_angle_alpha 90.000000
_cell_angle_beta 90.000000
_cell_angle_gamma 90.000000
_cell_volume 3133.550192
_symmetry_space_group_name_H-M "P B A M"
_symmetry_group_IT_number 55
_symmetry_cell_setting 'orthorhombic'
loop_
_space_group_symop_operation_xyz
x,y,z
-x,-y,z
1/2+x,1/2-y,-z
1/2-x,1/2+y,-z
-x,-y,-z
x,y,-z
1/2-x,1/2+y,z
1/2+x,1/2-y,z
loop_
_atom_site_type_symbol
_atom_site_label
_atom_site_fract_x
_atom_site_fract_y
_atom_site_fract_z
Si Si1 0.671574 0.885397 0.287722
Si Si2 0.667803 0.619562 0.211139
Si Si3 0.581044 0.000611 0.283176
Si Si4 0.683031 0.752154 0.789411
Si Si5 0.345660 0.747226 0.701540
Si Si6 0.920704 0.005104 0.788049
Si Si7 0.166951 0.116272 0.713569
Si Si8 0.833834 0.619671 0.713586
O O1 0.674138 0.890397 0.500000
O O2 0.622703 0.940212 0.223188
O O3 0.646127 0.816717 0.245458
O O4 0.752344 0.891296 0.222064
O O5 0.648746 0.688461 0.271931
O O6 0.622277 0.563552 0.283795
O O7 0.751173 0.611281 0.245084
O O8 0.658478 0.619151 0.000000
O O9 0.581963 0.000654 0.500000
O O10 0.500000 0.000000 0.227903
O O11 0.621383 0.061854 0.225065
O O12 0.760010 0.755421 0.700249
O O13 0.695172 0.747617 0.000000
O O14 0.372549 0.748410 0.500000
O O15 0.364408 0.681100 0.781188
O O16 0.359923 0.813976 0.782388
O O17 0.878302 0.942814 0.756417
O O18 0.925511 0.012798 0.000000
O O19 0.000000 0.000000 0.717935
O O20 0.170155 0.121709 0.500000
O O21 0.838821 0.622362 0.500000
#
# Coordination Sequence:
#
# PCOD9427759 Si02
#       8
#     8   8   8   8   8   8   8   8
#     4   9  17  30  48  71  97 121 149 188 228 267
#     4   9  18  32  49  69  92 117 150 193 232 268
#     4   9  17  29  46  69  96 125 156 188 222 264
#     4   9  16  27  46  70  92 115 147 187 230 273
#     4   8  15  28  46  69  95 118 145 186 230 269
#     4  10  21  35  48  64  90 124 158 190 227 273
#     4   9  17  30  48  70  94 117 146 189 233 269
#     4   9  16  29  51  73  92 120 155 187 224 270
#
# _framework density 20.424116999999999
#
# number of rings (size 3 to 8) (size 9 to 14) (size 15 to 20)
#    0.000    3.000    0.000    1.875    0.000    4.250 
#    0.000    1.875    0.000    3.000    0.000    0.000 
#    0.000    0.000    0.000    0.000    0.000    0.000 
#
# Total GULP energy -356704.206087 kJ/mol
# GULP energy per Si atom -5573.503220 kJ/mol
# Density = 2.037763 g / cm^3
# Si number density = 20.424117 Si / 1000 Ang^3
#
#
#
# Elastic Constant Matrix: (Units=GPa)
#
#
# Indices 1 2 3 4 5 6 
#
# 1 91.4869 104.6911 -0.0917 0.0000 0.0000 0.0000
# 2 104.6911 254.4719 2.5442 0.0000 0.0000 0.0000
# 3 -0.0917 2.5442 51.4315 0.0000 0.0000 0.0000
# 4 0.0000 0.0000 0.0000 41.6400 0.0000 0.0000
# 5 0.0000 0.0000 0.0000 0.0000 8.7733 0.0000
# 6 0.0000 0.0000 0.0000 0.0000 0.0000 -7.1690
#
#
#
# Elastic Compliance Matrix: (Units=1/GPa)
#
#
# Indices 1 2 3 4 5 6 
#
# 1 0.020665 -0.008506 0.000458 0.000000 0.000000 0.000000
# 2 -0.008506 0.007433 -0.000383 0.000000 0.000000 0.000000
# 3 0.000458 -0.000383 0.019463 0.000000 0.000000 0.000000
# 4 0.000000 0.000000 0.000000 0.024015 0.000000 0.000000
# 5 0.000000 0.000000 0.000000 0.000000 0.113982 0.000000
# 6 0.000000 0.000000 0.000000 0.000000 0.000000 -0.139490
#
#
# Mechanical properties :
#
#
# Convention : Reuss Voigt Hill
#
# Bulk Modulus (GPa) = 32.57529 67.96418 50.26973
# Shear Modulus (GPa) = 68.33887 27.99863 48.16875
#
# Velocity S-wave (km/s) = 5.79073 3.70653 4.86163
# Velocity P-wave (km/s) = 7.79064 7.18794 7.49535
#
# Compressibility (1/GPa) = 0.03069811
#
# Stress axis : x y z
#
# Youngs Moduli (GPa) = 48.39117 134.53432 51.37932
#
# Poissons Ratio (x) = 1.14438 -0.02351
# Poissons Ratio (y) = 0.41163 0.01967
# Poissons Ratio (z) = -0.02215 0.05151
#
# Static dielectric constant tensor:
#      x y z
#    x 1.668720 0.000000 0.000000 
#    y 0.000000 1.778180 0.000000 
#    z 0.000000 0.000000 1.769620 
# 
# From -- ./inp_files/9160.got.cif
#   From: 2010.05.17/outbox.cif.g08.bks.cpg/sg55_5_cif.got.tgz:9160.got - 2010.06.03 13:27:54.
