data_PCOD9427615
_publ_section_title
;
Structure prediction by ZEFSAII (Michael W. Deem and Ramdas Pophale) SiO2 
 PCOD9427615
Probable space group: P B A M
;
_chemical_formula_sum "Si O2"
_cell_formula_units_Z 40
_cell_length_a 12.732260
_cell_length_b 19.133340
_cell_length_c 8.633949
_cell_angle_alpha 90.000000
_cell_angle_beta 90.000000
_cell_angle_gamma 90.000000
_cell_volume 2103.322010
_symmetry_space_group_name_H-M "P B A M"
_symmetry_group_IT_number 55
_symmetry_cell_setting 'orthorhombic'
loop_
_space_group_symop_operation_xyz
x,y,z
-x,-y,z
1/2+x,1/2-y,-z
1/2-x,1/2+y,-z
-x,-y,-z
x,y,-z
1/2-x,1/2+y,z
1/2+x,1/2-y,z
loop_
_atom_site_type_symbol
_atom_site_label
_atom_site_fract_x
_atom_site_fract_y
_atom_site_fract_z
Si Si1 0.604206 0.808851 0.187524
Si Si2 0.043304 0.841030 0.316063
Si Si3 0.705600 0.547045 0.187366
Si Si4 0.443155 0.928227 0.811227
Si Si5 0.820146 0.884663 0.187071
O O1 0.587153 0.732284 0.253671
O O2 0.511370 0.861630 0.237293
O O3 0.715471 0.842822 0.232849
O O4 0.602159 0.805189 0.000000
O O5 0.044149 0.841117 0.500000
O O6 0.116115 0.903624 0.254226
O O7 0.925372 0.852464 0.255638
O O8 0.821908 0.571596 0.237068
O O9 0.690459 0.466080 0.231626
O O10 0.701247 0.550534 0.000000
O O11 0.500000 0.000000 0.762046
O O12 0.443680 0.928907 0.000000
O O13 0.826624 0.882266 0.000000
#
# Coordination Sequence:
#
# PCOD9427615 Si02
#       5
#     8   8   8   8   8
#     4  10  21  39  64  92 119 152 198 250 304 356
#     4  12  27  41  56  84 128 169 202 241 294 360
#     4  10  20  38  66  95 119 149 199 254 303 357
#     4   9  16  33  63  96 119 141 186 251 309 352
#     4  10  21  40  66  91 117 152 202 257 302 353
#
# _framework density 19.017534999999999
#
# number of rings (size 3 to 8) (size 9 to 14) (size 15 to 20)
#    0.000    1.800    2.000    2.400    2.800    4.000 
#    0.000    0.000    0.000    1.200    0.000    0.000 
#    0.000    0.000    0.000    0.000    0.000    0.000 
#
# Total GULP energy -223519.906669 kJ/mol
# GULP energy per Si atom -5587.997667 kJ/mol
# Density = 1.897425 g / cm^3
# Si number density = 19.017535 Si / 1000 Ang^3
#
#
#
# Elastic Constant Matrix: (Units=GPa)
#
#
# Indices 1 2 3 4 5 6 
#
# 1 138.8051 104.7921 37.3383 0.0000 0.0000 0.0000
# 2 104.7921 172.2091 44.8721 0.0000 0.0000 0.0000
# 3 37.3383 44.8721 19.8173 0.0000 0.0000 0.0000
# 4 0.0000 0.0000 0.0000 -21.9825 0.0000 0.0000
# 5 0.0000 0.0000 0.0000 0.0000 -10.2954 0.0000
# 6 0.0000 0.0000 0.0000 0.0000 0.0000 32.5150
#
#
#
# Elastic Compliance Matrix: (Units=1/GPa)
#
#
# Indices 1 2 3 4 5 6 
#
# 1 0.015962 -0.004577 -0.019710 0.000000 0.000000 0.000000
# 2 -0.004577 0.015476 -0.026417 0.000000 0.000000 0.000000
# 3 -0.019710 -0.026417 0.147412 0.000000 0.000000 0.000000
# 4 0.000000 0.000000 0.000000 -0.045491 0.000000 0.000000
# 5 0.000000 0.000000 0.000000 0.000000 -0.097131 0.000000
# 6 0.000000 0.000000 0.000000 0.000000 0.000000 0.030755
#
#
# Mechanical properties :
#
#
# Convention : Reuss Voigt Hill
#
# Bulk Modulus (GPa) = 12.91297 78.31516 45.61406
# Shear Modulus (GPa) = 25.74579 9.63603 17.69091
#
# Velocity S-wave (km/s) = 3.68338 2.25342 3.05330
# Velocity P-wave (km/s) = 4.98944 6.93112 6.03883
#
# Compressibility (1/GPa) = 0.07744154
#
# Stress axis : x y z
#
# Youngs Moduli (GPa) = 62.64880 64.61720 6.78369
#
# Poissons Ratio (x) = 0.29578 0.13371
# Poissons Ratio (y) = 0.28677 0.17921
# Poissons Ratio (z) = 1.23480 1.70700
#
# Static dielectric constant tensor:
#      x y z
#    x 1.639670 0.000000 0.000000 
#    y 0.000000 1.630620 0.000000 
#    z 0.000000 0.000000 1.639020 
# 
# From -- ./inp_files/3585.got.cif
#   From: 2010.05.17/outbox.cif.g08.bks.cpg/sg55_2_cif.got.tgz:3585.got - 2010.06.03 13:27:54.
