data_PCOD9427390
_publ_section_title
;
Structure prediction by ZEFSAII (Michael W. Deem and Ramdas Pophale) SiO2 
 PCOD9427390
Probable space group: P B A M
;
_chemical_formula_sum "Si O2"
_cell_formula_units_Z 64
_cell_length_a 23.609731
_cell_length_b 8.345308
_cell_length_c 15.664501
_cell_angle_alpha 90.000000
_cell_angle_beta 90.000000
_cell_angle_gamma 90.000000
_cell_volume 3086.384104
_symmetry_space_group_name_H-M "P B A M"
_symmetry_group_IT_number 55
_symmetry_cell_setting 'orthorhombic'
loop_
_space_group_symop_operation_xyz
x,y,z
-x,-y,z
1/2+x,1/2-y,-z
1/2-x,1/2+y,-z
-x,-y,-z
x,y,-z
1/2-x,1/2+y,z
1/2+x,1/2-y,z
loop_
_atom_site_type_symbol
_atom_site_label
_atom_site_fract_x
_atom_site_fract_y
_atom_site_fract_z
Si Si1 0.801222 0.130163 0.395120
Si Si2 0.665800 0.007706 0.100626
Si Si3 0.443555 0.934379 0.632803
Si Si4 0.817256 0.492759 0.597408
Si Si5 0.928559 0.342240 0.797545
Si Si6 0.532254 0.333513 0.757147
Si Si7 0.219690 0.148799 0.102515
Si Si8 0.858743 0.016819 0.768674
O O1 0.810654 0.109841 0.500000
O O2 0.816527 0.311940 0.367809
O O3 0.735085 0.099767 0.371457
O O4 0.836792 0.018584 0.329794
O O5 0.693864 0.177821 0.125114
O O6 0.606826 0.959377 0.142570
O O7 0.713496 0.872931 0.118286
O O8 0.657377 0.014644 0.000000
O O9 0.379929 0.934156 0.597500
O O10 0.436688 0.057790 0.711413
O O11 0.500000 0.000000 0.586966
O O12 0.459062 0.761734 0.669582
O O13 0.800979 0.465217 0.500000
O O14 0.991667 0.274778 0.817152
O O15 0.890521 0.184445 0.784454
O O16 0.500000 0.500000 0.742492
O O17 0.594414 0.380050 0.786956
O O18 0.189700 0.019300 0.163005
O O19 0.210855 0.120526 0.000000
#
# Coordination Sequence:
#
# PCOD9427390 Si02
#       8
#     8   8   8   8   8   8   8   8
#     4  10  23  40  59  89 127 162 206 261 312 373
#     4  10  21  38  58  86 126 165 204 257 315 375
#     4  10  20  37  60  84 118 159 205 258 307 370
#     4  10  22  40  60  88 124 159 204 262 316 373
#     4  10  20  37  59  86 116 155 209 256 309 365
#     4   9  21  38  59  87 119 154 208 264 305 369
#     4  10  22  37  57  92 132 165 207 260 312 379
#     4  11  21  37  63  88 120 168 204 253 321 376
#
# _framework density 20.736239999999999
#
# number of rings (size 3 to 8) (size 9 to 14) (size 15 to 20)
#    0.000    2.000    1.250    1.500    3.500    2.750 
#    0.000    0.625    0.000   11.625    0.000    0.000 
#    0.000    0.000    0.000    0.000    0.000    0.000 
#
# Total GULP energy -356435.743297 kJ/mol
# GULP energy per Si atom -5569.308489 kJ/mol
# Density = 2.068904 g / cm^3
# Si number density = 20.736240 Si / 1000 Ang^3
#
#
#
# Elastic Constant Matrix: (Units=GPa)
#
#
# Indices 1 2 3 4 5 6 
#
# 1 129.6114 29.9455 42.2528 0.0000 0.0000 0.0000
# 2 29.9455 68.5469 31.2357 0.0000 0.0000 0.0000
# 3 42.2528 31.2357 36.4972 0.0000 0.0000 0.0000
# 4 0.0000 0.0000 0.0000 -57.4773 0.0000 0.0000
# 5 0.0000 0.0000 0.0000 0.0000 63.3737 0.0000
# 6 0.0000 0.0000 0.0000 0.0000 0.0000 36.7797
#
#
#
# Elastic Compliance Matrix: (Units=1/GPa)
#
#
# Indices 1 2 3 4 5 6 
#
# 1 0.012536 0.001864 -0.016108 0.000000 0.000000 0.000000
# 2 0.001864 0.024192 -0.022862 0.000000 0.000000 0.000000
# 3 -0.016108 -0.022862 0.065613 0.000000 0.000000 0.000000
# 4 0.000000 0.000000 0.000000 -0.017398 0.000000 0.000000
# 5 0.000000 0.000000 0.000000 0.000000 0.015779 0.000000
# 6 0.000000 0.000000 0.000000 0.000000 0.000000 0.027189
#
#
# Mechanical properties :
#
#
# Convention : Reuss Voigt Hill
#
# Bulk Modulus (GPa) = 35.55028 49.05816 42.30422
# Shear Modulus (GPa) = 23.64061 17.28333 20.46197
#
# Velocity S-wave (km/s) = 3.38014 2.89014 3.14470
# Velocity P-wave (km/s) = 5.69343 5.90312 5.79922
#
# Compressibility (1/GPa) = 0.02812917
#
# Stress axis : x y z
#
# Youngs Moduli (GPa) = 79.77125 41.33545 15.24079
#
# Poissons Ratio (x) = -0.07703 0.24549
# Poissons Ratio (y) = -0.14866 0.34844
# Poissons Ratio (z) = 1.28493 0.94502
#
# Static dielectric constant tensor:
#      x y z
#    x 1.792070 0.000000 0.000000 
#    y 0.000000 1.789220 0.000000 
#    z 0.000000 0.000000 1.737070 
# 
# From -- ./inp_files/21986.got.cif
#   From: 2010.05.17/outbox.cif.g08.bks.cpg/sg55_11_cif.got.tgz:21986.got - 2010.06.03 13:27:54.
