data_PCOD9427988
_publ_section_title
;
Structure prediction by ZEFSAII (Michael W. Deem and Ramdas Pophale) SiO2 
 PCOD9427988
Probable space group: P B A M
;
_chemical_formula_sum "Si O2"
_cell_formula_units_Z 64
_cell_length_a 13.524664
_cell_length_b 27.178866
_cell_length_c 8.999405
_cell_angle_alpha 90.000000
_cell_angle_beta 90.000000
_cell_angle_gamma 90.000000
_cell_volume 3308.046562
_symmetry_space_group_name_H-M "P B A M"
_symmetry_group_IT_number 55
_symmetry_cell_setting 'orthorhombic'
loop_
_space_group_symop_operation_xyz
x,y,z
-x,-y,z
1/2+x,1/2-y,-z
1/2-x,1/2+y,-z
-x,-y,-z
x,y,-z
1/2-x,1/2+y,z
1/2+x,1/2-y,z
loop_
_atom_site_type_symbol
_atom_site_label
_atom_site_fract_x
_atom_site_fract_y
_atom_site_fract_z
Si Si1 0.974905 0.557122 0.322623
Si Si2 0.909469 0.762714 0.826835
Si Si3 0.650926 0.879789 0.178026
Si Si4 0.261298 0.801171 0.666416
Si Si5 0.248601 0.416939 0.676030
Si Si6 0.403141 0.219703 0.666854
Si Si7 0.047297 0.947173 0.821129
Si Si8 0.128508 0.124758 0.819447
O O1 0.977630 0.566864 0.500000
O O2 0.862049 0.568117 0.271820
O O3 0.000000 0.500000 0.297671
O O4 0.060318 0.589602 0.246748
O O5 0.822897 0.724336 0.795638
O O6 0.881942 0.817920 0.776393
O O7 0.996481 0.739855 0.732249
O O8 0.935339 0.765208 0.000000
O O9 0.638295 0.823457 0.229897
O O10 0.762776 0.894847 0.226580
O O11 0.645958 0.883046 0.000000
O O12 0.308791 0.797706 0.500000
O O13 0.242343 0.858126 0.694768
O O14 0.165467 0.767406 0.660300
O O15 0.253457 0.428171 0.500000
O O16 0.343551 0.440750 0.754257
O O17 0.413566 0.199470 0.500000
O O18 0.966793 0.906363 0.769612
O O19 0.055473 0.943342 0.000000
O O20 0.000000 0.000000 0.785629
O O21 0.128548 0.123191 0.000000
#
# Coordination Sequence:
#
# PCOD9427988 Si02
#       8
#     8   8   8   8   8   8   8   8
#     4  10  23  42  63  89 124 164 204 255 318 368
#     4  11  21  35  58  85 120 160 200 245 299 356
#     4  11  22  39  63  91 124 160 205 254 307 363
#     4  10  21  37  57  83 117 157 198 243 294 352
#     4  10  22  41  61  85 120 156 199 253 299 358
#     4  11  22  36  56  85 122 159 201 245 297 361
#     4  10  22  40  64  90 119 157 199 247 305 361
#     4   9  20  38  58  89 127 158 195 252 305 358
#
# _framework density 19.346765000000001
#
# number of rings (size 3 to 8) (size 9 to 14) (size 15 to 20)
#    0.000    1.750    1.250    2.625    1.750    3.000 
#    0.000    1.875    0.000    0.000    0.000    0.000 
#    0.000    0.000    0.000    0.000    0.000    0.000 
#
# Total GULP energy -357082.044005 kJ/mol
# GULP energy per Si atom -5579.406938 kJ/mol
# Density = 1.930273 g / cm^3
# Si number density = 19.346765 Si / 1000 Ang^3
#
#
#
# Elastic Constant Matrix: (Units=GPa)
#
#
# Indices 1 2 3 4 5 6 
#
# 1 138.6314 39.2248 28.2067 0.0000 0.0000 0.0000
# 2 39.2248 72.7236 22.4615 0.0000 0.0000 0.0000
# 3 28.2067 22.4615 24.4472 0.0000 0.0000 0.0000
# 4 0.0000 0.0000 0.0000 35.8774 0.0000 0.0000
# 5 0.0000 0.0000 0.0000 0.0000 29.2053 0.0000
# 6 0.0000 0.0000 0.0000 0.0000 0.0000 28.3283
#
#
#
# Elastic Compliance Matrix: (Units=1/GPa)
#
#
# Indices 1 2 3 4 5 6 
#
# 1 0.009738 -0.002488 -0.008950 0.000000 0.000000 0.000000
# 2 -0.002488 0.019835 -0.015353 0.000000 0.000000 0.000000
# 3 -0.008950 -0.015353 0.065336 0.000000 0.000000 0.000000
# 4 0.000000 0.000000 0.000000 0.027873 0.000000 0.000000
# 5 0.000000 0.000000 0.000000 0.000000 0.034240 0.000000
# 6 0.000000 0.000000 0.000000 0.000000 0.000000 0.035300
#
#
# Mechanical properties :
#
#
# Convention : Reuss Voigt Hill
#
# Bulk Modulus (GPa) = 24.19675 46.17645 35.18660
# Shear Modulus (GPa) = 19.25447 28.40950 23.83198
#
# Velocity S-wave (km/s) = 3.15815 3.83618 3.51356
# Velocity P-wave (km/s) = 5.08257 6.59858 5.88956
#
# Compressibility (1/GPa) = 0.04132786
#
# Stress axis : x y z
#
# Youngs Moduli (GPa) = 102.68639 50.41684 15.30546
#
# Poissons Ratio (x) = 0.12545 0.13698
# Poissons Ratio (y) = 0.25552 0.23498
# Poissons Ratio (z) = 0.91902 0.77403
#
# Static dielectric constant tensor:
#      x y z
#    x 1.680360 0.000000 0.000000 
#    y 0.000000 1.650810 0.000000 
#    z 0.000000 0.000000 1.667430 
# 
# From -- ./inp_files/4503.got.cif
#   From: 2010.05.17/outbox.cif.g08.bks.cpg/sg55_3_cif.got.tgz:4503.got - 2010.06.03 13:27:54.
