data_PCOD9427402
_publ_section_title
;
Structure prediction by ZEFSAII (Michael W. Deem and Ramdas Pophale) SiO2 
 PCOD9427402
Probable space group: P B A M
;
_chemical_formula_sum "Si O2"
_cell_formula_units_Z 64
_cell_length_a 23.872346
_cell_length_b 14.574468
_cell_length_c 7.684448
_cell_angle_alpha 90.000000
_cell_angle_beta 90.000000
_cell_angle_gamma 90.000000
_cell_volume 2673.624963
_symmetry_space_group_name_H-M "P B A M"
_symmetry_group_IT_number 55
_symmetry_cell_setting 'orthorhombic'
loop_
_space_group_symop_operation_xyz
x,y,z
-x,-y,z
1/2+x,1/2-y,-z
1/2-x,1/2+y,-z
-x,-y,-z
x,y,-z
1/2-x,1/2+y,z
1/2+x,1/2-y,z
loop_
_atom_site_type_symbol
_atom_site_label
_atom_site_fract_x
_atom_site_fract_y
_atom_site_fract_z
Si Si1 0.311592 0.858921 0.801640
Si Si2 0.459853 0.615755 0.297514
Si Si3 0.581198 0.656284 0.706876
Si Si4 0.168784 0.551913 0.790966
Si Si5 0.268571 0.666822 0.785978
Si Si6 0.057308 0.639728 0.291612
Si Si7 0.936246 0.666149 0.702460
Si Si8 0.148560 0.010725 0.195411
O O1 0.287293 0.766326 0.720853
O O2 0.378980 0.850479 0.801701
O O3 0.303061 0.958888 0.720720
O O4 0.290479 0.862008 0.000000
O O5 0.457006 0.584970 0.500000
O O6 0.523401 0.608223 0.230136
O O7 0.447459 0.724455 0.294888
O O8 0.410679 0.564018 0.200261
O O9 0.574007 0.662916 0.500000
O O10 0.580164 0.760936 0.774099
O O11 0.633975 0.590702 0.737108
O O12 0.205939 0.638539 0.736678
O O13 0.104348 0.565098 0.743936
O O14 0.171484 0.546780 0.000000
O O15 0.308858 0.584278 0.722918
O O16 0.273307 0.669054 0.000000
O O17 0.051246 0.646450 0.500000
O O18 0.994121 0.623362 0.227590
O O19 0.927572 0.638904 0.500000
O O20 0.168752 0.996683 0.000000
#
# Coordination Sequence:
#
# PCOD9427402 Si02
#       8
#     8   8   8   8   8   8   8   8
#     4  10  20  37  60  84 112 145 183 232 282 331
#     4   9  17  31  50  74 108 149 185 219 269 332
#     4   9  19  34  51  74 110 151 182 216 274 336
#     4  10  22  39  60  83 108 146 190 228 280 338
#     4   9  20  38  56  79 113 149 185 230 281 332
#     4   9  20  39  58  80 114 150 185 231 282 331
#     4   9  18  34  58  84 111 148 187 225 279 338
#     4  11  20  30  50  80 109 143 188 232 272 317
#
# _framework density 23.937538
#
# number of rings (size 3 to 8) (size 9 to 14) (size 15 to 20)
#    0.000    2.500    1.250    2.250    0.000    5.000 
#    0.000    9.375    0.000    0.000    0.000    0.000 
#    0.000    0.000    0.000    0.000    0.000    0.000 
#
# Total GULP energy -357345.185282 kJ/mol
# GULP energy per Si atom -5583.518520 kJ/mol
# Density = 2.388306 g / cm^3
# Si number density = 23.937538 Si / 1000 Ang^3
#
#
#
# Elastic Constant Matrix: (Units=GPa)
#
#
# Indices 1 2 3 4 5 6 
#
# 1 67.4807 39.3919 -3.1235 0.0000 0.0000 0.0000
# 2 39.3919 84.4958 2.1251 0.0000 0.0000 0.0000
# 3 -3.1235 2.1251 42.2101 0.0000 0.0000 0.0000
# 4 0.0000 0.0000 0.0000 16.2563 0.0000 0.0000
# 5 0.0000 0.0000 0.0000 0.0000 -49.1674 0.0000
# 6 0.0000 0.0000 0.0000 0.0000 0.0000 36.7251
#
#
#
# Elastic Compliance Matrix: (Units=1/GPa)
#
#
# Indices 1 2 3 4 5 6 
#
# 1 0.020528 -0.009620 0.002003 0.000000 0.000000 0.000000
# 2 -0.009620 0.016359 -0.001535 0.000000 0.000000 0.000000
# 3 0.002003 -0.001535 0.023917 0.000000 0.000000 0.000000
# 4 0.000000 0.000000 0.000000 0.061514 0.000000 0.000000
# 5 0.000000 0.000000 0.000000 0.000000 -0.020339 0.000000
# 6 0.000000 0.000000 0.000000 0.000000 0.000000 0.027229
#
#
# Mechanical properties :
#
#
# Convention : Reuss Voigt Hill
#
# Bulk Modulus (GPa) = 23.53060 30.10815 26.81938
# Shear Modulus (GPa) = 30.92551 11.14902 21.03726
#
# Velocity S-wave (km/s) = 3.59824 2.16048 2.96774
# Velocity P-wave (km/s) = 5.20715 4.33920 4.79286
#
# Compressibility (1/GPa) = 0.04249785
#
# Stress axis : x y z
#
# Youngs Moduli (GPa) = 48.71470 61.13014 41.81204
#
# Poissons Ratio (x) = 0.58810 -0.08377
# Poissons Ratio (y) = 0.46865 0.06420
# Poissons Ratio (z) = -0.09759 0.09386
#
# Static dielectric constant tensor:
#      x y z
#    x 1.900330 0.000000 0.000000 
#    y 0.000000 1.950720 0.000000 
#    z 0.000000 0.000000 1.895460 
# 
# From -- ./inp_files/9679.got.cif
#   From: 2010.05.17/outbox.cif.g08.bks.cpg/sg55_5_cif.got.tgz:9679.got - 2010.06.03 13:27:54.
