data_PCOD9427635
_publ_section_title
;
Structure prediction by ZEFSAII (Michael W. Deem and Ramdas Pophale) SiO2 
 PCOD9427635
Probable space group: P B A M
;
_chemical_formula_sum "Si O2"
_cell_formula_units_Z 64
_cell_length_a 14.996499
_cell_length_b 26.287061
_cell_length_c 9.099244
_cell_angle_alpha 90.000000
_cell_angle_beta 90.000000
_cell_angle_gamma 90.000000
_cell_volume 3587.048319
_symmetry_space_group_name_H-M "P B A M"
_symmetry_group_IT_number 55
_symmetry_cell_setting 'orthorhombic'
loop_
_space_group_symop_operation_xyz
x,y,z
-x,-y,z
1/2+x,1/2-y,-z
1/2-x,1/2+y,-z
-x,-y,-z
x,y,-z
1/2-x,1/2+y,z
1/2+x,1/2-y,z
loop_
_atom_site_type_symbol
_atom_site_label
_atom_site_fract_x
_atom_site_fract_y
_atom_site_fract_z
Si Si1 0.506136 0.940426 0.325079
Si Si2 0.828863 0.889617 0.324382
Si Si3 0.355049 0.131951 0.175306
Si Si4 0.998118 0.281212 0.825061
Si Si5 0.105905 0.997507 0.676339
Si Si6 0.134114 0.368911 0.824865
Si Si7 0.662770 0.606201 0.175568
Si Si8 0.009090 0.827546 0.324672
O O1 0.513144 0.933384 0.500000
O O2 0.590268 0.914364 0.247056
O O3 0.419760 0.911489 0.263516
O O4 0.500000 0.000000 0.293253
O O5 0.813205 0.887594 0.500000
O O6 0.743425 0.868270 0.240737
O O7 0.917012 0.856984 0.291992
O O8 0.849440 0.948467 0.286068
O O9 0.413373 0.182452 0.207884
O O10 0.353071 0.126250 0.000000
O O11 0.085593 0.315373 0.792180
O O12 0.995503 0.229516 0.735512
O O13 0.997384 0.270410 0.000000
O O14 0.113525 0.989998 0.500000
O O15 0.149741 0.950152 0.758780
O O16 0.000000 0.000000 0.709963
O O17 0.238420 0.372501 0.792742
O O18 0.121121 0.377664 0.000000
O O19 0.588899 0.642084 0.248020
O O20 0.651263 0.604848 0.000000
O O21 0.021674 0.828241 0.500000
#
# Coordination Sequence:
#
# PCOD9427635 Si02
#       8
#     8   8   8   8   8   8   8   8
#     4  10  21  36  56  84 115 151 194 237 285 342
#     4  10  22  39  59  85 119 155 196 240 288 346
#     4  10  22  39  60  85 117 154 192 237 293 346
#     4   9  20  41  62  82 113 152 190 238 295 346
#     4  10  20  39  60  80 118 161 192 239 295 342
#     4   9  21  40  59  83 117 153 189 236 291 342
#     4  11  23  38  59  90 121 152 196 241 286 350
#     4  11  23  40  61  86 115 153 196 242 295 344
#
# _framework density 17.841968000000001
#
# number of rings (size 3 to 8) (size 9 to 14) (size 15 to 20)
#    0.000    2.000    1.250    2.250    1.750    7.250 
#    0.000    3.750    0.000    0.000    0.000    0.000 
#    0.000    0.000    0.000    0.000    0.000    0.000 
#
# Total GULP energy -357446.591628 kJ/mol
# GULP energy per Si atom -5585.102994 kJ/mol
# Density = 1.780136 g / cm^3
# Si number density = 17.841968 Si / 1000 Ang^3
#
#
#
# Elastic Constant Matrix: (Units=GPa)
#
#
# Indices 1 2 3 4 5 6 
#
# 1 148.2126 79.1263 72.3891 0.0000 0.0000 0.0000
# 2 79.1263 145.6760 71.8028 0.0000 0.0000 0.0000
# 3 72.3891 71.8028 58.5566 0.0000 0.0000 0.0000
# 4 0.0000 0.0000 0.0000 -83.0706 0.0000 0.0000
# 5 0.0000 0.0000 0.0000 0.0000 45.6169 0.0000
# 6 0.0000 0.0000 0.0000 0.0000 0.0000 -2.8522
#
#
#
# Elastic Compliance Matrix: (Units=1/GPa)
#
#
# Indices 1 2 3 4 5 6 
#
# 1 0.017510 0.002928 -0.025237 0.000000 0.000000 0.000000
# 2 0.002928 0.017842 -0.025498 0.000000 0.000000 0.000000
# 3 -0.025237 -0.025498 0.079541 0.000000 0.000000 0.000000
# 4 0.000000 0.000000 0.000000 -0.012038 0.000000 0.000000
# 5 0.000000 0.000000 0.000000 0.000000 0.021922 0.000000
# 6 0.000000 0.000000 0.000000 0.000000 0.000000 -0.350609
#
#
# Mechanical properties :
#
#
# Convention : Reuss Voigt Hill
#
# Bulk Modulus (GPa) = 51.86578 88.78685 70.32632
# Shear Modulus (GPa) = -40.38969 0.54730 -19.92120
#
# Velocity S-wave (km/s) = -4.76305 0.55445 -3.34509
# Velocity P-wave (km/s) = 1.05649 7.09090 4.95806
#
# Compressibility (1/GPa) = 0.01928054
#
# Stress axis : x y z
#
# Youngs Moduli (GPa) = 57.11154 56.04855 12.57211
#
# Poissons Ratio (x) = -0.16413 0.31728
# Poissons Ratio (y) = -0.16724 0.32056
# Poissons Ratio (z) = 1.44130 1.42911
#
# Static dielectric constant tensor:
#      x y z
#    x 1.600730 0.000000 0.000000 
#    y 0.000000 1.581750 0.000000 
#    z 0.000000 0.000000 1.591940 
# 
# From -- ./inp_files/6534.got.cif
#   From: 2010.05.17/outbox.cif.g08.bks.cpg/sg55_4_cif.got.tgz:6534.got - 2010.06.03 13:27:54.
