data_PCOD9427933
_publ_section_title
;
Structure prediction by ZEFSAII (Michael W. Deem and Ramdas Pophale) SiO2 
 PCOD9427933
Probable space group: P B A M
;
_chemical_formula_sum "Si O2"
_cell_formula_units_Z 64
_cell_length_a 19.666192
_cell_length_b 8.950507
_cell_length_c 18.570445
_cell_angle_alpha 90.000000
_cell_angle_beta 90.000000
_cell_angle_gamma 90.000000
_cell_volume 3268.814097
_symmetry_space_group_name_H-M "P B A M"
_symmetry_group_IT_number 55
_symmetry_cell_setting 'orthorhombic'
loop_
_space_group_symop_operation_xyz
x,y,z
-x,-y,z
1/2+x,1/2-y,-z
1/2-x,1/2+y,-z
-x,-y,-z
x,y,-z
1/2-x,1/2+y,z
1/2+x,1/2-y,z
loop_
_atom_site_type_symbol
_atom_site_label
_atom_site_fract_x
_atom_site_fract_y
_atom_site_fract_z
Si Si1 0.542726 0.638067 0.325858
Si Si2 0.650763 0.714384 0.792974
Si Si3 0.168690 0.972876 0.413238
Si Si4 0.772749 0.505279 0.829353
Si Si5 0.452254 0.856888 0.417733
Si Si6 0.682869 0.283765 0.082661
Si Si7 0.575924 0.540030 0.084239
Si Si8 0.303982 0.810124 0.586990
O O1 0.500000 0.500000 0.295620
O O2 0.591836 0.703888 0.265683
O O3 0.596318 0.581999 0.385813
O O4 0.488190 0.745467 0.363038
O O5 0.711527 0.589899 0.786688
O O6 0.682677 0.880159 0.789573
O O7 0.614744 0.663650 0.868023
O O8 0.168205 0.971080 0.500000
O O9 0.232770 0.875141 0.386988
O O10 0.183028 0.141551 0.388722
O O11 0.813827 0.640857 0.865669
O O12 0.739595 0.402378 0.891776
O O13 0.449270 0.793774 0.500000
O O14 0.374471 0.895135 0.396662
O O15 0.500000 0.000000 0.420076
O O16 0.615665 0.382885 0.089193
O O17 0.693433 0.238813 0.000000
O O18 0.500000 0.500000 0.107984
O O19 0.575316 0.585138 0.000000
O O20 0.297986 0.809816 0.500000
#
# Coordination Sequence:
#
# PCOD9427933 Si02
#       8
#     8   8   8   8   8   8   8   8
#     4  12  24  40  61  86 117 162 203 243 295 361
#     4  10  22  39  58  84 118 156 202 247 302 362
#     4  10  21  36  59  89 118 151 193 241 294 349
#     4   9  19  36  54  82 118 154 193 245 304 351
#     4  10  22  41  63  89 122 153 195 250 302 357
#     4   9  16  29  57  89 115 146 190 244 299 357
#     4   9  18  35  58  84 117 157 197 244 302 363
#     4   9  19  36  57  86 119 150 189 238 291 347
#
# _framework density 19.578966000000001
#
# number of rings (size 3 to 8) (size 9 to 14) (size 15 to 20)
#    0.000    2.250    1.250    1.125    1.750    5.000 
#    0.000    4.375    0.000    2.250    0.000    0.000 
#    0.000    0.000    0.000    0.000    0.000    0.000 
#
# Total GULP energy -356892.246452 kJ/mol
# GULP energy per Si atom -5576.441351 kJ/mol
# Density = 1.953440 g / cm^3
# Si number density = 19.578966 Si / 1000 Ang^3
#
#
#
# Elastic Constant Matrix: (Units=GPa)
#
#
# Indices 1 2 3 4 5 6 
#
# 1 73.0745 -5.4385 7.9405 0.0000 0.0000 0.0000
# 2 -5.4385 41.5690 6.6814 0.0000 0.0000 0.0000
# 3 7.9405 6.6814 49.4757 0.0000 0.0000 0.0000
# 4 0.0000 0.0000 0.0000 -2.8403 0.0000 0.0000
# 5 0.0000 0.0000 0.0000 0.0000 -46.8771 0.0000
# 6 0.0000 0.0000 0.0000 0.0000 0.0000 27.6368
#
#
#
# Elastic Compliance Matrix: (Units=1/GPa)
#
#
# Indices 1 2 3 4 5 6 
#
# 1 0.014133 0.002263 -0.002574 0.000000 0.000000 0.000000
# 2 0.002263 0.024952 -0.003733 0.000000 0.000000 0.000000
# 3 -0.002574 -0.003733 0.021129 0.000000 0.000000 0.000000
# 4 0.000000 0.000000 0.000000 -0.352081 0.000000 0.000000
# 5 0.000000 0.000000 0.000000 0.000000 -0.021332 0.000000
# 6 0.000000 0.000000 0.000000 0.000000 0.000000 0.036184
#
#
# Mechanical properties :
#
#
# Convention : Reuss Voigt Hill
#
# Bulk Modulus (GPa) = 19.18410 20.27620 19.73015
# Shear Modulus (GPa) = -19.87660 5.91293 -6.98183
#
# Velocity S-wave (km/s) = -3.18968 1.73971 -1.89043
# Velocity P-wave (km/s) = 1.93541 3.79659 2.30957
#
# Compressibility (1/GPa) = 0.05212649
#
# Stress axis : x y z
#
# Youngs Moduli (GPa) = 70.75768 40.07633 47.32809
#
# Poissons Ratio (x) = -0.09068 0.12181
# Poissons Ratio (y) = -0.16010 0.17667
# Poissons Ratio (z) = 0.18211 0.14960
#
# Static dielectric constant tensor:
#      x y z
#    x 1.689120 0.000000 0.000000 
#    y 0.000000 1.671540 0.000000 
#    z 0.000000 0.000000 1.720150 
# 
# From -- ./inp_files/23089.got.cif
#   From: 2010.05.17/outbox.cif.g08.bks.cpg/sg55_12_cif.got.tgz:23089.got - 2010.06.03 13:27:54.
