data_PCOD9427404
_publ_section_title
;
Structure prediction by ZEFSAII (Michael W. Deem and Ramdas Pophale) SiO2 
 PCOD9427404
Probable space group: P B A M
;
_chemical_formula_sum "Si O2"
_cell_formula_units_Z 48
_cell_length_a 31.897463
_cell_length_b 9.442853
_cell_length_c 8.539165
_cell_angle_alpha 90.000000
_cell_angle_beta 90.000000
_cell_angle_gamma 90.000000
_cell_volume 2572.022578
_symmetry_space_group_name_H-M "P B A M"
_symmetry_group_IT_number 55
_symmetry_cell_setting 'orthorhombic'
loop_
_space_group_symop_operation_xyz
x,y,z
-x,-y,z
1/2+x,1/2-y,-z
1/2-x,1/2+y,-z
-x,-y,-z
x,y,-z
1/2-x,1/2+y,z
1/2+x,1/2-y,z
loop_
_atom_site_type_symbol
_atom_site_label
_atom_site_fract_x
_atom_site_fract_y
_atom_site_fract_z
Si Si1 0.882697 0.415091 0.811811
Si Si2 0.541560 0.413021 0.812454
Si Si3 0.539873 0.094505 0.312523
Si Si4 0.382045 0.404125 0.685704
Si Si5 0.791897 0.081626 0.189305
Si Si6 0.710865 0.912266 0.810506
O O1 0.918306 0.512192 0.738310
O O2 0.888270 0.250467 0.764350
O O3 0.835612 0.458929 0.759364
O O4 0.884821 0.424546 0.000000
O O5 0.500000 0.500000 0.765366
O O6 0.538252 0.250664 0.759779
O O7 0.581731 0.489874 0.739128
O O8 0.545104 0.418973 0.000000
O O9 0.538695 0.107280 0.500000
O O10 0.500000 0.000000 0.262164
O O11 0.383002 0.385560 0.500000
O O12 0.336435 0.460118 0.738498
O O13 0.785378 0.246758 0.226772
O O14 0.751411 0.996112 0.246097
O O15 0.795113 0.068392 0.000000
O O16 0.710965 0.924775 0.000000
#
# Coordination Sequence:
#
# PCOD9427404 Si02
#       6
#     8   8   8   8   8   8
#     4  10  20  37  60  85 113 149 194 236 277 330
#     4  11  24  41  62  86 111 145 191 236 276 328
#     4  11  24  40  59  86 119 151 182 224 282 339
#     4  11  22  37  57  83 116 151 187 232 288 338
#     4   9  17  33  54  77 107 144 187 230 276 331
#     4   8  16  30  52  79 106 141 185 233 277 322
#
# _framework density 18.662355999999999
#
# number of rings (size 3 to 8) (size 9 to 14) (size 15 to 20)
#    0.000    2.000    0.000    5.000    0.000    6.667 
#    0.000    7.500    0.000    0.000    0.000    0.000 
#    0.000    0.000    0.000    0.000    0.000    0.000 
#
# Total GULP energy -268057.925227 kJ/mol
# GULP energy per Si atom -5584.540109 kJ/mol
# Density = 1.861988 g / cm^3
# Si number density = 18.662356 Si / 1000 Ang^3
#
#
#
# Elastic Constant Matrix: (Units=GPa)
#
#
# Indices 1 2 3 4 5 6 
#
# 1 176.9495 74.8054 17.3221 0.0000 0.0000 0.0000
# 2 74.8054 70.9899 0.8930 0.0000 0.0000 0.0000
# 3 17.3221 0.8930 24.6041 0.0000 0.0000 0.0000
# 4 0.0000 0.0000 0.0000 209.5372 0.0000 0.0000
# 5 0.0000 0.0000 0.0000 0.0000 10.8205 0.0000
# 6 0.0000 0.0000 0.0000 0.0000 0.0000 42.9509
#
#
#
# Elastic Compliance Matrix: (Units=1/GPa)
#
#
# Indices 1 2 3 4 5 6 
#
# 1 0.011466 -0.011986 -0.007638 0.000000 0.000000 0.000000
# 2 -0.011986 0.026623 0.007473 0.000000 0.000000 0.000000
# 3 -0.007638 0.007473 0.045750 0.000000 0.000000 0.000000
# 4 0.000000 0.000000 0.000000 0.004772 0.000000 0.000000
# 5 0.000000 0.000000 0.000000 0.000000 0.092417 0.000000
# 6 0.000000 0.000000 0.000000 0.000000 0.000000 0.023282
#
#
# Mechanical properties :
#
#
# Convention : Reuss Voigt Hill
#
# Bulk Modulus (GPa) = 16.79654 50.95382 33.87518
# Shear Modulus (GPa) = 20.12404 64.62993 42.37699
#
# Velocity S-wave (km/s) = 3.28735 5.89121 4.77038
# Velocity P-wave (km/s) = 4.84031 8.58122 6.96656
#
# Compressibility (1/GPa) = 0.05953608
#
# Stress axis : x y z
#
# Youngs Moduli (GPa) = 87.21227 37.56118 21.85815
#
# Poissons Ratio (x) = 0.45023 0.16694
# Poissons Ratio (y) = 1.04537 -0.16334
# Poissons Ratio (z) = 0.66609 -0.28068
#
# Static dielectric constant tensor:
#      x y z
#    x 1.646650 0.000000 0.000000 
#    y 0.000000 1.608770 0.000000 
#    z 0.000000 0.000000 1.627900 
# 
# From -- ./inp_files/10508.got.cif
#   From: 2010.05.17/outbox.cif.g08.bks.cpg/sg55_6_cif.got.tgz:10508.got - 2010.06.03 13:27:54.
