data_PCOD9427774
_publ_section_title
;
Structure prediction by ZEFSAII (Michael W. Deem and Ramdas Pophale) SiO2 
 PCOD9427774
Probable space group: P B A M
;
_chemical_formula_sum "Si O2"
_cell_formula_units_Z 48
_cell_length_a 23.821015
_cell_length_b 12.302773
_cell_length_c 7.339571
_cell_angle_alpha 90.000000
_cell_angle_beta 90.000000
_cell_angle_gamma 90.000000
_cell_volume 2150.968000
_symmetry_space_group_name_H-M "P B A M"
_symmetry_group_IT_number 55
_symmetry_cell_setting 'orthorhombic'
loop_
_space_group_symop_operation_xyz
x,y,z
-x,-y,z
1/2+x,1/2-y,-z
1/2-x,1/2+y,-z
-x,-y,-z
x,y,-z
1/2-x,1/2+y,z
1/2+x,1/2-y,z
loop_
_atom_site_type_symbol
_atom_site_label
_atom_site_fract_x
_atom_site_fract_y
_atom_site_fract_z
Si Si1 0.934870 0.992660 0.722992
Si Si2 0.877838 0.771670 0.291909
Si Si3 0.151765 0.823090 0.722110
Si Si4 0.547376 0.075238 0.205692
Si Si5 0.349607 0.075543 0.720777
Si Si6 0.223386 0.382662 0.721928
O O1 0.935795 0.989123 0.500000
O O2 0.898032 0.096842 0.778312
O O3 0.902050 0.883793 0.785725
O O4 0.000000 0.000000 0.780361
O O5 0.861885 0.796873 0.500000
O O6 0.929290 0.685454 0.291636
O O7 0.823828 0.705438 0.215283
O O8 0.151607 0.823924 0.500000
O O9 0.145977 0.698720 0.780839
O O10 0.213608 0.860358 0.780650
O O11 0.500000 0.000000 0.294053
O O12 0.600139 0.995649 0.204009
O O13 0.529058 0.102733 0.000000
O O14 0.353302 0.074389 0.500000
O O15 0.295153 0.004901 0.770786
O O16 0.222102 0.377251 0.500000
#
# Coordination Sequence:
#
# PCOD9427774 Si02
#       6
#     8   8   8   8   8   8
#     4   9  18  29  43  71 107 138 163 198 252 300
#     4   9  18  32  52  76 102 130 167 210 249 298
#     4   9  17  27  46  74 106 134 160 203 251 299
#     4  10  21  35  52  72  97 131 168 209 257 301
#     4   9  18  31  50  77 102 128 166 207 249 296
#     4   8  15  27  44  72 100 127 163 205 250 288
#
# _framework density 22.315532999999999
#
# number of rings (size 3 to 8) (size 9 to 14) (size 15 to 20)
#    0.000    3.000    0.000    1.500    4.667    1.333 
#    0.000    0.000    0.000    5.500    0.000    0.000 
#    0.000    0.000    0.000    0.000    0.000    0.000 
#
# Total GULP energy -267727.261437 kJ/mol
# GULP energy per Si atom -5577.651280 kJ/mol
# Density = 2.226474 g / cm^3
# Si number density = 22.315533 Si / 1000 Ang^3
#
#
#
# Elastic Constant Matrix: (Units=GPa)
#
#
# Indices 1 2 3 4 5 6 
#
# 1 95.2456 68.8357 1.5885 0.0000 0.0000 0.0000
# 2 68.8357 191.1927 5.1820 0.0000 0.0000 0.0000
# 3 1.5885 5.1820 81.7988 0.0000 0.0000 0.0000
# 4 0.0000 0.0000 0.0000 -27.6560 0.0000 0.0000
# 5 0.0000 0.0000 0.0000 0.0000 0.2803 0.0000
# 6 0.0000 0.0000 0.0000 0.0000 0.0000 15.1628
#
#
#
# Elastic Compliance Matrix: (Units=1/GPa)
#
#
# Indices 1 2 3 4 5 6 
#
# 1 0.014192 -0.005111 0.000048 0.000000 0.000000 0.000000
# 2 -0.005111 0.007080 -0.000349 0.000000 0.000000 0.000000
# 3 0.000048 -0.000349 0.012246 0.000000 0.000000 0.000000
# 4 0.000000 0.000000 0.000000 -0.036159 0.000000 0.000000
# 5 0.000000 0.000000 0.000000 0.000000 3.567364 0.000000
# 6 0.000000 0.000000 0.000000 0.000000 0.000000 0.065951
#
#
# Mechanical properties :
#
#
# Convention : Reuss Voigt Hill
#
# Bulk Modulus (GPa) = 44.06396 57.71663 50.89029
# Shear Modulus (GPa) = 1.37021 17.06615 9.21818
#
# Velocity S-wave (km/s) = 0.78444 2.76844 2.03465
# Velocity P-wave (km/s) = 4.53974 6.01158 5.32674
#
# Compressibility (1/GPa) = 0.02269428
#
# Stress axis : x y z
#
# Youngs Moduli (GPa) = 70.46151 141.24490 81.65722
#
# Poissons Ratio (x) = 0.72190 -0.00393
# Poissons Ratio (y) = 0.36013 0.02852
# Poissons Ratio (z) = -0.00339 0.04933
#
# Static dielectric constant tensor:
#      x y z
#    x 1.807540 0.000000 0.000000 
#    y 0.000000 1.798180 0.000000 
#    z 0.000000 0.000000 1.856390 
# 
# From -- ./inp_files/4077.got.cif
#   From: 2010.05.17/outbox.cif.g08.bks.cpg/sg55_3_cif.got.tgz:4077.got - 2010.06.03 13:27:54.
