data_PCOD9427423
_publ_section_title
;
Structure prediction by ZEFSAII (Michael W. Deem and Ramdas Pophale) SiO2 
 PCOD9427423
Probable space group: P B A M
;
_chemical_formula_sum "Si O2"
_cell_formula_units_Z 48
_cell_length_a 17.703440
_cell_length_b 8.868684
_cell_length_c 17.034352
_cell_angle_alpha 90.000000
_cell_angle_beta 90.000000
_cell_angle_gamma 90.000000
_cell_volume 2674.499134
_symmetry_space_group_name_H-M "P B A M"
_symmetry_group_IT_number 55
_symmetry_cell_setting 'orthorhombic'
loop_
_space_group_symop_operation_xyz
x,y,z
-x,-y,z
1/2+x,1/2-y,-z
1/2-x,1/2+y,-z
-x,-y,-z
x,y,-z
1/2-x,1/2+y,z
1/2+x,1/2-y,z
loop_
_atom_site_type_symbol
_atom_site_label
_atom_site_fract_x
_atom_site_fract_y
_atom_site_fract_z
Si Si1 0.416290 0.927970 0.088242
Si Si2 0.580663 0.583282 0.410294
Si Si3 0.558614 0.858335 0.294266
Si Si4 0.660884 0.395843 0.281731
Si Si5 0.809853 0.552004 0.238187
Si Si6 0.024444 0.155406 0.832235
O O1 0.352902 0.957999 0.154087
O O2 0.434359 0.753797 0.102855
O O3 0.500000 0.000000 0.100776
O O4 0.392326 0.964975 0.000000
O O5 0.500000 0.500000 0.410910
O O6 0.604651 0.609012 0.500000
O O7 0.564401 0.738583 0.364156
O O8 0.640149 0.477015 0.363581
O O9 0.534223 0.760654 0.216922
O O10 0.500000 0.000000 0.301858
O O11 0.639805 0.935854 0.287659
O O12 0.724797 0.494051 0.238940
O O13 0.684472 0.219411 0.275745
O O14 0.583058 0.396408 0.234294
O O15 0.000000 0.000000 0.869333
#
# Coordination Sequence:
#
# PCOD9427423 Si02
#       6
#     8   8   8   8   8   8
#     4  10  20  37  60  90 122 154 195 251 304 353
#     4  11  22  38  61  90 122 153 195 255 303 350
#     4  12  18  37  61  89 120 156 206 241 293 370
#     4  11  21  38  57  88 115 161 203 246 297 364
#     4  11  22  36  62  86 117 161 205 247 298 369
#     4  11  19  35  62  87 119 157 203 248 286 368
#
# _framework density 17.947284
#
# number of rings (size 3 to 8) (size 9 to 14) (size 15 to 20)
#    0.000    1.000    8.333    1.000    0.000    0.667 
#    0.000    7.500    0.000    0.000    0.000    0.000 
#    0.000    0.000    0.000    0.000    0.000    0.000 
#
# Total GULP energy -267270.349466 kJ/mol
# GULP energy per Si atom -5568.132281 kJ/mol
# Density = 1.790644 g / cm^3
# Si number density = 17.947284 Si / 1000 Ang^3
#
#
#
# Elastic Constant Matrix: (Units=GPa)
#
#
# Indices 1 2 3 4 5 6 
#
# 1 33.7650 19.8260 9.8101 0.0000 0.0000 0.0000
# 2 19.8260 98.7039 42.6570 0.0000 0.0000 0.0000
# 3 9.8101 42.6570 92.1618 0.0000 0.0000 0.0000
# 4 0.0000 0.0000 0.0000 2.2723 0.0000 0.0000
# 5 0.0000 0.0000 0.0000 0.0000 11.4174 0.0000
# 6 0.0000 0.0000 0.0000 0.0000 0.0000 36.4795
#
#
#
# Elastic Compliance Matrix: (Units=1/GPa)
#
#
# Indices 1 2 3 4 5 6 
#
# 1 0.033600 -0.006504 -0.000566 0.000000 0.000000 0.000000
# 2 -0.006504 0.013924 -0.005752 0.000000 0.000000 0.000000
# 3 -0.000566 -0.005752 0.013573 0.000000 0.000000 0.000000
# 4 0.000000 0.000000 0.000000 0.440073 0.000000 0.000000
# 5 0.000000 0.000000 0.000000 0.000000 0.087585 0.000000
# 6 0.000000 0.000000 0.000000 0.000000 0.000000 0.027413
#
#
# Mechanical properties :
#
#
# Convention : Reuss Voigt Hill
#
# Bulk Modulus (GPa) = 28.20734 41.02410 34.61572
# Shear Modulus (GPa) = 7.64958 20.18972 13.91965
#
# Velocity S-wave (km/s) = 2.06676 3.35766 2.78795
# Velocity P-wave (km/s) = 4.63101 6.15951 5.44912
#
# Compressibility (1/GPa) = 0.03545176
#
# Stress axis : x y z
#
# Youngs Moduli (GPa) = 29.76180 71.81963 73.67490
#
# Poissons Ratio (x) = 0.46715 0.04170
# Poissons Ratio (y) = 0.19358 0.42380
# Poissons Ratio (z) = 0.01684 0.41312
#
# Static dielectric constant tensor:
#      x y z
#    x 1.646930 0.000000 0.000000 
#    y 0.000000 1.726100 0.000000 
#    z 0.000000 0.000000 1.622830 
# 
# From -- ./inp_files/20905.got.cif
#   From: 2010.05.17/outbox.cif.g08.bks.cpg/sg55_11_cif.got.tgz:20905.got - 2010.06.03 13:27:54.
