data_PCOD9427784
_publ_section_title
;
Structure prediction by ZEFSAII (Michael W. Deem and Ramdas Pophale) SiO2 
 PCOD9427784
Probable space group: P B A M
;
_chemical_formula_sum "Si O2"
_cell_formula_units_Z 48
_cell_length_a 12.286334
_cell_length_b 23.563224
_cell_length_c 7.504073
_cell_angle_alpha 90.000000
_cell_angle_beta 90.000000
_cell_angle_gamma 90.000000
_cell_volume 2172.471458
_symmetry_space_group_name_H-M "P B A M"
_symmetry_group_IT_number 55
_symmetry_cell_setting 'orthorhombic'
loop_
_space_group_symop_operation_xyz
x,y,z
-x,-y,z
1/2+x,1/2-y,-z
1/2-x,1/2+y,-z
-x,-y,-z
x,y,-z
1/2-x,1/2+y,z
1/2+x,1/2-y,z
loop_
_atom_site_type_symbol
_atom_site_label
_atom_site_fract_x
_atom_site_fract_y
_atom_site_fract_z
Si Si1 0.993560 0.137412 0.283643
Si Si2 0.077743 0.348653 0.210709
Si Si3 0.163543 0.231657 0.793226
Si Si4 0.279534 0.419590 0.715077
Si Si5 0.332332 0.138869 0.783094
Si Si6 0.662255 0.456318 0.708010
O O1 0.998375 0.139384 0.500000
O O2 0.054739 0.193182 0.216972
O O3 0.064938 0.083115 0.220975
O O4 0.869870 0.126547 0.228277
O O5 0.136252 0.292601 0.287503
O O6 0.159471 0.400798 0.232117
O O7 0.956231 0.358152 0.279892
O O8 0.063668 0.338118 0.000000
O O9 0.260301 0.192504 0.718533
O O10 0.192358 0.240540 0.000000
O O11 0.281615 0.421357 0.500000
O O12 0.315787 0.481433 0.782744
O O13 0.269376 0.082435 0.723960
O O14 0.329382 0.138548 0.000000
O O15 0.635519 0.464671 0.500000
#
# Coordination Sequence:
#
# PCOD9427784 Si02
#       6
#     8   8   8   8   8   8
#     4   9  18  34  56  81 106 136 173 218 266 307
#     4  10  22  36  53  77 106 142 177 216 263 310
#     4   9  19  35  56  77 102 137 176 216 260 314
#     4  10  21  35  53  80 110 138 174 217 260 310
#     4   9  19  36  54  76 104 136 176 218 263 311
#     4   9  18  35  57  78 104 140 176 213 262 314
#
# _framework density 22.094652
#
# number of rings (size 3 to 8) (size 9 to 14) (size 15 to 20)
#    0.000    2.667    0.000    0.500    2.333    5.333 
#    0.000    3.333    0.000    5.000    0.000    0.000 
#    0.000    0.000    0.000    0.000    0.000    0.000 
#
# Total GULP energy -268000.350734 kJ/mol
# GULP energy per Si atom -5583.340640 kJ/mol
# Density = 2.204436 g / cm^3
# Si number density = 22.094652 Si / 1000 Ang^3
#
#
#
# Elastic Constant Matrix: (Units=GPa)
#
#
# Indices 1 2 3 4 5 6 
#
# 1 99.6617 3.3082 -7.8280 0.0000 0.0000 0.0000
# 2 3.3082 45.8174 -8.7804 0.0000 0.0000 0.0000
# 3 -7.8280 -8.7804 55.4871 0.0000 0.0000 0.0000
# 4 0.0000 0.0000 0.0000 10.3827 0.0000 0.0000
# 5 0.0000 0.0000 0.0000 0.0000 19.6387 0.0000
# 6 0.0000 0.0000 0.0000 0.0000 0.0000 3.3956
#
#
#
# Elastic Compliance Matrix: (Units=1/GPa)
#
#
# Indices 1 2 3 4 5 6 
#
# 1 0.010156 -0.000473 0.001358 0.000000 0.000000 0.000000
# 2 -0.000473 0.022530 0.003499 0.000000 0.000000 0.000000
# 3 0.001358 0.003499 0.018767 0.000000 0.000000 0.000000
# 4 0.000000 0.000000 0.000000 0.096314 0.000000 0.000000
# 5 0.000000 0.000000 0.000000 0.000000 0.050920 0.000000
# 6 0.000000 0.000000 0.000000 0.000000 0.000000 0.294496
#
#
# Mechanical properties :
#
#
# Convention : Reuss Voigt Hill
#
# Bulk Modulus (GPa) = 16.60556 19.37399 17.98977
# Shear Modulus (GPa) = 9.91099 20.96783 15.43941
#
# Velocity S-wave (km/s) = 2.12024 3.08393 2.64632
# Velocity P-wave (km/s) = 3.67775 4.63341 4.18296
#
# Compressibility (1/GPa) = 0.06022081
#
# Stress axis : x y z
#
# Youngs Moduli (GPa) = 98.46090 44.38453 53.28394
#
# Poissons Ratio (x) = 0.02100 -0.07236
# Poissons Ratio (y) = 0.04658 -0.18641
# Poissons Ratio (z) = -0.13371 -0.15528
#
# Static dielectric constant tensor:
#      x y z
#    x 1.788970 0.000000 0.000000 
#    y 0.000000 1.794780 0.000000 
#    z 0.000000 0.000000 1.874010 
# 
# From -- ./inp_files/4034.got.cif
#   From: 2010.05.17/outbox.cif.g08.bks.cpg/sg55_3_cif.got.tgz:4034.got - 2010.06.03 13:27:54.
