data_PCOD9427360
_publ_section_title
;
Structure prediction by ZEFSAII (Michael W. Deem and Ramdas Pophale) SiO2 
 PCOD9427360
Probable space group: P B A M
;
_chemical_formula_sum "Si O2"
_cell_formula_units_Z 52
_cell_length_a 7.967692
_cell_length_b 24.809018
_cell_length_c 12.881855
_cell_angle_alpha 90.000000
_cell_angle_beta 90.000000
_cell_angle_gamma 90.000000
_cell_volume 2546.364190
_symmetry_space_group_name_H-M "P B A M"
_symmetry_group_IT_number 55
_symmetry_cell_setting 'orthorhombic'
loop_
_space_group_symop_operation_xyz
x,y,z
-x,-y,z
1/2+x,1/2-y,-z
1/2-x,1/2+y,-z
-x,-y,-z
x,y,-z
1/2-x,1/2+y,z
1/2+x,1/2-y,z
loop_
_atom_site_type_symbol
_atom_site_label
_atom_site_fract_x
_atom_site_fract_y
_atom_site_fract_z
Si Si1 0.085238 0.923404 0.666251
Si Si2 0.420824 0.810369 0.120542
Si Si3 0.038066 0.807778 0.379985
Si Si4 0.775085 0.076877 0.116902
Si Si5 0.500000 0.000000 0.210661
Si Si6 0.229709 0.719569 0.248716
Si Si7 0.272510 0.031532 0.614159
O O1 0.137022 0.863763 0.632765
O O2 0.091212 0.928241 0.790950
O O3 0.898831 0.935190 0.626206
O O4 0.208139 0.969535 0.623523
O O5 0.309710 0.864213 0.126344
O O6 0.317402 0.759992 0.166610
O O7 0.588523 0.814176 0.189416
O O8 0.463019 0.801044 0.000000
O O9 0.996011 0.799274 0.500000
O O10 0.140846 0.757989 0.333460
O O11 0.873559 0.812788 0.308000
O O12 0.630959 0.033294 0.142405
O O13 0.839385 0.070188 0.000000
O O14 0.398542 0.038738 0.290375
O O15 0.345039 0.041608 0.500000
#
# Coordination Sequence:
#
# PCOD9427360 Si02
#       7
#     8   8   8   8   4   8   8
#     4  10  20  37  58  83 110 148 186 228 272 331
#     4  10  20  38  59  82 111 146 185 234 279 323
#     4  11  21  37  57  80 115 150 181 226 277 328
#     4  10  21  39  58  82 114 149 183 228 281 330
#     4  10  22  36  60  84 118 142 184 228 280 338
#     4  10  22  36  57  83 113 142 194 225 275 330
#     4  10  20  37  60  86 113 144 184 230 276 330
#
# _framework density 20.421272999999999
#
# number of rings (size 3 to 8) (size 9 to 14) (size 15 to 20)
#    0.000    1.846    1.538    3.231    2.154    0.000 
#    0.000    7.692    0.000    0.000    0.000    0.000 
#    0.000    0.000    0.000    0.000    0.000    0.000 
#
# Total GULP energy -290470.876857 kJ/mol
# GULP energy per Si atom -5585.978401 kJ/mol
# Density = 2.037479 g / cm^3
# Si number density = 20.421273 Si / 1000 Ang^3
#
#
#
# Elastic Constant Matrix: (Units=GPa)
#
#
# Indices 1 2 3 4 5 6 
#
# 1 28.0661 -11.8527 1.9783 0.0000 0.0000 0.0000
# 2 -11.8527 42.0905 21.1098 0.0000 0.0000 0.0000
# 3 1.9783 21.1098 132.6274 0.0000 0.0000 0.0000
# 4 0.0000 0.0000 0.0000 25.2630 0.0000 0.0000
# 5 0.0000 0.0000 0.0000 0.0000 24.5165 0.0000
# 6 0.0000 0.0000 0.0000 0.0000 0.0000 15.6594
#
#
#
# Elastic Compliance Matrix: (Units=1/GPa)
#
#
# Indices 1 2 3 4 5 6 
#
# 1 0.041298 0.012974 -0.002681 0.000000 0.000000 0.000000
# 2 0.012974 0.029895 -0.004952 0.000000 0.000000 0.000000
# 3 -0.002681 -0.004952 0.008368 0.000000 0.000000 0.000000
# 4 0.000000 0.000000 0.000000 0.039584 0.000000 0.000000
# 5 0.000000 0.000000 0.000000 0.000000 0.040789 0.000000
# 6 0.000000 0.000000 0.000000 0.000000 0.000000 0.063860
#
#
# Mechanical properties :
#
#
# Convention : Reuss Voigt Hill
#
# Bulk Modulus (GPa) = 11.08097 25.02827 18.05462
# Shear Modulus (GPa) = 20.55982 25.85768 23.20875
#
# Velocity S-wave (km/s) = 3.17643 3.56225 3.37486
# Velocity P-wave (km/s) = 4.34637 5.40389 4.90372
#
# Compressibility (1/GPa) = 0.09024480
#
# Stress axis : x y z
#
# Youngs Moduli (GPa) = 24.21399 33.44988 119.50170
#
# Poissons Ratio (x) = -0.43399 0.32039
# Poissons Ratio (y) = -0.31416 0.59176
# Poissons Ratio (z) = 0.06492 0.16564
#
# Static dielectric constant tensor:
#      x y z
#    x 1.719470 0.000000 0.000000 
#    y 0.000000 1.724540 0.000000 
#    z 0.000000 0.000000 1.715150 
# 
# From -- ./inp_files/12377.got.cif
#   From: 2010.05.17/outbox.cif.g08.bks.cpg/sg55_7_cif.got.tgz:12377.got - 2010.06.03 13:27:54.
