data_PCOD9427597
_publ_section_title
;
Structure prediction by ZEFSAII (Michael W. Deem and Ramdas Pophale) SiO2 
 PCOD9427597
Probable space group: P B A M
;
_chemical_formula_sum "Si O2"
_cell_formula_units_Z 56
_cell_length_a 14.839436
_cell_length_b 21.736249
_cell_length_c 8.837400
_cell_angle_alpha 90.000000
_cell_angle_beta 90.000000
_cell_angle_gamma 90.000000
_cell_volume 2850.535856
_symmetry_space_group_name_H-M "P B A M"
_symmetry_group_IT_number 55
_symmetry_cell_setting 'orthorhombic'
loop_
_space_group_symop_operation_xyz
x,y,z
-x,-y,z
1/2+x,1/2-y,-z
1/2-x,1/2+y,-z
-x,-y,-z
x,y,-z
1/2-x,1/2+y,z
1/2+x,1/2-y,z
loop_
_atom_site_type_symbol
_atom_site_label
_atom_site_fract_x
_atom_site_fract_y
_atom_site_fract_z
Si Si1 0.101280 0.761133 0.179995
Si Si2 0.073728 0.175285 0.680234
Si Si3 0.602177 0.873545 0.680597
Si Si4 0.601858 0.101399 0.680275
Si Si5 0.912658 0.960293 0.181046
Si Si6 0.194082 0.279850 0.819946
Si Si7 0.774106 0.486133 0.317713
O O1 0.103884 0.690062 0.230183
O O2 0.200251 0.787603 0.215960
O O3 0.020517 0.795167 0.265046
O O4 0.085986 0.765792 0.000000
O O5 0.077176 0.173126 0.500000
O O6 0.082916 0.107324 0.747270
O O7 0.152359 0.219990 0.740541
O O8 0.609691 0.860971 0.500000
O O9 0.504771 0.904770 0.706022
O O10 0.680004 0.921177 0.723978
O O11 0.613872 0.111374 0.500000
O O12 0.638853 0.161024 0.765416
O O13 0.658315 0.041264 0.722964
O O14 0.821840 0.992216 0.239403
O O15 0.910818 0.954928 0.000000
O O16 0.000000 0.000000 0.224461
O O17 0.185346 0.272237 0.000000
O O18 0.763579 0.486462 0.500000
#
# Coordination Sequence:
#
# PCOD9427597 Si02
#       7
#     8   8   8   8   8   8   8
#     4  11  24  40  62  92 128 166 206 256 316 378
#     4  12  25  43  68  95 125 164 212 263 315 375
#     4  10  20  38  63  94 129 166 207 255 313 374
#     4  10  21  38  62  94 129 166 209 258 315 373
#     4  11  26  46  66  90 126 169 213 263 321 377
#     4  11  24  41  63  93 131 169 210 260 319 381
#     4  10  22  40  64  94 128 168 214 261 311 375
#
# _framework density 19.645430000000001
#
# number of rings (size 3 to 8) (size 9 to 14) (size 15 to 20)
#    0.000    1.286    1.429    3.857    2.000    8.571 
#    0.000    0.000    0.000    2.571    0.000    0.000 
#    0.000    0.000    0.000    0.000    0.000    0.000 
#
# Total GULP energy -313276.571463 kJ/mol
# GULP energy per Si atom -5594.224490 kJ/mol
# Density = 1.960072 g / cm^3
# Si number density = 19.645430 Si / 1000 Ang^3
#
#
#
# Elastic Constant Matrix: (Units=GPa)
#
#
# Indices 1 2 3 4 5 6 
#
# 1 80.2493 -12.2836 21.1791 0.0000 0.0000 0.0000
# 2 -12.2836 35.6150 5.1378 0.0000 0.0000 0.0000
# 3 21.1791 5.1378 34.5577 0.0000 0.0000 0.0000
# 4 0.0000 0.0000 0.0000 38.2279 0.0000 0.0000
# 5 0.0000 0.0000 0.0000 0.0000 12.6735 0.0000
# 6 0.0000 0.0000 0.0000 0.0000 0.0000 23.6844
#
#
#
# Elastic Compliance Matrix: (Units=1/GPa)
#
#
# Indices 1 2 3 4 5 6 
#
# 1 0.016546 0.007327 -0.011230 0.000000 0.000000 0.000000
# 2 0.007327 0.031938 -0.009239 0.000000 0.000000 0.000000
# 3 -0.011230 -0.009239 0.037193 0.000000 0.000000 0.000000
# 4 0.000000 0.000000 0.000000 0.026159 0.000000 0.000000
# 5 0.000000 0.000000 0.000000 0.000000 0.078905 0.000000
# 6 0.000000 0.000000 0.000000 0.000000 0.000000 0.042222
#
#
# Mechanical properties :
#
#
# Convention : Reuss Voigt Hill
#
# Bulk Modulus (GPa) = 16.83675 19.83206 18.33440
# Shear Modulus (GPa) = 17.91831 24.00976 20.96404
#
# Velocity S-wave (km/s) = 3.02335 3.49973 3.27022
# Velocity P-wave (km/s) = 4.55812 5.14273 4.85923
#
# Compressibility (1/GPa) = 0.05939389
#
# Stress axis : x y z
#
# Youngs Moduli (GPa) = 60.43589 31.31082 26.88670
#
# Poissons Ratio (x) = -0.22941 0.30194
# Poissons Ratio (y) = -0.44281 0.24840
# Poissons Ratio (z) = 0.67870 0.28927
#
# Static dielectric constant tensor:
#      x y z
#    x 1.685210 0.000000 0.000000 
#    y 0.000000 1.651450 0.000000 
#    z 0.000000 0.000000 1.658610 
# 
# From -- ./inp_files/6037.got.cif
#   From: 2010.05.17/outbox.cif.g08.bks.cpg/sg55_4_cif.got.tgz:6037.got - 2010.06.03 13:27:54.
