data_PCOD9427239
_publ_section_title
;
Structure prediction by ZEFSAII (Michael W. Deem and Ramdas Pophale) SiO2 
 PCOD9427239
Probable space group: P B A M
;
_chemical_formula_sum "Si O2"
_cell_formula_units_Z 64
_cell_length_a 18.967681
_cell_length_b 20.201266
_cell_length_c 7.668584
_cell_angle_alpha 90.000000
_cell_angle_beta 90.000000
_cell_angle_gamma 90.000000
_cell_volume 2938.380298
_symmetry_space_group_name_H-M "P B A M"
_symmetry_group_IT_number 55
_symmetry_cell_setting 'orthorhombic'
loop_
_space_group_symop_operation_xyz
x,y,z
-x,-y,z
1/2+x,1/2-y,-z
1/2-x,1/2+y,-z
-x,-y,-z
x,y,-z
1/2-x,1/2+y,z
1/2+x,1/2-y,z
loop_
_atom_site_type_symbol
_atom_site_label
_atom_site_fract_x
_atom_site_fract_y
_atom_site_fract_z
Si Si1 0.234263 0.617177 0.203928
Si Si2 0.409356 0.182072 0.295744
Si Si3 0.934559 0.039916 0.796652
Si Si4 0.833315 0.636946 0.709101
Si Si5 0.019655 0.426452 0.713977
Si Si6 0.479361 0.314105 0.288189
Si Si7 0.358770 0.714281 0.289133
Si Si8 0.276854 0.474842 0.789725
O O1 0.170908 0.659927 0.281253
O O2 0.307248 0.656345 0.227301
O O3 0.240123 0.542432 0.275554
O O4 0.218605 0.611990 0.000000
O O5 0.427079 0.186081 0.500000
O O6 0.460570 0.125195 0.224755
O O7 0.429895 0.253945 0.226297
O O8 0.953318 0.116736 0.785074
O O9 0.856929 0.027631 0.721805
O O10 0.930105 0.019592 0.000000
O O11 0.000000 0.000000 0.716552
O O12 0.838722 0.641199 0.500000
O O13 0.903819 0.599208 0.770961
O O14 0.833546 0.712913 0.772492
O O15 0.766523 0.591236 0.748816
O O16 0.019980 0.427441 0.500000
O O17 0.000000 0.500000 0.771566
O O18 0.476971 0.319271 0.500000
O O19 0.560137 0.298170 0.238639
O O20 0.356431 0.714045 0.500000
O O21 0.279449 0.479387 0.000000
#
# Coordination Sequence:
#
# PCOD9427239 Si02
#       8
#     8   8   8   8   8   8   8   8
#     4  11  24  40  59  84 117 157 199 239 289 352
#     4  10  20  37  59  87 120 152 189 240 292 339
#     4  10  22  41  63  84 114 157 201 245 297 353
#     4  10  20  36  59  87 115 150 193 236 286 347
#     4   9  16  30  56  85 112 146 186 224 273 338
#     4  10  21  38  61  89 120 150 190 246 297 346
#     4  10  21  39  61  87 119 153 193 243 294 349
#     4  10  23  41  58  83 119 155 196 245 293 348
#
# _framework density 21.780707
#
# number of rings (size 3 to 8) (size 9 to 14) (size 15 to 20)
#    0.000    2.000    1.250    1.875    1.750    5.250 
#    0.000    0.625    0.000    2.250    0.000    0.000 
#    0.000    0.000    0.000    0.000    0.000    0.000 
#
# Total GULP energy -357627.198092 kJ/mol
# GULP energy per Si atom -5587.924970 kJ/mol
# Density = 2.173113 g / cm^3
# Si number density = 21.780707 Si / 1000 Ang^3
#
#
#
# Elastic Constant Matrix: (Units=GPa)
#
#
# Indices 1 2 3 4 5 6 
#
# 1 73.8869 0.1735 -14.2233 0.0000 0.0000 0.0000
# 2 0.1735 82.6452 -15.8409 0.0000 0.0000 0.0000
# 3 -14.2233 -15.8409 32.9099 0.0000 0.0000 0.0000
# 4 0.0000 0.0000 0.0000 -1.7998 0.0000 0.0000
# 5 0.0000 0.0000 0.0000 0.0000 60.0171 0.0000
# 6 0.0000 0.0000 0.0000 0.0000 0.0000 41.7946
#
#
#
# Elastic Compliance Matrix: (Units=1/GPa)
#
#
# Indices 1 2 3 4 5 6 
#
# 1 0.014893 0.001325 0.007074 0.000000 0.000000 0.000000
# 2 0.001325 0.013448 0.007045 0.000000 0.000000 0.000000
# 3 0.007074 0.007045 0.036835 0.000000 0.000000 0.000000
# 4 0.000000 0.000000 0.000000 -0.555624 0.000000 0.000000
# 5 0.000000 0.000000 0.000000 0.000000 0.016662 0.000000
# 6 0.000000 0.000000 0.000000 0.000000 0.000000 0.023927
#
#
# Mechanical properties :
#
#
# Convention : Reuss Voigt Hill
#
# Bulk Modulus (GPa) = 10.40978 14.40673 12.40825
# Shear Modulus (GPa) = -11.14261 34.62454 11.74097
#
# Velocity S-wave (km/s) = -2.26427 3.99142 2.32427
# Velocity P-wave (km/s) = 1.43044 5.27927 3.59336
#
# Compressibility (1/GPa) = 0.09606355
#
# Stress axis : x y z
#
# Youngs Moduli (GPa) = 67.14618 74.36300 27.14834
#
# Poissons Ratio (x) = -0.09851 -0.19205
# Poissons Ratio (y) = -0.08895 -0.19127
# Poissons Ratio (z) = -0.47500 -0.52392
#
# Static dielectric constant tensor:
#      x y z
#    x 1.761840 0.000000 0.000000 
#    y 0.000000 1.812670 0.000000 
#    z 0.000000 0.000000 1.827020 
# 
# From -- ./inp_files/8042.got.cif
#   From: 2010.05.17/outbox.cif.g08.bks.cpg/sg55_5_cif.got.tgz:8042.got - 2010.06.03 13:27:54.
