data_PCOD9427646
_publ_section_title
;
Structure prediction by ZEFSAII (Michael W. Deem and Ramdas Pophale) SiO2 
 PCOD9427646
Probable space group: P B A M
;
_chemical_formula_sum "Si O2"
_cell_formula_units_Z 64
_cell_length_a 24.840860
_cell_length_b 15.739675
_cell_length_c 8.315991
_cell_angle_alpha 90.000000
_cell_angle_beta 90.000000
_cell_angle_gamma 90.000000
_cell_volume 3251.444898
_symmetry_space_group_name_H-M "P B A M"
_symmetry_group_IT_number 55
_symmetry_cell_setting 'orthorhombic'
loop_
_space_group_symop_operation_xyz
x,y,z
-x,-y,z
1/2+x,1/2-y,-z
1/2-x,1/2+y,-z
-x,-y,-z
x,y,-z
1/2-x,1/2+y,z
1/2+x,1/2-y,z
loop_
_atom_site_type_symbol
_atom_site_label
_atom_site_fract_x
_atom_site_fract_y
_atom_site_fract_z
Si Si1 0.930924 0.251501 0.805416
Si Si2 0.380799 0.645509 0.312766
Si Si3 0.693065 0.749217 0.193683
Si Si4 0.504251 0.404516 0.190700
Si Si5 0.734534 0.404906 0.689999
Si Si6 0.126305 0.347400 0.312902
Si Si7 0.763069 0.588190 0.811382
Si Si8 0.507576 0.097489 0.305455
O O1 0.868875 0.251881 0.749468
O O2 0.963584 0.168031 0.745746
O O3 0.963313 0.335947 0.755621
O O4 0.930490 0.248956 0.000000
O O5 0.388922 0.620504 0.500000
O O6 0.434899 0.624999 0.219123
O O7 0.326530 0.603572 0.246358
O O8 0.370845 0.745982 0.308948
O O9 0.726166 0.833292 0.239830
O O10 0.725148 0.665116 0.250109
O O11 0.692037 0.745093 0.000000
O O12 0.500000 0.500000 0.258566
O O13 0.493384 0.409802 0.000000
O O14 0.731592 0.388610 0.500000
O O15 0.753930 0.499554 0.723616
O O16 0.131966 0.374743 0.500000
O O17 0.175363 0.384635 0.213650
O O18 0.067237 0.373732 0.254912
O O19 0.751872 0.575909 0.000000
O O20 0.505763 0.100348 0.500000
O O21 0.500000 0.000000 0.254410
#
# Coordination Sequence:
#
# PCOD9427646 Si02
#       8
#     8   8   8   8   8   8   8   8
#     4  10  22  40  59  85 120 155 195 243 293 347
#     4  10  21  39  62  87 117 154 198 250 297 347
#     4  10  23  42  61  86 122 160 199 245 297 357
#     4  10  22  38  61  89 119 158 199 242 296 354
#     4  11  24  41  62  88 120 158 202 248 300 355
#     4  10  20  39  62  85 120 155 197 250 295 352
#     4  11  24  40  63  91 121 158 200 246 301 358
#     4  10  22  39  60  87 117 155 197 238 293 353
#
# _framework density 19.683555999999999
#
# number of rings (size 3 to 8) (size 9 to 14) (size 15 to 20)
#    0.000    1.750    2.500    0.750    3.500    3.500 
#    0.000    0.000    0.000    0.000    0.000    0.000 
#    0.000    0.000    0.000    0.000    0.000    0.000 
#
# Total GULP energy -357396.718994 kJ/mol
# GULP energy per Si atom -5584.323734 kJ/mol
# Density = 1.963876 g / cm^3
# Si number density = 19.683556 Si / 1000 Ang^3
#
#
#
# Elastic Constant Matrix: (Units=GPa)
#
#
# Indices 1 2 3 4 5 6 
#
# 1 111.3149 31.5173 5.3954 0.0000 0.0000 0.0000
# 2 31.5173 99.7755 7.6073 0.0000 0.0000 0.0000
# 3 5.3954 7.6073 5.9183 0.0000 0.0000 0.0000
# 4 0.0000 0.0000 0.0000 0.2858 0.0000 0.0000
# 5 0.0000 0.0000 0.0000 0.0000 27.9771 0.0000
# 6 0.0000 0.0000 0.0000 0.0000 0.0000 29.3330
#
#
#
# Elastic Compliance Matrix: (Units=1/GPa)
#
#
# Indices 1 2 3 4 5 6 
#
# 1 0.010032 -0.002740 -0.005623 0.000000 0.000000 0.000000
# 2 -0.002740 0.011860 -0.012746 0.000000 0.000000 0.000000
# 3 -0.005623 -0.012746 0.190478 0.000000 0.000000 0.000000
# 4 0.000000 0.000000 0.000000 3.499327 0.000000 0.000000
# 5 0.000000 0.000000 0.000000 0.000000 0.035743 0.000000
# 6 0.000000 0.000000 0.000000 0.000000 0.000000 0.034091
#
#
# Mechanical properties :
#
#
# Convention : Reuss Voigt Hill
#
# Bulk Modulus (GPa) = 5.87718 34.00541 19.94130
# Shear Modulus (GPa) = 1.28850 23.01843 12.15347
#
# Velocity S-wave (km/s) = 0.80996 3.42339 2.48754
# Velocity P-wave (km/s) = 1.96647 5.73931 4.28992
#
# Compressibility (1/GPa) = 0.17014960
#
# Stress axis : x y z
#
# Youngs Moduli (GPa) = 99.68168 84.31777 5.24996
#
# Poissons Ratio (x) = 0.23104 0.02952
# Poissons Ratio (y) = 0.27314 0.06692
# Poissons Ratio (z) = 0.56056 1.07475
#
# Static dielectric constant tensor:
#      x y z
#    x 1.703660 0.000000 0.000000 
#    y 0.000000 1.675760 0.000000 
#    z 0.000000 0.000000 1.703010 
# 
# From -- ./inp_files/9692.got.cif
#   From: 2010.05.17/outbox.cif.g08.bks.cpg/sg55_5_cif.got.tgz:9692.got - 2010.06.03 13:27:54.
