data_PCOD9427111
_publ_section_title
;
Structure prediction by ZEFSAII (Michael W. Deem and Ramdas Pophale) SiO2 
 PCOD9427111
Probable space group: P B A M
;
_chemical_formula_sum "Si O2"
_cell_formula_units_Z 56
_cell_length_a 8.640423
_cell_length_b 18.911166
_cell_length_c 18.501645
_cell_angle_alpha 90.000000
_cell_angle_beta 90.000000
_cell_angle_gamma 90.000000
_cell_volume 3023.177557
_symmetry_space_group_name_H-M "P B A M"
_symmetry_group_IT_number 55
_symmetry_cell_setting 'orthorhombic'
loop_
_space_group_symop_operation_xyz
x,y,z
-x,-y,z
1/2+x,1/2-y,-z
1/2-x,1/2+y,-z
-x,-y,-z
x,y,-z
1/2-x,1/2+y,z
1/2+x,1/2-y,z
loop_
_atom_site_type_symbol
_atom_site_label
_atom_site_fract_x
_atom_site_fract_y
_atom_site_fract_z
Si Si1 0.740543 0.857504 0.918040
Si Si2 0.060681 0.776297 0.916398
Si Si3 0.412911 0.924729 0.585058
Si Si4 0.636875 0.553280 0.307011
Si Si5 0.657438 0.963139 0.199101
Si Si6 0.679058 0.691589 0.762338
Si Si7 0.026724 0.665453 0.708844
O O1 0.589650 0.807781 0.907262
O O2 0.745387 0.922498 0.864193
O O3 0.885977 0.804413 0.909104
O O4 0.742221 0.882968 0.000000
O O5 0.150654 0.809009 0.848308
O O6 0.110324 0.792190 0.000000
O O7 0.399635 0.912030 0.500000
O O8 0.248772 0.933063 0.625288
O O9 0.499445 0.860825 0.626801
O O10 0.500000 0.000000 0.595922
O O11 0.500000 0.500000 0.324790
O O12 0.739132 0.517864 0.243408
O O13 0.583261 0.628343 0.275147
O O14 0.604571 0.901701 0.253480
O O15 0.500000 0.000000 0.172267
O O16 0.625652 0.765433 0.727247
O O17 0.857735 0.678657 0.743318
#
# Coordination Sequence:
#
# PCOD9427111 Si02
#       7
#     8   8   8   8   8   8   8
#     4  10  22  35  55  83 117 157 198 253 306 359
#     4  10  20  36  55  85 118 154 202 250 300 351
#     4  10  20  40  65  89 122 161 192 231 302 366
#     4  11  23  38  62  93 122 156 202 248 298 354
#     4  12  21  40  59  81 122 154 198 250 299 364
#     4  11  22  36  60  89 114 160 201 250 295 352
#     4  11  22  38  60  91 117 150 204 244 298 353
#
# _framework density 18.523555999999999
#
# number of rings (size 3 to 8) (size 9 to 14) (size 15 to 20)
#    0.000    1.286    5.714    1.714    2.000    0.571 
#    0.000    3.571    0.000    2.571    0.000    0.000 
#    0.000    0.000    0.000    0.000    0.000    0.000 
#
# Total GULP energy -312523.551256 kJ/mol
# GULP energy per Si atom -5580.777701 kJ/mol
# Density = 1.848140 g / cm^3
# Si number density = 18.523556 Si / 1000 Ang^3
#
#
#
# Elastic Constant Matrix: (Units=GPa)
#
#
# Indices 1 2 3 4 5 6 
#
# 1 30.8817 10.7089 24.3086 0.0000 0.0000 0.0000
# 2 10.7089 85.0625 40.5246 0.0000 0.0000 0.0000
# 3 24.3086 40.5246 137.6697 0.0000 0.0000 0.0000
# 4 0.0000 0.0000 0.0000 22.2543 0.0000 0.0000
# 5 0.0000 0.0000 0.0000 0.0000 18.3301 0.0000
# 6 0.0000 0.0000 0.0000 0.0000 0.0000 28.7657
#
#
#
# Elastic Compliance Matrix: (Units=1/GPa)
#
#
# Indices 1 2 3 4 5 6 
#
# 1 0.037855 -0.001839 -0.006143 0.000000 0.000000 0.000000
# 2 -0.001839 0.013763 -0.003727 0.000000 0.000000 0.000000
# 3 -0.006143 -0.003727 0.009445 0.000000 0.000000 0.000000
# 4 0.000000 0.000000 0.000000 0.044935 0.000000 0.000000
# 5 0.000000 0.000000 0.000000 0.000000 0.054555 0.000000
# 6 0.000000 0.000000 0.000000 0.000000 0.000000 0.034764
#
#
# Mechanical properties :
#
#
# Convention : Reuss Voigt Hill
#
# Bulk Modulus (GPa) = 26.56323 44.96645 35.76484
# Shear Modulus (GPa) = 21.61861 25.74149 23.68005
#
# Velocity S-wave (km/s) = 3.41997 3.73186 3.57932
# Velocity P-wave (km/s) = 5.47415 6.54958 6.03587
#
# Compressibility (1/GPa) = 0.03764602
#
# Stress axis : x y z
#
# Youngs Moduli (GPa) = 26.41689 72.65876 105.87255
#
# Poissons Ratio (x) = 0.13364 0.65034
# Poissons Ratio (y) = 0.04859 0.39454
# Poissons Ratio (z) = 0.16227 0.27076
#
# Static dielectric constant tensor:
#      x y z
#    x 1.665560 0.000000 0.000000 
#    y 0.000000 1.643710 0.000000 
#    z 0.000000 0.000000 1.640910 
# 
# From -- ./inp_files/21038.got.cif
#   From: 2010.05.17/outbox.cif.g08.bks.cpg/sg55_11_cif.got.tgz:21038.got - 2010.06.03 13:27:54.
