data_PCOD9427872
_publ_section_title
;
Structure prediction by ZEFSAII (Michael W. Deem and Ramdas Pophale) SiO2 
 PCOD9427872
Probable space group: P B A M
;
_chemical_formula_sum "Si O2"
_cell_formula_units_Z 58
_cell_length_a 24.205941
_cell_length_b 14.368990
_cell_length_c 7.509014
_cell_angle_alpha 90.000000
_cell_angle_beta 90.000000
_cell_angle_gamma 90.000000
_cell_volume 2611.747135
_symmetry_space_group_name_H-M "P B A M"
_symmetry_group_IT_number 55
_symmetry_cell_setting 'orthorhombic'
loop_
_space_group_symop_operation_xyz
x,y,z
-x,-y,z
1/2+x,1/2-y,-z
1/2-x,1/2+y,-z
-x,-y,-z
x,y,-z
1/2-x,1/2+y,z
1/2+x,1/2-y,z
loop_
_atom_site_type_symbol
_atom_site_label
_atom_site_fract_x
_atom_site_fract_y
_atom_site_fract_z
Si Si1 0.431455 0.343942 0.294245
Si Si2 0.868659 0.977113 0.202794
Si Si3 0.838770 0.491981 0.782606
Si Si4 0.830779 0.282538 0.790760
Si Si5 0.053779 0.397648 0.788647
Si Si6 0.500000 0.000000 0.500000
Si Si7 0.941291 0.813087 0.787113
Si Si8 0.268730 0.399124 0.781278
O O1 0.417636 0.356755 0.500000
O O2 0.413045 0.439156 0.200173
O O3 0.392167 0.261118 0.225849
O O4 0.496151 0.326820 0.276038
O O5 0.814019 0.024918 0.279693
O O6 0.898174 0.888147 0.286533
O O7 0.853510 0.951249 0.000000
O O8 0.828401 0.386982 0.717801
O O9 0.898284 0.531158 0.729757
O O10 0.790946 0.563620 0.728566
O O11 0.839245 0.490911 0.000000
O O12 0.789334 0.202563 0.720495
O O13 0.818169 0.291253 0.000000
O O14 0.074920 0.293332 0.757159
O O15 0.003937 0.420095 0.658373
O O16 0.041630 0.406950 0.000000
O O17 0.943551 0.827518 0.000000
O O18 0.270743 0.397087 0.000000
#
# Coordination Sequence:
#
# PCOD9427872 Si02
#       8
#     8   8   8   8   8   2   8   8
#     4  11  22  33  52  80 112 151 196 240 288 349
#     4   9  18  35  57  83 114 150 191 236 294 352
#     4   9  18  34  57  86 116 146 187 240 287 344
#     4   9  18  33  55  80 109 148 189 233 289 347
#     4  10  24  41  61  90 119 156 202 242 294 357
#     4  12  26  44  64  82 122 164 194 256 294 346
#     4  10  21  36  55  82 116 152 191 241 292 349
#     4   8  15  30  55  85 110 141 189 237 287 345
#
# _framework density 22.207356999999998
#
# number of rings (size 3 to 8) (size 9 to 14) (size 15 to 20)
#    0.000    2.483    0.000    2.690    2.897    3.310 
#    0.000    5.517    6.069    0.000    0.000    0.000 
#    0.000    0.000    0.000    0.000    0.000    0.276 
#
# Total GULP energy -323257.691992 kJ/mol
# GULP energy per Si atom -5573.408483 kJ/mol
# Density = 2.215681 g / cm^3
# Si number density = 22.207357 Si / 1000 Ang^3
#
#
#
# Elastic Constant Matrix: (Units=GPa)
#
#
# Indices 1 2 3 4 5 6 
#
# 1 79.3444 35.8652 0.9738 0.0000 0.0000 0.0000
# 2 35.8652 80.1748 19.6699 0.0000 0.0000 0.0000
# 3 0.9738 19.6699 73.0338 0.0000 0.0000 0.0000
# 4 0.0000 0.0000 0.0000 86.9680 0.0000 0.0000
# 5 0.0000 0.0000 0.0000 0.0000 128.4923 0.0000
# 6 0.0000 0.0000 0.0000 0.0000 0.0000 17.0761
#
#
#
# Elastic Compliance Matrix: (Units=1/GPa)
#
#
# Indices 1 2 3 4 5 6 
#
# 1 0.016025 -0.007620 0.001838 0.000000 0.000000 0.000000
# 2 -0.007620 0.016978 -0.004471 0.000000 0.000000 0.000000
# 3 0.001838 -0.004471 0.014872 0.000000 0.000000 0.000000
# 4 0.000000 0.000000 0.000000 0.011498 0.000000 0.000000
# 5 0.000000 0.000000 0.000000 0.000000 0.007783 0.000000
# 6 0.000000 0.000000 0.000000 0.000000 0.000000 0.058561
#
#
# Mechanical properties :
#
#
# Convention : Reuss Voigt Hill
#
# Bulk Modulus (GPa) = 36.53541 38.39676 37.46608
# Shear Modulus (GPa) = 32.18632 58.24354 45.21493
#
# Velocity S-wave (km/s) = 3.81117 5.12680 4.51714
# Velocity P-wave (km/s) = 5.98785 7.23692 6.64181
#
# Compressibility (1/GPa) = 0.02737071
#
# Stress axis : x y z
#
# Youngs Moduli (GPa) = 62.40282 58.89909 67.24060
#
# Poissons Ratio (x) = 0.44879 -0.12362
# Poissons Ratio (y) = 0.47548 0.30064
# Poissons Ratio (z) = -0.11473 0.26334
#
# Static dielectric constant tensor:
#      x y z
#    x 1.826880 0.000000 0.000000 
#    y 0.000000 1.838120 0.000000 
#    z 0.000000 0.000000 2.044990 
# 
# From -- ./inp_files/9571.got.cif
#   From: 2010.05.17/outbox.cif.g08.bks.cpg/sg55_5_cif.got.tgz:9571.got - 2010.06.03 13:27:54.
