data_PCOD9427294
_publ_section_title
;
Structure prediction by ZEFSAII (Michael W. Deem and Ramdas Pophale) SiO2 
 PCOD9427294
Probable space group: P B A M
;
_chemical_formula_sum "Si O2"
_cell_formula_units_Z 64
_cell_length_a 32.309682
_cell_length_b 10.883689
_cell_length_c 9.422713
_cell_angle_alpha 90.000000
_cell_angle_beta 90.000000
_cell_angle_gamma 90.000000
_cell_volume 3313.483180
_symmetry_space_group_name_H-M "P B A M"
_symmetry_group_IT_number 55
_symmetry_cell_setting 'orthorhombic'
loop_
_space_group_symop_operation_xyz
x,y,z
-x,-y,z
1/2+x,1/2-y,-z
1/2-x,1/2+y,-z
-x,-y,-z
x,y,-z
1/2-x,1/2+y,z
1/2+x,1/2-y,z
loop_
_atom_site_type_symbol
_atom_site_label
_atom_site_fract_x
_atom_site_fract_y
_atom_site_fract_z
Si Si1 0.195185 0.728981 0.666249
Si Si2 0.478888 0.633878 0.832610
Si Si3 0.668580 0.542522 0.838545
Si Si4 0.836564 0.669824 0.662782
Si Si5 0.896252 0.906600 0.662398
Si Si6 0.228147 0.193133 0.161142
Si Si7 0.886388 0.431461 0.332600
Si Si8 0.029086 0.617025 0.169887
O O1 0.204576 0.738954 0.500000
O O2 0.231790 0.659237 0.747289
O O3 0.150627 0.665822 0.682253
O O4 0.191907 0.858744 0.743784
O O5 0.500000 0.500000 0.814804
O O6 0.438661 0.634517 0.734336
O O7 0.507589 0.751566 0.797599
O O8 0.467645 0.645376 0.000000
O O9 0.625940 0.507732 0.760256
O O10 0.696975 0.421512 0.844141
O O11 0.661454 0.584888 0.000000
O O12 0.823633 0.641584 0.500000
O O13 0.865016 0.791139 0.659209
O O14 0.797227 0.699129 0.759842
O O15 0.865591 0.559627 0.714592
O O16 0.902034 0.948903 0.500000
O O17 0.239384 0.227254 0.000000
O O18 0.896617 0.442740 0.500000
O O19 0.927170 0.397063 0.247284
O O20 0.000000 0.500000 0.208148
O O21 0.035126 0.612665 0.000000
#
# Coordination Sequence:
#
# PCOD9427294 Si02
#       8
#     8   8   8   8   8   8   8   8
#     4  11  24  39  58  86 121 157 196 245 297 352
#     4  10  22  38  57  84 118 156 196 243 300 359
#     4  10  22  40  61  85 118 156 197 244 294 353
#     4   9  19  38  61  87 118 154 194 239 293 353
#     4  10  20  36  61  89 116 151 196 242 293 351
#     4  10  22  39  60  88 116 152 201 247 293 348
#     4  10  23  40  60  89 121 155 196 242 299 355
#     4  10  22  40  62  89 120 157 201 247 301 363
#
# _framework density 19.315021999999999
#
# number of rings (size 3 to 8) (size 9 to 14) (size 15 to 20)
#    0.000    2.000    0.000    2.250    3.500    4.500 
#    0.000    0.000    0.000    0.000    0.000    0.000 
#    0.000    0.000    0.000    0.000    0.000    0.000 
#
# Total GULP energy -357343.557061 kJ/mol
# GULP energy per Si atom -5583.493079 kJ/mol
# Density = 1.927106 g / cm^3
# Si number density = 19.315022 Si / 1000 Ang^3
#
#
#
# Elastic Constant Matrix: (Units=GPa)
#
#
# Indices 1 2 3 4 5 6 
#
# 1 90.4385 9.7899 68.3233 0.0000 0.0000 0.0000
# 2 9.7899 49.6058 27.3467 0.0000 0.0000 0.0000
# 3 68.3233 27.3467 119.6838 0.0000 0.0000 0.0000
# 4 0.0000 0.0000 0.0000 16.1381 0.0000 0.0000
# 5 0.0000 0.0000 0.0000 0.0000 34.9575 0.0000
# 6 0.0000 0.0000 0.0000 0.0000 0.0000 12.7524
#
#
#
# Elastic Compliance Matrix: (Units=1/GPa)
#
#
# Indices 1 2 3 4 5 6 
#
# 1 0.019742 0.002651 -0.011876 0.000000 0.000000 0.000000
# 2 0.002651 0.023420 -0.006864 0.000000 0.000000 0.000000
# 3 -0.011876 -0.006864 0.016703 0.000000 0.000000 0.000000
# 4 0.000000 0.000000 0.000000 0.061965 0.000000 0.000000
# 5 0.000000 0.000000 0.000000 0.000000 0.028606 0.000000
# 6 0.000000 0.000000 0.000000 0.000000 0.000000 0.078417
#
#
# Mechanical properties :
#
#
# Convention : Reuss Voigt Hill
#
# Bulk Modulus (GPa) = 36.11887 52.29421 44.20654
# Shear Modulus (GPa) = 18.50063 23.05413 20.77738
#
# Velocity S-wave (km/s) = 3.09825 3.45858 3.28336
# Velocity P-wave (km/s) = 5.61599 6.56370 6.10825
#
# Compressibility (1/GPa) = 0.02768636
#
# Stress axis : x y z
#
# Youngs Moduli (GPa) = 50.65348 42.69841 59.86870
#
# Poissons Ratio (x) = -0.11318 0.71098
# Poissons Ratio (y) = -0.13427 0.41097
# Poissons Ratio (z) = 0.60154 0.29310
#
# Static dielectric constant tensor:
#      x y z
#    x 1.651890 0.000000 0.000000 
#    y 0.000000 1.702920 0.000000 
#    z 0.000000 0.000000 1.659880 
# 
# From -- ./inp_files/10813.got.cif
#   From: 2010.05.17/outbox.cif.g08.bks.cpg/sg55_6_cif.got.tgz:10813.got - 2010.06.03 13:27:54.
