data_PCOD9427468
_publ_section_title
;
Structure prediction by ZEFSAII (Michael W. Deem and Ramdas Pophale) SiO2 
 PCOD9427468
Probable space group: P B A M
;
_chemical_formula_sum "Si O2"
_cell_formula_units_Z 52
_cell_length_a 12.085140
_cell_length_b 8.756357
_cell_length_c 25.110560
_cell_angle_alpha 90.000000
_cell_angle_beta 90.000000
_cell_angle_gamma 90.000000
_cell_volume 2657.244664
_symmetry_space_group_name_H-M "P B A M"
_symmetry_group_IT_number 55
_symmetry_cell_setting 'orthorhombic'
loop_
_space_group_symop_operation_xyz
x,y,z
-x,-y,z
1/2+x,1/2-y,-z
1/2-x,1/2+y,-z
-x,-y,-z
x,y,-z
1/2-x,1/2+y,z
1/2+x,1/2-y,z
loop_
_atom_site_type_symbol
_atom_site_label
_atom_site_fract_x
_atom_site_fract_y
_atom_site_fract_z
Si Si1 0.795573 0.313594 0.625768
Si Si2 0.210610 0.786211 0.124868
Si Si3 0.693980 0.476125 0.798111
Si Si4 0.630837 0.986715 0.938632
Si Si5 0.160254 0.290893 0.272277
Si Si6 0.868790 0.019787 0.561714
Si Si7 0.500000 0.000000 0.666646
O O1 0.749853 0.250636 0.682062
O O2 0.837965 0.178445 0.588910
O O3 0.694022 0.393351 0.596028
O O4 0.896365 0.431388 0.634614
O O5 0.139135 0.904123 0.160774
O O6 0.250900 0.654730 0.165283
O O7 0.157438 0.686672 0.078482
O O8 0.306504 0.890923 0.098890
O O9 0.630565 0.368724 0.756574
O O10 0.782740 0.580870 0.765878
O O11 0.500000 0.000000 0.932950
O O12 0.662767 0.013433 0.000000
O O13 0.052519 0.366415 0.297749
O O14 0.833581 0.013882 0.500000
O O15 0.000000 0.000000 0.563918
#
# Coordination Sequence:
#
# PCOD9427468 Si02
#       7
#     8   8   8   8   8   8   4
#     4  12  23  44  66  95 127 162 213 258 308 379
#     4   9  19  38  59  86 126 160 200 255 310 358
#     4   9  19  38  59  85 128 158 202 253 297 370
#     4  10  20  37  62  89 118 161 209 255 310 368
#     4  11  20  40  62  91 124 163 206 252 303 369
#     4  11  25  44  67  95 127 164 205 260 318 372
#     4  12  24  38  69  92 124 168 207 256 312 362
#
# _framework density 19.569143
#
# number of rings (size 3 to 8) (size 9 to 14) (size 15 to 20)
#    0.000    1.538    3.077    1.846    0.000    0.000 
#   12.462    5.385    0.000    8.308    0.000    0.000 
#    0.000    0.000    0.000    0.000    0.000    0.000 
#
# Total GULP energy -289989.701532 kJ/mol
# GULP energy per Si atom -5576.725029 kJ/mol
# Density = 1.952460 g / cm^3
# Si number density = 19.569143 Si / 1000 Ang^3
#
#
#
# Elastic Constant Matrix: (Units=GPa)
#
#
# Indices 1 2 3 4 5 6 
#
# 1 48.5176 28.1567 34.8731 0.0000 0.0000 0.0000
# 2 28.1567 132.6443 57.5477 0.0000 0.0000 0.0000
# 3 34.8731 57.5477 104.3999 0.0000 0.0000 0.0000
# 4 0.0000 0.0000 0.0000 32.2386 0.0000 0.0000
# 5 0.0000 0.0000 0.0000 0.0000 -233.5561 0.0000
# 6 0.0000 0.0000 0.0000 0.0000 0.0000 373.1934
#
#
#
# Elastic Compliance Matrix: (Units=1/GPa)
#
#
# Indices 1 2 3 4 5 6 
#
# 1 0.027718 -0.002454 -0.007906 0.000000 0.000000 0.000000
# 2 -0.002454 0.010126 -0.004762 0.000000 0.000000 0.000000
# 3 -0.007906 -0.004762 0.014844 0.000000 0.000000 0.000000
# 4 0.000000 0.000000 0.000000 0.031019 0.000000 0.000000
# 5 0.000000 0.000000 0.000000 0.000000 -0.004282 0.000000
# 6 0.000000 0.000000 0.000000 0.000000 0.000000 0.002680
#
#
# Mechanical properties :
#
#
# Convention : Reuss Voigt Hill
#
# Bulk Modulus (GPa) = 44.55458 58.52409 51.53934
# Shear Modulus (GPa) = 41.72591 45.37412 43.55002
#
# Velocity S-wave (km/s) = 4.62262 4.82047 4.72258
# Velocity P-wave (km/s) = 7.16301 7.80729 7.49208
#
# Compressibility (1/GPa) = 0.02244438
#
# Stress axis : x y z
#
# Youngs Moduli (GPa) = 36.07795 98.75786 67.36544
#
# Poissons Ratio (x) = 0.24231 0.53260
# Poissons Ratio (y) = 0.08852 0.32079
# Poissons Ratio (z) = 0.28524 0.47028
#
# Static dielectric constant tensor:
#      x y z
#    x 1.669490 0.000000 0.000000 
#    y 0.000000 1.688490 0.000000 
#    z 0.000000 0.000000 1.729330 
# 
# From -- ./inp_files/23936.got.cif
#   From: 2010.05.17/outbox.cif.g08.bks.cpg/sg55_12_cif.got.tgz:23936.got - 2010.06.03 13:27:54.
