data_PCOD9427655
_publ_section_title
;
Structure prediction by ZEFSAII (Michael W. Deem and Ramdas Pophale) SiO2 
 PCOD9427655
Probable space group: P B A M
;
_chemical_formula_sum "Si O2"
_cell_formula_units_Z 64
_cell_length_a 23.624768
_cell_length_b 14.777439
_cell_length_c 7.635716
_cell_angle_alpha 90.000000
_cell_angle_beta 90.000000
_cell_angle_gamma 90.000000
_cell_volume 2665.732057
_symmetry_space_group_name_H-M "P B A M"
_symmetry_group_IT_number 55
_symmetry_cell_setting 'orthorhombic'
loop_
_space_group_symop_operation_xyz
x,y,z
-x,-y,z
1/2+x,1/2-y,-z
1/2-x,1/2+y,-z
-x,-y,-z
x,y,-z
1/2-x,1/2+y,z
1/2+x,1/2-y,z
loop_
_atom_site_type_symbol
_atom_site_label
_atom_site_fract_x
_atom_site_fract_y
_atom_site_fract_z
Si Si1 0.896971 0.435790 0.702471
Si Si2 0.912448 0.965999 0.713676
Si Si3 0.504474 0.163175 0.202725
Si Si4 0.973306 0.140099 0.711597
Si Si5 0.873228 0.635917 0.198388
Si Si6 0.806986 0.290218 0.287946
Si Si7 0.291679 0.583007 0.296764
Si Si8 0.749519 0.113022 0.206593
O O1 0.881488 0.452178 0.500000
O O2 0.962500 0.408965 0.713091
O O3 0.881904 0.527317 0.801532
O O4 0.860654 0.349912 0.767637
O O5 0.909931 0.968191 0.500000
O O6 0.854123 0.925415 0.781675
O O7 0.966888 0.906432 0.758703
O O8 0.925494 0.068990 0.769105
O O9 0.474281 0.259873 0.215832
O O10 0.567949 0.170858 0.280464
O O11 0.510964 0.136989 0.000000
O O12 0.970175 0.147111 0.500000
O O13 0.810918 0.650359 0.277418
O O14 0.871110 0.672409 0.000000
O O15 0.808342 0.289548 0.500000
O O16 0.752344 0.345811 0.221070
O O17 0.798058 0.187341 0.232750
O O18 0.298507 0.608591 0.500000
O O19 0.264939 0.482885 0.289060
O O20 0.741910 0.096878 0.000000
#
# Coordination Sequence:
#
# PCOD9427655 Si02
#       8
#     8   8   8   8   8   8   8   8
#     4  11  23  41  63  88 114 148 197 249 293 343
#     4   8  17  34  59  84 115 150 187 235 291 341
#     4  11  24  39  58  85 118 154 191 237 296 352
#     4   9  18  36  58  86 115 149 193 238 283 339
#     4  10  23  43  61  82 118 157 191 237 296 351
#     4  10  23  40  61  89 121 156 197 245 298 350
#     4  10  20  39  63  89 119 157 198 246 300 350
#     4  11  24  40  61  89 121 160 201 242 293 356
#
# _framework density 24.008414999999999
#
# number of rings (size 3 to 8) (size 9 to 14) (size 15 to 20)
#    0.000    2.000    1.250    2.250    3.500    4.500 
#    0.000    1.875    0.000    0.000    0.000    0.000 
#    0.000    0.000    0.000    0.000    0.000    0.000 
#
# Total GULP energy -357797.847616 kJ/mol
# GULP energy per Si atom -5590.591369 kJ/mol
# Density = 2.395377 g / cm^3
# Si number density = 24.008415 Si / 1000 Ang^3
#
#
#
# Elastic Constant Matrix: (Units=GPa)
#
#
# Indices 1 2 3 4 5 6 
#
# 1 77.3952 1.7561 2.8542 0.0000 0.0000 0.0000
# 2 1.7561 76.5472 -11.3712 0.0000 0.0000 0.0000
# 3 2.8542 -11.3712 55.4880 0.0000 0.0000 0.0000
# 4 0.0000 0.0000 0.0000 24.7277 0.0000 0.0000
# 5 0.0000 0.0000 0.0000 0.0000 10.2365 0.0000
# 6 0.0000 0.0000 0.0000 0.0000 0.0000 62.7728
#
#
#
# Elastic Compliance Matrix: (Units=1/GPa)
#
#
# Indices 1 2 3 4 5 6 
#
# 1 0.012958 -0.000409 -0.000750 0.000000 0.000000 0.000000
# 2 -0.000409 0.013487 0.002785 0.000000 0.000000 0.000000
# 3 -0.000750 0.002785 0.018631 0.000000 0.000000 0.000000
# 4 0.000000 0.000000 0.000000 0.040441 0.000000 0.000000
# 5 0.000000 0.000000 0.000000 0.000000 0.097689 0.000000
# 6 0.000000 0.000000 0.000000 0.000000 0.000000 0.015930
#
#
# Mechanical properties :
#
#
# Convention : Reuss Voigt Hill
#
# Bulk Modulus (GPa) = 20.69212 21.76763 21.22988
# Shear Modulus (GPa) = 23.58561 33.96016 28.77289
#
# Velocity S-wave (km/s) = 3.13771 3.76508 3.46562
# Velocity P-wave (km/s) = 4.66523 5.29032 4.98757
#
# Compressibility (1/GPa) = 0.04832757
#
# Stress axis : x y z
#
# Youngs Moduli (GPa) = 77.17459 74.14599 53.67338
#
# Poissons Ratio (x) = 0.03030 0.04027
# Poissons Ratio (y) = 0.03154 -0.14948
# Poissons Ratio (z) = 0.05790 -0.20649
#
# Static dielectric constant tensor:
#      x y z
#    x 1.958830 0.000000 0.000000 
#    y 0.000000 1.864240 0.000000 
#    z 0.000000 0.000000 2.026990 
# 
# From -- ./inp_files/9642.got.cif
#   From: 2010.05.17/outbox.cif.g08.bks.cpg/sg55_5_cif.got.tgz:9642.got - 2010.06.03 13:27:54.
