data_PCOD9427281
_publ_section_title
;
Structure prediction by ZEFSAII (Michael W. Deem and Ramdas Pophale) SiO2 
 PCOD9427281
Probable space group: P B A M
;
_chemical_formula_sum "Si O2"
_cell_formula_units_Z 64
_cell_length_a 14.863317
_cell_length_b 25.517963
_cell_length_c 8.418982
_cell_angle_alpha 90.000000
_cell_angle_beta 90.000000
_cell_angle_gamma 90.000000
_cell_volume 3193.164738
_symmetry_space_group_name_H-M "P B A M"
_symmetry_group_IT_number 55
_symmetry_cell_setting 'orthorhombic'
loop_
_space_group_symop_operation_xyz
x,y,z
-x,-y,z
1/2+x,1/2-y,-z
1/2-x,1/2+y,-z
-x,-y,-z
x,y,-z
1/2-x,1/2+y,z
1/2+x,1/2-y,z
loop_
_atom_site_type_symbol
_atom_site_label
_atom_site_fract_x
_atom_site_fract_y
_atom_site_fract_z
Si Si1 0.049180 0.244322 0.808686
Si Si2 0.902183 0.481124 0.189352
Si Si3 0.801165 0.381192 0.310280
Si Si4 0.846422 0.265075 0.192035
Si Si5 0.602408 0.367767 0.691236
Si Si6 0.799942 0.677494 0.808221
Si Si7 0.549367 0.553614 0.306251
Si Si8 0.245130 0.437097 0.310948
O O1 0.095175 0.192332 0.742080
O O2 0.105575 0.295716 0.764508
O O3 0.946271 0.248534 0.756945
O O4 0.051603 0.240562 0.000000
O O5 0.870515 0.423966 0.246134
O O6 0.825210 0.522124 0.238860
O O7 0.000000 0.500000 0.251034
O O8 0.907567 0.479714 0.000000
O O9 0.802041 0.384460 0.500000
O O10 0.823684 0.322108 0.258988
O O11 0.697984 0.391608 0.255067
O O12 0.775835 0.220078 0.237797
O O13 0.844440 0.268781 0.000000
O O14 0.601981 0.370371 0.500000
O O15 0.514806 0.399157 0.749267
O O16 0.784010 0.621873 0.729363
O O17 0.796716 0.671135 0.000000
O O18 0.500000 0.500000 0.261736
O O19 0.551930 0.555588 0.500000
O O20 0.652255 0.555748 0.251348
O O21 0.245542 0.445217 0.500000
#
# Coordination Sequence:
#
# PCOD9427281 Si02
#       8
#     8   8   8   8   8   8   8   8
#     4  10  21  36  57  83 114 157 202 243 293 354
#     4  11  26  46  66  86 116 162 208 250 303 365
#     4  11  23  39  63  93 122 154 200 256 307 358
#     4  10  21  38  60  87 121 163 206 249 299 357
#     4  10  20  36  60  90 123 157 194 243 300 360
#     4  10  21  38  58  84 123 163 199 241 294 358
#     4   9  18  35  59  86 119 156 189 230 297 364
#     4  11  23  39  63  92 122 155 199 255 304 354
#
# _framework density 20.042812999999999
#
# number of rings (size 3 to 8) (size 9 to 14) (size 15 to 20)
#    0.000    1.750    1.250    2.625    1.750    5.000 
#    0.000    0.625    0.000    2.625    0.000    0.000 
#    0.000    0.000    0.000    0.000    0.000    0.000 
#
# Total GULP energy -357620.742184 kJ/mol
# GULP energy per Si atom -5587.824097 kJ/mol
# Density = 1.999719 g / cm^3
# Si number density = 20.042813 Si / 1000 Ang^3
#
#
#
# Elastic Constant Matrix: (Units=GPa)
#
#
# Indices 1 2 3 4 5 6 
#
# 1 52.0163 -14.4342 7.1307 0.0000 0.0000 0.0000
# 2 -14.4342 64.5418 1.5384 0.0000 0.0000 0.0000
# 3 7.1307 1.5384 11.5611 0.0000 0.0000 0.0000
# 4 0.0000 0.0000 0.0000 24.6327 0.0000 0.0000
# 5 0.0000 0.0000 0.0000 0.0000 9.9779 0.0000
# 6 0.0000 0.0000 0.0000 0.0000 0.0000 38.0575
#
#
#
# Elastic Compliance Matrix: (Units=1/GPa)
#
#
# Indices 1 2 3 4 5 6 
#
# 1 0.022758 0.005442 -0.014761 0.000000 0.000000 0.000000
# 2 0.005442 0.016844 -0.005598 0.000000 0.000000 0.000000
# 3 -0.014761 -0.005598 0.096346 0.000000 0.000000 0.000000
# 4 0.000000 0.000000 0.000000 0.040597 0.000000 0.000000
# 5 0.000000 0.000000 0.000000 0.000000 0.100222 0.000000
# 6 0.000000 0.000000 0.000000 0.000000 0.000000 0.026276
#
#
# Mechanical properties :
#
#
# Convention : Reuss Voigt Hill
#
# Bulk Modulus (GPa) = 9.42380 12.95433 11.18906
# Shear Modulus (GPa) = 13.57781 23.45924 18.51852
#
# Velocity S-wave (km/s) = 2.60559 3.42491 3.04295
# Velocity P-wave (km/s) = 3.71001 4.70291 4.23565
#
# Compressibility (1/GPa) = 0.10611430
#
# Stress axis : x y z
#
# Youngs Moduli (GPa) = 43.94010 59.36761 10.37926
#
# Poissons Ratio (x) = -0.32305 0.15321
# Poissons Ratio (y) = -0.23910 0.05810
# Poissons Ratio (z) = 0.64860 0.33232
#
# Static dielectric constant tensor:
#      x y z
#    x 1.725600 0.000000 0.000000 
#    y 0.000000 1.665570 0.000000 
#    z 0.000000 0.000000 1.689760 
# 
# From -- ./inp_files/6591.got.cif
#   From: 2010.05.17/outbox.cif.g08.bks.cpg/sg55_4_cif.got.tgz:6591.got - 2010.06.03 13:27:54.
