data_PCOD9427274
_publ_section_title
;
Structure prediction by ZEFSAII (Michael W. Deem and Ramdas Pophale) SiO2 
 PCOD9427274
Probable space group: P B A M
;
_chemical_formula_sum "Si O2"
_cell_formula_units_Z 64
_cell_length_a 24.295805
_cell_length_b 15.814517
_cell_length_c 8.720244
_cell_angle_alpha 90.000000
_cell_angle_beta 90.000000
_cell_angle_gamma 90.000000
_cell_volume 3350.548144
_symmetry_space_group_name_H-M "P B A M"
_symmetry_group_IT_number 55
_symmetry_cell_setting 'orthorhombic'
loop_
_space_group_symop_operation_xyz
x,y,z
-x,-y,z
1/2+x,1/2-y,-z
1/2-x,1/2+y,-z
-x,-y,-z
x,y,-z
1/2-x,1/2+y,z
1/2+x,1/2-y,z
loop_
_atom_site_type_symbol
_atom_site_label
_atom_site_fract_x
_atom_site_fract_y
_atom_site_fract_z
Si Si1 0.250884 0.851154 0.183929
Si Si2 0.628813 0.588738 0.814793
Si Si3 0.863113 0.584846 0.684629
Si Si4 0.126795 0.603979 0.683887
Si Si5 0.857092 0.911053 0.316563
Si Si6 0.069180 0.250700 0.685337
Si Si7 0.553004 0.746733 0.183832
Si Si8 0.754869 0.346795 0.183632
O O1 0.190716 0.883728 0.230796
O O2 0.301194 0.901304 0.257029
O O3 0.255460 0.751808 0.222914
O O4 0.254458 0.858717 0.000000
O O5 0.616959 0.498395 0.740922
O O6 0.586951 0.662837 0.769289
O O7 0.627668 0.581561 0.000000
O O8 0.861930 0.586920 0.500000
O O9 0.885002 0.492842 0.731198
O O10 0.900205 0.663566 0.737160
O O11 0.124225 0.609467 0.500000
O O12 0.085393 0.671688 0.754729
O O13 0.188369 0.625179 0.739631
O O14 0.851530 0.911480 0.500000
O O15 0.894087 0.830442 0.271702
O O16 0.797080 0.899792 0.241658
O O17 0.065636 0.252589 0.500000
O O18 0.008551 0.244691 0.753241
O O19 0.552706 0.749283 0.000000
O O20 0.760024 0.353864 0.000000
#
# Coordination Sequence:
#
# PCOD9427274 Si02
#       8
#     8   8   8   8   8   8   8   8
#     4  10  20  36  60  88 120 158 196 239 297 355
#     4  10  22  41  61  87 122 158 196 244 302 360
#     4  10  22  40  61  88 122 157 197 244 296 356
#     4  11  23  39  63  92 121 159 201 246 302 357
#     4  11  23  39  62  92 122 158 202 247 299 357
#     4  10  23  43  62  84 119 158 201 251 300 355
#     4  11  24  43  64  87 118 157 204 252 302 359
#     4  11  21  37  61  90 126 161 197 245 299 358
#
# _framework density 19.101351999999999
#
# number of rings (size 3 to 8) (size 9 to 14) (size 15 to 20)
#    0.000    1.500    2.500    2.250    0.000    7.500 
#    0.000    5.000    0.000    0.000    0.000    0.000 
#    0.000    0.000    0.000    0.000    0.000    0.000 
#
# Total GULP energy -357787.932569 kJ/mol
# GULP energy per Si atom -5590.436446 kJ/mol
# Density = 1.905788 g / cm^3
# Si number density = 19.101352 Si / 1000 Ang^3
#
#
#
# Elastic Constant Matrix: (Units=GPa)
#
#
# Indices 1 2 3 4 5 6 
#
# 1 108.5492 30.0114 14.9857 0.0000 0.0000 0.0000
# 2 30.0114 108.8781 19.5055 0.0000 0.0000 0.0000
# 3 14.9857 19.5055 14.4671 0.0000 0.0000 0.0000
# 4 0.0000 0.0000 0.0000 31.0093 0.0000 0.0000
# 5 0.0000 0.0000 0.0000 0.0000 39.1013 0.0000
# 6 0.0000 0.0000 0.0000 0.0000 0.0000 2.2087
#
#
#
# Elastic Compliance Matrix: (Units=1/GPa)
#
#
# Indices 1 2 3 4 5 6 
#
# 1 0.010886 -0.001293 -0.009533 0.000000 0.000000 0.000000
# 2 -0.001293 0.012263 -0.015195 0.000000 0.000000 0.000000
# 3 -0.009533 -0.015195 0.099484 0.000000 0.000000 0.000000
# 4 0.000000 0.000000 0.000000 0.032248 0.000000 0.000000
# 5 0.000000 0.000000 0.000000 0.000000 0.025575 0.000000
# 6 0.000000 0.000000 0.000000 0.000000 0.000000 0.452751
#
#
# Mechanical properties :
#
#
# Convention : Reuss Voigt Hill
#
# Bulk Modulus (GPa) = 14.16602 40.09997 27.13300
# Shear Modulus (GPa) = 7.05439 25.62331 16.33885
#
# Velocity S-wave (km/s) = 1.92384 3.66654 2.92785
# Velocity P-wave (km/s) = 3.51670 6.24208 5.06610
#
# Compressibility (1/GPa) = 0.07059145
#
# Stress axis : x y z
#
# Youngs Moduli (GPa) = 91.86173 81.54560 10.05187
#
# Poissons Ratio (x) = 0.10542 0.09583
# Poissons Ratio (y) = 0.11875 0.15274
# Poissons Ratio (z) = 0.87573 1.23907
#
# Static dielectric constant tensor:
#      x y z
#    x 1.617930 0.000000 0.000000 
#    y 0.000000 1.676670 0.000000 
#    z 0.000000 0.000000 1.643690 
# 
# From -- ./inp_files/9768.got.cif
#   From: 2010.05.17/outbox.cif.g08.bks.cpg/sg55_5_cif.got.tgz:9768.got - 2010.06.03 13:27:54.
