data_PCOD9427157
_publ_section_title
;
Structure prediction by ZEFSAII (Michael W. Deem and Ramdas Pophale) SiO2 
 PCOD9427157
Probable space group: P B A M
;
_chemical_formula_sum "Si O2"
_cell_formula_units_Z 58
_cell_length_a 14.564513
_cell_length_b 26.949350
_cell_length_c 7.581006
_cell_angle_alpha 90.000000
_cell_angle_beta 90.000000
_cell_angle_gamma 90.000000
_cell_volume 2975.576380
_symmetry_space_group_name_H-M "P B A M"
_symmetry_group_IT_number 55
_symmetry_cell_setting 'orthorhombic'
loop_
_space_group_symop_operation_xyz
x,y,z
-x,-y,z
1/2+x,1/2-y,-z
1/2-x,1/2+y,-z
-x,-y,-z
x,y,-z
1/2-x,1/2+y,z
1/2+x,1/2-y,z
loop_
_atom_site_type_symbol
_atom_site_label
_atom_site_fract_x
_atom_site_fract_y
_atom_site_fract_z
Si Si1 0.825070 0.699888 0.786392
Si Si2 0.336066 0.496129 0.785382
Si Si3 0.018841 0.738762 0.707269
Si Si4 0.193942 0.887341 0.210857
Si Si5 0.490841 0.649388 0.293219
Si Si6 0.500000 0.500000 0.500000
Si Si7 0.781390 0.296388 0.206112
Si Si8 0.699883 0.396186 0.202354
O O1 0.930860 0.704351 0.735177
O O2 0.767701 0.652474 0.722502
O O3 0.774783 0.749778 0.719215
O O4 0.821317 0.699530 0.000000
O O5 0.282844 0.444590 0.755331
O O6 0.422589 0.492796 0.656746
O O7 0.288693 0.547981 0.731483
O O8 0.356872 0.498544 0.000000
O O9 0.035845 0.745225 0.500000
O O10 0.996673 0.794232 0.777945
O O11 0.111639 0.716221 0.783700
O O12 0.091283 0.874498 0.275682
O O13 0.188741 0.881237 0.000000
O O14 0.467406 0.651017 0.500000
O O15 0.408562 0.617895 0.209404
O O16 0.752305 0.349263 0.285302
O O17 0.754765 0.298406 0.000000
O O18 0.730235 0.398690 0.000000
#
# Coordination Sequence:
#
# PCOD9427157 Si02
#       8
#     8   8   8   8   8   2   8   8
#     4  10  20  36  58  80 104 143 191 230 273 333
#     4  10  23  39  53  81 120 150 193 239 276 341
#     4  11  23  36  51  82 118 147 176 228 289 332
#     4  10  21  37  56  77 108 149 186 233 279 319
#     4  11  22  31  49  79 116 149 180 220 273 339
#     4  12  22  36  60  86 112 162 198 220 296 332
#     4  10  20  36  58  80 104 143 191 230 273 333
#     4  10  21  37  56  77 108 149 186 233 279 319
#
# _framework density 19.492021999999999
#
# number of rings (size 3 to 8) (size 9 to 14) (size 15 to 20)
#    0.000    1.655    2.759    1.862    3.862    4.966 
#    0.000    0.000    0.000    0.828    0.000    5.793 
#    0.000    0.000    0.000    0.000    0.000    0.000 
#
# Total GULP energy -323121.624738 kJ/mol
# GULP energy per Si atom -5571.062495 kJ/mol
# Density = 1.944766 g / cm^3
# Si number density = 19.492022 Si / 1000 Ang^3
#
#
#
# Elastic Constant Matrix: (Units=GPa)
#
#
# Indices 1 2 3 4 5 6 
#
# 1 69.2442 34.2664 -11.4465 0.0000 0.0000 0.0000
# 2 34.2664 150.1431 14.0428 0.0000 0.0000 0.0000
# 3 -11.4465 14.0428 57.6655 0.0000 0.0000 0.0000
# 4 0.0000 0.0000 0.0000 4.4919 0.0000 0.0000
# 5 0.0000 0.0000 0.0000 0.0000 28.6404 0.0000
# 6 0.0000 0.0000 0.0000 0.0000 0.0000 -110.9164
#
#
#
# Elastic Compliance Matrix: (Units=1/GPa)
#
#
# Indices 1 2 3 4 5 6 
#
# 1 0.017357 -0.004383 0.004513 0.000000 0.000000 0.000000
# 2 -0.004383 0.007923 -0.002799 0.000000 0.000000 0.000000
# 3 0.004513 -0.002799 0.018919 0.000000 0.000000 0.000000
# 4 0.000000 0.000000 0.000000 0.222624 0.000000 0.000000
# 5 0.000000 0.000000 0.000000 0.000000 0.034916 0.000000
# 6 0.000000 0.000000 0.000000 0.000000 0.000000 -0.009016
#
#
# Mechanical properties :
#
#
# Convention : Reuss Voigt Hill
#
# Bulk Modulus (GPa) = 25.73462 38.97536 32.35499
# Shear Modulus (GPa) = 16.07638 0.45584 8.26611
#
# Velocity S-wave (km/s) = 2.87499 0.48411 2.06155
# Velocity P-wave (km/s) = 4.92464 4.51126 4.72247
#
# Compressibility (1/GPa) = 0.03885816
#
# Stress axis : x y z
#
# Youngs Moduli (GPa) = 57.61443 126.22249 52.85732
#
# Poissons Ratio (x) = 0.55327 -0.23853
# Poissons Ratio (y) = 0.25254 0.14797
# Poissons Ratio (z) = -0.26000 0.35334
#
# Static dielectric constant tensor:
#      x y z
#    x 1.629210 0.000000 0.000000 
#    y 0.000000 1.754220 0.000000 
#    z 0.000000 0.000000 1.732530 
# 
# From -- ./inp_files/6807.got.cif
#   From: 2010.05.17/outbox.cif.g08.bks.cpg/sg55_4_cif.got.tgz:6807.got - 2010.06.03 13:27:54.
