data_PCOD9427341
_publ_section_title
;
Structure prediction by ZEFSAII (Michael W. Deem and Ramdas Pophale) SiO2 
 PCOD9427341
Probable space group: P B A M
;
_chemical_formula_sum "Si O2"
_cell_formula_units_Z 58
_cell_length_a 27.206005
_cell_length_b 5.544053
_cell_length_c 14.451915
_cell_angle_alpha 90.000000
_cell_angle_beta 90.000000
_cell_angle_gamma 90.000000
_cell_volume 2179.804503
_symmetry_space_group_name_H-M "P B A M"
_symmetry_group_IT_number 55
_symmetry_cell_setting 'orthorhombic'
loop_
_space_group_symop_operation_xyz
x,y,z
-x,-y,z
1/2+x,1/2-y,-z
1/2-x,1/2+y,-z
-x,-y,-z
x,y,-z
1/2-x,1/2+y,z
1/2+x,1/2-y,z
loop_
_atom_site_type_symbol
_atom_site_label
_atom_site_fract_x
_atom_site_fract_y
_atom_site_fract_z
Si Si1 0.442725 0.662801 0.151926
Si Si2 0.721535 0.758697 0.612337
Si Si3 0.057287 0.206936 0.634699
Si Si4 0.107612 0.704805 0.655598
Si Si5 0.423593 0.165339 0.130355
Si Si6 0.671942 0.341706 0.886178
Si Si7 0.500000 0.000000 0.500000
Si Si8 0.308661 0.159361 0.102451
O O1 0.458099 0.688819 0.257999
O O2 0.453623 0.404689 0.108392
O O3 0.382452 0.653424 0.154733
O O4 0.449585 0.918458 0.105118
O O5 0.715977 0.759496 0.500000
O O6 0.748151 0.503771 0.636131
O O7 0.666475 0.773902 0.653632
O O8 0.091656 0.444706 0.613287
O O9 0.009914 0.290699 0.578992
O O10 0.085657 0.955851 0.614728
O O11 0.086263 0.680873 0.759401
O O12 0.368421 0.166614 0.091496
O O13 0.700138 0.580123 0.856460
O O14 0.697579 0.099161 0.853283
O O15 0.668358 0.338566 0.000000
O O16 0.285580 0.154033 0.000000
#
# Coordination Sequence:
#
# PCOD9427341 Si02
#       8
#     8   8   8   8   8   8   2   8
#     4   8  14  27  40  60  88 120 156 196 247 284
#     4  10  21  35  54  80 106 128 160 203 249 309
#     4  10  23  36  54  74 101 136 173 218 252 300
#     4  10  20  37  57  76 102 138 166 203 262 302
#     4   8  14  24  41  63  88 121 161 191 231 297
#     4   8  12  18  33  55  81 112 147 187 234 288
#     4  12  28  42  56  82 102 130 184 222 252 294
#     4   8  12  18  30  53  86 117 146 190 234 267
#
# _framework density 26.607890000000001
#
# number of rings (size 3 to 8) (size 9 to 14) (size 15 to 20)
#    0.000    3.034    0.000    0.828    1.931    1.103 
#    0.000    0.000    0.000    0.000    0.000    0.483 
#    0.000    1.103    0.000   46.069    0.000   11.034 
#
# Total GULP energy -323615.440210 kJ/mol
# GULP energy per Si atom -5579.576555 kJ/mol
# Density = 2.654733 g / cm^3
# Si number density = 26.607890 Si / 1000 Ang^3
#
#
#
# Elastic Constant Matrix: (Units=GPa)
#
#
# Indices 1 2 3 4 5 6 
#
# 1 121.5403 65.4710 1.0778 0.0000 0.0000 0.0000
# 2 65.4710 335.5953 23.5106 0.0000 0.0000 0.0000
# 3 1.0778 23.5106 112.1954 0.0000 0.0000 0.0000
# 4 0.0000 0.0000 0.0000 9.7356 0.0000 0.0000
# 5 0.0000 0.0000 0.0000 0.0000 -14.4073 0.0000
# 6 0.0000 0.0000 0.0000 0.0000 0.0000 1441.7479
#
#
#
# Elastic Compliance Matrix: (Units=1/GPa)
#
#
# Indices 1 2 3 4 5 6 
#
# 1 0.009203 -0.001816 0.000292 0.000000 0.000000 0.000000
# 2 -0.001816 0.003382 -0.000691 0.000000 0.000000 0.000000
# 3 0.000292 -0.000691 0.009055 0.000000 0.000000 0.000000
# 4 0.000000 0.000000 0.000000 0.102716 0.000000 0.000000
# 5 0.000000 0.000000 0.000000 0.000000 -0.069409 0.000000
# 6 0.000000 0.000000 0.000000 0.000000 0.000000 0.000694
#
#
# Mechanical properties :
#
#
# Convention : Reuss Voigt Hill
#
# Bulk Modulus (GPa) = 58.10388 83.27220 70.68804
# Shear Modulus (GPa) = 75.97790 319.36667 197.67229
#
# Velocity S-wave (km/s) = 5.34945 10.96757 8.62856
# Velocity P-wave (km/s) = 7.74855 13.84729 11.22024
#
# Compressibility (1/GPa) = 0.01721055
#
# Stress axis : x y z
#
# Youngs Moduli (GPa) = 108.65630 295.64083 110.43515
#
# Poissons Ratio (x) = 0.53686 -0.03226
# Poissons Ratio (y) = 0.19731 0.07635
# Poissons Ratio (z) = -0.03174 0.20439
#
# Static dielectric constant tensor:
#      x y z
#    x 2.113490 0.000000 0.000000 
#    y 0.000000 2.178500 0.000000 
#    z 0.000000 0.000000 2.012770 
# 
# From -- ./inp_files/22143.got.cif
#   From: 2010.05.17/outbox.cif.g08.bks.cpg/sg55_12_cif.got.tgz:22143.got - 2010.06.03 13:27:54.
