data_PCOD9427287
_publ_section_title
;
Structure prediction by ZEFSAII (Michael W. Deem and Ramdas Pophale) SiO2 
 PCOD9427287
Probable space group: P B A M
;
_chemical_formula_sum "Si O2"
_cell_formula_units_Z 64
_cell_length_a 11.035812
_cell_length_b 16.593531
_cell_length_c 16.604985
_cell_angle_alpha 90.000000
_cell_angle_beta 90.000000
_cell_angle_gamma 90.000000
_cell_volume 3040.756138
_symmetry_space_group_name_H-M "P B A M"
_symmetry_group_IT_number 55
_symmetry_cell_setting 'orthorhombic'
loop_
_space_group_symop_operation_xyz
x,y,z
-x,-y,z
1/2+x,1/2-y,-z
1/2-x,1/2+y,-z
-x,-y,-z
x,y,-z
1/2-x,1/2+y,z
1/2+x,1/2-y,z
loop_
_atom_site_type_symbol
_atom_site_label
_atom_site_fract_x
_atom_site_fract_y
_atom_site_fract_z
Si Si1 0.892243 0.065461 0.093769
Si Si2 0.778183 0.914436 0.265179
Si Si3 0.001045 0.822532 0.776251
Si Si4 0.631070 0.856209 0.408852
Si Si5 0.368563 0.983753 0.841810
Si Si6 0.400792 0.443460 0.646998
Si Si7 0.249494 0.810068 0.413392
Si Si8 0.435494 0.843925 0.717673
O O1 0.755292 0.032897 0.109065
O O2 0.920488 0.140914 0.151604
O O3 0.903331 0.086713 0.000000
O O4 0.000000 0.000000 0.111027
O O5 0.862466 0.853229 0.216787
O O6 0.742574 0.884875 0.353898
O O7 0.662723 0.938247 0.212550
O O8 0.846063 0.998686 0.283869
O O9 0.005658 0.727613 0.763191
O O10 0.040596 0.869298 0.695322
O O11 0.630342 0.886924 0.500000
O O12 0.647720 0.759429 0.412607
O O13 0.515548 0.879117 0.355502
O O14 0.387376 0.909829 0.779502
O O15 0.500000 0.000000 0.882133
O O16 0.500000 0.500000 0.605446
O O17 0.303857 0.400078 0.591656
O O18 0.314999 0.799352 0.500000
O O19 0.327589 0.801961 0.332918
#
# Coordination Sequence:
#
# PCOD9427287 Si02
#       8
#     8   8   8   8   8   8   8   8
#     4  11  23  44  75 107 136 172 217 272 336 409
#     4  11  20  38  61  90 127 167 222 279 321 393
#     4  11  20  39  68  93 124 168 225 274 322 403
#     4  11  24  39  56  86 129 179 227 279 341 396
#     4  12  24  42  68 101 138 176 225 270 336 412
#     4  10  20  36  61  87 112 159 225 282 326 384
#     4  11  22  37  54  81 125 168 221 284 344 392
#     4  12  23  38  62  90 126 179 230 272 331 401
#
# _framework density 21.047395999999999
#
# number of rings (size 3 to 8) (size 9 to 14) (size 15 to 20)
#    0.000    0.875    7.500    0.750    0.000    1.000 
#    0.000    3.125    0.000    1.500    0.000    0.000 
#    0.000    0.000    0.000    0.000    0.000    0.000 
#
# Total GULP energy -357043.235578 kJ/mol
# GULP energy per Si atom -5578.800556 kJ/mol
# Density = 2.099949 g / cm^3
# Si number density = 21.047396 Si / 1000 Ang^3
#
#
#
# Elastic Constant Matrix: (Units=GPa)
#
#
# Indices 1 2 3 4 5 6 
#
# 1 91.6941 13.5479 24.5932 0.0000 0.0000 0.0000
# 2 13.5479 61.0084 24.8057 0.0000 0.0000 0.0000
# 3 24.5932 24.8057 87.9791 0.0000 0.0000 0.0000
# 4 0.0000 0.0000 0.0000 15.1645 0.0000 0.0000
# 5 0.0000 0.0000 0.0000 0.0000 25.9808 0.0000
# 6 0.0000 0.0000 0.0000 0.0000 0.0000 31.3877
#
#
#
# Elastic Compliance Matrix: (Units=1/GPa)
#
#
# Indices 1 2 3 4 5 6 
#
# 1 0.011903 -0.001458 -0.002916 0.000000 0.000000 0.000000
# 2 -0.001458 0.018692 -0.004863 0.000000 0.000000 0.000000
# 3 -0.002916 -0.004863 0.013553 0.000000 0.000000 0.000000
# 4 0.000000 0.000000 0.000000 0.065943 0.000000 0.000000
# 5 0.000000 0.000000 0.000000 0.000000 0.038490 0.000000
# 6 0.000000 0.000000 0.000000 0.000000 0.000000 0.031860
#
#
# Mechanical properties :
#
#
# Convention : Reuss Voigt Hill
#
# Bulk Modulus (GPa) = 38.94910 40.73058 39.83984
# Shear Modulus (GPa) = 24.09956 26.35560 25.22758
#
# Velocity S-wave (km/s) = 3.38748 3.54249 3.46585
# Velocity P-wave (km/s) = 5.81770 6.01050 5.91488
#
# Compressibility (1/GPa) = 0.02567454
#
# Stress axis : x y z
#
# Youngs Moduli (GPa) = 84.00962 53.49879 73.78631
#
# Poissons Ratio (x) = 0.07798 0.21520
# Poissons Ratio (y) = 0.12245 0.35881
# Poissons Ratio (z) = 0.24501 0.26015
#
# Static dielectric constant tensor:
#      x y z
#    x 1.911560 0.000000 0.000000 
#    y 0.000000 1.759920 0.000000 
#    z 0.000000 0.000000 1.756110 
# 
# From -- ./inp_files/21370.got.cif
#   From: 2010.05.17/outbox.cif.g08.bks.cpg/sg55_11_cif.got.tgz:21370.got - 2010.06.03 13:27:54.
