data_PCOD9427248
_publ_section_title
;
Structure prediction by ZEFSAII (Michael W. Deem and Ramdas Pophale) SiO2 
 PCOD9427248
Probable space group: P B A M
;
_chemical_formula_sum "Si O2"
_cell_formula_units_Z 56
_cell_length_a 19.383939
_cell_length_b 13.952295
_cell_length_c 8.987792
_cell_angle_alpha 90.000000
_cell_angle_beta 90.000000
_cell_angle_gamma 90.000000
_cell_volume 2430.752258
_symmetry_space_group_name_H-M "P B A M"
_symmetry_group_IT_number 55
_symmetry_cell_setting 'orthorhombic'
loop_
_space_group_symop_operation_xyz
x,y,z
-x,-y,z
1/2+x,1/2-y,-z
1/2-x,1/2+y,-z
-x,-y,-z
x,y,-z
1/2-x,1/2+y,z
1/2+x,1/2-y,z
loop_
_atom_site_type_symbol
_atom_site_label
_atom_site_fract_x
_atom_site_fract_y
_atom_site_fract_z
Si Si1 0.799702 0.949489 0.169706
Si Si2 0.512794 0.726457 0.174470
Si Si3 0.154145 0.780425 0.672383
Si Si4 0.933170 0.932548 0.331316
Si Si5 0.073466 0.379306 0.324657
Si Si6 0.160614 0.549787 0.328771
Si Si7 0.295959 0.783356 0.172466
O O1 0.862653 0.979998 0.274957
O O2 0.724326 0.979395 0.225265
O O3 0.798378 0.832798 0.177718
O O4 0.812141 0.978468 0.000000
O O5 0.581261 0.692301 0.257986
O O6 0.452892 0.652407 0.219309
O O7 0.486724 0.828679 0.233518
O O8 0.524283 0.728225 0.000000
O O9 0.159899 0.809211 0.500000
O O10 0.152549 0.663747 0.678658
O O11 0.220560 0.811280 0.766381
O O12 0.923440 0.896224 0.500000
O O13 0.000000 0.000000 0.331265
O O14 0.059627 0.367205 0.500000
O O15 0.091949 0.489895 0.293805
O O16 0.144270 0.325917 0.275948
O O17 0.178552 0.525604 0.500000
O O18 0.306095 0.811694 0.000000
#
# Coordination Sequence:
#
# PCOD9427248 Si02
#       7
#     8   8   8   8   8   8   8
#     4  10  20  36  60  87 118 153 193 244 302 358
#     4  12  25  41  61  89 124 162 203 252 310 371
#     4  10  21  40  63  87 120 162 206 254 304 362
#     4  11  24  41  63  89 119 158 203 250 303 368
#     4  11  22  38  62  90 121 162 208 253 302 364
#     4   9  21  39  61  89 119 157 206 253 298 354
#     4  10  20  36  59  88 118 154 199 250 304 362
#
# _framework density 23.038135
#
# number of rings (size 3 to 8) (size 9 to 14) (size 15 to 20)
#    0.000    1.571    1.429    3.429    0.000    5.714 
#    0.000    4.286    0.000    0.000    0.000    0.000 
#    0.000    0.000    0.000    0.000    0.000    0.000 
#
# Total GULP energy -313505.205296 kJ/mol
# GULP energy per Si atom -5598.307237 kJ/mol
# Density = 2.298570 g / cm^3
# Si number density = 23.038135 Si / 1000 Ang^3
#
#
#
# Elastic Constant Matrix: (Units=GPa)
#
#
# Indices 1 2 3 4 5 6 
#
# 1 89.9560 -8.4385 13.4240 0.0000 0.0000 0.0000
# 2 -8.4385 50.1957 10.9860 0.0000 0.0000 0.0000
# 3 13.4240 10.9860 72.9702 0.0000 0.0000 0.0000
# 4 0.0000 0.0000 0.0000 15.7969 0.0000 0.0000
# 5 0.0000 0.0000 0.0000 0.0000 5.6098 0.0000
# 6 0.0000 0.0000 0.0000 0.0000 0.0000 36.0762
#
#
#
# Elastic Compliance Matrix: (Units=1/GPa)
#
#
# Indices 1 2 3 4 5 6 
#
# 1 0.011733 0.002528 -0.002539 0.000000 0.000000 0.000000
# 2 0.002528 0.021146 -0.003649 0.000000 0.000000 0.000000
# 3 -0.002539 -0.003649 0.014721 0.000000 0.000000 0.000000
# 4 0.000000 0.000000 0.000000 0.063303 0.000000 0.000000
# 5 0.000000 0.000000 0.000000 0.000000 0.178259 0.000000
# 6 0.000000 0.000000 0.000000 0.000000 0.000000 0.027719
#
#
# Mechanical properties :
#
#
# Convention : Reuss Voigt Hill
#
# Bulk Modulus (GPa) = 24.82642 27.22944 26.02793
# Shear Modulus (GPa) = 14.80927 24.63995 19.72461
#
# Velocity S-wave (km/s) = 2.53813 3.27391 2.92922
# Velocity P-wave (km/s) = 4.40331 5.11237 4.77103
#
# Compressibility (1/GPa) = 0.04027967
#
# Stress axis : x y z
#
# Youngs Moduli (GPa) = 85.23263 47.29117 67.93180
#
# Poissons Ratio (x) = -0.11956 0.17248
# Poissons Ratio (y) = -0.21548 0.24786
# Poissons Ratio (z) = 0.21641 0.17255
#
# Static dielectric constant tensor:
#      x y z
#    x 1.822770 0.000000 0.000000 
#    y 0.000000 1.950590 0.000000 
#    z 0.000000 0.000000 1.773420 
# 
# From -- ./inp_files/8744.got.cif
#   From: 2010.05.17/outbox.cif.g08.bks.cpg/sg55_5_cif.got.tgz:8744.got - 2010.06.03 13:27:54.
