data_PCOD9427845
_publ_section_title
;
Structure prediction by ZEFSAII (Michael W. Deem and Ramdas Pophale) SiO2 
 PCOD9427845
Probable space group: P B A M
;
_chemical_formula_sum "Si O2"
_cell_formula_units_Z 56
_cell_length_a 16.691520
_cell_length_b 5.167103
_cell_length_c 34.879509
_cell_angle_alpha 90.000000
_cell_angle_beta 90.000000
_cell_angle_gamma 90.000000
_cell_volume 3008.246144
_symmetry_space_group_name_H-M "P B A M"
_symmetry_group_IT_number 55
_symmetry_cell_setting 'orthorhombic'
loop_
_space_group_symop_operation_xyz
x,y,z
-x,-y,z
1/2+x,1/2-y,-z
1/2-x,1/2+y,-z
-x,-y,-z
x,y,-z
1/2-x,1/2+y,z
1/2+x,1/2-y,z
loop_
_atom_site_type_symbol
_atom_site_label
_atom_site_fract_x
_atom_site_fract_y
_atom_site_fract_z
Si Si1 0.301698 0.868250 0.954084
Si Si2 0.055018 0.250157 0.898097
Si Si3 0.444835 0.753639 0.396158
Si Si4 0.444983 0.753545 0.691778
Si Si5 0.699294 0.353915 0.251375
Si Si6 0.304004 0.660543 0.839164
Si Si7 0.803342 0.826228 0.455782
O O1 0.239115 0.640718 0.943748
O O2 0.385006 0.818456 0.932920
O O3 0.312927 0.861483 0.000000
O O4 0.115057 0.187028 0.863132
O O5 0.000000 0.500000 0.890108
O O6 0.000000 0.000000 0.906008
O O7 0.500000 0.500000 0.397875
O O8 0.415350 0.783256 0.352175
O O9 0.373254 0.725607 0.425882
O O10 0.500000 0.000000 0.405046
O O11 0.500000 0.500000 0.693140
O O12 0.373602 0.718704 0.721433
O O13 0.500000 0.000000 0.700853
O O14 0.730880 0.643400 0.258447
O O15 0.678217 0.333056 0.206326
O O16 0.255670 0.398425 0.847896
O O17 0.831572 0.804879 0.500000
O O18 0.735131 0.608607 0.450514
#
# Coordination Sequence:
#
# PCOD9427845 Si02
#       7
#     8   8   8   8   8   8   8
#     4  10  21  39  61  81 107 148 187 217 263 325
#     4  12  24  36  56  86 114 141 178 226 274 314
#     4  10  21  36  54  78 106 140 178 212 258 318
#     4  10  21  36  54  78 110 141 171 216 268 316
#     4  10  21  36  57  82 105 138 183 223 261 311
#     4  10  21  39  58  77 108 146 182 219 261 319
#     4  10  21  36  54  78 106 136 173 219 267 309
#
# _framework density 18.615497999999999
#
# number of rings (size 3 to 8) (size 9 to 14) (size 15 to 20)
#    0.000    1.714    0.000    4.286    0.000    3.429 
#    0.000    0.000    0.000    0.000    0.000    0.000 
#    0.000    0.000    0.000    0.000    0.000    0.000 
#
# Total GULP energy -312985.289783 kJ/mol
# GULP energy per Si atom -5589.023032 kJ/mol
# Density = 1.857313 g / cm^3
# Si number density = 18.615498 Si / 1000 Ang^3
#
#
#
# Elastic Constant Matrix: (Units=GPa)
#
#
# Indices 1 2 3 4 5 6 
#
# 1 68.0953 -5.2876 36.9038 0.0000 0.0000 0.0000
# 2 -5.2876 70.6018 -14.1985 0.0000 0.0000 0.0000
# 3 36.9038 -14.1985 55.0216 0.0000 0.0000 0.0000
# 4 0.0000 0.0000 0.0000 23.1939 0.0000 0.0000
# 5 0.0000 0.0000 0.0000 0.0000 66.0013 0.0000
# 6 0.0000 0.0000 0.0000 0.0000 0.0000 17.5375
#
#
#
# Elastic Compliance Matrix: (Units=1/GPa)
#
#
# Indices 1 2 3 4 5 6 
#
# 1 0.023215 -0.001469 -0.015950 0.000000 0.000000 0.000000
# 2 -0.001469 0.015032 0.004864 0.000000 0.000000 0.000000
# 3 -0.015950 0.004864 0.030128 0.000000 0.000000 0.000000
# 4 0.000000 0.000000 0.000000 0.043115 0.000000 0.000000
# 5 0.000000 0.000000 0.000000 0.000000 0.015151 0.000000
# 6 0.000000 0.000000 0.000000 0.000000 0.000000 0.057021
#
#
# Mechanical properties :
#
#
# Convention : Reuss Voigt Hill
#
# Bulk Modulus (GPa) = 23.11271 25.39489 24.25380
# Shear Modulus (GPa) = 22.40220 33.09994 27.75107
#
# Velocity S-wave (km/s) = 3.47279 4.22131 3.86521
# Velocity P-wave (km/s) = 5.34071 6.11806 5.74255
#
# Compressibility (1/GPa) = 0.04326624
#
# Stress axis : x y z
#
# Youngs Moduli (GPa) = 43.07539 66.52388 33.19208
#
# Poissons Ratio (x) = 0.09772 0.52941
# Poissons Ratio (y) = 0.06328 -0.16146
# Poissons Ratio (z) = 0.68704 -0.32360
#
# Static dielectric constant tensor:
#      x y z
#    x 1.587290 0.000000 0.000000 
#    y 0.000000 1.631370 0.000000 
#    z 0.000000 0.000000 1.644250 
# 
# From -- ./inp_files/24184.got.cif
#   From: 2010.05.17/outbox.cif.g08.bks.cpg/sg55_13_cif.got.tgz:24184.got - 2010.06.03 13:27:54.
