data_PCOD9427674
_publ_section_title
;
Structure prediction by ZEFSAII (Michael W. Deem and Ramdas Pophale) SiO2 
 PCOD9427674
Probable space group: P B A M
;
_chemical_formula_sum "Si O2"
_cell_formula_units_Z 42
_cell_length_a 10.149390
_cell_length_b 23.612354
_cell_length_c 7.523417
_cell_angle_alpha 90.000000
_cell_angle_beta 90.000000
_cell_angle_gamma 90.000000
_cell_volume 1802.994329
_symmetry_space_group_name_H-M "P B A M"
_symmetry_group_IT_number 55
_symmetry_cell_setting 'orthorhombic'
loop_
_space_group_symop_operation_xyz
x,y,z
-x,-y,z
1/2+x,1/2-y,-z
1/2-x,1/2+y,-z
-x,-y,-z
x,y,-z
1/2-x,1/2+y,z
1/2+x,1/2-y,z
loop_
_atom_site_type_symbol
_atom_site_label
_atom_site_fract_x
_atom_site_fract_y
_atom_site_fract_z
Si Si1 0.531743 0.335059 0.215806
Si Si2 0.000000 0.000000 0.500000
Si Si3 0.042351 0.292766 0.794526
Si Si4 0.271482 0.504585 0.205127
Si Si5 0.678803 0.879360 0.295288
Si Si6 0.245449 0.879719 0.784619
O O1 0.519398 0.269937 0.278216
O O2 0.670356 0.359361 0.276605
O O3 0.404405 0.370204 0.277535
O O4 0.530560 0.337379 0.000000
O O5 0.889031 0.986495 0.656242
O O6 0.913903 0.331989 0.789569
O O7 0.159938 0.330392 0.715161
O O8 0.078205 0.282550 0.000000
O O9 0.174028 0.557846 0.215959
O O10 0.210818 0.443467 0.254895
O O11 0.318918 0.500887 0.000000
O O12 0.641407 0.882230 0.500000
O O13 0.246252 0.875044 0.000000
#
# Coordination Sequence:
#
# PCOD9427674 Si02
#       6
#     8   2   8   8   8   8
#     4  10  20  39  68  96 123 165 220 275 330 390
#     4  12  22  40  64 100 128 172 218 262 332 400
#     4  10  21  41  67  94 127 172 222 268 329 400
#     4  11  23  41  65  96 135 172 219 277 330 392
#     4  12  25  41  61  95 135 173 223 270 328 398
#     4   9  20  38  64  96 127 168 218 270 330 390
#
# _framework density 23.294582999999999
#
# number of rings (size 3 to 8) (size 9 to 14) (size 15 to 20)
#    0.000    1.524    0.952    4.286    0.000    6.095 
#    1.714    3.810    0.000    0.000    0.000    0.000 
#    0.000    0.000    0.000    0.000    0.000    0.000 
#
# Total GULP energy -234351.576019 kJ/mol
# GULP energy per Si atom -5579.799429 kJ/mol
# Density = 2.324156 g / cm^3
# Si number density = 23.294583 Si / 1000 Ang^3
#
#
#
# Elastic Constant Matrix: (Units=GPa)
#
#
# Indices 1 2 3 4 5 6 
#
# 1 48.3339 11.6199 -24.4778 0.0000 0.0000 0.0000
# 2 11.6199 118.7817 -5.4431 0.0000 0.0000 0.0000
# 3 -24.4778 -5.4431 100.6230 0.0000 0.0000 0.0000
# 4 0.0000 0.0000 0.0000 35.4441 0.0000 0.0000
# 5 0.0000 0.0000 0.0000 0.0000 29.9149 0.0000
# 6 0.0000 0.0000 0.0000 0.0000 0.0000 39.5143
#
#
#
# Elastic Compliance Matrix: (Units=1/GPa)
#
#
# Indices 1 2 3 4 5 6 
#
# 1 0.024105 -0.002095 0.005751 0.000000 0.000000 0.000000
# 2 -0.002095 0.008622 -0.000043 0.000000 0.000000 0.000000
# 3 0.005751 -0.000043 0.011335 0.000000 0.000000 0.000000
# 4 0.000000 0.000000 0.000000 0.028213 0.000000 0.000000
# 5 0.000000 0.000000 0.000000 0.000000 0.033428 0.000000
# 6 0.000000 0.000000 0.000000 0.000000 0.000000 0.025307
#
#
# Mechanical properties :
#
#
# Convention : Reuss Voigt Hill
#
# Bulk Modulus (GPa) = 19.49797 25.68183 22.58990
# Shear Modulus (GPa) = 35.49102 40.04395 37.76749
#
# Velocity S-wave (km/s) = 3.90753 4.15061 4.03090
# Velocity P-wave (km/s) = 5.36160 5.83257 5.60203
#
# Compressibility (1/GPa) = 0.05128739
#
# Stress axis : x y z
#
# Youngs Moduli (GPa) = 41.48472 115.98597 88.22499
#
# Poissons Ratio (x) = 0.24294 -0.50735
# Poissons Ratio (y) = 0.08689 0.00381
# Poissons Ratio (z) = -0.23856 0.00500
#
# Static dielectric constant tensor:
#      x y z
#    x 1.834730 0.000000 0.000000 
#    y 0.000000 1.900820 0.000000 
#    z 0.000000 0.000000 1.870640 
# 
# From -- ./inp_files/3987.got.cif
#   From: 2010.05.17/outbox.cif.g08.bks.cpg/sg55_2_cif.got.tgz:3987.got - 2010.06.03 13:27:54.
