data_PCOD9427748
_publ_section_title
;
Structure prediction by ZEFSAII (Michael W. Deem and Ramdas Pophale) SiO2 
 PCOD9427748
Probable space group: P B A M
;
_chemical_formula_sum "Si O2"
_cell_formula_units_Z 58
_cell_length_a 12.414800
_cell_length_b 29.700748
_cell_length_c 7.643808
_cell_angle_alpha 90.000000
_cell_angle_beta 90.000000
_cell_angle_gamma 90.000000
_cell_volume 2818.492505
_symmetry_space_group_name_H-M "P B A M"
_symmetry_group_IT_number 55
_symmetry_cell_setting 'orthorhombic'
loop_
_space_group_symop_operation_xyz
x,y,z
-x,-y,z
1/2+x,1/2-y,-z
1/2-x,1/2+y,-z
-x,-y,-z
x,y,-z
1/2-x,1/2+y,z
1/2+x,1/2-y,z
loop_
_atom_site_type_symbol
_atom_site_label
_atom_site_fract_x
_atom_site_fract_y
_atom_site_fract_z
Si Si1 0.629216 0.773208 0.794849
Si Si2 0.994925 0.360454 0.205209
Si Si3 0.700250 0.919733 0.700256
Si Si4 0.828477 0.833992 0.713192
Si Si5 0.657395 0.019835 0.289552
Si Si6 0.070934 0.825728 0.297453
Si Si7 0.500000 0.000000 0.000000
Si Si8 0.736994 0.114512 0.708755
O O1 0.545855 0.811549 0.730594
O O2 0.747119 0.794715 0.769983
O O3 0.613216 0.725211 0.707940
O O4 0.609752 0.766182 0.000000
O O5 0.917971 0.397256 0.294702
O O6 0.121089 0.367869 0.228252
O O7 0.967764 0.362960 0.000000
O O8 0.733962 0.925855 0.500000
O O9 0.778170 0.881510 0.776628
O O10 0.695985 0.970245 0.772637
O O11 0.825176 0.833904 0.500000
O O12 0.950208 0.827824 0.776109
O O13 0.630432 0.018378 0.500000
O O14 0.739728 0.060786 0.263780
O O15 0.560340 0.029021 0.156353
O O16 0.058677 0.839676 0.500000
O O17 0.161592 0.858293 0.218076
O O18 0.734700 0.121595 0.500000
#
# Coordination Sequence:
#
# PCOD9427748 Si02
#       8
#     8   8   8   8   8   8   2   8
#     4  10  22  38  56  83 115 148 187 240 298 351
#     4  10  21  34  53  82 114 147 188 232 285 350
#     4   9  18  35  58  83 114 150 188 241 292 341
#     4   9  19  38  62  85 109 147 200 243 289 352
#     4  10  22  37  55  87 126 159 201 249 300 358
#     4  10  22  39  60  83 111 151 199 242 292 354
#     4  12  22  32  60  90 118 164 206 236 304 356
#     4  10  22  38  54  81 120 155 188 242 298 349
#
# _framework density 20.578375999999999
#
# number of rings (size 3 to 8) (size 9 to 14) (size 15 to 20)
#    0.000    2.207    0.000    1.862    5.793    4.966 
#    0.000    0.690    0.000    4.138    0.000    0.966 
#    0.000    0.000    0.000    0.000    0.000    0.276 
#
# Total GULP energy -323083.359442 kJ/mol
# GULP energy per Si atom -5570.402749 kJ/mol
# Density = 2.053154 g / cm^3
# Si number density = 20.578376 Si / 1000 Ang^3
#
#
#
# Elastic Constant Matrix: (Units=GPa)
#
#
# Indices 1 2 3 4 5 6 
#
# 1 133.1750 62.9397 -3.7114 0.0000 0.0000 0.0000
# 2 62.9397 112.7522 5.2246 0.0000 0.0000 0.0000
# 3 -3.7114 5.2246 60.7428 0.0000 0.0000 0.0000
# 4 0.0000 0.0000 0.0000 -4.0532 0.0000 0.0000
# 5 0.0000 0.0000 0.0000 0.0000 80.1088 0.0000
# 6 0.0000 0.0000 0.0000 0.0000 0.0000 22.9370
#
#
#
# Elastic Compliance Matrix: (Units=1/GPa)
#
#
# Indices 1 2 3 4 5 6 
#
# 1 0.010276 -0.005788 0.001126 0.000000 0.000000 0.000000
# 2 -0.005788 0.012165 -0.001400 0.000000 0.000000 0.000000
# 3 0.001126 -0.001400 0.016652 0.000000 0.000000 0.000000
# 4 0.000000 0.000000 0.000000 -0.246719 0.000000 0.000000
# 5 0.000000 0.000000 0.000000 0.000000 0.012483 0.000000
# 6 0.000000 0.000000 0.000000 0.000000 0.000000 0.043598
#
#
# Mechanical properties :
#
#
# Convention : Reuss Voigt Hill
#
# Bulk Modulus (GPa) = 37.08128 48.39731 42.73930
# Shear Modulus (GPa) = -38.33440 35.94633 -1.19404
#
# Velocity S-wave (km/s) = -4.32076 4.18401 -0.76256
# Velocity P-wave (km/s) = 2.61405 6.84915 4.47647
#
# Compressibility (1/GPa) = 0.02696778
#
# Stress axis : x y z
#
# Youngs Moduli (GPa) = 97.31520 82.20322 60.05265
#
# Poissons Ratio (x) = 0.47582 -0.06760
# Poissons Ratio (y) = 0.56329 0.08407
# Poissons Ratio (z) = -0.10955 0.11508
#
# Static dielectric constant tensor:
#      x y z
#    x 1.741130 0.000000 0.000000 
#    y 0.000000 1.781770 0.000000 
#    z 0.000000 0.000000 1.757310 
# 
# From -- ./inp_files/4472.got.cif
#   From: 2010.05.17/outbox.cif.g08.bks.cpg/sg55_3_cif.got.tgz:4472.got - 2010.06.03 13:27:54.
