data_PCOD9427265
_publ_section_title
;
Structure prediction by ZEFSAII (Michael W. Deem and Ramdas Pophale) SiO2 
 PCOD9427265
Probable space group: P B A M
;
_chemical_formula_sum "Si O2"
_cell_formula_units_Z 58
_cell_length_a 12.204088
_cell_length_b 29.338381
_cell_length_c 9.120387
_cell_angle_alpha 90.000000
_cell_angle_beta 90.000000
_cell_angle_gamma 90.000000
_cell_volume 3265.537998
_symmetry_space_group_name_H-M "P B A M"
_symmetry_group_IT_number 55
_symmetry_cell_setting 'orthorhombic'
loop_
_space_group_symop_operation_xyz
x,y,z
-x,-y,z
1/2+x,1/2-y,-z
1/2-x,1/2+y,-z
-x,-y,-z
x,y,-z
1/2-x,1/2+y,z
1/2+x,1/2-y,z
loop_
_atom_site_type_symbol
_atom_site_label
_atom_site_fract_x
_atom_site_fract_y
_atom_site_fract_z
Si Si1 0.245197 0.613150 0.176871
Si Si2 0.996205 0.635108 0.825266
Si Si3 0.311383 0.921453 0.325811
Si Si4 0.330324 0.332991 0.674776
Si Si5 0.914790 0.818869 0.675385
Si Si6 0.145739 0.276236 0.175131
Si Si7 0.726854 0.490744 0.161793
Si Si8 0.500000 0.500000 0.000000
O O1 0.336163 0.643134 0.256070
O O2 0.254037 0.560132 0.219347
O O3 0.123899 0.631513 0.210974
O O4 0.261830 0.615549 0.000000
O O5 0.923435 0.597576 0.743314
O O6 0.944178 0.684520 0.791343
O O7 0.984410 0.628162 0.000000
O O8 0.321842 0.924093 0.500000
O O9 0.220601 0.882521 0.290310
O O10 0.273796 0.969233 0.260130
O O11 0.315228 0.325258 0.500000
O O12 0.458387 0.330086 0.708347
O O13 0.259749 0.296264 0.763961
O O14 0.901838 0.817024 0.500000
O O15 0.884390 0.770503 0.746266
O O16 0.151024 0.270038 0.000000
O O17 0.782173 0.493422 0.000000
O O18 0.598210 0.497169 0.125327
#
# Coordination Sequence:
#
# PCOD9427265 Si02
#       8
#     8   8   8   8   8   8   8   2
#     4  10  22  39  58  85 117 152 195 241 290 346
#     4   9  20  39  60  83 114 149 191 240 290 344
#     4  10  20  36  60  87 114 152 196 241 285 346
#     4   9  21  39  57  82 114 148 191 235 286 348
#     4  11  24  38  57  83 116 151 186 234 297 354
#     4  10  21  38  59  84 108 145 192 239 285 342
#     4   9  20  36  58  84 115 155 194 238 287 343
#     4   8  20  36  58  82 116 156 198 228 298 344
#
# _framework density 17.761239
#
# number of rings (size 3 to 8) (size 9 to 14) (size 15 to 20)
#    0.414    1.931    0.000    1.241    3.862    3.862 
#    0.000    3.103    0.000    0.000    0.000    0.000 
#    0.000    0.000    0.000    0.000    0.000    0.000 
#
# Total GULP energy -323043.954848 kJ/mol
# GULP energy per Si atom -5569.723359 kJ/mol
# Density = 1.772081 g / cm^3
# Si number density = 17.761239 Si / 1000 Ang^3
#
#
#
# Elastic Constant Matrix: (Units=GPa)
#
#
# Indices 1 2 3 4 5 6 
#
# 1 120.5483 55.1032 52.5092 0.0000 0.0000 0.0000
# 2 55.1032 95.9641 45.6934 0.0000 0.0000 0.0000
# 3 52.5092 45.6934 44.2357 0.0000 0.0000 0.0000
# 4 0.0000 0.0000 0.0000 23.8979 0.0000 0.0000
# 5 0.0000 0.0000 0.0000 0.0000 24.9662 0.0000
# 6 0.0000 0.0000 0.0000 0.0000 0.0000 8.7225
#
#
#
# Elastic Compliance Matrix: (Units=1/GPa)
#
#
# Indices 1 2 3 4 5 6 
#
# 1 0.017181 -0.000304 -0.020080 0.000000 0.000000 0.000000
# 2 -0.000304 0.020512 -0.020827 0.000000 0.000000 0.000000
# 3 -0.020080 -0.020827 0.067955 0.000000 0.000000 0.000000
# 4 0.000000 0.000000 0.000000 0.041845 0.000000 0.000000
# 5 0.000000 0.000000 0.000000 0.000000 0.040054 0.000000
# 6 0.000000 0.000000 0.000000 0.000000 0.000000 0.114646
#
#
# Mechanical properties :
#
#
# Convention : Reuss Voigt Hill
#
# Bulk Modulus (GPa) = 43.05578 63.03995 53.04787
# Shear Modulus (GPa) = 12.74347 18.68012 15.71180
#
# Velocity S-wave (km/s) = 2.68150 3.24657 2.97747
# Velocity P-wave (km/s) = 5.82077 7.04440 6.46162
#
# Compressibility (1/GPa) = 0.02322568
#
# Stress axis : x y z
#
# Youngs Moduli (GPa) = 58.20304 48.75216 14.71562
#
# Poissons Ratio (x) = 0.01484 0.29549
# Poissons Ratio (y) = 0.01771 0.30648
# Poissons Ratio (z) = 1.16874 1.01534
#
# Static dielectric constant tensor:
#      x y z
#    x 1.583830 0.000000 0.000000 
#    y 0.000000 1.590530 0.000000 
#    z 0.000000 0.000000 1.597410 
# 
# From -- ./inp_files/4335.got.cif
#   From: 2010.05.17/outbox.cif.g08.bks.cpg/sg55_3_cif.got.tgz:4335.got - 2010.06.03 13:27:54.
