data_PCOD9427619
_publ_section_title
;
Structure prediction by ZEFSAII (Michael W. Deem and Ramdas Pophale) SiO2 
 PCOD9427619
Probable space group: P B A M
;
_chemical_formula_sum "Si O2"
_cell_formula_units_Z 40
_cell_length_a 9.741933
_cell_length_b 18.369246
_cell_length_c 9.885236
_cell_angle_alpha 90.000000
_cell_angle_beta 90.000000
_cell_angle_gamma 90.000000
_cell_volume 1768.982395
_symmetry_space_group_name_H-M "P B A M"
_symmetry_group_IT_number 55
_symmetry_cell_setting 'orthorhombic'
loop_
_space_group_symop_operation_xyz
x,y,z
-x,-y,z
1/2+x,1/2-y,-z
1/2-x,1/2+y,-z
-x,-y,-z
x,y,-z
1/2-x,1/2+y,z
1/2+x,1/2-y,z
loop_
_atom_site_type_symbol
_atom_site_label
_atom_site_fract_x
_atom_site_fract_y
_atom_site_fract_z
Si Si1 0.790596 0.594799 0.848518
Si Si2 0.546450 0.330482 0.649501
Si Si3 0.813273 0.978794 0.655816
Si Si4 0.210494 0.761284 0.252415
Si Si5 0.449187 0.122248 0.659247
O O1 0.691670 0.538419 0.772501
O O2 0.726606 0.675862 0.857663
O O3 0.916991 0.601497 0.743373
O O4 0.828486 0.570723 0.000000
O O5 0.607609 0.327040 0.500000
O O6 0.584024 0.412355 0.691291
O O7 0.387519 0.308579 0.647325
O O8 0.636410 0.269231 0.724157
O O9 0.840281 0.004491 0.500000
O O10 0.661954 0.942161 0.653612
O O11 0.125656 0.686425 0.256404
O O12 0.477859 0.142602 0.500000
#
# Coordination Sequence:
#
# PCOD9427619 Si02
#       5
#     8   8   8   8   8
#     4  12  26  41  61  93 134 180 219 258 322 394
#     4  10  20  38  66  99 129 162 211 272 332 383
#     4   9  21  40  64  97 131 167 216 272 328 383
#     4  11  22  39  63  97 129 167 212 267 328 383
#     4  10  21  40  69  99 128 166 220 279 328 380
#
# _framework density 22.611872000000002
#
# number of rings (size 3 to 8) (size 9 to 14) (size 15 to 20)
#    0.000    1.600    2.000    4.200    0.000    8.800 
#    0.000    7.000    0.000    0.000    0.000    0.000 
#    0.000    0.000    0.000    0.000    0.000    0.000 
#
# Total GULP energy -222716.839004 kJ/mol
# GULP energy per Si atom -5567.920975 kJ/mol
# Density = 2.256041 g / cm^3
# Si number density = 22.611872 Si / 1000 Ang^3
#
#
#
# Elastic Constant Matrix: (Units=GPa)
#
#
# Indices 1 2 3 4 5 6 
#
# 1 69.9282 6.8827 48.2456 0.0000 0.0000 0.0000
# 2 6.8827 93.4121 58.0478 0.0000 0.0000 0.0000
# 3 48.2456 58.0478 105.8178 0.0000 0.0000 0.0000
# 4 0.0000 0.0000 0.0000 0.0414 0.0000 0.0000
# 5 0.0000 0.0000 0.0000 0.0000 -9.1494 0.0000
# 6 0.0000 0.0000 0.0000 0.0000 0.0000 20.1837
#
#
#
# Elastic Compliance Matrix: (Units=1/GPa)
#
#
# Indices 1 2 3 4 5 6 
#
# 1 0.023979 0.007627 -0.015117 0.000000 0.000000 0.000000
# 2 0.007627 0.018668 -0.013718 0.000000 0.000000 0.000000
# 3 -0.015117 -0.013718 0.023867 0.000000 0.000000 0.000000
# 4 0.000000 0.000000 0.000000 24.148531 0.000000 0.000000
# 5 0.000000 0.000000 0.000000 0.000000 -0.109297 0.000000
# 6 0.000000 0.000000 0.000000 0.000000 0.000000 0.049545
#
#
# Mechanical properties :
#
#
# Convention : Reuss Voigt Hill
#
# Bulk Modulus (GPa) = 41.49508 55.05671 48.27589
# Shear Modulus (GPa) = 0.20656 12.61396 6.41026
#
# Velocity S-wave (km/s) = 0.30257 2.36444 1.68555
# Velocity P-wave (km/s) = 4.30266 5.64407 5.01839
#
# Compressibility (1/GPa) = 0.02409924
#
# Stress axis : x y z
#
# Youngs Moduli (GPa) = 41.70290 53.56837 41.89810
#
# Poissons Ratio (x) = -0.40856 0.63336
# Poissons Ratio (y) = -0.31806 0.57475
# Poissons Ratio (z) = 0.63041 0.73484
#
# Static dielectric constant tensor:
#      x y z
#    x 1.876400 0.000000 0.000000 
#    y 0.000000 1.923430 0.000000 
#    z 0.000000 0.000000 1.814220 
# 
# From -- ./inp_files/3616.got.cif
#   From: 2010.05.17/outbox.cif.g08.bks.cpg/sg55_2_cif.got.tgz:3616.got - 2010.06.03 13:27:54.
