data_PCOD9427868
_publ_section_title
;
Structure prediction by ZEFSAII (Michael W. Deem and Ramdas Pophale) SiO2 
 PCOD9427868
Probable space group: P B A M
;
_chemical_formula_sum "Si O2"
_cell_formula_units_Z 64
_cell_length_a 19.899931
_cell_length_b 19.283852
_cell_length_c 7.518311
_cell_angle_alpha 90.000000
_cell_angle_beta 90.000000
_cell_angle_gamma 90.000000
_cell_volume 2885.131729
_symmetry_space_group_name_H-M "P B A M"
_symmetry_group_IT_number 55
_symmetry_cell_setting 'orthorhombic'
loop_
_space_group_symop_operation_xyz
x,y,z
-x,-y,z
1/2+x,1/2-y,-z
1/2-x,1/2+y,-z
-x,-y,-z
x,y,-z
1/2-x,1/2+y,z
1/2+x,1/2-y,z
loop_
_atom_site_type_symbol
_atom_site_label
_atom_site_fract_x
_atom_site_fract_y
_atom_site_fract_z
Si Si1 0.528515 0.126406 0.284579
Si Si2 0.361416 0.979056 0.209370
Si Si3 0.965522 0.894319 0.784957
Si Si4 0.122712 0.634879 0.704662
Si Si5 0.388959 0.742744 0.292520
Si Si6 0.258390 0.228553 0.293171
Si Si7 0.102345 0.965165 0.216481
Si Si8 0.763934 0.111491 0.216005
O O1 0.525933 0.128791 0.500000
O O2 0.565976 0.055341 0.237774
O O3 0.452557 0.135701 0.217010
O O4 0.575752 0.188924 0.216886
O O5 0.305192 0.924735 0.275091
O O6 0.355558 0.054681 0.292706
O O7 0.350324 0.988461 0.000000
O O8 0.939467 0.821220 0.719571
O O9 0.040500 0.915848 0.728912
O O10 0.916659 0.957102 0.727265
O O11 0.965094 0.892621 0.000000
O O12 0.114892 0.658349 0.500000
O O13 0.180834 0.683278 0.785586
O O14 0.376348 0.758649 0.500000
O O15 0.316642 0.721805 0.213886
O O16 0.253717 0.206421 0.500000
O O17 0.272700 0.310418 0.282496
O O18 0.173499 0.935698 0.273474
O O19 0.102418 0.965813 0.000000
O O20 0.763242 0.115014 0.000000
#
# Coordination Sequence:
#
# PCOD9427868 Si02
#       8
#     8   8   8   8   8   8   8   8
#     4  10  21  40  61  81 112 154 190 229 284 340
#     4  11  23  38  59  88 116 147 189 238 284 330
#     4   9  18  34  58  81 107 146 186 221 267 332
#     4  10  23  40  61  85 112 149 191 231 281 338
#     4  10  21  36  55  81 114 145 180 230 280 325
#     4  10  22  40  58  81 112 147 187 228 272 331
#     4   8  17  35  55  80 111 144 182 224 271 326
#     4  10  21  37  57  81 113 148 183 227 278 328
#
# _framework density 22.182694999999999
#
# number of rings (size 3 to 8) (size 9 to 14) (size 15 to 20)
#    0.000    2.250    1.250    1.500    3.500    4.000 
#    0.000    1.875    0.000    0.000    0.000    0.000 
#    0.000    0.000    0.000    0.000    0.000    0.000 
#
# Total GULP energy -357505.828748 kJ/mol
# GULP energy per Si atom -5586.028574 kJ/mol
# Density = 2.213221 g / cm^3
# Si number density = 22.182695 Si / 1000 Ang^3
#
#
#
# Elastic Constant Matrix: (Units=GPa)
#
#
# Indices 1 2 3 4 5 6 
#
# 1 113.3545 77.2553 -0.5119 0.0000 0.0000 0.0000
# 2 77.2553 68.2975 -11.8589 0.0000 0.0000 0.0000
# 3 -0.5119 -11.8589 58.7282 0.0000 0.0000 0.0000
# 4 0.0000 0.0000 0.0000 21.9854 0.0000 0.0000
# 5 0.0000 0.0000 0.0000 0.0000 3.1822 0.0000
# 6 0.0000 0.0000 0.0000 0.0000 0.0000 43.1961
#
#
#
# Elastic Compliance Matrix: (Units=1/GPa)
#
#
# Indices 1 2 3 4 5 6 
#
# 1 0.043424 -0.050836 -0.009887 0.000000 0.000000 0.000000
# 2 -0.050836 0.074687 0.014638 0.000000 0.000000 0.000000
# 3 -0.009887 0.014638 0.019897 0.000000 0.000000 0.000000
# 4 0.000000 0.000000 0.000000 0.045485 0.000000 0.000000
# 5 0.000000 0.000000 0.000000 0.000000 0.314251 0.000000
# 6 0.000000 0.000000 0.000000 0.000000 0.000000 0.023150
#
#
# Mechanical properties :
#
#
# Convention : Reuss Voigt Hill
#
# Bulk Modulus (GPa) = 21.81516 41.12768 31.47142
# Shear Modulus (GPa) = 7.95744 25.37245 16.66495
#
# Velocity S-wave (km/s) = 1.89605 3.38567 2.74388
# Velocity P-wave (km/s) = 3.82740 5.81931 4.92511
#
# Compressibility (1/GPa) = 0.04583968
#
# Stress axis : x y z
#
# Youngs Moduli (GPa) = 23.02880 13.38918 50.25797
#
# Poissons Ratio (x) = 0.68065 0.49689
# Poissons Ratio (y) = 1.17069 -0.73570
# Poissons Ratio (z) = 0.22768 -0.19600
#
# Static dielectric constant tensor:
#      x y z
#    x 1.828380 0.000000 0.000000 
#    y 0.000000 1.761950 0.000000 
#    z 0.000000 0.000000 1.861690 
# 
# From -- ./inp_files/9008.got.cif
#   From: 2010.05.17/outbox.cif.g08.bks.cpg/sg55_5_cif.got.tgz:9008.got - 2010.06.03 13:27:54.
