data_PCOD9427079
_publ_section_title
;
Structure prediction by ZEFSAII (Michael W. Deem and Ramdas Pophale) SiO2 
 PCOD9427079
Probable space group: P B A M
;
_chemical_formula_sum "Si O2"
_cell_formula_units_Z 64
_cell_length_a 15.833997
_cell_length_b 24.413552
_cell_length_c 8.288074
_cell_angle_alpha 90.000000
_cell_angle_beta 90.000000
_cell_angle_gamma 90.000000
_cell_volume 3203.871942
_symmetry_space_group_name_H-M "P B A M"
_symmetry_group_IT_number 55
_symmetry_cell_setting 'orthorhombic'
loop_
_space_group_symop_operation_xyz
x,y,z
-x,-y,z
1/2+x,1/2-y,-z
1/2-x,1/2+y,-z
-x,-y,-z
x,y,-z
1/2-x,1/2+y,z
1/2+x,1/2-y,z
loop_
_atom_site_type_symbol
_atom_site_label
_atom_site_fract_x
_atom_site_fract_y
_atom_site_fract_z
Si Si1 0.756202 0.425007 0.695721
Si Si2 0.097741 0.875085 0.696610
Si Si3 0.093529 0.371772 0.309647
Si Si4 0.087827 0.647740 0.188365
Si Si5 0.836626 0.244732 0.690512
Si Si6 0.911166 0.860709 0.304911
Si Si7 0.849951 0.745395 0.811695
Si Si8 0.246773 0.448752 0.697294
O O1 0.757898 0.423382 0.500000
O O2 0.836809 0.391889 0.757439
O O3 0.669837 0.395429 0.749518
O O4 0.757683 0.488237 0.747163
O O5 0.097628 0.876543 0.500000
O O6 0.126852 0.813851 0.742305
O O7 0.167606 0.918493 0.751393
O O8 0.001542 0.883869 0.749820
O O9 0.082300 0.380542 0.500000
O O10 0.125838 0.310061 0.279997
O O11 0.165777 0.413375 0.250672
O O12 0.003120 0.377486 0.226773
O O13 0.099645 0.705562 0.279081
O O14 0.095027 0.658998 0.000000
O O15 0.817458 0.241796 0.500000
O O16 0.749085 0.256487 0.780755
O O17 0.910606 0.860917 0.500000
O O18 0.900176 0.798287 0.249108
O O19 0.866226 0.736837 0.000000
O O20 0.247255 0.447738 0.500000
#
# Coordination Sequence:
#
# PCOD9427079 Si02
#       8
#     8   8   8   8   8   8   8   8
#     4  10  21  38  61  87 117 158 205 249 296 351
#     4   9  18  34  59  91 119 148 191 246 292 342
#     4  11  22  40  64  87 117 157 202 249 300 361
#     4  12  25  40  59  88 124 157 196 248 305 360
#     4  11  20  36  62  88 119 158 200 240 294 360
#     4  10  20  35  60  90 121 158 199 239 293 356
#     4  12  23  36  58  89 125 157 194 244 302 358
#     4   9  19  37  61  88 116 151 203 258 296 340
#
# _framework density 19.975829999999998
#
# number of rings (size 3 to 8) (size 9 to 14) (size 15 to 20)
#    0.000    1.500    2.500    3.750    0.000    2.000 
#    0.000    6.875    0.000    0.000    0.000    1.750 
#    0.000    0.000    0.000    0.000    0.000    0.000 
#
# Total GULP energy -357757.019329 kJ/mol
# GULP energy per Si atom -5589.953427 kJ/mol
# Density = 1.993036 g / cm^3
# Si number density = 19.975830 Si / 1000 Ang^3
#
#
#
# Elastic Constant Matrix: (Units=GPa)
#
#
# Indices 1 2 3 4 5 6 
#
# 1 103.6975 27.3817 7.1129 0.0000 0.0000 0.0000
# 2 27.3817 108.5220 5.2429 0.0000 0.0000 0.0000
# 3 7.1129 5.2429 17.6013 0.0000 0.0000 0.0000
# 4 0.0000 0.0000 0.0000 -11.2804 0.0000 0.0000
# 5 0.0000 0.0000 0.0000 0.0000 -6.7592 0.0000
# 6 0.0000 0.0000 0.0000 0.0000 0.0000 4.2958
#
#
#
# Elastic Compliance Matrix: (Units=1/GPa)
#
#
# Indices 1 2 3 4 5 6 
#
# 1 0.010542 -0.002490 -0.003519 0.000000 0.000000 0.000000
# 2 -0.002490 0.009937 -0.001954 0.000000 0.000000 0.000000
# 3 -0.003519 -0.001954 0.058818 0.000000 0.000000 0.000000
# 4 0.000000 0.000000 0.000000 -0.088649 0.000000 0.000000
# 5 0.000000 0.000000 0.000000 0.000000 -0.147946 0.000000
# 6 0.000000 0.000000 0.000000 0.000000 0.000000 0.232783
#
#
# Mechanical properties :
#
#
# Convention : Reuss Voigt Hill
#
# Bulk Modulus (GPa) = 15.77966 34.36620 25.07293
# Shear Modulus (GPa) = 44.43096 9.92347 27.17721
#
# Velocity S-wave (km/s) = 4.72130 2.23126 3.69250
# Velocity P-wave (km/s) = 6.13493 4.88664 5.54602
#
# Compressibility (1/GPa) = 0.06337271
#
# Stress axis : x y z
#
# Youngs Moduli (GPa) = 94.85626 100.63020 17.00168
#
# Poissons Ratio (x) = 0.25057 0.05982
# Poissons Ratio (y) = 0.23619 0.03322
# Poissons Ratio (z) = 0.33376 0.19661
#
# Static dielectric constant tensor:
#      x y z
#    x 1.701730 0.000000 0.000000 
#    y 0.000000 1.667980 0.000000 
#    z 0.000000 0.000000 1.682010 
# 
# From -- ./inp_files/6719.got.cif
#   From: 2010.05.17/outbox.cif.g08.bks.cpg/sg55_4_cif.got.tgz:6719.got - 2010.06.03 13:27:54.
