data_PCOD9427330
_publ_section_title
;
Structure prediction by ZEFSAII (Michael W. Deem and Ramdas Pophale) SiO2 
 PCOD9427330
Probable space group: P B A M
;
_chemical_formula_sum "Si O2"
_cell_formula_units_Z 40
_cell_length_a 14.226023
_cell_length_b 14.474637
_cell_length_c 7.750000
_cell_angle_alpha 90.000000
_cell_angle_beta 90.000000
_cell_angle_gamma 90.000000
_cell_volume 1595.853021
_symmetry_space_group_name_H-M "P B A M"
_symmetry_group_IT_number 55
_symmetry_cell_setting 'orthorhombic'
loop_
_space_group_symop_operation_xyz
x,y,z
-x,-y,z
1/2+x,1/2-y,-z
1/2-x,1/2+y,-z
-x,-y,-z
x,y,-z
1/2-x,1/2+y,z
1/2+x,1/2-y,z
loop_
_atom_site_type_symbol
_atom_site_label
_atom_site_fract_x
_atom_site_fract_y
_atom_site_fract_z
Si Si1 0.116189 0.737691 0.801619
Si Si2 0.609189 0.478559 0.292457
Si Si3 0.898905 0.764678 0.706339
Si Si4 0.596543 0.961212 0.693650
Si Si5 0.256555 0.880249 0.248513
O O1 0.135303 0.629004 0.785771
O O2 0.183492 0.801389 0.686757
O O3 0.008142 0.752240 0.750470
O O4 0.131963 0.766552 0.000000
O O5 0.500000 0.500000 0.258125
O O6 0.625030 0.495473 0.500000
O O7 0.627066 0.370866 0.260409
O O8 0.677055 0.546500 0.189124
O O9 0.885515 0.746046 0.500000
O O10 0.835925 0.692852 0.812222
O O11 0.571744 0.929117 0.500000
O O12 0.671302 0.042804 0.680192
O O13 0.500000 0.000000 0.773454
#
# Coordination Sequence:
#
# PCOD9427330 Si02
#       5
#     8   8   8   8   8
#     4  12  28  47  70 104 151 196 236 290 364 451
#     4  10  20  36  64 100 136 176 227 295 362 418
#     4  11  23  43  73 104 138 184 244 310 363 424
#     4  11  24  45  76 110 139 181 247 310 362 419
#     4  12  24  43  71 102 139 188 241 294 358 425
#
# _framework density 25.064965999999998
#
# number of rings (size 3 to 8) (size 9 to 14) (size 15 to 20)
#    0.000    0.800    4.000    3.600    0.000    7.600 
#    0.000    2.000    0.000    0.000    0.000    0.000 
#    0.000    0.000    0.000    0.000    0.000    0.000 
#
# Total GULP energy -222982.899293 kJ/mol
# GULP energy per Si atom -5574.572482 kJ/mol
# Density = 2.500792 g / cm^3
# Si number density = 25.064966 Si / 1000 Ang^3
#
#
#
# Elastic Constant Matrix: (Units=GPa)
#
#
# Indices 1 2 3 4 5 6 
#
# 1 199.9438 76.0083 24.5172 0.0000 0.0000 0.0000
# 2 76.0083 231.0450 44.4749 0.0000 0.0000 0.0000
# 3 24.5172 44.4749 106.8414 0.0000 0.0000 0.0000
# 4 0.0000 0.0000 0.0000 -51.4350 0.0000 0.0000
# 5 0.0000 0.0000 0.0000 0.0000 -13.1784 0.0000
# 6 0.0000 0.0000 0.0000 0.0000 0.0000 73.9439
#
#
#
# Elastic Compliance Matrix: (Units=1/GPa)
#
#
# Indices 1 2 3 4 5 6 
#
# 1 0.005749 -0.001780 -0.000578 0.000000 0.000000 0.000000
# 2 -0.001780 0.005256 -0.001780 0.000000 0.000000 0.000000
# 3 -0.000578 -0.001780 0.010233 0.000000 0.000000 0.000000
# 4 0.000000 0.000000 0.000000 -0.019442 0.000000 0.000000
# 5 0.000000 0.000000 0.000000 0.000000 -0.075882 0.000000
# 6 0.000000 0.000000 0.000000 0.000000 0.000000 0.013524
#
#
# Mechanical properties :
#
#
# Convention : Reuss Voigt Hill
#
# Bulk Modulus (GPa) = 77.14415 91.98122 84.56268
# Shear Modulus (GPa) = -104.24249 28.05477 -38.09386
#
# Velocity S-wave (km/s) = -6.45594 3.34920 -3.90270
# Velocity P-wave (km/s) = 4.97270 7.19256 3.67459
#
# Compressibility (1/GPa) = 0.01296275
#
# Stress axis : x y z
#
# Youngs Moduli (GPa) = 173.94442 190.24852 97.72161
#
# Poissons Ratio (x) = 0.33863 0.05651
# Poissons Ratio (y) = 0.30961 0.17390
# Poissons Ratio (z) = 0.10059 0.33856
#
# Static dielectric constant tensor:
#      x y z
#    x 1.921910 0.000000 0.000000 
#    y 0.000000 1.912520 0.000000 
#    z 0.000000 0.000000 2.157630 
# 
# From -- ./inp_files/5184.got.cif
#   From: 2010.05.17/outbox.cif.g08.bks.cpg/sg55_3_cif.got.tgz:5184.got - 2010.06.03 13:27:54.
