data_PCOD9427197
_publ_section_title
;
Structure prediction by ZEFSAII (Michael W. Deem and Ramdas Pophale) SiO2 
 PCOD9427197
Probable space group: P B A M
;
_chemical_formula_sum "Si O2"
_cell_formula_units_Z 64
_cell_length_a 18.552081
_cell_length_b 12.161968
_cell_length_c 14.160191
_cell_angle_alpha 90.000000
_cell_angle_beta 90.000000
_cell_angle_gamma 90.000000
_cell_volume 3194.961282
_symmetry_space_group_name_H-M "P B A M"
_symmetry_group_IT_number 55
_symmetry_cell_setting 'orthorhombic'
loop_
_space_group_symop_operation_xyz
x,y,z
-x,-y,z
1/2+x,1/2-y,-z
1/2-x,1/2+y,-z
-x,-y,-z
x,y,-z
1/2-x,1/2+y,z
1/2+x,1/2-y,z
loop_
_atom_site_type_symbol
_atom_site_label
_atom_site_fract_x
_atom_site_fract_y
_atom_site_fract_z
Si Si1 0.910178 0.116025 0.891417
Si Si2 0.762044 0.022847 0.889261
Si Si3 0.642936 0.860640 0.894645
Si Si4 0.311341 0.899759 0.703764
Si Si5 0.069980 0.572947 0.712549
Si Si6 0.119267 0.191456 0.387609
Si Si7 0.034229 0.827854 0.699906
Si Si8 0.666040 0.544041 0.389418
O O1 0.847568 0.027301 0.869552
O O2 0.864956 0.230396 0.886274
O O3 0.969615 0.135698 0.810614
O O4 0.935709 0.102557 0.000000
O O5 0.716870 0.092592 0.812127
O O6 0.723779 0.904253 0.878580
O O7 0.753932 0.056482 0.000000
O O8 0.588069 0.917433 0.823440
O O9 0.622802 0.892349 0.000000
O O10 0.360013 0.006390 0.677032
O O11 0.357252 0.793694 0.676217
O O12 0.239107 0.899923 0.643076
O O13 0.943242 0.300347 0.685477
O O14 0.000000 0.500000 0.692659
O O15 0.120808 0.217678 0.500000
O O16 0.039290 0.156207 0.356133
O O17 0.169303 0.086000 0.369377
O O18 0.098756 0.901069 0.661303
O O19 0.654972 0.556876 0.500000
#
# Coordination Sequence:
#
# PCOD9427197 Si02
#       8
#     8   8   8   8   8   8   8   8
#     4   9  17  32  56  87 120 157 200 247 304 363
#     4   9  17  32  55  85 122 159 196 241 298 364
#     4   8  16  28  49  80 115 155 198 240 288 351
#     4  11  22  40  63  94 126 157 204 258 310 360
#     4  10  20  36  58  87 122 158 192 246 309 361
#     4  11  25  44  65  89 123 161 207 260 309 376
#     4  11  21  41  65  89 122 166 202 250 315 368
#     4  11  25  43  66  90 116 160 213 256 303 369
#
# _framework density 20.031542000000002
#
# number of rings (size 3 to 8) (size 9 to 14) (size 15 to 20)
#    0.000    2.000    2.500    1.125    1.750    2.250 
#    0.000    3.125    0.000    2.250    0.000    0.000 
#    0.000    0.000    0.000    0.000    0.000    0.000 
#
# Total GULP energy -356809.133726 kJ/mol
# GULP energy per Si atom -5575.142714 kJ/mol
# Density = 1.998595 g / cm^3
# Si number density = 20.031542 Si / 1000 Ang^3
#
#
#
# Elastic Constant Matrix: (Units=GPa)
#
#
# Indices 1 2 3 4 5 6 
#
# 1 37.3044 -5.4444 -14.7075 0.0000 0.0000 0.0000
# 2 -5.4444 38.8674 5.2156 0.0000 0.0000 0.0000
# 3 -14.7075 5.2156 26.7746 0.0000 0.0000 0.0000
# 4 0.0000 0.0000 0.0000 20.2803 0.0000 0.0000
# 5 0.0000 0.0000 0.0000 0.0000 24.9524 0.0000
# 6 0.0000 0.0000 0.0000 0.0000 0.0000 27.0024
#
#
#
# Elastic Compliance Matrix: (Units=1/GPa)
#
#
# Indices 1 2 3 4 5 6 
#
# 1 0.034424 0.002346 0.018452 0.000000 0.000000 0.000000
# 2 0.002346 0.026579 -0.003889 0.000000 0.000000 0.000000
# 3 0.018452 -0.003889 0.048242 0.000000 0.000000 0.000000
# 4 0.000000 0.000000 0.000000 0.049309 0.000000 0.000000
# 5 0.000000 0.000000 0.000000 0.000000 0.040076 0.000000
# 6 0.000000 0.000000 0.000000 0.000000 0.000000 0.037034
#
#
# Mechanical properties :
#
#
# Convention : Reuss Voigt Hill
#
# Bulk Modulus (GPa) = 6.98989 8.11931 7.55460
# Shear Modulus (GPa) = 20.03738 22.30585 21.17162
#
# Velocity S-wave (km/s) = 3.16617 3.34059 3.25455
# Velocity P-wave (km/s) = 4.10648 4.35218 4.23111
#
# Compressibility (1/GPa) = 0.14306368
#
# Stress axis : x y z
#
# Youngs Moduli (GPa) = 29.04966 37.62377 20.72865
#
# Poissons Ratio (x) = -0.08826 -0.38249
# Poissons Ratio (y) = -0.06815 0.08061
# Poissons Ratio (z) = -0.53603 0.14632
#
# Static dielectric constant tensor:
#      x y z
#    x 1.695800 0.000000 0.000000 
#    y 0.000000 1.732110 0.000000 
#    z 0.000000 0.000000 1.732140 
# 
# From -- ./inp_files/19543.got.cif
#   From: 2010.05.17/outbox.cif.g08.bks.cpg/sg55_10_cif.got.tgz:19543.got - 2010.06.03 13:27:54.
