data_PCOD9427926
_publ_section_title
;
Structure prediction by ZEFSAII (Michael W. Deem and Ramdas Pophale) SiO2 
 PCOD9427926
Probable space group: P B A M
;
_chemical_formula_sum "Si O2"
_cell_formula_units_Z 48
_cell_length_a 12.065677
_cell_length_b 22.331359
_cell_length_c 9.011199
_cell_angle_alpha 90.000000
_cell_angle_beta 90.000000
_cell_angle_gamma 90.000000
_cell_volume 2428.004174
_symmetry_space_group_name_H-M "P B A M"
_symmetry_group_IT_number 55
_symmetry_cell_setting 'orthorhombic'
loop_
_space_group_symop_operation_xyz
x,y,z
-x,-y,z
1/2+x,1/2-y,-z
1/2-x,1/2+y,-z
-x,-y,-z
x,y,-z
1/2-x,1/2+y,z
1/2+x,1/2-y,z
loop_
_atom_site_type_symbol
_atom_site_label
_atom_site_fract_x
_atom_site_fract_y
_atom_site_fract_z
Si Si1 0.449365 0.664338 0.834486
Si Si2 0.491214 0.070356 0.321293
Si Si3 0.090012 0.956987 0.831936
Si Si4 0.211571 0.382470 0.179437
Si Si5 0.722499 0.856405 0.326622
Si Si6 0.856287 0.220012 0.327474
O O1 0.527420 0.606167 0.843156
O O2 0.334327 0.643433 0.766323
O O3 0.520209 0.709482 0.734696
O O4 0.433507 0.688750 0.000000
O O5 0.501839 0.077629 0.500000
O O6 0.590095 0.106166 0.242494
O O7 0.372107 0.097371 0.277949
O O8 0.500000 0.000000 0.286209
O O9 0.209126 0.938253 0.769057
O O10 0.109166 0.981130 0.000000
O O11 0.000000 0.000000 0.755621
O O12 0.269310 0.322085 0.240029
O O13 0.212918 0.381512 0.000000
O O14 0.747950 0.867941 0.500000
O O15 0.674886 0.789233 0.314614
O O16 0.852813 0.202412 0.500000
#
# Coordination Sequence:
#
# PCOD9427926 Si02
#       6
#     8   8   8   8   8   8
#     4  10  21  36  58  88 118 146 188 246 296 343
#     4  10  23  42  61  85 122 165 206 246 295 361
#     4   8  16  32  54  80 112 147 180 225 286 345
#     4  10  21  37  60  89 119 152 196 249 301 351
#     4  10  23  40  60  84 115 159 198 237 293 358
#     4  10  21  39  62  85 116 157 197 239 297 363
#
# _framework density 19.769323
#
# number of rings (size 3 to 8) (size 9 to 14) (size 15 to 20)
#    0.000    2.333    0.000    2.500    4.667    2.333 
#    0.000    0.000    0.000    3.000    0.000    0.000 
#    0.000    0.000    0.000    0.000    0.000    0.000 
#
# Total GULP energy -267773.841022 kJ/mol
# GULP energy per Si atom -5578.621688 kJ/mol
# Density = 1.972433 g / cm^3
# Si number density = 19.769323 Si / 1000 Ang^3
#
#
#
# Elastic Constant Matrix: (Units=GPa)
#
#
# Indices 1 2 3 4 5 6 
#
# 1 131.0725 14.6936 50.3195 0.0000 0.0000 0.0000
# 2 14.6936 33.9368 23.4278 0.0000 0.0000 0.0000
# 3 50.3195 23.4278 63.2184 0.0000 0.0000 0.0000
# 4 0.0000 0.0000 0.0000 11.3536 0.0000 0.0000
# 5 0.0000 0.0000 0.0000 0.0000 -6.8907 0.0000
# 6 0.0000 0.0000 0.0000 0.0000 0.0000 9.8300
#
#
#
# Elastic Compliance Matrix: (Units=1/GPa)
#
#
# Indices 1 2 3 4 5 6 
#
# 1 0.011062 0.001732 -0.009447 0.000000 0.000000 0.000000
# 2 0.001732 0.039868 -0.016153 0.000000 0.000000 0.000000
# 3 -0.009447 -0.016153 0.029323 0.000000 0.000000 0.000000
# 4 0.000000 0.000000 0.000000 0.088078 0.000000 0.000000
# 5 0.000000 0.000000 0.000000 0.000000 -0.145123 0.000000
# 6 0.000000 0.000000 0.000000 0.000000 0.000000 0.101730
#
#
# Mechanical properties :
#
#
# Convention : Reuss Voigt Hill
#
# Bulk Modulus (GPa) = 30.75259 45.01217 37.88238
# Shear Modulus (GPa) = 27.24616 12.17769 19.71192
#
# Velocity S-wave (km/s) = 3.71644 2.48461 3.16111
# Velocity P-wave (km/s) = 5.83142 5.57218 5.70327
#
# Compressibility (1/GPa) = 0.03251759
#
# Stress axis : x y z
#
# Youngs Moduli (GPa) = 90.40100 25.08305 34.10254
#
# Poissons Ratio (x) = -0.04344 0.32215
# Poissons Ratio (y) = -0.15657 0.55085
# Poissons Ratio (z) = 0.85398 0.40516
#
# Static dielectric constant tensor:
#      x y z
#    x 1.701820 0.000000 0.000000 
#    y 0.000000 1.700700 0.000000 
#    z 0.000000 0.000000 1.688100 
# 
# From -- ./inp_files/4083.got.cif
#   From: 2010.05.17/outbox.cif.g08.bks.cpg/sg55_3_cif.got.tgz:4083.got - 2010.06.03 13:27:54.
