data_PCOD9427065
_publ_section_title
;
Structure prediction by ZEFSAII (Michael W. Deem and Ramdas Pophale) SiO2 
 PCOD9427065
Probable space group: P B A M
;
_chemical_formula_sum "Si O2"
_cell_formula_units_Z 46
_cell_length_a 12.415764
_cell_length_b 26.329511
_cell_length_c 7.377852
_cell_angle_alpha 90.000000
_cell_angle_beta 90.000000
_cell_angle_gamma 90.000000
_cell_volume 2411.827158
_symmetry_space_group_name_H-M "P B A M"
_symmetry_group_IT_number 55
_symmetry_cell_setting 'orthorhombic'
loop_
_space_group_symop_operation_xyz
x,y,z
-x,-y,z
1/2+x,1/2-y,-z
1/2-x,1/2+y,-z
-x,-y,-z
x,y,-z
1/2-x,1/2+y,z
1/2+x,1/2-y,z
loop_
_atom_site_type_symbol
_atom_site_label
_atom_site_fract_x
_atom_site_fract_y
_atom_site_fract_z
Si Si1 0.332335 0.182127 0.716391
Si Si2 0.369848 0.300677 0.283304
Si Si3 0.094105 0.148520 0.280368
Si Si4 0.500000 0.000000 0.000000
Si Si5 0.390659 0.531506 0.286740
Si Si6 0.772107 0.641966 0.000000
Si Si7 0.972881 0.377991 0.000000
Si Si8 0.249765 0.975456 0.000000
O O1 0.340193 0.172687 0.500000
O O2 0.362783 0.240597 0.750454
O O3 0.208205 0.172677 0.773203
O O4 0.411092 0.145649 0.827104
O O5 0.358143 0.308874 0.500000
O O6 0.486028 0.322521 0.223258
O O7 0.276459 0.329105 0.173706
O O8 0.091893 0.149708 0.500000
O O9 0.093247 0.089510 0.225959
O O10 0.463410 0.061428 0.000000
O O11 0.624026 0.017603 0.000000
O O12 0.500000 0.500000 0.261882
O O13 0.364067 0.532061 0.500000
O O14 0.300738 0.503009 0.173258
O O15 0.726936 0.584512 0.000000
O O16 0.901650 0.638899 0.000000
#
# Coordination Sequence:
#
# PCOD9427065 Si02
#       8
#     8   8   8   2   8   4   4   4
#     4  10  22  40  64  88 116 157 200 247 297 353
#     4  10  22  40  61  86 123 156 190 247 305 354
#     4   9  19  36  59  89 115 149 201 244 296 362
#     4  10  24  44  60  82 124 166 202 254 286 336
#     4  10  20  35  59  88 119 150 191 249 304 355
#     4  11  25  38  57  90 120 156 203 240 287 366
#     4  11  24  42  61  88 122 158 208 247 290 350
#     4  11  22  39  59  83 117 160 203 239 295 350
#
# _framework density 19.072678
#
# number of rings (size 3 to 8) (size 9 to 14) (size 15 to 20)
#    0.000    1.913    0.000    2.870    2.435    4.174 
#    0.000    3.478    0.000    0.000    0.000    0.000 
#    0.000    0.000    0.000    0.000    0.000    0.000 
#
# Total GULP energy -256498.051329 kJ/mol
# GULP energy per Si atom -5576.044594 kJ/mol
# Density = 1.902927 g / cm^3
# Si number density = 19.072678 Si / 1000 Ang^3
#
#
#
# Elastic Constant Matrix: (Units=GPa)
#
#
# Indices 1 2 3 4 5 6 
#
# 1 84.6716 55.3541 39.1774 0.0000 0.0000 0.0000
# 2 55.3541 165.2930 54.7733 0.0000 0.0000 0.0000
# 3 39.1774 54.7733 71.2611 0.0000 0.0000 0.0000
# 4 0.0000 0.0000 0.0000 -5.3282 0.0000 0.0000
# 5 0.0000 0.0000 0.0000 0.0000 15.0413 0.0000
# 6 0.0000 0.0000 0.0000 0.0000 0.0000 28.0180
#
#
#
# Elastic Compliance Matrix: (Units=1/GPa)
#
#
# Indices 1 2 3 4 5 6 
#
# 1 0.017253 -0.003535 -0.006768 0.000000 0.000000 0.000000
# 2 -0.003535 0.008842 -0.004853 0.000000 0.000000 0.000000
# 3 -0.006768 -0.004853 0.021484 0.000000 0.000000 0.000000
# 4 0.000000 0.000000 0.000000 -0.187681 0.000000 0.000000
# 5 0.000000 0.000000 0.000000 0.000000 0.066483 0.000000
# 6 0.000000 0.000000 0.000000 0.000000 0.000000 0.035691
#
#
# Mechanical properties :
#
#
# Convention : Reuss Voigt Hill
#
# Bulk Modulus (GPa) = 57.91399 68.87058 63.39228
# Shear Modulus (GPa) = -2686.67309 19.00763 -1333.83273
#
# Velocity S-wave (km/s) = -37.57271 3.16031 -26.47377
# Velocity P-wave (km/s) = 43.03309 7.03595 30.01951
#
# Compressibility (1/GPa) = 0.01726699
#
# Stress axis : x y z
#
# Youngs Moduli (GPa) = 57.96122 113.10103 46.54718
#
# Poissons Ratio (x) = 0.39981 0.31504
# Poissons Ratio (y) = 0.20489 0.22587
# Poissons Ratio (z) = 0.39229 0.54882
#
# Static dielectric constant tensor:
#      x y z
#    x 1.616430 0.000000 0.000000 
#    y 0.000000 1.636860 0.000000 
#    z 0.000000 0.000000 1.696640 
# 
# From -- ./inp_files/4149.got.cif
#   From: 2010.05.17/outbox.cif.g08.bks.cpg/sg55_3_cif.got.tgz:4149.got - 2010.06.03 13:27:54.
