data_PCOD9427525
_publ_section_title
;
Structure prediction by ZEFSAII (Michael W. Deem and Ramdas Pophale) SiO2 
 PCOD9427525
Probable space group: P B A M
;
_chemical_formula_sum "Si O2"
_cell_formula_units_Z 28
_cell_length_a 25.733982
_cell_length_b 5.032097
_cell_length_c 11.322677
_cell_angle_alpha 90.000000
_cell_angle_beta 90.000000
_cell_angle_gamma 90.000000
_cell_volume 1466.240176
_symmetry_space_group_name_H-M "P B A M"
_symmetry_group_IT_number 55
_symmetry_cell_setting 'orthorhombic'
loop_
_space_group_symop_operation_xyz
x,y,z
-x,-y,z
1/2+x,1/2-y,-z
1/2-x,1/2+y,-z
-x,-y,-z
x,y,-z
1/2-x,1/2+y,z
1/2+x,1/2-y,z
loop_
_atom_site_type_symbol
_atom_site_label
_atom_site_fract_x
_atom_site_fract_y
_atom_site_fract_z
Si Si1 0.219483 0.638520 0.356529
Si Si2 0.461804 0.251079 0.000000
Si Si3 0.941632 0.117323 0.744070
Si Si4 0.609325 0.104526 0.639138
O O1 0.218329 0.643106 0.500000
O O2 0.264331 0.432345 0.319263
O O3 0.163830 0.524837 0.320603
O O4 0.500000 0.500000 0.000000
O O5 0.431685 0.275665 0.123070
O O6 0.500000 0.000000 0.000000
O O7 0.932594 0.371855 0.661374
O O8 0.905220 0.872843 0.706947
O O9 0.000000 0.000000 0.736874
O O10 0.612830 0.167721 0.500000
#
# Coordination Sequence:
#
# PCOD9427525 Si02
#       4
#     8   4   8   8
#     4   9  17  31  50  72 101 136 174 215 254 301
#     4  10  20  38  58  74  96 136 192 232 248 282
#     4  11  22  36  54  77 107 143 179 218 260 309
#     4  11  22  34  52  82 113 140 172 210 268 334
#
# _framework density 19.096463
#
# number of rings (size 3 to 8) (size 9 to 14) (size 15 to 20)
#    0.000    1.714    0.000    6.857    0.000    8.000 
#    0.000    0.000    0.000    0.000    0.000   20.000 
#    0.000    0.000    0.000    0.000    0.000    0.000 
#
# Total GULP energy -156260.448266 kJ/mol
# GULP energy per Si atom -5580.730295 kJ/mol
# Density = 1.905300 g / cm^3
# Si number density = 19.096463 Si / 1000 Ang^3
#
#
#
# Elastic Constant Matrix: (Units=GPa)
#
#
# Indices 1 2 3 4 5 6 
#
# 1 47.2640 -1.3262 15.1656 0.0000 0.0000 0.0000
# 2 -1.3262 99.0690 5.2608 0.0000 0.0000 0.0000
# 3 15.1656 5.2608 46.0410 0.0000 0.0000 0.0000
# 4 0.0000 0.0000 0.0000 27.8632 0.0000 0.0000
# 5 0.0000 0.0000 0.0000 0.0000 -1.4441 0.0000
# 6 0.0000 0.0000 0.0000 0.0000 0.0000 34.2802
#
#
#
# Elastic Compliance Matrix: (Units=1/GPa)
#
#
# Indices 1 2 3 4 5 6 
#
# 1 0.023712 0.000737 -0.007895 0.000000 0.000000 0.000000
# 2 0.000737 0.010178 -0.001406 0.000000 0.000000 0.000000
# 3 -0.007895 -0.001406 0.024481 0.000000 0.000000 0.000000
# 4 0.000000 0.000000 0.000000 0.035890 0.000000 0.000000
# 5 0.000000 0.000000 0.000000 0.000000 -0.692467 0.000000
# 6 0.000000 0.000000 0.000000 0.000000 0.000000 0.029171
#
#
# Mechanical properties :
#
#
# Convention : Reuss Voigt Hill
#
# Bulk Modulus (GPa) = 24.24620 25.61939 24.93280
# Shear Modulus (GPa) = -9.29092 23.69145 7.20027
#
# Velocity S-wave (km/s) = -2.20813 3.52606 1.94388
# Velocity P-wave (km/s) = 2.49463 5.47927 4.25709
#
# Compressibility (1/GPa) = 0.04124357
#
# Stress axis : x y z
#
# Youngs Moduli (GPa) = 42.17356 98.24650 40.84827
#
# Poissons Ratio (x) = -0.07237 0.32248
# Poissons Ratio (y) = -0.03107 0.05742
# Poissons Ratio (z) = 0.33294 0.13810
#
# Static dielectric constant tensor:
#      x y z
#    x 1.700530 0.000000 0.000000 
#    y 0.000000 1.651220 0.000000 
#    z 0.000000 0.000000 1.702880 
# 
# From -- ./inp_files/9924.got.cif
#   From: 2010.05.17/outbox.cif.g08.bks.cpg/sg55_5_cif.got.tgz:9924.got - 2010.06.03 13:27:54.
