data_PCOD9427181
_publ_section_title
;
Structure prediction by ZEFSAII (Michael W. Deem and Ramdas Pophale) SiO2 
 PCOD9427181
Probable space group: P B A M
;
_chemical_formula_sum "Si O2"
_cell_formula_units_Z 56
_cell_length_a 16.962176
_cell_length_b 20.359520
_cell_length_c 8.647636
_cell_angle_alpha 90.000000
_cell_angle_beta 90.000000
_cell_angle_gamma 90.000000
_cell_volume 2986.389849
_symmetry_space_group_name_H-M "P B A M"
_symmetry_group_IT_number 55
_symmetry_cell_setting 'orthorhombic'
loop_
_space_group_symop_operation_xyz
x,y,z
-x,-y,z
1/2+x,1/2-y,-z
1/2-x,1/2+y,-z
-x,-y,-z
x,y,-z
1/2-x,1/2+y,z
1/2+x,1/2-y,z
loop_
_atom_site_type_symbol
_atom_site_label
_atom_site_fract_x
_atom_site_fract_y
_atom_site_fract_z
Si Si1 0.350423 0.647213 0.813816
Si Si2 0.932626 0.448461 0.186906
Si Si3 0.980228 0.168980 0.686250
Si Si4 0.245827 0.523773 0.812866
Si Si5 0.821375 0.703502 0.185680
Si Si6 0.991887 0.680899 0.314667
Si Si7 0.814047 0.111001 0.685518
O O1 0.438978 0.639611 0.751875
O O2 0.292817 0.589071 0.763482
O O3 0.321124 0.719803 0.766457
O O4 0.352990 0.646833 0.000000
O O5 0.845615 0.471513 0.234875
O O6 0.953817 0.377134 0.252173
O O7 0.000000 0.500000 0.235826
O O8 0.933857 0.445043 0.000000
O O9 0.983885 0.166426 0.500000
O O10 0.978344 0.246203 0.730712
O O11 0.901626 0.131806 0.737788
O O12 0.287478 0.459491 0.747398
O O13 0.247412 0.520563 0.000000
O O14 0.748701 0.664055 0.254573
O O15 0.904118 0.674188 0.245237
O O16 0.819663 0.699540 0.000000
O O17 0.987669 0.678022 0.500000
O O18 0.813175 0.110609 0.500000
#
# Coordination Sequence:
#
# PCOD9427181 Si02
#       7
#     8   8   8   8   8   8   8
#     4   9  20  38  59  84 112 148 194 240 287 340
#     4  10  21  36  56  82 116 153 188 232 288 343
#     4   9  21  39  57  82 115 149 187 236 288 338
#     4  10  22  39  57  83 118 152 192 241 290 341
#     4  10  20  36  59  85 114 149 189 235 288 339
#     4  10  20  36  58  84 113 147 189 234 282 340
#     4  11  23  38  57  84 116 151 192 234 286 346
#
# _framework density 18.751739000000001
#
# number of rings (size 3 to 8) (size 9 to 14) (size 15 to 20)
#    0.000    2.143    0.000    2.143    2.000    5.429 
#    0.000    2.857    0.000    0.000    0.000    0.000 
#    0.000    0.000    0.000    0.000    0.000    0.000 
#
# Total GULP energy -312796.944689 kJ/mol
# GULP energy per Si atom -5585.659727 kJ/mol
# Density = 1.870906 g / cm^3
# Si number density = 18.751739 Si / 1000 Ang^3
#
#
#
# Elastic Constant Matrix: (Units=GPa)
#
#
# Indices 1 2 3 4 5 6 
#
# 1 48.2800 57.0797 6.3547 0.0000 0.0000 0.0000
# 2 57.0797 89.9000 16.6544 0.0000 0.0000 0.0000
# 3 6.3547 16.6544 11.3173 0.0000 0.0000 0.0000
# 4 0.0000 0.0000 0.0000 26.9888 0.0000 0.0000
# 5 0.0000 0.0000 0.0000 0.0000 26.3466 0.0000
# 6 0.0000 0.0000 0.0000 0.0000 0.0000 36.5738
#
#
#
# Elastic Compliance Matrix: (Units=1/GPa)
#
#
# Indices 1 2 3 4 5 6 
#
# 1 0.101258 -0.073906 0.051903 0.000000 0.000000 0.000000
# 2 -0.073906 0.069236 -0.060388 0.000000 0.000000 0.000000
# 3 0.051903 -0.060388 0.148082 0.000000 0.000000 0.000000
# 4 0.000000 0.000000 0.000000 0.037052 0.000000 0.000000
# 5 0.000000 0.000000 0.000000 0.000000 0.037956 0.000000
# 6 0.000000 0.000000 0.000000 0.000000 0.000000 0.027342
#
#
# Mechanical properties :
#
#
# Convention : Reuss Voigt Hill
#
# Bulk Modulus (GPa) = 6.50219 34.40832 20.45526
# Shear Modulus (GPa) = 7.84964 22.60908 15.22936
#
# Velocity S-wave (km/s) = 2.04821 3.47609 2.85293
# Velocity P-wave (km/s) = 3.01141 5.87369 4.66738
#
# Compressibility (1/GPa) = 0.15379434
#
# Stress axis : x y z
#
# Youngs Moduli (GPa) = 9.87579 14.44346 6.75300
#
# Poissons Ratio (x) = 1.06746 -0.35050
# Poissons Ratio (y) = 0.72988 0.40780
# Poissons Ratio (z) = -0.51259 0.87221
#
# Static dielectric constant tensor:
#      x y z
#    x 1.623770 0.000000 0.000000 
#    y 0.000000 1.635770 0.000000 
#    z 0.000000 0.000000 1.635380 
# 
# From -- ./inp_files/5974.got.cif
#   From: 2010.05.17/outbox.cif.g08.bks.cpg/sg55_3_cif.got.tgz:5974.got - 2010.06.03 13:27:54.
