data_PCOD9427418
_publ_section_title
;
Structure prediction by ZEFSAII (Michael W. Deem and Ramdas Pophale) SiO2 
 PCOD9427418
Probable space group: P B A M
;
_chemical_formula_sum "Si O2"
_cell_formula_units_Z 64
_cell_length_a 12.664576
_cell_length_b 28.020430
_cell_length_c 9.240871
_cell_angle_alpha 90.000000
_cell_angle_beta 90.000000
_cell_angle_gamma 90.000000
_cell_volume 3279.278924
_symmetry_space_group_name_H-M "P B A M"
_symmetry_group_IT_number 55
_symmetry_cell_setting 'orthorhombic'
loop_
_space_group_symop_operation_xyz
x,y,z
-x,-y,z
1/2+x,1/2-y,-z
1/2-x,1/2+y,-z
-x,-y,-z
x,y,-z
1/2-x,1/2+y,z
1/2+x,1/2-y,z
loop_
_atom_site_type_symbol
_atom_site_label
_atom_site_fract_x
_atom_site_fract_y
_atom_site_fract_z
Si Si1 0.824966 0.707502 0.667818
Si Si2 0.041540 0.650770 0.674357
Si Si3 0.255196 0.950989 0.329410
Si Si4 0.527512 0.055560 0.173254
Si Si5 0.266115 0.202236 0.833458
Si Si6 0.599886 0.468793 0.673179
Si Si7 0.379197 0.359224 0.336140
Si Si8 0.574599 0.371094 0.163552
O O1 0.836571 0.723242 0.500000
O O2 0.790367 0.751500 0.766230
O O3 0.726281 0.671540 0.674862
O O4 0.931674 0.678924 0.706276
O O5 0.050370 0.646170 0.500000
O O6 0.136341 0.682359 0.739613
O O7 0.036813 0.598004 0.747076
O O8 0.286450 0.948898 0.500000
O O9 0.352859 0.938220 0.229392
O O10 0.160248 0.913253 0.312519
O O11 0.206786 0.002399 0.294250
O O12 0.500000 0.000000 0.209105
O O13 0.518171 0.061181 0.000000
O O14 0.176003 0.162118 0.833408
O O15 0.299333 0.210903 0.000000
O O16 0.500000 0.500000 0.723560
O O17 0.592275 0.465154 0.500000
O O18 0.596257 0.417347 0.741529
O O19 0.420140 0.355208 0.500000
O O20 0.471285 0.345582 0.227767
O O21 0.552517 0.385910 0.000000
#
# Coordination Sequence:
#
# PCOD9427418 Si02
#       8
#     8   8   8   8   8   8   8   8
#     4  10  23  44  70  97 122 158 211 269 319 372
#     4  11  24  46  72  98 128 166 221 272 317 379
#     4  10  20  38  62  90 122 162 213 261 311 373
#     4  11  25  42  62  92 132 173 212 261 324 387
#     4  11  27  46  64  93 133 170 207 258 323 384
#     4  10  20  37  60  87 121 163 206 252 307 363
#     4  10  20  40  66  92 124 158 205 264 312 370
#     4  11  25  41  59  90 130 169 210 256 313 380
#
# _framework density 19.516487000000001
#
# number of rings (size 3 to 8) (size 9 to 14) (size 15 to 20)
#    0.000    1.500    2.500    1.500    3.500    5.750 
#    0.000    0.000    0.000    0.000    0.000    0.000 
#    0.000    0.000    0.000    0.000    0.000    0.000 
#
# Total GULP energy -357469.794561 kJ/mol
# GULP energy per Si atom -5585.465540 kJ/mol
# Density = 1.947207 g / cm^3
# Si number density = 19.516487 Si / 1000 Ang^3
#
#
#
# Elastic Constant Matrix: (Units=GPa)
#
#
# Indices 1 2 3 4 5 6 
#
# 1 62.8518 17.2491 34.4046 0.0000 0.0000 0.0000
# 2 17.2491 90.8889 39.8437 0.0000 0.0000 0.0000
# 3 34.4046 39.8437 55.7767 0.0000 0.0000 0.0000
# 4 0.0000 0.0000 0.0000 24.9540 0.0000 0.0000
# 5 0.0000 0.0000 0.0000 0.0000 27.6265 0.0000
# 6 0.0000 0.0000 0.0000 0.0000 0.0000 21.1421
#
#
#
# Elastic Compliance Matrix: (Units=1/GPa)
#
#
# Indices 1 2 3 4 5 6 
#
# 1 0.024528 0.002879 -0.017186 0.000000 0.000000 0.000000
# 2 0.002879 0.016357 -0.013460 0.000000 0.000000 0.000000
# 3 -0.017186 -0.013460 0.038145 0.000000 0.000000 0.000000
# 4 0.000000 0.000000 0.000000 0.040074 0.000000 0.000000
# 5 0.000000 0.000000 0.000000 0.000000 0.036197 0.000000
# 6 0.000000 0.000000 0.000000 0.000000 0.000000 0.047299
#
#
# Mechanical properties :
#
#
# Convention : Reuss Voigt Hill
#
# Bulk Modulus (GPa) = 42.56260 43.61246 43.08753
# Shear Modulus (GPa) = 18.79945 22.61252 20.70599
#
# Velocity S-wave (km/s) = 3.10701 3.40757 3.26075
# Velocity P-wave (km/s) = 5.89298 6.15443 6.02512
#
# Compressibility (1/GPa) = 0.02349481
#
# Stress axis : x y z
#
# Youngs Moduli (GPa) = 40.76998 61.13703 26.21595
#
# Poissons Ratio (x) = -0.17602 0.45055
# Poissons Ratio (y) = -0.11738 0.35287
# Poissons Ratio (z) = 0.70068 0.82292
#
# Static dielectric constant tensor:
#      x y z
#    x 1.678810 0.000000 0.000000 
#    y 0.000000 1.708640 0.000000 
#    z 0.000000 0.000000 1.670560 
# 
# From -- ./inp_files/4527.got.cif
#   From: 2010.05.17/outbox.cif.g08.bks.cpg/sg55_3_cif.got.tgz:4527.got - 2010.06.03 13:27:54.
