data_PCOD9427880
_publ_section_title
;
Structure prediction by ZEFSAII (Michael W. Deem and Ramdas Pophale) SiO2 
 PCOD9427880
Probable space group: P B A M
;
_chemical_formula_sum "Si O2"
_cell_formula_units_Z 34
_cell_length_a 10.543123
_cell_length_b 4.730501
_cell_length_c 25.974327
_cell_angle_alpha 90.000000
_cell_angle_beta 90.000000
_cell_angle_gamma 90.000000
_cell_volume 1295.450180
_symmetry_space_group_name_H-M "P B A M"
_symmetry_group_IT_number 55
_symmetry_cell_setting 'orthorhombic'
loop_
_space_group_symop_operation_xyz
x,y,z
-x,-y,z
1/2+x,1/2-y,-z
1/2-x,1/2+y,-z
-x,-y,-z
x,y,-z
1/2-x,1/2+y,z
1/2+x,1/2-y,z
loop_
_atom_site_type_symbol
_atom_site_label
_atom_site_fract_x
_atom_site_fract_y
_atom_site_fract_z
Si Si1 0.340475 0.831794 0.555259
Si Si2 0.835924 0.802836 0.334958
Si Si3 0.500000 0.500000 0.819046
Si Si4 0.500000 0.500000 0.000000
Si Si5 0.500000 0.000000 0.249900
Si Si6 0.333974 0.760562 0.907496
O O1 0.403461 0.772872 0.500000
O O2 0.209878 0.650383 0.555669
O O3 0.400969 0.760191 0.609926
O O4 0.703436 0.627945 0.333784
O O5 0.910761 0.684245 0.286867
O O6 0.439058 0.246386 0.785426
O O7 0.400189 0.661781 0.855208
O O8 0.580995 0.331164 0.044856
O O9 0.201192 0.588899 0.910555
#
# Coordination Sequence:
#
# PCOD9427880 Si02
#       6
#     8   8   4   2   4   8
#     4   8  14  27  48  73 102 137 177 225 285 352
#     4  10  21  36  56  81 110 147 189 238 298 354
#     4  11  26  41  60  88 119 156 205 246 284 340
#     4  10  24  42  68 104 132 158 198 242 286 344
#     4  12  24  40  59  85 116 152 200 252 290 340
#     4  11  24  43  67  94 127 164 199 239 290 341
#
# _framework density 26.245702999999999
#
# number of rings (size 3 to 8) (size 9 to 14) (size 15 to 20)
#    0.000    1.882    0.000    3.529    0.000    9.412 
#    0.000    0.588    0.000    0.000    0.000   18.118 
#    0.000    0.000    0.000    0.000    0.000    0.000 
#
# Total GULP energy -189864.257150 kJ/mol
# GULP energy per Si atom -5584.242857 kJ/mol
# Density = 2.618597 g / cm^3
# Si number density = 26.245703 Si / 1000 Ang^3
#
#
#
# Elastic Constant Matrix: (Units=GPa)
#
#
# Indices 1 2 3 4 5 6 
#
# 1 51.2081 12.3374 25.6964 0.0000 0.0000 0.0000
# 2 12.3374 101.2933 31.4421 0.0000 0.0000 0.0000
# 3 25.6964 31.4421 178.1779 0.0000 0.0000 0.0000
# 4 0.0000 0.0000 0.0000 94.4900 0.0000 0.0000
# 5 0.0000 0.0000 0.0000 0.0000 -2.0163 0.0000
# 6 0.0000 0.0000 0.0000 0.0000 0.0000 47.1688
#
#
#
# Elastic Compliance Matrix: (Units=1/GPa)
#
#
# Indices 1 2 3 4 5 6 
#
# 1 0.021337 -0.001739 -0.002770 0.000000 0.000000 0.000000
# 2 -0.001739 0.010586 -0.001617 0.000000 0.000000 0.000000
# 3 -0.002770 -0.001617 0.006297 0.000000 0.000000 0.000000
# 4 0.000000 0.000000 0.000000 0.010583 0.000000 0.000000
# 5 0.000000 0.000000 0.000000 0.000000 -0.495957 0.000000
# 6 0.000000 0.000000 0.000000 0.000000 0.000000 0.021200
#
#
# Mechanical properties :
#
#
# Convention : Reuss Voigt Hill
#
# Bulk Modulus (GPa) = 38.50955 52.18123 45.34539
# Shear Modulus (GPa) = -12.34435 45.34206 16.49885
#
# Velocity S-wave (km/s) = -2.17108 4.16095 2.50997
# Velocity P-wave (km/s) = 2.90168 6.55817 5.07097
#
# Compressibility (1/GPa) = 0.02596758
#
# Stress axis : x y z
#
# Youngs Moduli (GPa) = 46.86629 94.46316 158.79829
#
# Poissons Ratio (x) = 0.16426 0.43993
# Poissons Ratio (y) = 0.08150 0.25682
# Poissons Ratio (z) = 0.12984 0.15277
#
# Static dielectric constant tensor:
#      x y z
#    x 2.084280 0.000000 0.000000 
#    y 0.000000 1.990360 0.000000 
#    z 0.000000 0.000000 2.056800 
# 
# From -- ./inp_files/23539.got.cif
#   From: 2010.05.17/outbox.cif.g08.bks.cpg/sg55_12_cif.got.tgz:23539.got - 2010.06.03 13:27:54.
