data_PCOD9427083
_publ_section_title
;
Structure prediction by ZEFSAII (Michael W. Deem and Ramdas Pophale) SiO2 
 PCOD9427083
Probable space group: P B A M
;
_chemical_formula_sum "Si O2"
_cell_formula_units_Z 34
_cell_length_a 23.923399
_cell_length_b 6.881425
_cell_length_c 7.611508
_cell_angle_alpha 90.000000
_cell_angle_beta 90.000000
_cell_angle_gamma 90.000000
_cell_volume 1253.060306
_symmetry_space_group_name_H-M "P B A M"
_symmetry_group_IT_number 55
_symmetry_cell_setting 'orthorhombic'
loop_
_space_group_symop_operation_xyz
x,y,z
-x,-y,z
1/2+x,1/2-y,-z
1/2-x,1/2+y,-z
-x,-y,-z
x,y,-z
1/2-x,1/2+y,z
1/2+x,1/2-y,z
loop_
_atom_site_type_symbol
_atom_site_label
_atom_site_fract_x
_atom_site_fract_y
_atom_site_fract_z
Si Si1 0.294218 0.926636 0.305072
Si Si2 0.942254 0.914699 0.212989
Si Si3 0.825341 0.986477 0.202527
Si Si4 0.586133 0.971621 0.295548
Si Si5 0.000000 0.500000 0.000000
O O1 0.285950 0.006984 0.500000
O O2 0.314588 0.706724 0.311423
O O3 0.348510 0.040115 0.231475
O O4 0.233461 0.905307 0.218113
O O5 0.888154 0.051495 0.248631
O O6 0.927776 0.704663 0.290101
O O7 0.948058 0.879193 0.000000
O O8 0.000000 0.000000 0.278720
O O9 0.829771 0.925478 0.000000
O O10 0.581423 0.911228 0.500000
O O11 0.541118 0.903502 0.153607
#
# Coordination Sequence:
#
# PCOD9427083 Si02
#       5
#     8   8   8   8   2
#     4  10  21  39  59  84 119 155 198 247 300 355
#     4   9  18  37  61  86 117 156 200 244 298 356
#     4  10  20  35  61  87 115 155 199 246 297 357
#     4  10  22  39  61  86 118 161 197 240 301 356
#     4  12  22  40  62  82 120 156 196 246 286 360
#
# _framework density 27.133571
#
# number of rings (size 3 to 8) (size 9 to 14) (size 15 to 20)
#    0.000    2.118    1.176    1.765    3.294    1.412 
#    4.235    0.000    0.000    0.000    0.000    0.000 
#    0.000    0.000    0.000    0.000    0.000    0.000 
#
# Total GULP energy -189431.520684 kJ/mol
# GULP energy per Si atom -5571.515314 kJ/mol
# Density = 2.707181 g / cm^3
# Si number density = 27.133571 Si / 1000 Ang^3
#
#
#
# Elastic Constant Matrix: (Units=GPa)
#
#
# Indices 1 2 3 4 5 6 
#
# 1 283.8943 34.7482 76.8680 0.0000 0.0000 0.0000
# 2 34.7482 33.6991 -2.3584 0.0000 0.0000 0.0000
# 3 76.8680 -2.3584 141.2222 0.0000 0.0000 0.0000
# 4 0.0000 0.0000 0.0000 149.4364 0.0000 0.0000
# 5 0.0000 0.0000 0.0000 0.0000 21.7362 0.0000
# 6 0.0000 0.0000 0.0000 0.0000 0.0000 46.8557
#
#
#
# Elastic Compliance Matrix: (Units=1/GPa)
#
#
# Indices 1 2 3 4 5 6 
#
# 1 0.004914 -0.005261 -0.002763 0.000000 0.000000 0.000000
# 2 -0.005261 0.035341 0.003454 0.000000 0.000000 0.000000
# 3 -0.002763 0.003454 0.008643 0.000000 0.000000 0.000000
# 4 0.000000 0.000000 0.000000 0.006692 0.000000 0.000000
# 5 0.000000 0.000000 0.000000 0.000000 0.046006 0.000000
# 6 0.000000 0.000000 0.000000 0.000000 0.000000 0.021342
#
#
# Mechanical properties :
#
#
# Convention : Reuss Voigt Hill
#
# Bulk Modulus (GPa) = 25.15230 75.25901 50.20566
# Shear Modulus (GPa) = 34.40443 66.90952 50.65698
#
# Velocity S-wave (km/s) = 3.56471 4.97120 4.32551
# Velocity P-wave (km/s) = 5.12180 7.79405 6.59470
#
# Compressibility (1/GPa) = 0.03975779
#
# Stress axis : x y z
#
# Youngs Moduli (GPa) = 203.48338 28.29602 115.70701
#
# Poissons Ratio (x) = 0.14886 0.31967
# Poissons Ratio (y) = 1.07048 -0.39961
# Poissons Ratio (z) = 0.56218 -0.09772
#
# Static dielectric constant tensor:
#      x y z
#    x 2.248270 0.000000 0.000000 
#    y 0.000000 2.326900 0.000000 
#    z 0.000000 0.000000 2.001720 
# 
# From -- ./inp_files/2111.got.cif
#   From: 2010.05.17/outbox.cif.g08.bks.cpg/sg55_2_cif.got.tgz:2111.got - 2010.06.03 13:27:54.
