data_PCOD9427177
_publ_section_title
;
Structure prediction by ZEFSAII (Michael W. Deem and Ramdas Pophale) SiO2 
 PCOD9427177
Probable space group: P B A M
;
_chemical_formula_sum "Si O2"
_cell_formula_units_Z 56
_cell_length_a 15.861777
_cell_length_b 21.314222
_cell_length_c 9.222317
_cell_angle_alpha 90.000000
_cell_angle_beta 90.000000
_cell_angle_gamma 90.000000
_cell_volume 3117.894177
_symmetry_space_group_name_H-M "P B A M"
_symmetry_group_IT_number 55
_symmetry_cell_setting 'orthorhombic'
loop_
_space_group_symop_operation_xyz
x,y,z
-x,-y,z
1/2+x,1/2-y,-z
1/2-x,1/2+y,-z
-x,-y,-z
x,y,-z
1/2-x,1/2+y,z
1/2+x,1/2-y,z
loop_
_atom_site_type_symbol
_atom_site_label
_atom_site_fract_x
_atom_site_fract_y
_atom_site_fract_z
Si Si1 0.195359 0.334718 0.675921
Si Si2 0.877744 0.210315 0.325689
Si Si3 0.024082 0.896536 0.835495
Si Si4 0.995922 0.677990 0.675626
Si Si5 0.131814 0.024350 0.834529
Si Si6 0.208595 0.481739 0.671909
Si Si7 0.934460 0.443318 0.836130
O O1 0.197334 0.333746 0.500000
O O2 0.280131 0.297992 0.725386
O O3 0.102318 0.309483 0.718156
O O4 0.202249 0.408442 0.719608
O O5 0.875002 0.210766 0.500000
O O6 0.930110 0.150570 0.270947
O O7 0.934433 0.270059 0.281407
O O8 0.929093 0.917466 0.798645
O O9 0.075758 0.961388 0.837982
O O10 0.024889 0.871045 0.000000
O O11 0.997268 0.672572 0.500000
O O12 0.024135 0.613347 0.748339
O O13 0.202291 0.010173 0.717950
O O14 0.164683 0.032821 0.000000
O O15 0.195581 0.482655 0.500000
O O16 0.142562 0.526300 0.750739
O O17 0.000000 0.500000 0.845636
O O18 0.911858 0.423681 0.000000
#
# Coordination Sequence:
#
# PCOD9427177 Si02
#       7
#     8   8   8   8   8   8   8
#     4   9  18  34  56  82 109 143 186 232 283 336
#     4  10  20  36  58  83 113 150 196 241 282 339
#     4   9  18  33  54  78 112 152 186 231 286 337
#     4  10  21  39  60  80 112 152 188 238 292 339
#     4   9  18  33  52  79 114 150 188 231 282 335
#     4  11  20  33  58  84 111 145 185 234 284 339
#     4  11  23  38  58  84 114 143 182 238 290 345
#
# _framework density 17.960840999999999
#
# number of rings (size 3 to 8) (size 9 to 14) (size 15 to 20)
#    0.000    2.143    2.857    1.714    0.000    1.714 
#    2.571    2.143    0.000    0.000    0.000    0.000 
#    0.000    0.000    0.000    0.000    0.000    0.000 
#
# Total GULP energy -311962.776116 kJ/mol
# GULP energy per Si atom -5570.763859 kJ/mol
# Density = 1.791996 g / cm^3
# Si number density = 17.960841 Si / 1000 Ang^3
#
#
#
# Elastic Constant Matrix: (Units=GPa)
#
#
# Indices 1 2 3 4 5 6 
#
# 1 127.4383 56.6378 28.5877 0.0000 0.0000 0.0000
# 2 56.6378 77.9816 16.2559 0.0000 0.0000 0.0000
# 3 28.5877 16.2559 22.8663 0.0000 0.0000 0.0000
# 4 0.0000 0.0000 0.0000 23.6169 0.0000 0.0000
# 5 0.0000 0.0000 0.0000 0.0000 17.1251 0.0000
# 6 0.0000 0.0000 0.0000 0.0000 0.0000 25.2191
#
#
#
# Elastic Compliance Matrix: (Units=1/GPa)
#
#
# Indices 1 2 3 4 5 6 
#
# 1 0.013919 -0.007609 -0.011992 0.000000 0.000000 0.000000
# 2 -0.007609 0.019215 -0.004146 0.000000 0.000000 0.000000
# 3 -0.011992 -0.004146 0.061673 0.000000 0.000000 0.000000
# 4 0.000000 0.000000 0.000000 0.042343 0.000000 0.000000
# 5 0.000000 0.000000 0.000000 0.000000 0.058394 0.000000
# 6 0.000000 0.000000 0.000000 0.000000 0.000000 0.039653
#
#
# Mechanical properties :
#
#
# Convention : Reuss Voigt Hill
#
# Bulk Modulus (GPa) = 21.13695 47.91654 34.52674
# Shear Modulus (GPa) = 16.75261 21.64588 19.19925
#
# Velocity S-wave (km/s) = 3.05738 3.47532 3.27303
# Velocity P-wave (km/s) = 4.92517 6.54523 5.79212
#
# Compressibility (1/GPa) = 0.04731053
#
# Stress axis : x y z
#
# Youngs Moduli (GPa) = 71.84453 52.04368 16.21464
#
# Poissons Ratio (x) = 0.39602 0.19445
# Poissons Ratio (y) = 0.54670 0.06723
# Poissons Ratio (z) = 0.86156 0.21579
#
# Static dielectric constant tensor:
#      x y z
#    x 1.570600 0.000000 0.000000 
#    y 0.000000 1.587460 0.000000 
#    z 0.000000 0.000000 1.603080 
# 
# From -- ./inp_files/6094.got.cif
#   From: 2010.05.17/outbox.cif.g08.bks.cpg/sg55_4_cif.got.tgz:6094.got - 2010.06.03 13:27:54.
