data_PCOD9427798
_publ_section_title
;
Structure prediction by ZEFSAII (Michael W. Deem and Ramdas Pophale) SiO2 
 PCOD9427798
Probable space group: P B A M
;
_chemical_formula_sum "Si O2"
_cell_formula_units_Z 48
_cell_length_a 12.795680
_cell_length_b 13.130467
_cell_length_c 14.409568
_cell_angle_alpha 90.000000
_cell_angle_beta 90.000000
_cell_angle_gamma 90.000000
_cell_volume 2420.998408
_symmetry_space_group_name_H-M "P B A M"
_symmetry_group_IT_number 55
_symmetry_cell_setting 'orthorhombic'
loop_
_space_group_symop_operation_xyz
x,y,z
-x,-y,z
1/2+x,1/2-y,-z
1/2-x,1/2+y,-z
-x,-y,-z
x,y,-z
1/2-x,1/2+y,z
1/2+x,1/2-y,z
loop_
_atom_site_type_symbol
_atom_site_label
_atom_site_fract_x
_atom_site_fract_y
_atom_site_fract_z
Si Si1 0.570272 0.409910 0.326980
Si Si2 0.266203 0.189629 0.599167
Si Si3 0.880329 0.527862 0.604199
Si Si4 0.743499 0.545762 0.223490
Si Si5 0.905678 0.420208 0.891845
Si Si6 0.393824 0.278671 0.228784
O O1 0.500000 0.500000 0.373653
O O2 0.643784 0.334925 0.386197
O O3 0.653221 0.473953 0.266197
O O4 0.493684 0.340439 0.265795
O O5 0.284232 0.241456 0.500000
O O6 0.326731 0.243574 0.681926
O O7 0.319776 0.078677 0.595969
O O8 0.878649 0.575507 0.500000
O O9 0.821207 0.578800 0.691233
O O10 0.000000 0.500000 0.626898
O O11 0.807642 0.478703 0.151912
O O12 0.685057 0.642213 0.179907
O O13 0.922746 0.318100 0.832582
O O14 0.000000 0.500000 0.882664
O O15 0.891552 0.396091 0.000000
#
# Coordination Sequence:
#
# PCOD9427798 Si02
#       6
#     8   8   8   8   8   8
#     4   9  20  39  61  89 124 169 207 250 305 367
#     4  10  21  35  55  91 125 165 212 250 303 369
#     4   9  17  32  56  87 124 164 204 251 302 359
#     4  10  21  40  63  89 123 166 203 254 306 375
#     4  11  25  43  66  96 124 157 208 264 320 375
#     4  11  23  39  66  89 128 167 207 257 315 369
#
# _framework density 19.826530999999999
#
# number of rings (size 3 to 8) (size 9 to 14) (size 15 to 20)
#    0.000    2.000    3.333    0.500    2.333    2.333 
#    0.000    7.500    0.000    3.000    0.000    0.000 
#    0.000    0.000    0.000    0.000    0.000    0.000 
#
# Total GULP energy -267678.210968 kJ/mol
# GULP energy per Si atom -5576.629395 kJ/mol
# Density = 1.978140 g / cm^3
# Si number density = 19.826531 Si / 1000 Ang^3
#
#
#
# Elastic Constant Matrix: (Units=GPa)
#
#
# Indices 1 2 3 4 5 6 
#
# 1 120.2993 31.7082 44.1238 0.0000 0.0000 0.0000
# 2 31.7082 65.2321 44.4484 0.0000 0.0000 0.0000
# 3 44.1238 44.4484 95.1131 0.0000 0.0000 0.0000
# 4 0.0000 0.0000 0.0000 -0.8088 0.0000 0.0000
# 5 0.0000 0.0000 0.0000 0.0000 9.5210 0.0000
# 6 0.0000 0.0000 0.0000 0.0000 0.0000 11.7249
#
#
#
# Elastic Compliance Matrix: (Units=1/GPa)
#
#
# Indices 1 2 3 4 5 6 
#
# 1 0.010302 -0.002569 -0.003579 0.000000 0.000000 0.000000
# 2 -0.002569 0.023133 -0.009618 0.000000 0.000000 0.000000
# 3 -0.003579 -0.009618 0.016669 0.000000 0.000000 0.000000
# 4 0.000000 0.000000 0.000000 -1.236339 0.000000 0.000000
# 5 0.000000 0.000000 0.000000 0.000000 0.105031 0.000000
# 6 0.000000 0.000000 0.000000 0.000000 0.000000 0.085288
#
#
# Mechanical properties :
#
#
# Convention : Reuss Voigt Hill
#
# Bulk Modulus (GPa) = 53.84732 57.91172 55.87952
# Shear Modulus (GPa) = -5.21816 14.77834 4.78009
#
# Velocity S-wave (km/s) = -1.62408 2.73313 1.55441
# Velocity P-wave (km/s) = 4.86840 6.26359 5.60954
#
# Compressibility (1/GPa) = 0.01857103
#
# Stress axis : x y z
#
# Youngs Moduli (GPa) = 97.06449 43.22877 59.99193
#
# Poissons Ratio (x) = 0.11107 0.21469
# Poissons Ratio (y) = 0.24940 0.57703
# Poissons Ratio (z) = 0.34736 0.41580
#
# Static dielectric constant tensor:
#      x y z
#    x 1.708560 0.000000 0.000000 
#    y 0.000000 1.742030 0.000000 
#    z 0.000000 0.000000 1.718990 
# 
# From -- ./inp_files/18282.got.cif
#   From: 2010.05.17/outbox.cif.g08.bks.cpg/sg55_10_cif.got.tgz:18282.got - 2010.06.03 13:27:54.
