data_PCOD9427323
_publ_section_title
;
Structure prediction by ZEFSAII (Michael W. Deem and Ramdas Pophale) SiO2 
 PCOD9427323
Probable space group: P B A M
;
_chemical_formula_sum "Si O2"
_cell_formula_units_Z 64
_cell_length_a 12.374306
_cell_length_b 31.321869
_cell_length_c 8.486969
_cell_angle_alpha 90.000000
_cell_angle_beta 90.000000
_cell_angle_gamma 90.000000
_cell_volume 3289.433689
_symmetry_space_group_name_H-M "P B A M"
_symmetry_group_IT_number 55
_symmetry_cell_setting 'orthorhombic'
loop_
_space_group_symop_operation_xyz
x,y,z
-x,-y,z
1/2+x,1/2-y,-z
1/2-x,1/2+y,-z
-x,-y,-z
x,y,-z
1/2-x,1/2+y,z
1/2+x,1/2-y,z
loop_
_atom_site_type_symbol
_atom_site_label
_atom_site_fract_x
_atom_site_fract_y
_atom_site_fract_z
Si Si1 0.998510 0.806048 0.808755
Si Si2 0.404411 0.126379 0.811610
Si Si3 0.736178 0.672712 0.814833
Si Si4 0.757594 0.072953 0.182436
Si Si5 0.991118 0.049450 0.690382
Si Si6 0.457772 0.791689 0.807330
Si Si7 0.038922 0.454075 0.685989
Si Si8 0.160203 0.121366 0.311412
O O1 0.116403 0.820976 0.749827
O O2 0.987804 0.756430 0.765195
O O3 0.905926 0.836848 0.743069
O O4 0.993810 0.809453 0.000000
O O5 0.461638 0.170480 0.755448
O O6 0.476447 0.085716 0.762514
O O7 0.282263 0.121804 0.750782
O O8 0.401388 0.128091 0.000000
O O9 0.766586 0.623235 0.807257
O O10 0.836658 0.698687 0.748006
O O11 0.727715 0.684650 0.000000
O O12 0.878379 0.066289 0.242540
O O13 0.666359 0.049511 0.281787
O O14 0.749494 0.060038 0.000000
O O15 0.987338 0.050951 0.500000
O O16 0.089872 0.079987 0.741882
O O17 0.000000 0.000000 0.738204
O O18 0.456198 0.793656 0.000000
O O19 0.017366 0.452130 0.500000
O O20 0.000000 0.500000 0.746987
O O21 0.163867 0.120426 0.500000
#
# Coordination Sequence:
#
# PCOD9427323 Si02
#       8
#     8   8   8   8   8   8   8   8
#     4  10  20  36  63  90 116 157 204 246 295 356
#     4  11  23  41  64  90 121 158 205 257 305 356
#     4   9  17  33  57  88 120 147 190 250 299 342
#     4  11  21  38  64  92 121 150 198 262 303 343
#     4  10  23  42  62  84 117 163 205 243 301 372
#     4   9  19  35  60  91 119 152 197 248 301 354
#     4  11  25  43  63  88 123 165 203 241 300 371
#     4  11  24  41  59  85 125 163 198 248 307 365
#
# _framework density 19.456237000000002
#
# number of rings (size 3 to 8) (size 9 to 14) (size 15 to 20)
#    0.000    1.750    2.500    1.500    3.500    1.750 
#    0.000    1.250    0.000    0.000    0.000    0.000 
#    0.000    0.000    0.000    0.000    0.000    0.000 
#
# Total GULP energy -357312.905449 kJ/mol
# GULP energy per Si atom -5583.014148 kJ/mol
# Density = 1.941195 g / cm^3
# Si number density = 19.456237 Si / 1000 Ang^3
#
#
#
# Elastic Constant Matrix: (Units=GPa)
#
#
# Indices 1 2 3 4 5 6 
#
# 1 93.5144 30.5043 8.8876 0.0000 0.0000 0.0000
# 2 30.5043 98.6462 22.4570 0.0000 0.0000 0.0000
# 3 8.8876 22.4570 18.6959 0.0000 0.0000 0.0000
# 4 0.0000 0.0000 0.0000 41.8394 0.0000 0.0000
# 5 0.0000 0.0000 0.0000 0.0000 26.8614 0.0000
# 6 0.0000 0.0000 0.0000 0.0000 0.0000 30.6697
#
#
#
# Elastic Compliance Matrix: (Units=1/GPa)
#
#
# Indices 1 2 3 4 5 6 
#
# 1 0.011933 -0.003301 -0.001707 0.000000 0.000000 0.000000
# 2 -0.003301 0.014866 -0.016287 0.000000 0.000000 0.000000
# 3 -0.001707 -0.016287 0.073863 0.000000 0.000000 0.000000
# 4 0.000000 0.000000 0.000000 0.023901 0.000000 0.000000
# 5 0.000000 0.000000 0.000000 0.000000 0.037228 0.000000
# 6 0.000000 0.000000 0.000000 0.000000 0.000000 0.032606
#
#
# Mechanical properties :
#
#
# Convention : Reuss Voigt Hill
#
# Bulk Modulus (GPa) = 17.22054 37.17269 27.19662
# Shear Modulus (GPa) = 19.50510 29.80794 24.65652
#
# Velocity S-wave (km/s) = 3.16968 3.91839 3.56375
# Velocity P-wave (km/s) = 4.71868 6.29436 5.56259
#
# Compressibility (1/GPa) = 0.05807018
#
# Stress axis : x y z
#
# Youngs Moduli (GPa) = 83.80363 67.26819 13.53867
#
# Poissons Ratio (x) = 0.22207 0.02311
# Poissons Ratio (y) = 0.27666 0.22050
# Poissons Ratio (z) = 0.14306 1.09560
#
# Static dielectric constant tensor:
#      x y z
#    x 1.671330 0.000000 0.000000 
#    y 0.000000 1.686480 0.000000 
#    z 0.000000 0.000000 1.678920 
# 
# From -- ./inp_files/4647.got.cif
#   From: 2010.05.17/outbox.cif.g08.bks.cpg/sg55_3_cif.got.tgz:4647.got - 2010.06.03 13:27:54.
