data_PCOD9427733
_publ_section_title
;
Structure prediction by ZEFSAII (Michael W. Deem and Ramdas Pophale) SiO2 
 PCOD9427733
Probable space group: P B A M
;
_chemical_formula_sum "Si O2"
_cell_formula_units_Z 22
_cell_length_a 9.495047
_cell_length_b 16.223789
_cell_length_c 5.323305
_cell_angle_alpha 90.000000
_cell_angle_beta 90.000000
_cell_angle_gamma 90.000000
_cell_volume 820.031921
_symmetry_space_group_name_H-M "P B A M"
_symmetry_group_IT_number 55
_symmetry_cell_setting 'orthorhombic'
loop_
_space_group_symop_operation_xyz
x,y,z
-x,-y,z
1/2+x,1/2-y,-z
1/2-x,1/2+y,-z
-x,-y,-z
x,y,-z
1/2-x,1/2+y,z
1/2+x,1/2-y,z
loop_
_atom_site_type_symbol
_atom_site_label
_atom_site_fract_x
_atom_site_fract_y
_atom_site_fract_z
Si Si1 0.534842 0.699287 0.000000
Si Si2 0.826667 0.944774 0.000000
Si Si3 0.547902 0.140700 0.500000
Si Si4 0.005605 0.602765 0.000000
Si Si5 0.679679 0.728172 0.500000
Si Si6 0.500000 0.500000 0.500000
O O1 0.621644 0.682749 0.747024
O O2 0.393828 0.647655 0.000000
O O3 0.509789 0.796869 0.000000
O O4 0.883604 0.982332 0.734728
O O5 0.660373 0.932704 0.000000
O O6 0.571602 0.086810 0.257220
O O7 0.390602 0.181092 0.500000
O O8 0.653333 0.219045 0.500000
#
# Coordination Sequence:
#
# PCOD9427733 Si02
#       6
#     4   4   4   4   4   2
#     4  10  22  33  60  88 135 159 197 266 332 389
#     4  11  22  42  64 100 124 173 220 274 312 377
#     4  10  21  32  51  81 128 174 201 235 310 397
#     4  10  22  33  60  88 135 159 197 266 332 389
#     4  10  21  32  51  81 128 174 201 235 310 397
#     4  10  24  42  68  86 130 174 236 272 298 346
#
# _framework density 26.828223000000001
#
# number of rings (size 3 to 8) (size 9 to 14) (size 15 to 20)
#    0.000    1.818    0.000    3.273   20.364    0.000 
#    0.000    0.000    0.000    0.000    0.000   89.091 
#    0.000    0.000    0.000    0.000    0.000    0.000 
#
# Total GULP energy -122608.652000 kJ/mol
# GULP energy per Si atom -5573.120545 kJ/mol
# Density = 2.676716 g / cm^3
# Si number density = 26.828223 Si / 1000 Ang^3
#
#
#
# Elastic Constant Matrix: (Units=GPa)
#
#
# Indices 1 2 3 4 5 6 
#
# 1 87.6049 35.1045 35.7655 0.0000 0.0000 0.0000
# 2 35.1045 118.8194 24.6779 0.0000 0.0000 0.0000
# 3 35.7655 24.6779 323.3634 0.0000 0.0000 0.0000
# 4 0.0000 0.0000 0.0000 12.3908 0.0000 0.0000
# 5 0.0000 0.0000 0.0000 0.0000 17.4758 0.0000
# 6 0.0000 0.0000 0.0000 0.0000 0.0000 43.8322
#
#
#
# Elastic Compliance Matrix: (Units=1/GPa)
#
#
# Indices 1 2 3 4 5 6 
#
# 1 0.013389 -0.003707 -0.001198 0.000000 0.000000 0.000000
# 2 -0.003707 0.009578 -0.000321 0.000000 0.000000 0.000000
# 3 -0.001198 -0.000321 0.003249 0.000000 0.000000 0.000000
# 4 0.000000 0.000000 0.000000 0.080705 0.000000 0.000000
# 5 0.000000 0.000000 0.000000 0.000000 0.057222 0.000000
# 6 0.000000 0.000000 0.000000 0.000000 0.000000 0.022814
#
#
# Mechanical properties :
#
#
# Convention : Reuss Voigt Hill
#
# Bulk Modulus (GPa) = 63.43177 80.09817 71.76497
# Shear Modulus (GPa) = 24.67124 43.68910 34.18017
#
# Velocity S-wave (km/s) = 3.03578 4.03982 3.57324
# Velocity P-wave (km/s) = 5.99858 7.18894 6.62057
#
# Compressibility (1/GPa) = 0.01576497
#
# Stress axis : x y z
#
# Youngs Moduli (GPa) = 74.68571 104.40584 307.74000
#
# Poissons Ratio (x) = 0.38703 0.36868
# Poissons Ratio (y) = 0.27686 0.09877
# Poissons Ratio (z) = 0.08948 0.03351
#
# Static dielectric constant tensor:
#      x y z
#    x 2.053210 0.000000 0.000000 
#    y 0.000000 2.174980 0.000000 
#    z 0.000000 0.000000 2.192980 
# 
# From -- ./inp_files/229.got.cif
#   From: 2010.05.17/outbox.cif.g08.bks.cpg/sg55_1_cif.got.tgz:229.got - 2010.06.03 13:27:54.
