data_PCOD9427658
_publ_section_title
;
Structure prediction by ZEFSAII (Michael W. Deem and Ramdas Pophale) SiO2 
 PCOD9427658
Probable space group: P B A M
;
_chemical_formula_sum "Si O2"
_cell_formula_units_Z 64
_cell_length_a 19.123370
_cell_length_b 14.875468
_cell_length_c 11.616231
_cell_angle_alpha 90.000000
_cell_angle_beta 90.000000
_cell_angle_gamma 90.000000
_cell_volume 3304.458528
_symmetry_space_group_name_H-M "P B A M"
_symmetry_group_IT_number 55
_symmetry_cell_setting 'orthorhombic'
loop_
_space_group_symop_operation_xyz
x,y,z
-x,-y,z
1/2+x,1/2-y,-z
1/2-x,1/2+y,-z
-x,-y,-z
x,y,-z
1/2-x,1/2+y,z
1/2+x,1/2-y,z
loop_
_atom_site_type_symbol
_atom_site_label
_atom_site_fract_x
_atom_site_fract_y
_atom_site_fract_z
Si Si1 0.567029 0.934576 0.865219
Si Si2 0.975238 0.093734 0.868730
Si Si3 0.358387 0.793925 0.363587
Si Si4 0.771567 0.881052 0.369672
Si Si5 0.203995 0.464168 0.771131
Si Si6 0.013336 0.733445 0.280550
Si Si7 0.317098 0.353461 0.125231
Si Si8 0.341687 0.264752 0.374772
O O1 0.546656 0.844581 0.797893
O O2 0.500000 0.000000 0.853648
O O3 0.636686 0.981519 0.816279
O O4 0.577149 0.915047 0.000000
O O5 0.999304 0.179284 0.797522
O O6 0.891236 0.095954 0.873344
O O7 0.001748 0.099953 0.000000
O O8 0.000000 0.000000 0.817127
O O9 0.347404 0.797647 0.500000
O O10 0.323186 0.698548 0.325560
O O11 0.323834 0.881538 0.306631
O O12 0.440361 0.794698 0.335237
O O13 0.793662 0.904914 0.500000
O O14 0.696668 0.830964 0.376712
O O15 0.756950 0.968905 0.295157
O O16 0.250406 0.417730 0.869214
O O17 0.074980 0.757624 0.368535
O O18 0.318832 0.304418 0.250193
O O19 0.315579 0.303441 0.000000
O O20 0.322292 0.307998 0.500000
#
# Coordination Sequence:
#
# PCOD9427658 Si02
#       8
#     8   8   8   8   8   8   8   8
#     4  11  23  39  58  89 129 167 210 262 321 385
#     4   9  20  39  63  90 122 163 211 262 314 376
#     4  11  24  41  62  92 127 163 211 268 318 380
#     4  10  22  39  60  90 125 164 208 260 318 381
#     4  12  22  40  65  91 125 170 208 262 318 387
#     4  11  21  39  63  91 125 166 209 264 323 380
#     4  10  22  39  62  91 125 162 211 263 311 370
#     4  10  20  39  64  89 124 166 209 256 316 380
#
# _framework density 19.367771999999999
#
# number of rings (size 3 to 8) (size 9 to 14) (size 15 to 20)
#    0.000    1.500    3.750    1.500    1.750    1.000 
#    0.000    0.625    0.000    1.875    0.000    0.000 
#    0.000    0.000    0.000    0.000    0.000    0.000 
#
# Total GULP energy -356679.183113 kJ/mol
# GULP energy per Si atom -5573.112236 kJ/mol
# Density = 1.932369 g / cm^3
# Si number density = 19.367772 Si / 1000 Ang^3
#
#
#
# Elastic Constant Matrix: (Units=GPa)
#
#
# Indices 1 2 3 4 5 6 
#
# 1 62.0242 23.2811 33.8125 0.0000 0.0000 0.0000
# 2 23.2811 76.9998 51.5100 0.0000 0.0000 0.0000
# 3 33.8125 51.5100 125.7447 0.0000 0.0000 0.0000
# 4 0.0000 0.0000 0.0000 16.7344 0.0000 0.0000
# 5 0.0000 0.0000 0.0000 0.0000 6.5801 0.0000
# 6 0.0000 0.0000 0.0000 0.0000 0.0000 31.5051
#
#
#
# Elastic Compliance Matrix: (Units=1/GPa)
#
#
# Indices 1 2 3 4 5 6 
#
# 1 0.019478 -0.003286 -0.003891 0.000000 0.000000 0.000000
# 2 -0.003286 0.018444 -0.006672 0.000000 0.000000 0.000000
# 3 -0.003891 -0.006672 0.011732 0.000000 0.000000 0.000000
# 4 0.000000 0.000000 0.000000 0.059757 0.000000 0.000000
# 5 0.000000 0.000000 0.000000 0.000000 0.151973 0.000000
# 6 0.000000 0.000000 0.000000 0.000000 0.000000 0.031741
#
#
# Mechanical properties :
#
#
# Convention : Reuss Voigt Hill
#
# Bulk Modulus (GPa) = 45.54727 53.55287 49.55007
# Shear Modulus (GPa) = 15.23735 21.37491 18.30613
#
# Velocity S-wave (km/s) = 2.80793 3.32570 3.07772
# Velocity P-wave (km/s) = 5.83787 6.51595 6.18621
#
# Compressibility (1/GPa) = 0.02195521
#
# Stress axis : x y z
#
# Youngs Moduli (GPa) = 51.34118 54.21916 85.23681
#
# Poissons Ratio (x) = 0.17816 0.33170
# Poissons Ratio (y) = 0.16870 0.56867
# Poissons Ratio (z) = 0.19979 0.36173
#
# Static dielectric constant tensor:
#      x y z
#    x 1.681600 0.000000 0.000000 
#    y 0.000000 1.679220 0.000000 
#    z 0.000000 0.000000 1.712990 
# 
# From -- ./inp_files/14993.got.cif
#   From: 2010.05.17/outbox.cif.g08.bks.cpg/sg55_8_cif.got.tgz:14993.got - 2010.06.03 13:27:54.
