data_PCOD9427781
_publ_section_title
;
Structure prediction by ZEFSAII (Michael W. Deem and Ramdas Pophale) SiO2 
 PCOD9427781
Probable space group: P B A M
;
_chemical_formula_sum "Si O2"
_cell_formula_units_Z 64
_cell_length_a 21.085156
_cell_length_b 20.103700
_cell_length_c 8.814095
_cell_angle_alpha 90.000000
_cell_angle_beta 90.000000
_cell_angle_gamma 90.000000
_cell_volume 3736.203651
_symmetry_space_group_name_H-M "P B A M"
_symmetry_group_IT_number 55
_symmetry_cell_setting 'orthorhombic'
loop_
_space_group_symop_operation_xyz
x,y,z
-x,-y,z
1/2+x,1/2-y,-z
1/2-x,1/2+y,-z
-x,-y,-z
x,y,-z
1/2-x,1/2+y,z
1/2+x,1/2-y,z
loop_
_atom_site_type_symbol
_atom_site_label
_atom_site_fract_x
_atom_site_fract_y
_atom_site_fract_z
Si Si1 0.689284 0.715758 0.181099
Si Si2 0.265945 0.568455 0.317048
Si Si3 0.381470 0.069637 0.684406
Si Si4 0.068402 0.711327 0.318102
Si Si5 0.435265 0.786565 0.181231
Si Si6 0.611856 0.078172 0.679761
Si Si7 0.735300 0.581474 0.679349
Si Si8 0.313882 0.700688 0.817196
O O1 0.627192 0.745815 0.258558
O O2 0.702678 0.640152 0.229092
O O3 0.751177 0.758225 0.230073
O O4 0.683432 0.720962 0.000000
O O5 0.267317 0.572436 0.500000
O O6 0.192209 0.577990 0.269540
O O7 0.284408 0.493179 0.274805
O O8 0.307451 0.626870 0.247687
O O9 0.381604 0.067659 0.500000
O O10 0.419858 0.134512 0.731942
O O11 0.404994 0.996651 0.732500
O O12 0.067443 0.712559 0.500000
O O13 0.001633 0.734830 0.252885
O O14 0.420396 0.861688 0.233434
O O15 0.376528 0.740350 0.231981
O O16 0.438900 0.783842 0.000000
O O17 0.597001 0.083808 0.500000
O O18 0.688187 0.084463 0.696805
O O19 0.722312 0.589928 0.500000
O O20 0.314066 0.698177 0.000000
#
# Coordination Sequence:
#
# PCOD9427781 Si02
#       8
#     8   8   8   8   8   8   8   8
#     4  11  21  35  55  81 110 143 179 220 270 321
#     4   9  17  32  55  82 108 135 175 225 269 310
#     4   8  16  31  51  76 106 138 176 220 263 310
#     4  11  22  37  56  78 105 143 186 226 271 318
#     4  11  23  38  51  74 112 147 181 222 268 320
#     4   9  17  32  53  76 104 142 183 217 257 312
#     4   9  18  32  54  83 110 137 175 222 267 315
#     4  10  21  35  53  78 109 143 178 217 266 319
#
# _framework density 17.129687000000001
#
# number of rings (size 3 to 8) (size 9 to 14) (size 15 to 20)
#    0.000    2.250    2.500    2.625    0.000    2.500 
#    0.000    5.625    0.000    0.750    0.000    5.250 
#    0.000    0.000    0.000    0.000    0.000    0.000 
#
# Total GULP energy -357116.472644 kJ/mol
# GULP energy per Si atom -5579.944885 kJ/mol
# Density = 1.709070 g / cm^3
# Si number density = 17.129687 Si / 1000 Ang^3
#
#
#
# Elastic Constant Matrix: (Units=GPa)
#
#
# Indices 1 2 3 4 5 6 
#
# 1 102.4776 56.5221 39.8986 0.0000 0.0000 0.0000
# 2 56.5221 107.0002 31.7025 0.0000 0.0000 0.0000
# 3 39.8986 31.7025 32.1412 0.0000 0.0000 0.0000
# 4 0.0000 0.0000 0.0000 -13.0994 0.0000 0.0000
# 5 0.0000 0.0000 0.0000 0.0000 23.9649 0.0000
# 6 0.0000 0.0000 0.0000 0.0000 0.0000 19.2928
#
#
#
# Elastic Compliance Matrix: (Units=1/GPa)
#
#
# Indices 1 2 3 4 5 6 
#
# 1 0.020384 -0.004621 -0.020746 0.000000 0.000000 0.000000
# 2 -0.004621 0.014252 -0.008321 0.000000 0.000000 0.000000
# 3 -0.020746 -0.008321 0.065074 0.000000 0.000000 0.000000
# 4 0.000000 0.000000 0.000000 -0.076339 0.000000 0.000000
# 5 0.000000 0.000000 0.000000 0.000000 0.041728 0.000000
# 6 0.000000 0.000000 0.000000 0.000000 0.000000 0.051833
#
#
# Mechanical properties :
#
#
# Convention : Reuss Voigt Hill
#
# Bulk Modulus (GPa) = 30.92788 55.31838 43.12313
# Shear Modulus (GPa) = 25.62955 13.59802 19.61379
#
# Velocity S-wave (km/s) = 3.87228 2.82055 3.38748
# Velocity P-wave (km/s) = 6.17147 6.55525 6.36625
#
# Compressibility (1/GPa) = 0.03233329
#
# Stress axis : x y z
#
# Youngs Moduli (GPa) = 49.05725 70.16379 15.36712
#
# Poissons Ratio (x) = 0.32424 0.31881
# Poissons Ratio (y) = 0.22670 0.12788
# Poissons Ratio (z) = 1.01775 0.58386
#
# Static dielectric constant tensor:
#      x y z
#    x 1.571450 0.000000 0.000000 
#    y 0.000000 1.581110 0.000000 
#    z 0.000000 0.000000 1.577200 
# 
# From -- ./inp_files/8992.got.cif
#   From: 2010.05.17/outbox.cif.g08.bks.cpg/sg55_5_cif.got.tgz:8992.got - 2010.06.03 13:27:54.
