data_PCOD9427624
_publ_section_title
;
Structure prediction by ZEFSAII (Michael W. Deem and Ramdas Pophale) SiO2 
 PCOD9427624
Probable space group: P B A M
;
_chemical_formula_sum "Si O2"
_cell_formula_units_Z 40
_cell_length_a 5.058813
_cell_length_b 19.121101
_cell_length_c 17.960615
_cell_angle_alpha 90.000000
_cell_angle_beta 90.000000
_cell_angle_gamma 90.000000
_cell_volume 1737.331624
_symmetry_space_group_name_H-M "P B A M"
_symmetry_group_IT_number 55
_symmetry_cell_setting 'orthorhombic'
loop_
_space_group_symop_operation_xyz
x,y,z
-x,-y,z
1/2+x,1/2-y,-z
1/2-x,1/2+y,-z
-x,-y,-z
x,y,-z
1/2-x,1/2+y,z
1/2+x,1/2-y,z
loop_
_atom_site_type_symbol
_atom_site_label
_atom_site_fract_x
_atom_site_fract_y
_atom_site_fract_z
Si Si1 0.066573 0.721795 0.000000
Si Si2 0.127282 0.294422 0.590010
Si Si3 0.536161 0.417330 0.215201
Si Si4 0.000000 0.500000 0.000000
Si Si5 0.167176 0.567278 0.362658
Si Si6 0.552279 0.117724 0.124345
Si Si7 0.500000 0.500000 0.500000
O O1 0.951607 0.685880 0.926335
O O2 0.881191 0.790644 0.000000
O O3 0.127218 0.300243 0.500000
O O4 0.911938 0.235506 0.611560
O O5 0.031307 0.369443 0.618649
O O6 0.500000 0.500000 0.204254
O O7 0.630703 0.408344 0.299478
O O8 0.268457 0.381375 0.188914
O O9 0.769476 0.392366 0.161819
O O10 0.097677 0.445001 0.065695
O O11 0.326233 0.540995 0.434858
O O12 0.000000 0.500000 0.334706
#
# Coordination Sequence:
#
# PCOD9427624 Si02
#       7
#     4   8   8   2   8   8   2
#     4  11  24  47  70 101 140 189 238 280 336 415
#     4  10  24  43  67  95 134 178 233 301 358 424
#     4  12  23  42  65 102 146 176 221 287 362 422
#     4  10  20  38  68  98 128 154 216 272 336 372
#     4  12  27  44  71 105 147 191 247 308 380 444
#     4  11  24  41  68 101 134 176 221 281 337 417
#     4  12  26  40  72 106 140 186 252 322 378 446
#
# _framework density 23.023813000000001
#
# number of rings (size 3 to 8) (size 9 to 14) (size 15 to 20)
#    0.000    0.800    4.000    2.700    2.800    3.200 
#    0.000    6.000    0.000    0.000    0.000    0.000 
#    0.000    0.000    0.000    0.000    0.000    0.000 
#
# Total GULP energy -222772.269662 kJ/mol
# GULP energy per Si atom -5569.306742 kJ/mol
# Density = 2.297141 g / cm^3
# Si number density = 23.023813 Si / 1000 Ang^3
#
#
#
# Elastic Constant Matrix: (Units=GPa)
#
#
# Indices 1 2 3 4 5 6 
#
# 1 -44.2325 24.0718 -185.7366 0.0000 0.0000 0.0000
# 2 24.0718 33.4409 42.5669 0.0000 0.0000 0.0000
# 3 -185.7366 42.5669 -223.8506 0.0000 0.0000 0.0000
# 4 0.0000 0.0000 0.0000 -33.8210 0.0000 0.0000
# 5 0.0000 0.0000 0.0000 0.0000 11.7642 0.0000
# 6 0.0000 0.0000 0.0000 0.0000 0.0000 28.6372
#
#
#
# Elastic Compliance Matrix: (Units=1/GPa)
#
#
# Indices 1 2 3 4 5 6 
#
# 1 0.009360 0.002535 -0.007285 0.000000 0.000000 0.000000
# 2 0.002535 0.024762 0.002606 0.000000 0.000000 0.000000
# 3 -0.007285 0.002606 0.002072 0.000000 0.000000 0.000000
# 4 0.000000 0.000000 0.000000 -0.029567 0.000000 0.000000
# 5 0.000000 0.000000 0.000000 0.000000 0.085004 0.000000
# 6 0.000000 0.000000 0.000000 0.000000 0.000000 0.034920
#
#
# Mechanical properties :
#
#
# Convention : Reuss Voigt Hill
#
# Bulk Modulus (GPa) = 31.34160 -52.53754 -10.59797
# Shear Modulus (GPa) = 35.34185 -6.38688 14.47749
#
# Velocity S-wave (km/s) = 3.92217 -1.66735 2.51032
# Velocity P-wave (km/s) = 5.84410 5.15510 1.94659
#
# Compressibility (1/GPa) = 0.03190648
#
# Stress axis : x y z
#
# Youngs Moduli (GPa) = 106.83392 40.38405 482.51113
#
# Poissons Ratio (x) = -0.10236 3.51490
# Poissons Ratio (y) = -0.27079 -1.25724
# Poissons Ratio (z) = 0.77824 -0.10523
#
# Static dielectric constant tensor:
#      x y z
#    x 3.309490 0.000000 0.000000 
#    y 0.000000 1.902690 0.000000 
#    z 0.000000 0.000000 1.811200 
# 
# From -- ./inp_files/20368.got.cif
#   From: 2010.05.17/outbox.cif.g08.bks.cpg/sg55_11_cif.got.tgz:20368.got - 2010.06.03 13:27:54.
