data_PCOD9427215
_publ_section_title
;
Structure prediction by ZEFSAII (Michael W. Deem and Ramdas Pophale) SiO2 
 PCOD9427215
Probable space group: P B A M
;
_chemical_formula_sum "Si O2"
_cell_formula_units_Z 64
_cell_length_a 16.606746
_cell_length_b 23.718550
_cell_length_c 8.238127
_cell_angle_alpha 90.000000
_cell_angle_beta 90.000000
_cell_angle_gamma 90.000000
_cell_volume 3244.898835
_symmetry_space_group_name_H-M "P B A M"
_symmetry_group_IT_number 55
_symmetry_cell_setting 'orthorhombic'
loop_
_space_group_symop_operation_xyz
x,y,z
-x,-y,z
1/2+x,1/2-y,-z
1/2-x,1/2+y,-z
-x,-y,-z
x,y,-z
1/2-x,1/2+y,z
1/2+x,1/2-y,z
loop_
_atom_site_type_symbol
_atom_site_label
_atom_site_fract_x
_atom_site_fract_y
_atom_site_fract_z
Si Si1 0.430357 0.956244 0.303704
Si Si2 0.139066 0.238621 0.685264
Si Si3 0.017224 0.332744 0.193270
Si Si4 0.973308 0.847882 0.816451
Si Si5 0.922600 0.246119 0.684437
Si Si6 0.749408 0.066663 0.303263
Si Si7 0.227573 0.807461 0.182570
Si Si8 0.567355 0.544337 0.693902
O O1 0.430177 0.957066 0.500000
O O2 0.459108 0.895063 0.244268
O O3 0.335440 0.963278 0.253983
O O4 0.500000 0.000000 0.248900
O O5 0.167167 0.240519 0.500000
O O6 0.204488 0.259955 0.811459
O O7 0.073523 0.288489 0.710651
O O8 0.104415 0.176707 0.724435
O O9 0.930228 0.310155 0.254011
O O10 0.025942 0.326800 0.000000
O O11 0.027911 0.792123 0.810089
O O12 0.026319 0.895584 0.731214
O O13 0.955006 0.864600 0.000000
O O14 0.952295 0.239688 0.500000
O O15 0.836870 0.217385 0.694818
O O16 0.751240 0.067389 0.500000
O O17 0.743787 0.131143 0.240733
O O18 0.838542 0.043780 0.248486
O O19 0.196196 0.813685 0.000000
O O20 0.500000 0.500000 0.757788
O O21 0.571984 0.536358 0.500000
#
# Coordination Sequence:
#
# PCOD9427215 Si02
#       8
#     8   8   8   8   8   8   8   8
#     4  10  21  38  60  85 116 157 205 252 299 359
#     4  11  21  35  56  82 115 153 191 235 291 358
#     4  11  21  35  55  83 116 150 191 243 299 351
#     4  11  21  35  55  83 116 150 191 243 299 351
#     4  11  21  35  56  82 115 153 191 235 291 358
#     4  10  20  36  59  84 113 152 199 247 299 359
#     4  12  22  34  55  88 121 150 189 245 301 355
#     4  10  21  38  60  85 116 157 205 252 299 359
#
# _framework density 19.723262999999999
#
# number of rings (size 3 to 8) (size 9 to 14) (size 15 to 20)
#    0.000    1.250    2.500    7.125    0.000    0.500 
#    0.000    1.250    0.000    3.000    0.000    0.000 
#    0.000    0.000    0.000    0.000    0.000    0.000 
#
# Total GULP energy -356319.121306 kJ/mol
# GULP energy per Si atom -5567.486270 kJ/mol
# Density = 1.967837 g / cm^3
# Si number density = 19.723263 Si / 1000 Ang^3
#
#
#
# Elastic Constant Matrix: (Units=GPa)
#
#
# Indices 1 2 3 4 5 6 
#
# 1 86.8315 50.5832 12.6959 0.0000 0.0000 0.0000
# 2 50.5832 68.8879 -1.2917 0.0000 0.0000 0.0000
# 3 12.6959 -1.2917 56.2140 0.0000 0.0000 0.0000
# 4 0.0000 0.0000 0.0000 -9.6777 0.0000 0.0000
# 5 0.0000 0.0000 0.0000 0.0000 15.8916 0.0000
# 6 0.0000 0.0000 0.0000 0.0000 0.0000 31.3762
#
#
#
# Elastic Compliance Matrix: (Units=1/GPa)
#
#
# Indices 1 2 3 4 5 6 
#
# 1 0.021563 -0.015931 -0.005236 0.000000 0.000000 0.000000
# 2 -0.015931 0.026293 0.004202 0.000000 0.000000 0.000000
# 3 -0.005236 0.004202 0.019068 0.000000 0.000000 0.000000
# 4 0.000000 0.000000 0.000000 -0.103330 0.000000 0.000000
# 5 0.000000 0.000000 0.000000 0.000000 0.062926 0.000000
# 6 0.000000 0.000000 0.000000 0.000000 0.000000 0.031871
#
#
# Mechanical properties :
#
#
# Convention : Reuss Voigt Hill
#
# Bulk Modulus (GPa) = 30.30846 37.32314 33.81580
# Shear Modulus (GPa) = 48.39315 17.51442 32.95378
#
# Velocity S-wave (km/s) = 4.95876 2.98318 4.09199
# Velocity P-wave (km/s) = 6.94161 5.55250 6.28555
#
# Compressibility (1/GPa) = 0.03299408
#
# Stress axis : x y z
#
# Youngs Moduli (GPa) = 46.37593 38.03244 52.44308
#
# Poissons Ratio (x) = 0.60591 0.27459
# Poissons Ratio (y) = 0.73884 -0.22038
# Poissons Ratio (z) = 0.24283 -0.15982
#
# Static dielectric constant tensor:
#      x y z
#    x 1.924000 0.000000 0.000000 
#    y 0.000000 1.700810 0.000000 
#    z 0.000000 0.000000 1.654320 
# 
# From -- ./inp_files/8174.got.cif
#   From: 2010.05.17/outbox.cif.g08.bks.cpg/sg55_5_cif.got.tgz:8174.got - 2010.06.03 13:27:54.
