data_PCOD9427262
_publ_section_title
;
Structure prediction by ZEFSAII (Michael W. Deem and Ramdas Pophale) SiO2 
 PCOD9427262
Probable space group: P B A M
;
_chemical_formula_sum "Si O2"
_cell_formula_units_Z 40
_cell_length_a 5.111419
_cell_length_b 18.199170
_cell_length_c 20.796178
_cell_angle_alpha 90.000000
_cell_angle_beta 90.000000
_cell_angle_gamma 90.000000
_cell_volume 1934.534997
_symmetry_space_group_name_H-M "P B A M"
_symmetry_group_IT_number 55
_symmetry_cell_setting 'orthorhombic'
loop_
_space_group_symop_operation_xyz
x,y,z
-x,-y,z
1/2+x,1/2-y,-z
1/2-x,1/2+y,-z
-x,-y,-z
x,y,-z
1/2-x,1/2+y,z
1/2+x,1/2-y,z
loop_
_atom_site_type_symbol
_atom_site_label
_atom_site_fract_x
_atom_site_fract_y
_atom_site_fract_z
Si Si1 0.240301 0.711087 0.922496
Si Si2 0.862721 0.577985 0.070712
Si Si3 0.785684 0.697063 0.568594
Si Si4 0.287655 0.803605 0.287632
Si Si5 0.236633 0.950492 0.794407
O O1 0.030071 0.771736 0.898307
O O2 0.089774 0.635623 0.911063
O O3 0.259411 0.717124 0.000000
O O4 0.675361 0.569232 0.131069
O O5 0.000000 0.500000 0.063683
O O6 0.750000 0.598273 0.000000
O O7 0.784566 0.654711 0.500000
O O8 0.536851 0.750444 0.567827
O O9 0.784875 0.662880 0.639451
O O10 0.542843 0.752029 0.279695
O O11 0.276437 0.873346 0.241224
O O12 0.500000 0.000000 0.792522
O O13 0.000000 0.000000 0.768274
#
# Coordination Sequence:
#
# PCOD9427262 Si02
#       5
#     8   8   8   8   8
#     4   9  18  32  50  73  99 124 153 199 259 313
#     4   9  20  38  58  78 101 135 180 224 270 329
#     4   8  14  26  48  80 112 140 178 228 270 305
#     4  10  20  36  60  86 112 148 192 230 267 325
#     4  11  24  40  57  80 113 148 181 228 287 336
#
# _framework density 20.676801999999999
#
# number of rings (size 3 to 8) (size 9 to 14) (size 15 to 20)
#    0.000    2.600    0.000    1.200    0.000    5.200 
#    0.000    6.000    0.000    1.200    0.000    0.000 
#    0.000    0.000    0.000    0.000    0.000    0.000 
#
# Total GULP energy -223066.909118 kJ/mol
# GULP energy per Si atom -5576.672728 kJ/mol
# Density = 2.062974 g / cm^3
# Si number density = 20.676802 Si / 1000 Ang^3
#
#
#
# Elastic Constant Matrix: (Units=GPa)
#
#
# Indices 1 2 3 4 5 6 
#
# 1 128.9686 26.7718 7.6549 0.0000 0.0000 0.0000
# 2 26.7718 114.6819 43.4869 0.0000 0.0000 0.0000
# 3 7.6549 43.4869 134.4830 0.0000 0.0000 0.0000
# 4 0.0000 0.0000 0.0000 9.7563 0.0000 0.0000
# 5 0.0000 0.0000 0.0000 0.0000 54.8435 0.0000
# 6 0.0000 0.0000 0.0000 0.0000 0.0000 30.6055
#
#
#
# Elastic Compliance Matrix: (Units=1/GPa)
#
#
# Indices 1 2 3 4 5 6 
#
# 1 0.008152 -0.001968 0.000173 0.000000 0.000000 0.000000
# 2 -0.001968 0.010414 -0.003255 0.000000 0.000000 0.000000
# 3 0.000173 -0.003255 0.008479 0.000000 0.000000 0.000000
# 4 0.000000 0.000000 0.000000 0.102498 0.000000 0.000000
# 5 0.000000 0.000000 0.000000 0.000000 0.018234 0.000000
# 6 0.000000 0.000000 0.000000 0.000000 0.000000 0.032674
#
#
# Mechanical properties :
#
#
# Convention : Reuss Voigt Hill
#
# Bulk Modulus (GPa) = 59.02505 59.32894 59.17699
# Shear Modulus (GPa) = 25.48411 39.05570 32.26991
#
# Velocity S-wave (km/s) = 3.51450 4.35082 3.95483
# Velocity P-wave (km/s) = 6.71397 7.34815 7.03821
#
# Compressibility (1/GPa) = 0.01694196
#
# Stress axis : x y z
#
# Youngs Moduli (GPa) = 122.66602 96.02707 117.94218
#
# Poissons Ratio (x) = 0.18903 -0.02035
# Poissons Ratio (y) = 0.24147 0.38395
# Poissons Ratio (z) = -0.02116 0.31260
#
# Static dielectric constant tensor:
#      x y z
#    x 1.743340 0.000000 0.000000 
#    y 0.000000 1.736610 0.000000 
#    z 0.000000 0.000000 1.842660 
# 
# From -- ./inp_files/22299.got.cif
#   From: 2010.05.17/outbox.cif.g08.bks.cpg/sg55_12_cif.got.tgz:22299.got - 2010.06.03 13:27:54.
