data_PCOD9427298
_publ_section_title
;
Structure prediction by ZEFSAII (Michael W. Deem and Ramdas Pophale) SiO2 
 PCOD9427298
Probable space group: P B A M
;
_chemical_formula_sum "Si O2"
_cell_formula_units_Z 64
_cell_length_a 10.697775
_cell_length_b 26.953411
_cell_length_c 10.178092
_cell_angle_alpha 90.000000
_cell_angle_beta 90.000000
_cell_angle_gamma 90.000000
_cell_volume 2934.766583
_symmetry_space_group_name_H-M "P B A M"
_symmetry_group_IT_number 55
_symmetry_cell_setting 'orthorhombic'
loop_
_space_group_symop_operation_xyz
x,y,z
-x,-y,z
1/2+x,1/2-y,-z
1/2-x,1/2+y,-z
-x,-y,-z
x,y,-z
1/2-x,1/2+y,z
1/2+x,1/2-y,z
loop_
_atom_site_type_symbol
_atom_site_label
_atom_site_fract_x
_atom_site_fract_y
_atom_site_fract_z
Si Si1 0.063314 0.793597 0.349069
Si Si2 0.232037 0.665736 0.857461
Si Si3 0.170327 0.265365 0.758499
Si Si4 0.168686 0.960349 0.850218
Si Si5 0.355302 0.011639 0.650050
Si Si6 0.365223 0.874567 0.856252
Si Si7 0.488832 0.617366 0.846139
Si Si8 0.432182 0.121320 0.352293
O O1 0.045865 0.808749 0.500000
O O2 0.205338 0.774659 0.328779
O O3 0.041465 0.840447 0.251877
O O4 0.955909 0.752806 0.314673
O O5 0.295824 0.719155 0.850266
O O6 0.340045 0.625031 0.841383
O O7 0.139734 0.660514 0.736517
O O8 0.171848 0.659959 0.000000
O O9 0.151839 0.316041 0.837821
O O10 0.241015 0.907153 0.852667
O O11 0.031907 0.938951 0.814593
O O12 0.250280 0.991882 0.748891
O O13 0.169454 0.980456 0.000000
O O14 0.339939 0.991971 0.500000
O O15 0.352410 0.071101 0.643425
O O16 0.500000 0.000000 0.689930
O O17 0.444833 0.890581 0.730696
O O18 0.421255 0.885594 0.000000
O O19 0.521495 0.627488 0.000000
O O20 0.458691 0.137821 0.500000
#
# Coordination Sequence:
#
# PCOD9427298 Si02
#       8
#     8   8   8   8   8   8   8   8
#     4  11  23  37  56  83 118 162 210 255 304 364
#     4  10  22  40  63  85 116 163 206 247 302 362
#     4  11  23  39  59  88 126 164 206 260 310 363
#     4  10  20  36  61  91 117 147 194 251 299 352
#     4  10  21  39  60  86 121 161 195 238 306 369
#     4  11  22  37  61  90 120 156 200 247 300 361
#     4   9  20  40  61  84 116 153 197 250 304 356
#     4  11  24  41  62  90 128 162 197 250 305 363
#
# _framework density 21.807524999999998
#
# number of rings (size 3 to 8) (size 9 to 14) (size 15 to 20)
#    0.000    1.625    2.500    1.875    0.000    7.250 
#    0.000    0.625    0.000    3.750    0.000    0.000 
#    0.000    0.000    0.000    0.000    0.000    0.000 
#
# Total GULP energy -357161.063475 kJ/mol
# GULP energy per Si atom -5580.641617 kJ/mol
# Density = 2.175789 g / cm^3
# Si number density = 21.807525 Si / 1000 Ang^3
#
#
#
# Elastic Constant Matrix: (Units=GPa)
#
#
# Indices 1 2 3 4 5 6 
#
# 1 43.6836 -9.3539 29.6378 0.0000 0.0000 0.0000
# 2 -9.3539 38.9598 7.5978 0.0000 0.0000 0.0000
# 3 29.6378 7.5978 138.9353 0.0000 0.0000 0.0000
# 4 0.0000 0.0000 0.0000 15.2982 0.0000 0.0000
# 5 0.0000 0.0000 0.0000 0.0000 -292.0646 0.0000
# 6 0.0000 0.0000 0.0000 0.0000 0.0000 29.7774
#
#
#
# Elastic Compliance Matrix: (Units=1/GPa)
#
#
# Indices 1 2 3 4 5 6 
#
# 1 0.029209 0.008317 -0.006686 0.000000 0.000000 0.000000
# 2 0.008317 0.028312 -0.003322 0.000000 0.000000 0.000000
# 3 -0.006686 -0.003322 0.008805 0.000000 0.000000 0.000000
# 4 0.000000 0.000000 0.000000 0.065367 0.000000 0.000000
# 5 0.000000 0.000000 0.000000 0.000000 -0.003424 0.000000
# 6 0.000000 0.000000 0.000000 0.000000 0.000000 0.033583
#
#
# Mechanical properties :
#
#
# Convention : Reuss Voigt Hill
#
# Bulk Modulus (GPa) = 15.88730 30.81581 23.35156
# Shear Modulus (GPa) = 26.85052 -36.48468 -4.81708
#
# Velocity S-wave (km/s) = 3.51272 -4.09471 -1.48785
# Velocity P-wave (km/s) = 4.87374 2.86252 2.78921
#
# Compressibility (1/GPa) = 0.06294335
#
# Stress axis : x y z
#
# Youngs Moduli (GPa) = 34.23642 35.32053 113.56582
#
# Poissons Ratio (x) = -0.29374 0.75926
# Poissons Ratio (y) = -0.28473 0.37731
# Poissons Ratio (z) = 0.22889 0.11735
#
# Static dielectric constant tensor:
#      x y z
#    x 1.871160 0.000000 0.000000 
#    y 0.000000 1.818760 0.000000 
#    z 0.000000 0.000000 1.769720 
# 
# From -- ./inp_files/4643.got.cif
#   From: 2010.05.17/outbox.cif.g08.bks.cpg/sg55_3_cif.got.tgz:4643.got - 2010.06.03 13:27:54.
