data_PCOD9427229
_publ_section_title
;
Structure prediction by ZEFSAII (Michael W. Deem and Ramdas Pophale) SiO2 
 PCOD9427229
Probable space group: P B A M
;
_chemical_formula_sum "Si O2"
_cell_formula_units_Z 64
_cell_length_a 23.946790
_cell_length_b 14.300987
_cell_length_c 9.292916
_cell_angle_alpha 90.000000
_cell_angle_beta 90.000000
_cell_angle_gamma 90.000000
_cell_volume 3182.477406
_symmetry_space_group_name_H-M "P B A M"
_symmetry_group_IT_number 55
_symmetry_cell_setting 'orthorhombic'
loop_
_space_group_symop_operation_xyz
x,y,z
-x,-y,z
1/2+x,1/2-y,-z
1/2-x,1/2+y,-z
-x,-y,-z
x,y,-z
1/2-x,1/2+y,z
1/2+x,1/2-y,z
loop_
_atom_site_type_symbol
_atom_site_label
_atom_site_fract_x
_atom_site_fract_y
_atom_site_fract_z
Si Si1 0.499463 0.804094 0.163898
Si Si2 0.119768 0.015312 0.330905
Si Si3 0.747736 0.980219 0.669130
Si Si4 0.589165 0.945126 0.166761
Si Si5 0.335859 0.883216 0.832007
Si Si6 0.673619 0.814137 0.330258
Si Si7 0.393348 0.333060 0.166069
Si Si8 0.396042 0.728241 0.671292
O O1 0.527010 0.906057 0.184714
O O2 0.552370 0.733690 0.173581
O O3 0.453881 0.773841 0.277805
O O4 0.476922 0.798392 0.000000
O O5 0.106410 0.004560 0.500000
O O6 0.186625 0.008233 0.313922
O O7 0.103328 0.119607 0.285145
O O8 0.094097 0.930883 0.241766
O O9 0.733372 0.994084 0.500000
O O10 0.729253 0.873340 0.704147
O O11 0.712734 0.053636 0.762753
O O12 0.626390 0.888322 0.280534
O O13 0.608002 0.051973 0.180234
O O14 0.604579 0.918442 0.000000
O O15 0.347815 0.788299 0.747703
O O16 0.325276 0.867167 0.000000
O O17 0.671679 0.795143 0.500000
O O18 0.657462 0.720861 0.245200
O O19 0.379081 0.347116 0.000000
O O20 0.388743 0.732669 0.500000
#
# Coordination Sequence:
#
# PCOD9427229 Si02
#       8
#     8   8   8   8   8   8   8   8
#     4   9  19  37  58  80 110 147 183 227 284 335
#     4  10  23  41  57  76 107 147 189 231 274 324
#     4   9  19  37  59  82 110 145 182 221 270 328
#     4   8  16  32  54  81 112 145 181 220 267 325
#     4  10  20  36  59  86 116 148 182 225 278 333
#     4   9  16  29  54  84 110 138 174 218 270 326
#     4  10  21  37  58  83 109 140 184 234 281 331
#     4  11  24  39  55  80 114 150 189 231 276 331
#
# _framework density 20.110119999999998
#
# number of rings (size 3 to 8) (size 9 to 14) (size 15 to 20)
#    0.000    2.500    0.000    2.250    0.000    7.000 
#    0.000    7.500    0.000    0.000    0.000    0.000 
#    0.000    0.000    0.000    0.000    0.000    0.000 
#
# Total GULP energy -357199.627796 kJ/mol
# GULP energy per Si atom -5581.244184 kJ/mol
# Density = 2.006435 g / cm^3
# Si number density = 20.110120 Si / 1000 Ang^3
#
#
#
# Elastic Constant Matrix: (Units=GPa)
#
#
# Indices 1 2 3 4 5 6 
#
# 1 19.3025 2.6070 10.3934 0.0000 0.0000 0.0000
# 2 2.6070 102.8373 38.8011 0.0000 0.0000 0.0000
# 3 10.3934 38.8011 57.0856 0.0000 0.0000 0.0000
# 4 0.0000 0.0000 0.0000 30.7856 0.0000 0.0000
# 5 0.0000 0.0000 0.0000 0.0000 11.1043 0.0000
# 6 0.0000 0.0000 0.0000 0.0000 0.0000 2.5759
#
#
#
# Elastic Compliance Matrix: (Units=1/GPa)
#
#
# Indices 1 2 3 4 5 6 
#
# 1 0.058308 0.003399 -0.012926 0.000000 0.000000 0.000000
# 2 0.003399 0.013276 -0.009643 0.000000 0.000000 0.000000
# 3 -0.012926 -0.009643 0.026425 0.000000 0.000000 0.000000
# 4 0.000000 0.000000 0.000000 0.032483 0.000000 0.000000
# 5 0.000000 0.000000 0.000000 0.000000 0.090056 0.000000
# 6 0.000000 0.000000 0.000000 0.000000 0.000000 0.388207
#
#
# Mechanical properties :
#
#
# Convention : Reuss Voigt Hill
#
# Bulk Modulus (GPa) = 16.75905 31.42537 24.09221
# Shear Modulus (GPa) = 7.49644 17.38809 12.44226
#
# Velocity S-wave (km/s) = 1.93282 2.94367 2.49008
# Velocity P-wave (km/s) = 3.65141 5.21672 4.50261
#
# Compressibility (1/GPa) = 0.05966925
#
# Stress axis : x y z
#
# Youngs Moduli (GPa) = 17.15040 75.32292 37.84279
#
# Poissons Ratio (x) = -0.25602 0.48916
# Poissons Ratio (y) = -0.05829 0.36491
# Poissons Ratio (z) = 0.22169 0.72631
#
# Static dielectric constant tensor:
#      x y z
#    x 1.730060 0.000000 0.000000 
#    y 0.000000 1.732470 0.000000 
#    z 0.000000 0.000000 1.673330 
# 
# From -- ./inp_files/9792.got.cif
#   From: 2010.05.17/outbox.cif.g08.bks.cpg/sg55_5_cif.got.tgz:9792.got - 2010.06.03 13:27:54.
