data_PCOD9427932
_publ_section_title
;
Structure prediction by ZEFSAII (Michael W. Deem and Ramdas Pophale) SiO2 
 PCOD9427932
Probable space group: P B A M
;
_chemical_formula_sum "Si O2"
_cell_formula_units_Z 64
_cell_length_a 25.121241
_cell_length_b 14.907910
_cell_length_c 8.870014
_cell_angle_alpha 90.000000
_cell_angle_beta 90.000000
_cell_angle_gamma 90.000000
_cell_volume 3321.866366
_symmetry_space_group_name_H-M "P B A M"
_symmetry_group_IT_number 55
_symmetry_cell_setting 'orthorhombic'
loop_
_space_group_symop_operation_xyz
x,y,z
-x,-y,z
1/2+x,1/2-y,-z
1/2-x,1/2+y,-z
-x,-y,-z
x,y,-z
1/2-x,1/2+y,z
1/2+x,1/2-y,z
loop_
_atom_site_type_symbol
_atom_site_label
_atom_site_fract_x
_atom_site_fract_y
_atom_site_fract_z
Si Si1 0.375314 0.938184 0.678009
Si Si2 0.742553 0.132526 0.318793
Si Si3 0.736562 0.330268 0.820835
Si Si4 0.565774 0.750042 0.180641
Si Si5 0.669436 0.484223 0.681593
Si Si6 0.518412 0.098584 0.819125
Si Si7 0.346751 0.134866 0.679171
Si Si8 0.552670 0.556951 0.681055
O O1 0.383071 0.924299 0.500000
O O2 0.315026 0.910682 0.713445
O O3 0.421373 0.887235 0.765469
O O4 0.379436 0.044202 0.709751
O O5 0.747331 0.144359 0.500000
O O6 0.741013 0.229395 0.242075
O O7 0.790329 0.065387 0.272349
O O8 0.689557 0.391482 0.753571
O O9 0.791095 0.374610 0.762893
O O10 0.733436 0.329254 0.000000
O O11 0.520905 0.822070 0.228837
O O12 0.620454 0.781567 0.258241
O O13 0.551208 0.651579 0.235213
O O14 0.571476 0.753738 0.000000
O O15 0.673793 0.476278 0.500000
O O16 0.608538 0.508348 0.719527
O O17 0.500000 0.000000 0.763426
O O18 0.517215 0.096177 0.000000
O O19 0.337886 0.142140 0.500000
O O20 0.500000 0.500000 0.717110
O O21 0.553302 0.571986 0.500000
#
# Coordination Sequence:
#
# PCOD9427932 Si02
#       8
#     8   8   8   8   8   8   8   8
#     4  10  21  36  59  88 116 155 206 254 298 352
#     4  10  21  40  62  88 122 163 209 253 306 363
#     4  12  25  38  60  94 127 162 203 250 308 374
#     4  11  23  39  62  92 123 164 209 252 311 371
#     4  10  21  42  67  89 121 163 206 259 312 362
#     4  10  21  37  56  84 127 167 195 236 302 367
#     4  11  21  38  62  89 121 159 205 253 304 360
#     4  10  23  43  67  93 120 160 214 266 312 361
#
# _framework density 19.266276999999999
#
# number of rings (size 3 to 8) (size 9 to 14) (size 15 to 20)
#    0.000    1.500    2.500    2.625    0.000    5.500 
#    0.000    3.750    0.000    0.000    0.000    0.000 
#    0.000    0.000    0.000    0.000    0.000    0.000 
#
# Total GULP energy -357521.672579 kJ/mol
# GULP energy per Si atom -5586.276134 kJ/mol
# Density = 1.922243 g / cm^3
# Si number density = 19.266277 Si / 1000 Ang^3
#
#
#
# Elastic Constant Matrix: (Units=GPa)
#
#
# Indices 1 2 3 4 5 6 
#
# 1 116.8670 42.0961 35.4265 0.0000 0.0000 0.0000
# 2 42.0961 81.4952 36.7725 0.0000 0.0000 0.0000
# 3 35.4265 36.7725 27.5559 0.0000 0.0000 0.0000
# 4 0.0000 0.0000 0.0000 24.1848 0.0000 0.0000
# 5 0.0000 0.0000 0.0000 0.0000 21.9345 0.0000
# 6 0.0000 0.0000 0.0000 0.0000 0.0000 30.1867
#
#
#
# Elastic Compliance Matrix: (Units=1/GPa)
#
#
# Indices 1 2 3 4 5 6 
#
# 1 0.014186 0.002266 -0.021261 0.000000 0.000000 0.000000
# 2 0.002266 0.031204 -0.044554 0.000000 0.000000 0.000000
# 3 -0.021261 -0.044554 0.123080 0.000000 0.000000 0.000000
# 4 0.000000 0.000000 0.000000 0.041348 0.000000 0.000000
# 5 0.000000 0.000000 0.000000 0.000000 0.045590 0.000000
# 6 0.000000 0.000000 0.000000 0.000000 0.000000 0.033127
#
#
# Mechanical properties :
#
#
# Convention : Reuss Voigt Hill
#
# Bulk Modulus (GPa) = 24.17154 50.50092 37.33623
# Shear Modulus (GPa) = 11.64349 22.70274 17.17312
#
# Velocity S-wave (km/s) = 2.46101 3.43646 2.98880
# Velocity P-wave (km/s) = 4.54408 6.48187 5.59747
#
# Compressibility (1/GPa) = 0.04137097
#
# Stress axis : x y z
#
# Youngs Moduli (GPa) = 70.49442 32.04717 8.12478
#
# Poissons Ratio (x) = -0.07262 0.17274
# Poissons Ratio (y) = -0.15975 0.36199
# Poissons Ratio (z) = 1.49880 1.42784
#
# Static dielectric constant tensor:
#      x y z
#    x 1.688320 0.000000 0.000000 
#    y 0.000000 1.692400 0.000000 
#    z 0.000000 0.000000 1.644820 
# 
# From -- ./inp_files/9774.got.cif
#   From: 2010.05.17/outbox.cif.g08.bks.cpg/sg55_5_cif.got.tgz:9774.got - 2010.06.03 13:27:54.
