data_PCOD9427557
_publ_section_title
;
Structure prediction by ZEFSAII (Michael W. Deem and Ramdas Pophale) SiO2 
 PCOD9427557
Probable space group: P B A M
;
_chemical_formula_sum "Si O2"
_cell_formula_units_Z 48
_cell_length_a 7.347195
_cell_length_b 18.514422
_cell_length_c 14.949093
_cell_angle_alpha 90.000000
_cell_angle_beta 90.000000
_cell_angle_gamma 90.000000
_cell_volume 2033.511199
_symmetry_space_group_name_H-M "P B A M"
_symmetry_group_IT_number 55
_symmetry_cell_setting 'orthorhombic'
loop_
_space_group_symop_operation_xyz
x,y,z
-x,-y,z
1/2+x,1/2-y,-z
1/2-x,1/2+y,-z
-x,-y,-z
x,y,-z
1/2-x,1/2+y,z
1/2+x,1/2-y,z
loop_
_atom_site_type_symbol
_atom_site_label
_atom_site_fract_x
_atom_site_fract_y
_atom_site_fract_z
Si Si1 0.155176 0.951635 0.352346
Si Si2 0.847943 0.626193 0.500000
Si Si3 0.681464 0.044744 0.819739
Si Si4 0.087260 0.183240 0.302931
Si Si5 0.556341 0.819101 0.803893
Si Si6 0.496381 0.732805 0.500000
Si Si7 0.393845 0.127037 0.000000
Si Si8 0.736240 0.529466 0.000000
O O1 0.315563 0.924316 0.415396
O O2 0.237138 0.991601 0.267343
O O3 0.050487 0.882485 0.313350
O O4 0.000000 0.000000 0.397867
O O5 0.674542 0.681832 0.500000
O O6 0.016991 0.680075 0.500000
O O7 0.606652 0.123518 0.795901
O O8 0.500000 0.000000 0.847777
O O9 0.826211 0.046754 0.900149
O O10 0.279893 0.161039 0.262335
O O11 0.098186 0.215540 0.404033
O O12 0.011260 0.242430 0.232975
O O13 0.616916 0.826792 0.908359
O O14 0.587281 0.084150 0.000000
O O15 0.259645 0.057768 0.000000
#
# Coordination Sequence:
#
# PCOD9427557 Si02
#       8
#     8   4   8   8   8   4   4   4
#     4  11  24  39  59  86 122 160 202 255 303 357
#     4  10  21  40  61  89 120 157 200 244 307 360
#     4  11  19  37  63  87 115 159 203 243 300 361
#     4  11  23  39  60  91 119 159 205 248 310 361
#     4  11  21  37  60  87 121 154 200 253 300 369
#     4  10  20  38  62  83 117 155 193 242 294 362
#     4   9  18  34  59  85 120 154 194 251 306 359
#     4   9  16  36  60  88 111 160 204 237 307 357
#
# _framework density 23.604493999999999
#
# number of rings (size 3 to 8) (size 9 to 14) (size 15 to 20)
#    0.000    1.500    3.333    5.250    0.000    0.667 
#    0.000    4.167    0.000    0.000    0.000    0.000 
#    0.000    0.000    0.000    0.000    0.000    0.000 
#
# Total GULP energy -267848.377437 kJ/mol
# GULP energy per Si atom -5580.174530 kJ/mol
# Density = 2.355077 g / cm^3
# Si number density = 23.604494 Si / 1000 Ang^3
#
#
#
# Elastic Constant Matrix: (Units=GPa)
#
#
# Indices 1 2 3 4 5 6 
#
# 1 31.0578 0.3078 11.6362 0.0000 0.0000 0.0000
# 2 0.3078 100.7770 21.1474 0.0000 0.0000 0.0000
# 3 11.6362 21.1474 157.5669 0.0000 0.0000 0.0000
# 4 0.0000 0.0000 0.0000 19.7674 0.0000 0.0000
# 5 0.0000 0.0000 0.0000 0.0000 774.7539 0.0000
# 6 0.0000 0.0000 0.0000 0.0000 0.0000 27.4735
#
#
#
# Elastic Compliance Matrix: (Units=1/GPa)
#
#
# Indices 1 2 3 4 5 6 
#
# 1 0.033132 0.000424 -0.002504 0.000000 0.000000 0.000000
# 2 0.000424 0.010216 -0.001402 0.000000 0.000000 0.000000
# 3 -0.002504 -0.001402 0.006720 0.000000 0.000000 0.000000
# 4 0.000000 0.000000 0.000000 0.050588 0.000000 0.000000
# 5 0.000000 0.000000 0.000000 0.000000 0.001291 0.000000
# 6 0.000000 0.000000 0.000000 0.000000 0.000000 0.036399
#
#
# Mechanical properties :
#
#
# Convention : Reuss Voigt Hill
#
# Bulk Modulus (GPa) = 23.19994 39.50938 31.35466
# Shear Modulus (GPa) = 31.31324 181.48631 106.39978
#
# Velocity S-wave (km/s) = 3.64618 8.77800 6.72115
# Velocity P-wave (km/s) = 5.25129 10.93216 8.57578
#
# Compressibility (1/GPa) = 0.04310355
#
# Stress axis : x y z
#
# Youngs Moduli (GPa) = 30.18241 97.88671 148.81770
#
# Poissons Ratio (x) = -0.04152 0.37260
# Poissons Ratio (y) = -0.01280 0.20871
# Poissons Ratio (z) = 0.07557 0.13728
#
# Static dielectric constant tensor:
#      x y z
#    x 2.011680 0.000000 0.000000 
#    y 0.000000 1.896210 0.000000 
#    z 0.000000 0.000000 1.998890 
# 
# From -- ./inp_files/17454.got.cif
#   From: 2010.05.17/outbox.cif.g08.bks.cpg/sg55_9_cif.got.tgz:17454.got - 2010.06.03 13:27:54.
