data_PCOD9427558
_publ_section_title
;
Structure prediction by ZEFSAII (Michael W. Deem and Ramdas Pophale) SiO2 
 PCOD9427558
Probable space group: P B A M
;
_chemical_formula_sum "Si O2"
_cell_formula_units_Z 48
_cell_length_a 8.004139
_cell_length_b 14.219936
_cell_length_c 17.617409
_cell_angle_alpha 90.000000
_cell_angle_beta 90.000000
_cell_angle_gamma 90.000000
_cell_volume 2005.184324
_symmetry_space_group_name_H-M "P B A M"
_symmetry_group_IT_number 55
_symmetry_cell_setting 'orthorhombic'
loop_
_space_group_symop_operation_xyz
x,y,z
-x,-y,z
1/2+x,1/2-y,-z
1/2-x,1/2+y,-z
-x,-y,-z
x,y,-z
1/2-x,1/2+y,z
1/2+x,1/2-y,z
loop_
_atom_site_type_symbol
_atom_site_label
_atom_site_fract_x
_atom_site_fract_y
_atom_site_fract_z
Si Si1 0.316973 0.550629 0.913400
Si Si2 0.649488 0.122852 0.665126
Si Si3 0.650101 0.117809 0.159446
Si Si4 0.348488 0.227759 0.412226
Si Si5 0.463718 0.277979 0.089289
Si Si6 0.314405 0.539008 0.586454
O O1 0.500000 0.500000 0.910619
O O2 0.195268 0.489659 0.861000
O O3 0.369793 0.657779 0.897761
O O4 0.256865 0.542465 0.000000
O O5 0.606673 0.129432 0.752875
O O6 0.809361 0.187083 0.643539
O O7 0.507672 0.166925 0.611963
O O8 0.696483 0.017125 0.643282
O O9 0.511768 0.171645 0.109708
O O10 0.820784 0.174574 0.139645
O O11 0.359351 0.258789 0.500000
O O12 0.200038 0.150583 0.405219
O O13 0.420048 0.287244 0.000000
O O14 0.500000 0.500000 0.595719
O O15 0.260006 0.517261 0.500000
#
# Coordination Sequence:
#
# PCOD9427558 Si02
#       6
#     8   8   8   8   8   8
#     4   8  16  33  57  81 108 149 193 229 280 354
#     4  12  24  38  59  90 125 159 199 254 313 360
#     4  11  22  36  57  87 119 150 190 246 301 350
#     4  11  23  41  64  87 120 165 209 249 294 360
#     4  10  20  38  62  84 113 155 199 238 286 357
#     4  10  22  41  65  90 116 155 208 258 305 364
#
# _framework density 23.937951000000002
#
# number of rings (size 3 to 8) (size 9 to 14) (size 15 to 20)
#    0.000    1.667    0.000    6.500    0.000    6.000 
#    0.000    2.500    0.000    3.000    0.000    0.000 
#    0.000    0.000    0.000    0.000    0.000    0.000 
#
# Total GULP energy -268751.118798 kJ/mol
# GULP energy per Si atom -5598.981642 kJ/mol
# Density = 2.388347 g / cm^3
# Si number density = 23.937951 Si / 1000 Ang^3
#
#
#
# Elastic Constant Matrix: (Units=GPa)
#
#
# Indices 1 2 3 4 5 6 
#
# 1 45.6399 -10.4180 5.0542 0.0000 0.0000 0.0000
# 2 -10.4180 106.0996 18.7088 0.0000 0.0000 0.0000
# 3 5.0542 18.7088 74.6199 0.0000 0.0000 0.0000
# 4 0.0000 0.0000 0.0000 25.4046 0.0000 0.0000
# 5 0.0000 0.0000 0.0000 0.0000 24.3942 0.0000
# 6 0.0000 0.0000 0.0000 0.0000 0.0000 39.7498
#
#
#
# Elastic Compliance Matrix: (Units=1/GPa)
#
#
# Indices 1 2 3 4 5 6 
#
# 1 0.022753 0.002622 -0.002198 0.000000 0.000000 0.000000
# 2 0.002622 0.010163 -0.002726 0.000000 0.000000 0.000000
# 3 -0.002198 -0.002726 0.014234 0.000000 0.000000 0.000000
# 4 0.000000 0.000000 0.000000 0.039363 0.000000 0.000000
# 5 0.000000 0.000000 0.000000 0.000000 0.040993 0.000000
# 6 0.000000 0.000000 0.000000 0.000000 0.000000 0.025157
#
#
# Mechanical properties :
#
#
# Convention : Reuss Voigt Hill
#
# Bulk Modulus (GPa) = 23.50479 28.11660 25.81070
# Shear Modulus (GPa) = 29.16315 32.11066 30.63690
#
# Velocity S-wave (km/s) = 3.49417 3.66650 3.58138
# Velocity P-wave (km/s) = 5.11071 5.44935 5.28275
#
# Compressibility (1/GPa) = 0.04254452
#
# Stress axis : x y z
#
# Youngs Moduli (GPa) = 43.95113 98.39455 70.25652
#
# Poissons Ratio (x) = -0.25796 0.15445
# Poissons Ratio (y) = -0.11523 0.19150
# Poissons Ratio (z) = 0.09662 0.26819
#
# Static dielectric constant tensor:
#      x y z
#    x 2.003250 0.000000 0.000000 
#    y 0.000000 1.956570 0.000000 
#    z 0.000000 0.000000 1.784580 
# 
# From -- ./inp_files/20776.got.cif
#   From: 2010.05.17/outbox.cif.g08.bks.cpg/sg55_11_cif.got.tgz:20776.got - 2010.06.03 13:27:54.
