data_PCOD9427312
_publ_section_title
;
Structure prediction by ZEFSAII (Michael W. Deem and Ramdas Pophale) SiO2 
 PCOD9427312
Probable space group: P B A M
;
_chemical_formula_sum "Si O2"
_cell_formula_units_Z 56
_cell_length_a 13.451516
_cell_length_b 9.672633
_cell_length_c 20.944823
_cell_angle_alpha 90.000000
_cell_angle_beta 90.000000
_cell_angle_gamma 90.000000
_cell_volume 2725.163962
_symmetry_space_group_name_H-M "P B A M"
_symmetry_group_IT_number 55
_symmetry_cell_setting 'orthorhombic'
loop_
_space_group_symop_operation_xyz
x,y,z
-x,-y,z
1/2+x,1/2-y,-z
1/2-x,1/2+y,-z
-x,-y,-z
x,y,-z
1/2-x,1/2+y,z
1/2+x,1/2-y,z
loop_
_atom_site_type_symbol
_atom_site_label
_atom_site_fract_x
_atom_site_fract_y
_atom_site_fract_z
Si Si1 0.584013 0.385156 0.071460
Si Si2 0.734442 0.956650 0.159606
Si Si3 0.556085 0.856209 0.927296
Si Si4 0.053847 0.358473 0.343213
Si Si5 0.222764 0.287357 0.245640
Si Si6 0.281871 0.007728 0.575400
Si Si7 0.146353 0.793414 0.635736
O O1 0.500000 0.500000 0.066484
O O2 0.671131 0.444307 0.113973
O O3 0.525005 0.252780 0.097293
O O4 0.621300 0.350362 0.000000
O O5 0.645320 0.884548 0.120895
O O6 0.757580 0.865933 0.221625
O O7 0.716339 0.110595 0.185059
O O8 0.500000 0.000000 0.933424
O O9 0.587388 0.812606 0.000000
O O10 0.123578 0.301929 0.287357
O O11 0.127415 0.410779 0.399354
O O12 0.000000 0.500000 0.320620
O O13 0.968814 0.250987 0.363965
O O14 0.313582 0.323335 0.293064
O O15 0.287676 0.027698 0.500000
O O16 0.182361 0.924623 0.594785
O O17 0.296165 0.155567 0.610012
#
# Coordination Sequence:
#
# PCOD9427312 Si02
#       7
#     8   8   8   8   8   8   8
#     4  10  22  39  58  85 118 148 187 245 306 354
#     4  12  23  38  61  86 114 153 200 245 292 346
#     4  10  22  40  61  86 117 153 194 241 296 358
#     4   9  20  38  59  81 115 157 192 232 285 344
#     4  11  24  38  57  85 114 152 198 237 281 344
#     4  10  20  36  62  92 115 146 195 238 284 350
#     4  10  21  40  58  81 121 156 186 238 294 337
#
# _framework density 20.549222
#
# number of rings (size 3 to 8) (size 9 to 14) (size 15 to 20)
#    0.000    1.714    0.000    5.143    0.000    8.286 
#    0.000   11.429    0.000    4.286    0.000    0.000 
#    0.000    0.000    0.000    0.000    0.000    0.000 
#
# Total GULP energy -312782.267385 kJ/mol
# GULP energy per Si atom -5585.397632 kJ/mol
# Density = 2.050245 g / cm^3
# Si number density = 20.549222 Si / 1000 Ang^3
#
#
#
# Elastic Constant Matrix: (Units=GPa)
#
#
# Indices 1 2 3 4 5 6 
#
# 1 68.4786 14.0783 30.0966 0.0000 0.0000 0.0000
# 2 14.0783 62.2113 -0.1559 0.0000 0.0000 0.0000
# 3 30.0966 -0.1559 66.8597 0.0000 0.0000 0.0000
# 4 0.0000 0.0000 0.0000 39.6584 0.0000 0.0000
# 5 0.0000 0.0000 0.0000 0.0000 11.0340 0.0000
# 6 0.0000 0.0000 0.0000 0.0000 0.0000 27.0738
#
#
#
# Elastic Compliance Matrix: (Units=1/GPa)
#
#
# Indices 1 2 3 4 5 6 
#
# 1 0.019338 -0.004398 -0.008715 0.000000 0.000000 0.000000
# 2 -0.004398 0.017075 0.002020 0.000000 0.000000 0.000000
# 3 -0.008715 0.002020 0.018884 0.000000 0.000000 0.000000
# 4 0.000000 0.000000 0.000000 0.025215 0.000000 0.000000
# 5 0.000000 0.000000 0.000000 0.000000 0.090629 0.000000
# 6 0.000000 0.000000 0.000000 0.000000 0.000000 0.036936
#
#
# Mechanical properties :
#
#
# Convention : Reuss Voigt Hill
#
# Bulk Modulus (GPa) = 30.20256 31.73198 30.96727
# Shear Modulus (GPa) = 20.72110 25.78862 23.25486
#
# Velocity S-wave (km/s) = 3.17892 3.54640 3.36767
# Velocity P-wave (km/s) = 5.31071 5.67844 5.49765
#
# Compressibility (1/GPa) = 0.03310977
#
# Stress axis : x y z
#
# Youngs Moduli (GPa) = 51.71299 58.56670 52.95378
#
# Poissons Ratio (x) = 0.25757 0.46149
# Poissons Ratio (y) = 0.22743 -0.10694
# Poissons Ratio (z) = 0.45068 -0.11828
#
# Static dielectric constant tensor:
#      x y z
#    x 1.723190 0.000000 0.000000 
#    y 0.000000 1.695660 0.000000 
#    z 0.000000 0.000000 1.746910 
# 
# From -- ./inp_files/22976.got.cif
#   From: 2010.05.17/outbox.cif.g08.bks.cpg/sg55_12_cif.got.tgz:22976.got - 2010.06.03 13:27:54.
