data_PCOD9427113
_publ_section_title
;
Structure prediction by ZEFSAII (Michael W. Deem and Ramdas Pophale) SiO2 
 PCOD9427113
Probable space group: P B A M
;
_chemical_formula_sum "Si O2"
_cell_formula_units_Z 48
_cell_length_a 31.956653
_cell_length_b 9.536979
_cell_length_c 7.842732
_cell_angle_alpha 90.000000
_cell_angle_beta 90.000000
_cell_angle_gamma 90.000000
_cell_volume 2390.228871
_symmetry_space_group_name_H-M "P B A M"
_symmetry_group_IT_number 55
_symmetry_cell_setting 'orthorhombic'
loop_
_space_group_symop_operation_xyz
x,y,z
-x,-y,z
1/2+x,1/2-y,-z
1/2-x,1/2+y,-z
-x,-y,-z
x,y,-z
1/2-x,1/2+y,z
1/2+x,1/2-y,z
loop_
_atom_site_type_symbol
_atom_site_label
_atom_site_fract_x
_atom_site_fract_y
_atom_site_fract_z
Si Si1 0.379877 0.088249 0.708625
Si Si2 0.459491 0.588706 0.708838
Si Si3 0.713471 0.926423 0.304109
Si Si4 0.619696 0.589356 0.705539
Si Si5 0.459685 0.910885 0.291342
Si Si6 0.288342 0.384395 0.806228
O O1 0.379131 0.088377 0.500000
O O2 0.417098 0.987291 0.763599
O O3 0.333296 0.045220 0.764844
O O4 0.387538 0.249468 0.761284
O O5 0.500000 0.500000 0.761860
O O6 0.459310 0.588832 0.500000
O O7 0.416959 0.512541 0.765983
O O8 0.461886 0.749823 0.763871
O O9 0.714671 0.973198 0.500000
O O10 0.718498 0.758177 0.298784
O O11 0.750918 0.006562 0.213917
O O12 0.618359 0.589376 0.500000
O O13 0.666789 0.550733 0.757524
O O14 0.459694 0.910986 0.500000
O O15 0.500000 0.000000 0.237202
O O16 0.290903 0.336242 0.000000
#
# Coordination Sequence:
#
# PCOD9427113 Si02
#       6
#     8   8   8   8   8   8
#     4   8  15  27  43  64  91 126 166 207 249 299
#     4   9  16  25  41  68 100 133 169 212 261 312
#     4  10  20  36  56  77 104 140 181 222 268 323
#     4   9  17  31  49  69  98 135 173 212 259 316
#     4   9  15  23  38  64  98 129 157 198 254 307
#     4  11  22  36  54  79 109 139 176 223 275 326
#
# _framework density 20.081759999999999
#
# number of rings (size 3 to 8) (size 9 to 14) (size 15 to 20)
#    0.000    2.667    0.000    4.000    0.000    5.333 
#    0.000    3.333    0.000    0.500    0.000    0.000 
#    0.000   22.667    0.000    0.000    0.000    0.000 
#
# Total GULP energy -267884.959408 kJ/mol
# GULP energy per Si atom -5580.936654 kJ/mol
# Density = 2.003605 g / cm^3
# Si number density = 20.081760 Si / 1000 Ang^3
#
#
#
# Elastic Constant Matrix: (Units=GPa)
#
#
# Indices 1 2 3 4 5 6 
#
# 1 208.2135 127.3532 5.8832 0.0000 0.0000 0.0000
# 2 127.3532 130.7743 3.6561 0.0000 0.0000 0.0000
# 3 5.8832 3.6561 28.8305 0.0000 0.0000 0.0000
# 4 0.0000 0.0000 0.0000 1.8339 0.0000 0.0000
# 5 0.0000 0.0000 0.0000 0.0000 -21.4902 0.0000
# 6 0.0000 0.0000 0.0000 0.0000 0.0000 41.2803
#
#
#
# Elastic Compliance Matrix: (Units=1/GPa)
#
#
# Indices 1 2 3 4 5 6 
#
# 1 0.011904 -0.011566 -0.000962 0.000000 0.000000 0.000000
# 2 -0.011566 0.018911 -0.000038 0.000000 0.000000 0.000000
# 3 -0.000962 -0.000038 0.034887 0.000000 0.000000 0.000000
# 4 0.000000 0.000000 0.000000 0.545295 0.000000 0.000000
# 5 0.000000 0.000000 0.000000 0.000000 -0.046533 0.000000
# 6 0.000000 0.000000 0.000000 0.000000 0.000000 0.024225
#
#
# Mechanical properties :
#
#
# Convention : Reuss Voigt Hill
#
# Bulk Modulus (GPa) = 24.64921 71.28926 47.96923
# Shear Modulus (GPa) = 7.97010 19.71985 13.84498
#
# Velocity S-wave (km/s) = 1.99435 3.13705 2.62855
# Velocity P-wave (km/s) = 4.19575 6.97840 5.75771
#
# Compressibility (1/GPa) = 0.04056926
#
# Stress axis : x y z
#
# Youngs Moduli (GPa) = 84.00414 52.87900 28.66419
#
# Poissons Ratio (x) = 0.61159 0.02759
# Poissons Ratio (y) = 0.97158 0.00109
# Poissons Ratio (z) = 0.08085 0.00201
#
# Static dielectric constant tensor:
#      x y z
#    x 1.690630 0.000000 0.000000 
#    y 0.000000 1.663830 0.000000 
#    z 0.000000 0.000000 1.697900 
# 
# From -- ./inp_files/10527.got.cif
#   From: 2010.05.17/outbox.cif.g08.bks.cpg/sg55_6_cif.got.tgz:10527.got - 2010.06.03 13:27:54.
