data_PCOD9427187
_publ_section_title
;
Structure prediction by ZEFSAII (Michael W. Deem and Ramdas Pophale) SiO2 
 PCOD9427187
Probable space group: P B A M
;
_chemical_formula_sum "Si O2"
_cell_formula_units_Z 56
_cell_length_a 15.142173
_cell_length_b 22.123474
_cell_length_c 7.673485
_cell_angle_alpha 90.000000
_cell_angle_beta 90.000000
_cell_angle_gamma 90.000000
_cell_volume 2570.598066
_symmetry_space_group_name_H-M "P B A M"
_symmetry_group_IT_number 55
_symmetry_cell_setting 'orthorhombic'
loop_
_space_group_symop_operation_xyz
x,y,z
-x,-y,z
1/2+x,1/2-y,-z
1/2-x,1/2+y,-z
-x,-y,-z
x,y,-z
1/2-x,1/2+y,z
1/2+x,1/2-y,z
loop_
_atom_site_type_symbol
_atom_site_label
_atom_site_fract_x
_atom_site_fract_y
_atom_site_fract_z
Si Si1 0.798646 0.898154 0.712458
Si Si2 0.721205 0.770845 0.696717
Si Si3 0.638987 0.977896 0.288232
Si Si4 0.035026 0.406222 0.711038
Si Si5 0.496709 0.567249 0.203196
Si Si6 0.597710 0.225234 0.203617
Si Si7 0.556549 0.690271 0.206421
O O1 0.804650 0.896187 0.500000
O O2 0.752849 0.835390 0.771846
O O3 0.733207 0.952337 0.765820
O O4 0.896411 0.908598 0.783092
O O5 0.692581 0.784379 0.500000
O O6 0.809323 0.730687 0.701702
O O7 0.642247 0.731824 0.774333
O O8 0.638782 0.978294 0.500000
O O9 0.560367 0.932241 0.235753
O O10 0.607982 0.044343 0.232781
O O11 0.035586 0.403664 0.500000
O O12 0.055486 0.340521 0.780434
O O13 0.500000 0.500000 0.282662
O O14 0.556903 0.621785 0.277495
O O15 0.521981 0.560122 0.000000
O O16 0.527832 0.273350 0.277284
O O17 0.614520 0.237856 0.000000
O O18 0.541319 0.684538 0.000000
#
# Coordination Sequence:
#
# PCOD9427187 Si02
#       7
#     8   8   8   8   8   8   8
#     4  10  20  36  58  85 114 147 194 243 291 349
#     4  11  23  37  60  89 114 148 195 245 293 349
#     4   8  16  32  55  82 113 149 186 234 292 342
#     4   9  17  33  56  81 114 152 190 234 285 341
#     4  10  22  41  62  83 113 155 198 239 292 354
#     4  11  22  37  57  82 117 154 187 233 290 347
#     4  10  22  40  60  84 117 155 194 242 297 352
#
# _framework density 21.784814000000001
#
# number of rings (size 3 to 8) (size 9 to 14) (size 15 to 20)
#    0.000    2.143    1.429    2.571    0.000    4.857 
#    0.000    5.714    0.000    0.000    0.000    0.000 
#    0.000    0.000    0.000    0.000    0.000    0.000 
#
# Total GULP energy -312660.266849 kJ/mol
# GULP energy per Si atom -5583.219051 kJ/mol
# Density = 2.173523 g / cm^3
# Si number density = 21.784814 Si / 1000 Ang^3
#
#
#
# Elastic Constant Matrix: (Units=GPa)
#
#
# Indices 1 2 3 4 5 6 
#
# 1 65.7032 24.6584 -11.1194 0.0000 0.0000 0.0000
# 2 24.6584 123.7309 -4.0929 0.0000 0.0000 0.0000
# 3 -11.1194 -4.0929 40.0956 0.0000 0.0000 0.0000
# 4 0.0000 0.0000 0.0000 16.7285 0.0000 0.0000
# 5 0.0000 0.0000 0.0000 0.0000 18.4438 0.0000
# 6 0.0000 0.0000 0.0000 0.0000 0.0000 27.5171
#
#
#
# Elastic Compliance Matrix: (Units=1/GPa)
#
#
# Indices 1 2 3 4 5 6 
#
# 1 0.017202 -0.003282 0.004436 0.000000 0.000000 0.000000
# 2 -0.003282 0.008735 -0.000018 0.000000 0.000000 0.000000
# 3 0.004436 -0.000018 0.026169 0.000000 0.000000 0.000000
# 4 0.000000 0.000000 0.000000 0.059778 0.000000 0.000000
# 5 0.000000 0.000000 0.000000 0.000000 0.054219 0.000000
# 6 0.000000 0.000000 0.000000 0.000000 0.000000 0.036341
#
#
# Mechanical properties :
#
#
# Convention : Reuss Voigt Hill
#
# Bulk Modulus (GPa) = 18.38991 27.60243 22.99617
# Shear Modulus (GPa) = 22.90442 27.21013 25.05727
#
# Velocity S-wave (km/s) = 3.24604 3.53801 3.39516
# Velocity P-wave (km/s) = 4.74436 5.42107 5.09397
#
# Compressibility (1/GPa) = 0.05437766
#
# Stress axis : x y z
#
# Youngs Moduli (GPa) = 58.13218 114.47645 38.21373
#
# Poissons Ratio (x) = 0.37566 -0.16950
# Poissons Ratio (y) = 0.19076 0.00070
# Poissons Ratio (z) = -0.25785 0.00210
#
# Static dielectric constant tensor:
#      x y z
#    x 1.756200 0.000000 0.000000 
#    y 0.000000 1.822290 0.000000 
#    z 0.000000 0.000000 1.762960 
# 
# From -- ./inp_files/5995.got.cif
#   From: 2010.05.17/outbox.cif.g08.bks.cpg/sg55_3_cif.got.tgz:5995.got - 2010.06.03 13:27:54.
