data_PCOD9427093
_publ_section_title
;
Structure prediction by ZEFSAII (Michael W. Deem and Ramdas Pophale) SiO2 
 PCOD9427093
Probable space group: P B A M
;
_chemical_formula_sum "Si O2"
_cell_formula_units_Z 40
_cell_length_a 9.716278
_cell_length_b 13.798000
_cell_length_c 14.321306
_cell_angle_alpha 90.000000
_cell_angle_beta 90.000000
_cell_angle_gamma 90.000000
_cell_volume 1919.988808
_symmetry_space_group_name_H-M "P B A M"
_symmetry_group_IT_number 55
_symmetry_cell_setting 'orthorhombic'
loop_
_space_group_symop_operation_xyz
x,y,z
-x,-y,z
1/2+x,1/2-y,-z
1/2-x,1/2+y,-z
-x,-y,-z
x,y,-z
1/2-x,1/2+y,z
1/2+x,1/2-y,z
loop_
_atom_site_type_symbol
_atom_site_label
_atom_site_fract_x
_atom_site_fract_y
_atom_site_fract_z
Si Si1 0.340844 0.035149 0.399620
Si Si2 0.867013 0.439381 0.197056
Si Si3 0.764670 0.237323 0.605765
Si Si4 0.502016 0.738967 0.268644
Si Si5 0.589766 0.402996 0.895650
O O1 0.280051 0.001824 0.500000
O O2 0.301992 0.012634 0.292208
O O3 0.315378 0.150797 0.401683
O O4 0.500000 0.000000 0.401736
O O5 0.748190 0.430306 0.122100
O O6 0.000000 0.500000 0.168204
O O7 0.924164 0.333138 0.224928
O O8 0.741329 0.204830 0.500000
O O9 0.627094 0.231856 0.666760
O O10 0.888243 0.187788 0.662431
O O11 0.452605 0.670815 0.185478
O O12 0.500000 0.500000 0.888121
O O13 0.570798 0.362440 0.000000
#
# Coordination Sequence:
#
# PCOD9427093 Si02
#       5
#     8   8   8   8   8
#     4   8  14  29  54  85 122 162 203 248 300 367
#     4  10  22  40  67  94 124 167 213 266 318 388
#     4  10  20  35  63  98 131 171 216 258 319 390
#     4  11  21  42  64  96 129 176 211 265 324 385
#     4  11  26  46  67  92 126 168 220 281 334 380
#
# _framework density 20.833454
#
# number of rings (size 3 to 8) (size 9 to 14) (size 15 to 20)
#    0.000    2.000    4.000    0.600    2.800    2.000 
#    0.000    0.000    0.000    3.000    0.000    0.000 
#    0.000    0.000    0.000    0.000    0.000    0.000 
#
# Total GULP energy -222964.665771 kJ/mol
# GULP energy per Si atom -5574.116644 kJ/mol
# Density = 2.078604 g / cm^3
# Si number density = 20.833454 Si / 1000 Ang^3
#
#
#
# Elastic Constant Matrix: (Units=GPa)
#
#
# Indices 1 2 3 4 5 6 
#
# 1 97.2283 22.2321 63.2708 0.0000 0.0000 0.0000
# 2 22.2321 72.0486 23.7241 0.0000 0.0000 0.0000
# 3 63.2708 23.7241 150.8092 0.0000 0.0000 0.0000
# 4 0.0000 0.0000 0.0000 -30.4327 0.0000 0.0000
# 5 0.0000 0.0000 0.0000 0.0000 16.9366 0.0000
# 6 0.0000 0.0000 0.0000 0.0000 0.0000 34.8442
#
#
#
# Elastic Compliance Matrix: (Units=1/GPa)
#
#
# Indices 1 2 3 4 5 6 
#
# 1 0.014604 -0.002625 -0.005714 0.000000 0.000000 0.000000
# 2 -0.002625 0.015110 -0.001276 0.000000 0.000000 0.000000
# 3 -0.005714 -0.001276 0.009229 0.000000 0.000000 0.000000
# 4 0.000000 0.000000 0.000000 -0.032859 0.000000 0.000000
# 5 0.000000 0.000000 0.000000 0.000000 0.059044 0.000000
# 6 0.000000 0.000000 0.000000 0.000000 0.000000 0.028699
#
#
# Mechanical properties :
#
#
# Convention : Reuss Voigt Hill
#
# Bulk Modulus (GPa) = 50.72763 59.83777 55.28270
# Shear Modulus (GPa) = 41.79724 18.32690 30.06207
#
# Velocity S-wave (km/s) = 4.48398 2.96917 3.80277
# Velocity P-wave (km/s) = 7.15613 6.36702 6.77307
#
# Compressibility (1/GPa) = 0.01971312
#
# Stress axis : x y z
#
# Youngs Moduli (GPa) = 68.47662 66.18349 108.35646
#
# Poissons Ratio (x) = 0.17372 0.61914
# Poissons Ratio (y) = 0.17973 0.13823
# Poissons Ratio (z) = 0.39127 0.08443
#
# Static dielectric constant tensor:
#      x y z
#    x 1.731150 0.000000 0.000000 
#    y 0.000000 1.806720 0.000000 
#    z 0.000000 0.000000 1.796420 
# 
# From -- ./inp_files/17042.got.cif
#   From: 2010.05.17/outbox.cif.g08.bks.cpg/sg55_9_cif.got.tgz:17042.got - 2010.06.03 13:27:54.
