data_PCOD9427820
_publ_section_title
;
Structure prediction by ZEFSAII (Michael W. Deem and Ramdas Pophale) SiO2 
 PCOD9427820
Probable space group: P B A M
;
_chemical_formula_sum "Si O2"
_cell_formula_units_Z 64
_cell_length_a 14.117124
_cell_length_b 9.304910
_cell_length_c 22.383037
_cell_angle_alpha 90.000000
_cell_angle_beta 90.000000
_cell_angle_gamma 90.000000
_cell_volume 2940.203694
_symmetry_space_group_name_H-M "P B A M"
_symmetry_group_IT_number 55
_symmetry_cell_setting 'orthorhombic'
loop_
_space_group_symop_operation_xyz
x,y,z
-x,-y,z
1/2+x,1/2-y,-z
1/2-x,1/2+y,-z
-x,-y,-z
x,y,-z
1/2-x,1/2+y,z
1/2+x,1/2-y,z
loop_
_atom_site_type_symbol
_atom_site_label
_atom_site_fract_x
_atom_site_fract_y
_atom_site_fract_z
Si Si1 0.055500 0.365600 0.393349
Si Si2 0.750573 0.553766 0.333257
Si Si3 0.775557 0.803749 0.255515
Si Si4 0.107057 0.060298 0.565538
Si Si5 0.833983 0.750947 0.124403
Si Si6 0.812373 0.065522 0.069592
Si Si7 0.464987 0.333461 0.840007
Si Si8 0.502617 0.327490 0.711702
O O1 0.147417 0.435524 0.362881
O O2 0.095186 0.232478 0.431311
O O3 0.991399 0.280266 0.343850
O O4 0.000000 0.500000 0.421231
O O5 0.726505 0.709373 0.306984
O O6 0.755563 0.463138 0.272075
O O7 0.674908 0.493911 0.381033
O O8 0.775201 0.762891 0.186521
O O9 0.888110 0.800505 0.269994
O O10 0.144665 0.017527 0.500000
O O11 0.000000 0.000000 0.570060
O O12 0.791204 0.623493 0.085825
O O13 0.945051 0.740873 0.139450
O O14 0.821765 0.900851 0.089515
O O15 0.884393 0.158420 0.110409
O O16 0.833695 0.081381 0.000000
O O17 0.500000 0.500000 0.834818
O O18 0.441838 0.294710 0.771289
O O19 0.500000 0.500000 0.699129
#
# Coordination Sequence:
#
# PCOD9427820 Si02
#       8
#     8   8   8   8   8   8   8   8
#     4  11  25  39  64 100 132 166 214 265 323 382
#     4  11  22  42  62  99 129 168 209 268 324 377
#     4  10  21  35  64  94 125 162 215 264 330 392
#     4  11  26  48  70  94 128 176 222 257 312 386
#     4  10  21  39  57  90 124 159 208 269 320 375
#     4  11  22  37  59  86 120 169 219 259 320 388
#     4   8  18  35  59  85 115 159 214 261 309 374
#     4   9  17  36  60  90 126 165 209 263 327 387
#
# _framework density 21.767199000000002
#
# number of rings (size 3 to 8) (size 9 to 14) (size 15 to 20)
#    0.000    1.875    2.500    2.250    1.750    4.500 
#    0.000    0.625    0.000    1.500    0.000    0.000 
#    0.000    0.000    0.000    0.000    0.000    0.000 
#
# Total GULP energy -357154.531375 kJ/mol
# GULP energy per Si atom -5580.539553 kJ/mol
# Density = 2.171766 g / cm^3
# Si number density = 21.767199 Si / 1000 Ang^3
#
#
#
# Elastic Constant Matrix: (Units=GPa)
#
#
# Indices 1 2 3 4 5 6 
#
# 1 51.9990 12.4775 20.5145 0.0000 0.0000 0.0000
# 2 12.4775 44.7745 9.2273 0.0000 0.0000 0.0000
# 3 20.5145 9.2273 129.6836 0.0000 0.0000 0.0000
# 4 0.0000 0.0000 0.0000 16.4030 0.0000 0.0000
# 5 0.0000 0.0000 0.0000 0.0000 -79.5040 0.0000
# 6 0.0000 0.0000 0.0000 0.0000 0.0000 32.1678
#
#
#
# Elastic Compliance Matrix: (Units=1/GPa)
#
#
# Indices 1 2 3 4 5 6 
#
# 1 0.021738 -0.005429 -0.003052 0.000000 0.000000 0.000000
# 2 -0.005429 0.024022 -0.000850 0.000000 0.000000 0.000000
# 3 -0.003052 -0.000850 0.008254 0.000000 0.000000 0.000000
# 4 0.000000 0.000000 0.000000 0.060965 0.000000 0.000000
# 5 0.000000 0.000000 0.000000 0.000000 -0.012578 0.000000
# 6 0.000000 0.000000 0.000000 0.000000 0.000000 0.031087
#
#
# Mechanical properties :
#
#
# Convention : Reuss Voigt Hill
#
# Bulk Modulus (GPa) = 28.28742 34.54396 31.41569
# Shear Modulus (GPa) = 30.49978 6.09587 18.29783
#
# Velocity S-wave (km/s) = 3.74730 1.67528 2.90248
# Velocity P-wave (km/s) = 5.63441 4.43241 5.06917
#
# Compressibility (1/GPa) = 0.03535140
#
# Stress axis : x y z
#
# Youngs Moduli (GPa) = 46.00223 41.62799 121.14672
#
# Poissons Ratio (x) = 0.22599 0.36979
# Poissons Ratio (y) = 0.24974 0.10303
# Poissons Ratio (z) = 0.14042 0.03540
#
# Static dielectric constant tensor:
#      x y z
#    x 1.823780 0.000000 0.000000 
#    y 0.000000 1.784260 0.000000 
#    z 0.000000 0.000000 1.807880 
# 
# From -- ./inp_files/23616.got.cif
#   From: 2010.05.17/outbox.cif.g08.bks.cpg/sg55_12_cif.got.tgz:23616.got - 2010.06.03 13:27:54.
