data_PCOD9427517
_publ_section_title
;
Structure prediction by ZEFSAII (Michael W. Deem and Ramdas Pophale) SiO2 
 PCOD9427517
Probable space group: P B A M
;
_chemical_formula_sum "Si O2"
_cell_formula_units_Z 48
_cell_length_a 8.189521
_cell_length_b 13.123597
_cell_length_c 21.295962
_cell_angle_alpha 90.000000
_cell_angle_beta 90.000000
_cell_angle_gamma 90.000000
_cell_volume 2288.804242
_symmetry_space_group_name_H-M "P B A M"
_symmetry_group_IT_number 55
_symmetry_cell_setting 'orthorhombic'
loop_
_space_group_symop_operation_xyz
x,y,z
-x,-y,z
1/2+x,1/2-y,-z
1/2-x,1/2+y,-z
-x,-y,-z
x,y,-z
1/2-x,1/2+y,z
1/2+x,1/2-y,z
loop_
_atom_site_type_symbol
_atom_site_label
_atom_site_fract_x
_atom_site_fract_y
_atom_site_fract_z
Si Si1 0.138769 0.300802 0.139776
Si Si2 0.917361 0.659151 0.429298
Si Si3 0.379564 0.671933 0.325314
Si Si4 0.393541 0.204950 0.764159
Si Si5 0.230174 0.051760 0.569780
Si Si6 0.940437 0.113413 0.075059
O O1 0.013782 0.354001 0.188518
O O2 0.266382 0.253476 0.188240
O O3 0.046582 0.207105 0.104469
O O4 0.251099 0.368423 0.094502
O O5 0.894629 0.702527 0.500000
O O6 0.871933 0.730801 0.371652
O O7 0.802812 0.560705 0.424685
O O8 0.106054 0.622811 0.425522
O O9 0.513005 0.705118 0.273943
O O10 0.393125 0.583976 0.376202
O O11 0.214107 0.647729 0.287063
O O12 0.161656 0.064207 0.500000
O O13 0.956625 0.118964 0.000000
O O14 0.000000 0.000000 0.095359
#
# Coordination Sequence:
#
# PCOD9427517 Si02
#       6
#     8   8   8   8   8   8
#     4   9  19  40  56  82 129 159 182 242 290 317
#     4   9  18  32  50  73 101 135 179 234 295 350
#     4  11  17  34  52  76 101 141 188 234 276 335
#     4   9  20  33  55  78 110 154 191 224 274 343
#     4   9  18  32  50  73 101 135 179 234 295 350
#     4  10  20  37  66  97 121 155 198 232 278 339
#
# _framework density 20.97165
#
# number of rings (size 3 to 8) (size 9 to 14) (size 15 to 20)
#    0.000    2.500    1.667    2.000    0.000    0.000 
#    0.000   20.833    0.000   11.000    0.000    0.000 
#    0.000    0.000    0.000    0.000    0.000    0.000 
#
# Total GULP energy -267385.218712 kJ/mol
# GULP energy per Si atom -5570.525390 kJ/mol
# Density = 2.092392 g / cm^3
# Si number density = 20.971650 Si / 1000 Ang^3
#
#
#
# Elastic Constant Matrix: (Units=GPa)
#
#
# Indices 1 2 3 4 5 6 
#
# 1 56.4686 29.7140 36.0249 0.0000 0.0000 0.0000
# 2 29.7140 74.8320 35.2363 0.0000 0.0000 0.0000
# 3 36.0249 35.2363 125.2253 0.0000 0.0000 0.0000
# 4 0.0000 0.0000 0.0000 3.7107 0.0000 0.0000
# 5 0.0000 0.0000 0.0000 0.0000 15.4333 0.0000
# 6 0.0000 0.0000 0.0000 0.0000 0.0000 21.5222
#
#
#
# Elastic Compliance Matrix: (Units=1/GPa)
#
#
# Indices 1 2 3 4 5 6 
#
# 1 0.024875 -0.007502 -0.005045 0.000000 0.000000 0.000000
# 2 -0.007502 0.017667 -0.002813 0.000000 0.000000 0.000000
# 3 -0.005045 -0.002813 0.010229 0.000000 0.000000 0.000000
# 4 0.000000 0.000000 0.000000 0.269488 0.000000 0.000000
# 5 0.000000 0.000000 0.000000 0.000000 0.064795 0.000000
# 6 0.000000 0.000000 0.000000 0.000000 0.000000 0.046464
#
#
# Mechanical properties :
#
#
# Convention : Reuss Voigt Hill
#
# Bulk Modulus (GPa) = 45.35062 50.94181 48.14622
# Shear Modulus (GPa) = 10.60251 18.50330 14.55290
#
# Velocity S-wave (km/s) = 2.25091 2.97358 2.63712
# Velocity P-wave (km/s) = 5.33171 6.01108 5.68156
#
# Compressibility (1/GPa) = 0.02205041
#
# Stress axis : x y z
#
# Youngs Moduli (GPa) = 40.20105 56.60422 97.76558
#
# Poissons Ratio (x) = 0.42462 0.49325
# Poissons Ratio (y) = 0.30157 0.27501
# Poissons Ratio (z) = 0.20282 0.15923
#
# Static dielectric constant tensor:
#      x y z
#    x 1.837550 0.000000 0.000000 
#    y 0.000000 1.772510 0.000000 
#    z 0.000000 0.000000 1.765640 
# 
# From -- ./inp_files/22547.got.cif
#   From: 2010.05.17/outbox.cif.g08.bks.cpg/sg55_12_cif.got.tgz:22547.got - 2010.06.03 13:27:54.
