data_PCOD9427494
_publ_section_title
;
Structure prediction by ZEFSAII (Michael W. Deem and Ramdas Pophale) SiO2 
 PCOD9427494
Probable space group: P B A M
;
_chemical_formula_sum "Si O2"
_cell_formula_units_Z 64
_cell_length_a 25.590864
_cell_length_b 14.746241
_cell_length_c 8.784223
_cell_angle_alpha 90.000000
_cell_angle_beta 90.000000
_cell_angle_gamma 90.000000
_cell_volume 3314.893870
_symmetry_space_group_name_H-M "P B A M"
_symmetry_group_IT_number 55
_symmetry_cell_setting 'orthorhombic'
loop_
_space_group_symop_operation_xyz
x,y,z
-x,-y,z
1/2+x,1/2-y,-z
1/2-x,1/2+y,-z
-x,-y,-z
x,y,-z
1/2-x,1/2+y,z
1/2+x,1/2-y,z
loop_
_atom_site_type_symbol
_atom_site_label
_atom_site_fract_x
_atom_site_fract_y
_atom_site_fract_z
Si Si1 0.183615 0.201030 0.819267
Si Si2 0.865147 0.400096 0.817579
Si Si3 0.383827 0.290624 0.316322
Si Si4 0.428521 0.749593 0.317526
Si Si5 0.753572 0.447063 0.318792
Si Si6 0.234825 0.842063 0.318044
Si Si7 0.014543 0.898960 0.314561
Si Si8 0.552817 0.053731 0.182918
O O1 0.127852 0.225117 0.749062
O O2 0.205737 0.106903 0.754445
O O3 0.225851 0.276185 0.768267
O O4 0.180159 0.198273 0.000000
O O5 0.891422 0.308510 0.755338
O O6 0.807506 0.408932 0.748254
O O7 0.898872 0.488504 0.775110
O O8 0.862128 0.395571 0.000000
O O9 0.386254 0.282509 0.500000
O O10 0.325409 0.323171 0.276360
O O11 0.428760 0.360877 0.267879
O O12 0.425887 0.749049 0.500000
O O13 0.471012 0.674549 0.269155
O O14 0.444215 0.849276 0.261386
O O15 0.753117 0.432771 0.500000
O O16 0.749010 0.553754 0.287995
O O17 0.240035 0.825737 0.500000
O O18 0.014887 0.901828 0.500000
O O19 0.000000 0.000000 0.261282
O O20 0.500000 0.000000 0.221359
O O21 0.553939 0.066634 0.000000
#
# Coordination Sequence:
#
# PCOD9427494 Si02
#       8
#     8   8   8   8   8   8   8   8
#     4  12  25  41  62  89 126 165 204 251 307 371
#     4  11  22  37  59  89 122 163 203 245 304 365
#     4  10  20  37  63  91 120 157 200 252 305 357
#     4  11  23  39  63  92 123 161 209 260 310 365
#     4  11  23  39  61  89 120 157 202 252 307 365
#     4  10  22  39  63  93 123 160 204 253 308 365
#     4   9  20  38  63  92 121 157 202 253 305 358
#     4  10  22  40  62  89 126 167 203 247 309 372
#
# _framework density 19.306802000000001
#
# number of rings (size 3 to 8) (size 9 to 14) (size 15 to 20)
#    0.000    1.500    1.250    3.750    1.750    4.250 
#    0.000    0.625    0.000    1.875    0.000    0.000 
#    0.000    0.000    0.000    0.000    0.000    0.000 
#
# Total GULP energy -357845.746330 kJ/mol
# GULP energy per Si atom -5591.339786 kJ/mol
# Density = 1.926286 g / cm^3
# Si number density = 19.306802 Si / 1000 Ang^3
#
#
#
# Elastic Constant Matrix: (Units=GPa)
#
#
# Indices 1 2 3 4 5 6 
#
# 1 93.2906 11.0534 9.6186 0.0000 0.0000 0.0000
# 2 11.0534 74.2267 8.3040 0.0000 0.0000 0.0000
# 3 9.6186 8.3040 22.7262 0.0000 0.0000 0.0000
# 4 0.0000 0.0000 0.0000 32.0378 0.0000 0.0000
# 5 0.0000 0.0000 0.0000 0.0000 10.6008 0.0000
# 6 0.0000 0.0000 0.0000 0.0000 0.0000 35.5226
#
#
#
# Elastic Compliance Matrix: (Units=1/GPa)
#
#
# Indices 1 2 3 4 5 6 
#
# 1 0.011309 -0.001198 -0.004349 0.000000 0.000000 0.000000
# 2 -0.001198 0.014173 -0.004672 0.000000 0.000000 0.000000
# 3 -0.004349 -0.004672 0.047550 0.000000 0.000000 0.000000
# 4 0.000000 0.000000 0.000000 0.031213 0.000000 0.000000
# 5 0.000000 0.000000 0.000000 0.000000 0.094333 0.000000
# 6 0.000000 0.000000 0.000000 0.000000 0.000000 0.028151
#
#
# Mechanical properties :
#
#
# Convention : Reuss Voigt Hill
#
# Bulk Modulus (GPa) = 19.01305 27.57727 23.29516
# Shear Modulus (GPa) = 18.88943 26.38340 22.63641
#
# Velocity S-wave (km/s) = 3.13130 3.70068 3.42783
# Velocity P-wave (km/s) = 4.78985 5.70743 5.26865
#
# Compressibility (1/GPa) = 0.05259546
#
# Stress axis : x y z
#
# Youngs Moduli (GPa) = 88.42134 70.55549 21.03058
#
# Poissons Ratio (x) = 0.08450 0.09146
# Poissons Ratio (y) = 0.10589 0.09825
# Poissons Ratio (z) = 0.38455 0.32963
#
# Static dielectric constant tensor:
#      x y z
#    x 1.659100 0.000000 0.000000 
#    y 0.000000 1.659230 0.000000 
#    z 0.000000 0.000000 1.646350 
# 
# From -- ./inp_files/9688.got.cif
#   From: 2010.05.17/outbox.cif.g08.bks.cpg/sg55_5_cif.got.tgz:9688.got - 2010.06.03 13:27:54.
