data_PCOD9427871
_publ_section_title
;
Structure prediction by ZEFSAII (Michael W. Deem and Ramdas Pophale) SiO2 
 PCOD9427871
Probable space group: P B A M
;
_chemical_formula_sum "Si O2"
_cell_formula_units_Z 64
_cell_length_a 16.185771
_cell_length_b 23.139860
_cell_length_c 8.792494
_cell_angle_alpha 90.000000
_cell_angle_beta 90.000000
_cell_angle_gamma 90.000000
_cell_volume 3293.109709
_symmetry_space_group_name_H-M "P B A M"
_symmetry_group_IT_number 55
_symmetry_cell_setting 'orthorhombic'
loop_
_space_group_symop_operation_xyz
x,y,z
-x,-y,z
1/2+x,1/2-y,-z
1/2-x,1/2+y,-z
-x,-y,-z
x,y,-z
1/2-x,1/2+y,z
1/2+x,1/2-y,z
loop_
_atom_site_type_symbol
_atom_site_label
_atom_site_fract_x
_atom_site_fract_y
_atom_site_fract_z
Si Si1 0.096336 0.353575 0.828247
Si Si2 0.418283 0.463544 0.816384
Si Si3 0.400060 0.336031 0.318319
Si Si4 0.753117 0.964235 0.184950
Si Si5 0.238436 0.666934 0.182011
Si Si6 0.273645 0.779771 0.675760
Si Si7 0.092897 0.475395 0.321854
Si Si8 0.566085 0.778534 0.176513
O O1 0.152970 0.322994 0.705463
O O2 0.093141 0.419893 0.785466
O O3 0.007867 0.323548 0.820222
O O4 0.129305 0.345322 0.000000
O O5 0.500000 0.500000 0.769756
O O6 0.419317 0.398263 0.752760
O O7 0.333002 0.496828 0.772865
O O8 0.419171 0.460450 0.000000
O O9 0.402376 0.341373 0.500000
O O10 0.308700 0.313393 0.269911
O O11 0.453287 0.280745 0.264515
O O12 0.764421 0.896980 0.230456
O O13 0.668058 0.985133 0.261802
O O14 0.744903 0.967133 0.000000
O O15 0.292511 0.720521 0.237009
O O16 0.147202 0.687555 0.235852
O O17 0.236797 0.665686 0.000000
O O18 0.261193 0.765959 0.500000
O O19 0.108093 0.461556 0.500000
O O20 0.000000 0.500000 0.312246
O O21 0.581634 0.762568 0.000000
#
# Coordination Sequence:
#
# PCOD9427871 Si02
#       8
#     8   8   8   8   8   8   8   8
#     4  11  22  36  57  84 112 145 187 231 276 331
#     4  10  22  39  58  82 113 149 191 240 289 334
#     4  10  21  37  57  80 108 144 185 228 277 334
#     4  10  21  38  61  85 113 154 199 242 284 333
#     4   9  18  35  57  81 108 141 188 236 279 331
#     4  10  21  36  55  82 115 148 182 226 280 336
#     4  11  24  39  57  85 121 156 188 231 289 350
#     4   9  19  35  56  80 107 140 178 228 281 329
#
# _framework density 19.434518000000001
#
# number of rings (size 3 to 8) (size 9 to 14) (size 15 to 20)
#    0.000    2.000    0.000    3.000    0.000    8.750 
#    0.000    5.000    0.000    0.000    0.000    0.000 
#    0.000    0.000    0.000    0.000    0.000    0.000 
#
# Total GULP energy -356974.666946 kJ/mol
# GULP energy per Si atom -5577.729171 kJ/mol
# Density = 1.939028 g / cm^3
# Si number density = 19.434518 Si / 1000 Ang^3
#
#
#
# Elastic Constant Matrix: (Units=GPa)
#
#
# Indices 1 2 3 4 5 6 
#
# 1 31.1437 2.0618 6.3854 0.0000 0.0000 0.0000
# 2 2.0618 119.8360 16.8929 0.0000 0.0000 0.0000
# 3 6.3854 16.8929 17.5405 0.0000 0.0000 0.0000
# 4 0.0000 0.0000 0.0000 -5.5976 0.0000 0.0000
# 5 0.0000 0.0000 0.0000 0.0000 18.7171 0.0000
# 6 0.0000 0.0000 0.0000 0.0000 0.0000 87.1236
#
#
#
# Elastic Compliance Matrix: (Units=1/GPa)
#
#
# Indices 1 2 3 4 5 6 
#
# 1 0.034895 0.001377 -0.014029 0.000000 0.000000 0.000000
# 2 0.001377 0.009710 -0.009853 0.000000 0.000000 0.000000
# 3 -0.014029 -0.009853 0.071607 0.000000 0.000000 0.000000
# 4 0.000000 0.000000 0.000000 -0.178648 0.000000 0.000000
# 5 0.000000 0.000000 0.000000 0.000000 0.053427 0.000000
# 6 0.000000 0.000000 0.000000 0.000000 0.000000 0.011478
#
#
# Mechanical properties :
#
#
# Convention : Reuss Voigt Hill
#
# Bulk Modulus (GPa) = 14.04459 24.35560 19.20010
# Shear Modulus (GPa) = 70.21193 29.59397 49.90295
#
# Velocity S-wave (km/s) = 6.01713 3.90648 5.07279
# Velocity P-wave (km/s) = 7.45096 5.73644 6.64920
#
# Compressibility (1/GPa) = 0.07120177
#
# Stress axis : x y z
#
# Youngs Moduli (GPa) = 28.65781 102.98687 13.96507
#
# Poissons Ratio (x) = -0.14185 0.19592
# Poissons Ratio (y) = -0.03947 0.13760
# Poissons Ratio (z) = 0.40205 1.01472
#
# Static dielectric constant tensor:
#      x y z
#    x 1.324340 0.000000 0.000000 
#    y 0.000000 1.773250 0.000000 
#    z 0.000000 0.000000 1.670750 
# 
# From -- ./inp_files/8050.got.cif
#   From: 2010.05.17/outbox.cif.g08.bks.cpg/sg55_5_cif.got.tgz:8050.got - 2010.06.03 13:27:54.
