data_PCOD9427560
_publ_section_title
;
Structure prediction by ZEFSAII (Michael W. Deem and Ramdas Pophale) SiO2 
 PCOD9427560
Probable space group: P B A M
;
_chemical_formula_sum "Si O2"
_cell_formula_units_Z 40
_cell_length_a 15.478938
_cell_length_b 9.314660
_cell_length_c 13.094176
_cell_angle_alpha 90.000000
_cell_angle_beta 90.000000
_cell_angle_gamma 90.000000
_cell_volume 1887.931974
_symmetry_space_group_name_H-M "P B A M"
_symmetry_group_IT_number 55
_symmetry_cell_setting 'orthorhombic'
loop_
_space_group_symop_operation_xyz
x,y,z
-x,-y,z
1/2+x,1/2-y,-z
1/2-x,1/2+y,-z
-x,-y,-z
x,y,-z
1/2-x,1/2+y,z
1/2+x,1/2-y,z
loop_
_atom_site_type_symbol
_atom_site_label
_atom_site_fract_x
_atom_site_fract_y
_atom_site_fract_z
Si Si1 0.870137 0.065713 0.000000
Si Si2 0.632695 0.173807 0.197404
Si Si3 0.904516 0.070332 0.617773
Si Si4 0.511923 0.169688 0.385558
Si Si5 0.720596 0.470911 0.202267
Si Si6 0.466605 0.743216 0.000000
O O1 0.815166 0.053635 0.897484
O O2 0.932491 0.203748 0.000000
O O3 0.923873 0.916025 0.000000
O O4 0.578387 0.209166 0.297902
O O5 0.702000 0.302860 0.185737
O O6 0.681683 0.024032 0.211562
O O7 0.569110 0.178762 0.100483
O O8 0.879412 0.042040 0.500000
O O9 0.835246 0.018795 0.699508
O O10 0.924571 0.239734 0.629416
O O11 0.000000 0.000000 0.634707
O O12 0.543111 0.207889 0.500000
O O13 0.500000 0.000000 0.381399
#
# Coordination Sequence:
#
# PCOD9427560 Si02
#       6
#     4   8   8   8   8   4
#     4   9  19  36  63  86 111 155 200 240 286 348
#     4  11  23  39  59  88 124 155 195 243 299 355
#     4  10  20  38  62  85 112 152 201 244 287 349
#     4  10  22  40  62  86 116 153 198 250 295 347
#     4  11  23  37  60  88 121 158 194 244 299 355
#     4   9  19  38  62  87 112 152 201 244 283 342
#
# _framework density 21.187203
#
# number of rings (size 3 to 8) (size 9 to 14) (size 15 to 20)
#    0.000    1.800    2.000    1.800    5.600    0.800 
#    0.000    0.500    0.000    0.000    0.000    0.000 
#    0.000    0.000    0.000    0.000    0.000    0.000 
#
# Total GULP energy -223410.667448 kJ/mol
# GULP energy per Si atom -5585.266686 kJ/mol
# Density = 2.113898 g / cm^3
# Si number density = 21.187203 Si / 1000 Ang^3
#
#
#
# Elastic Constant Matrix: (Units=GPa)
#
#
# Indices 1 2 3 4 5 6 
#
# 1 14.7514 -8.9652 27.7404 0.0000 0.0000 0.0000
# 2 -8.9652 69.0795 5.0556 0.0000 0.0000 0.0000
# 3 27.7404 5.0556 127.0322 0.0000 0.0000 0.0000
# 4 0.0000 0.0000 0.0000 -51.3178 0.0000 0.0000
# 5 0.0000 0.0000 0.0000 0.0000 -14.1037 0.0000
# 6 0.0000 0.0000 0.0000 0.0000 0.0000 32.8792
#
#
#
# Elastic Compliance Matrix: (Units=1/GPa)
#
#
# Indices 1 2 3 4 5 6 
#
# 1 0.138473 0.020243 -0.031044 0.000000 0.000000 0.000000
# 2 0.020243 0.017478 -0.005116 0.000000 0.000000 0.000000
# 3 -0.031044 -0.005116 0.014855 0.000000 0.000000 0.000000
# 4 0.000000 0.000000 0.000000 -0.019486 0.000000 0.000000
# 5 0.000000 0.000000 0.000000 0.000000 -0.070904 0.000000
# 6 0.000000 0.000000 0.000000 0.000000 0.000000 0.030414
#
#
# Mechanical properties :
#
#
# Convention : Reuss Voigt Hill
#
# Bulk Modulus (GPa) = 7.19577 28.72496 17.96036
# Shear Modulus (GPa) = 26.45671 5.96036 16.20854
#
# Velocity S-wave (km/s) = 3.53755 1.67908 2.76889
# Velocity P-wave (km/s) = 4.48211 4.16488 4.32640
#
# Compressibility (1/GPa) = 0.13897063
#
# Stress axis : x y z
#
# Youngs Moduli (GPa) = 7.22164 57.21589 67.31800
#
# Poissons Ratio (x) = -1.15823 2.08984
# Poissons Ratio (y) = -0.14619 0.34441
# Poissons Ratio (z) = 0.22419 0.29272
#
# Static dielectric constant tensor:
#      x y z
#    x 1.730740 0.000000 0.000000 
#    y 0.000000 1.795580 0.000000 
#    z 0.000000 0.000000 1.827790 
# 
# From -- ./inp_files/14685.got.cif
#   From: 2010.05.17/outbox.cif.g08.bks.cpg/sg55_8_cif.got.tgz:14685.got - 2010.06.03 13:27:54.
