data_PCOD9427825
_publ_section_title
;
Structure prediction by ZEFSAII (Michael W. Deem and Ramdas Pophale) SiO2 
 PCOD9427825
Probable space group: P B A M
;
_chemical_formula_sum "Si O2"
_cell_formula_units_Z 64
_cell_length_a 25.360665
_cell_length_b 8.135262
_cell_length_c 18.973450
_cell_angle_alpha 90.000000
_cell_angle_beta 90.000000
_cell_angle_gamma 90.000000
_cell_volume 3914.519750
_symmetry_space_group_name_H-M "P B A M"
_symmetry_group_IT_number 55
_symmetry_cell_setting 'orthorhombic'
loop_
_space_group_symop_operation_xyz
x,y,z
-x,-y,z
1/2+x,1/2-y,-z
1/2-x,1/2+y,-z
-x,-y,-z
x,y,-z
1/2-x,1/2+y,z
1/2+x,1/2-y,z
loop_
_atom_site_type_symbol
_atom_site_label
_atom_site_fract_x
_atom_site_fract_y
_atom_site_fract_z
Si Si1 0.418882 0.811141 0.836815
Si Si2 0.935874 0.000575 0.419078
Si Si3 0.823039 0.826647 0.079803
Si Si4 0.018545 0.812164 0.080247
Si Si5 0.708597 0.706964 0.918647
Si Si6 0.111894 0.688573 0.831974
Si Si7 0.931800 0.311985 0.675781
Si Si8 0.440465 0.808977 0.324296
O O1 0.372802 0.707607 0.872268
O O2 0.474685 0.780171 0.873907
O O3 0.421157 0.772669 0.754314
O O4 0.405142 0.001673 0.844729
O O5 0.917880 0.998019 0.500000
O O6 0.918238 0.167129 0.379122
O O7 0.922132 0.833654 0.377161
O O8 0.000000 0.000000 0.419867
O O9 0.770054 0.728343 0.098909
O O10 0.806719 0.016412 0.080730
O O11 0.837928 0.780057 0.000000
O O12 0.074241 0.798614 0.118970
O O13 0.021801 0.749835 0.000000
O O14 0.000000 0.000000 0.077913
O O15 0.670819 0.789887 0.861075
O O16 0.701195 0.770462 0.000000
O O17 0.097610 0.721435 0.750112
O O18 0.923075 0.504536 0.655742
O O19 0.995633 0.303967 0.682607
#
# Coordination Sequence:
#
# PCOD9427825 Si02
#       8
#     8   8   8   8   8   8   8   8
#     4  11  21  33  50  71  97 133 169 209 258 302
#     4   9  18  30  48  72  98 136 170 198 246 301
#     4  10  21  36  52  70  94 129 171 216 262 303
#     4  11  23  33  45  69  97 130 173 214 252 300
#     4  10  21  36  52  70  94 129 171 216 262 303
#     4  11  21  33  50  71  97 133 169 209 258 302
#     4   9  18  31  47  71 101 134 169 204 248 298
#     4   9  18  31  47  71 101 134 169 204 248 298
#
# _framework density 16.349387
#
# number of rings (size 3 to 8) (size 9 to 14) (size 15 to 20)
#    0.000    2.000    1.250    2.625    3.500    6.000 
#    0.000    2.500    0.000    0.000    0.000    0.000 
#    0.000    1.000    0.500    0.000    0.000    0.000 
#
# Total GULP energy -356984.810472 kJ/mol
# GULP energy per Si atom -5577.887664 kJ/mol
# Density = 1.631217 g / cm^3
# Si number density = 16.349387 Si / 1000 Ang^3
#
#
#
# Elastic Constant Matrix: (Units=GPa)
#
#
# Indices 1 2 3 4 5 6 
#
# 1 33.4534 14.1661 14.3411 0.0000 0.0000 0.0000
# 2 14.1661 67.2182 56.1252 0.0000 0.0000 0.0000
# 3 14.3411 56.1252 81.4679 0.0000 0.0000 0.0000
# 4 0.0000 0.0000 0.0000 10.0873 0.0000 0.0000
# 5 0.0000 0.0000 0.0000 0.0000 15.5348 0.0000
# 6 0.0000 0.0000 0.0000 0.0000 0.0000 24.3186
#
#
#
# Elastic Compliance Matrix: (Units=1/GPa)
#
#
# Indices 1 2 3 4 5 6 
#
# 1 0.033019 -0.004957 -0.002398 0.000000 0.000000 0.000000
# 2 -0.004957 0.035768 -0.023769 0.000000 0.000000 0.000000
# 3 -0.002398 -0.023769 0.029072 0.000000 0.000000 0.000000
# 4 0.000000 0.000000 0.000000 0.099134 0.000000 0.000000
# 5 0.000000 0.000000 0.000000 0.000000 0.064371 0.000000
# 6 0.000000 0.000000 0.000000 0.000000 0.000000 0.041121
#
#
# Mechanical properties :
#
#
# Convention : Reuss Voigt Hill
#
# Bulk Modulus (GPa) = 28.08013 39.04493 33.56253
# Shear Modulus (GPa) = 13.27662 16.48863 14.88262
#
# Velocity S-wave (km/s) = 2.85275 3.17916 3.02037
# Velocity P-wave (km/s) = 5.29748 6.11633 5.72157
#
# Compressibility (1/GPa) = 0.03561237
#
# Stress axis : x y z
#
# Youngs Moduli (GPa) = 30.28543 27.95822 34.39780
#
# Poissons Ratio (x) = 0.13858 0.08247
# Poissons Ratio (y) = 0.15012 0.81759
# Poissons Ratio (z) = 0.07261 0.66453
#
# Static dielectric constant tensor:
#      x y z
#    x 1.526790 0.000000 0.000000 
#    y 0.000000 1.589530 0.000000 
#    z 0.000000 0.000000 1.541510 
# 
# From -- ./inp_files/22118.got.cif
#   From: 2010.05.17/outbox.cif.g08.bks.cpg/sg55_12_cif.got.tgz:22118.got - 2010.06.03 13:27:54.
