data_PCOD9427555
_publ_section_title
;
Structure prediction by ZEFSAII (Michael W. Deem and Ramdas Pophale) SiO2 
 PCOD9427555
Probable space group: P B A M
;
_chemical_formula_sum "Si O2"
_cell_formula_units_Z 52
_cell_length_a 8.626064
_cell_length_b 18.485257
_cell_length_c 16.975286
_cell_angle_alpha 90.000000
_cell_angle_beta 90.000000
_cell_angle_gamma 90.000000
_cell_volume 2706.794398
_symmetry_space_group_name_H-M "P B A M"
_symmetry_group_IT_number 55
_symmetry_cell_setting 'orthorhombic'
loop_
_space_group_symop_operation_xyz
x,y,z
-x,-y,z
1/2+x,1/2-y,-z
1/2-x,1/2+y,-z
-x,-y,-z
x,y,-z
1/2-x,1/2+y,z
1/2+x,1/2-y,z
loop_
_atom_site_type_symbol
_atom_site_label
_atom_site_fract_x
_atom_site_fract_y
_atom_site_fract_z
Si Si1 0.573060 0.796412 0.274696
Si Si2 0.927687 0.202349 0.875932
Si Si3 0.907826 0.067636 0.762646
Si Si4 0.724180 0.808384 0.500000
Si Si5 0.110726 0.432442 0.339284
Si Si6 0.687020 0.272770 0.000000
Si Si7 0.895565 0.830090 0.340783
Si Si8 0.859559 0.649164 0.500000
O O1 0.537351 0.763375 0.189909
O O2 0.485934 0.869780 0.295198
O O3 0.755732 0.807469 0.283089
O O4 0.516360 0.736394 0.338094
O O5 0.883655 0.130807 0.826651
O O6 0.793222 0.232569 0.931701
O O7 0.076411 0.191562 0.930798
O O8 0.749645 0.046520 0.719086
O O9 0.016617 0.101947 0.694648
O O10 0.000000 0.000000 0.797347
O O11 0.811920 0.839417 0.423661
O O12 0.543096 0.829080 0.500000
O O13 0.757492 0.722109 0.500000
O O14 0.000000 0.500000 0.356320
O O15 0.169038 0.397089 0.421001
#
# Coordination Sequence:
#
# PCOD9427555 Si02
#       8
#     8   8   8   4   8   4   8   4
#     4  11  20  38  61  92 120 164 212 266 320 376
#     4  10  21  38  67  95 130 156 203 260 308 386
#     4  11  25  43  64  92 127 173 222 262 318 384
#     4  12  22  38  62  88 123 164 217 278 338 370
#     4  12  25  42  60  85 130 176 220 275 331 380
#     4  10  20  38  62 100 125 154 185 244 320 366
#     4  11  21  36  61  90 122 162 221 277 320 376
#     4  12  27  40  60  91 127 167 223 285 337 384
#
# _framework density 19.210916000000001
#
# number of rings (size 3 to 8) (size 9 to 14) (size 15 to 20)
#    0.000    0.923    3.077    5.769    2.154    0.000 
#    0.000    2.308    0.000    1.846    0.000    8.615 
#    0.000    0.000    0.000    0.000    0.000    0.000 
#
# Total GULP energy -289555.533759 kJ/mol
# GULP energy per Si atom -5568.375649 kJ/mol
# Density = 1.916719 g / cm^3
# Si number density = 19.210916 Si / 1000 Ang^3
#
#
#
# Elastic Constant Matrix: (Units=GPa)
#
#
# Indices 1 2 3 4 5 6 
#
# 1 56.1968 -5.3860 1.6063 0.0000 0.0000 0.0000
# 2 -5.3860 31.3170 -1.5218 0.0000 0.0000 0.0000
# 3 1.6063 -1.5218 114.0901 0.0000 0.0000 0.0000
# 4 0.0000 0.0000 0.0000 8.1800 0.0000 0.0000
# 5 0.0000 0.0000 0.0000 0.0000 36.1997 0.0000
# 6 0.0000 0.0000 0.0000 0.0000 0.0000 25.6931
#
#
#
# Elastic Compliance Matrix: (Units=1/GPa)
#
#
# Indices 1 2 3 4 5 6 
#
# 1 0.018098 0.003102 -0.000213 0.000000 0.000000 0.000000
# 2 0.003102 0.032484 0.000390 0.000000 0.000000 0.000000
# 3 -0.000213 0.000390 0.008773 0.000000 0.000000 0.000000
# 4 0.000000 0.000000 0.000000 0.122250 0.000000 0.000000
# 5 0.000000 0.000000 0.000000 0.000000 0.027625 0.000000
# 6 0.000000 0.000000 0.000000 0.000000 0.000000 0.038921
#
#
# Mechanical properties :
#
#
# Convention : Reuss Voigt Hill
#
# Bulk Modulus (GPa) = 15.17176 21.22233 18.19705
# Shear Modulus (GPa) = 18.97067 27.80824 23.38945
#
# Velocity S-wave (km/s) = 3.14585 3.80876 3.49307
# Velocity P-wave (km/s) = 4.59454 5.51482 5.07558
#
# Compressibility (1/GPa) = 0.06591194
#
# Stress axis : x y z
#
# Youngs Moduli (GPa) = 55.25467 30.78439 113.98347
#
# Poissons Ratio (x) = -0.09550 0.02433
# Poissons Ratio (y) = -0.17141 -0.04441
# Poissons Ratio (z) = 0.01179 -0.01199
#
# Static dielectric constant tensor:
#      x y z
#    x 1.690100 0.000000 0.000000 
#    y 0.000000 1.660970 0.000000 
#    z 0.000000 0.000000 1.669440 
# 
# From -- ./inp_files/20979.got.cif
#   From: 2010.05.17/outbox.cif.g08.bks.cpg/sg55_11_cif.got.tgz:20979.got - 2010.06.03 13:27:54.
