data_PCOD9427253
_publ_section_title
;
Structure prediction by ZEFSAII (Michael W. Deem and Ramdas Pophale) SiO2 
 PCOD9427253
Probable space group: P B A M
;
_chemical_formula_sum "Si O2"
_cell_formula_units_Z 64
_cell_length_a 24.270943
_cell_length_b 15.533726
_cell_length_c 8.614868
_cell_angle_alpha 90.000000
_cell_angle_beta 90.000000
_cell_angle_gamma 90.000000
_cell_volume 3247.961840
_symmetry_space_group_name_H-M "P B A M"
_symmetry_group_IT_number 55
_symmetry_cell_setting 'orthorhombic'
loop_
_space_group_symop_operation_xyz
x,y,z
-x,-y,z
1/2+x,1/2-y,-z
1/2-x,1/2+y,-z
-x,-y,-z
x,y,-z
1/2-x,1/2+y,z
1/2+x,1/2-y,z
loop_
_atom_site_type_symbol
_atom_site_label
_atom_site_fract_x
_atom_site_fract_y
_atom_site_fract_z
Si Si1 0.191215 0.682815 0.686262
Si Si2 0.078144 0.748465 0.812247
Si Si3 0.124230 0.354654 0.183821
Si Si4 0.668113 0.498460 0.680422
Si Si5 0.713290 0.007756 0.813362
Si Si6 0.686272 0.293949 0.679796
Si Si7 0.504128 0.099133 0.810180
Si Si8 0.448699 0.440105 0.187324
O O1 0.189057 0.677979 0.500000
O O2 0.139762 0.736188 0.749092
O O3 0.193818 0.585585 0.752242
O O4 0.250661 0.721983 0.729298
O O5 0.043080 0.665319 0.759976
O O6 0.050175 0.839099 0.765358
O O7 0.080491 0.747911 0.000000
O O8 0.169398 0.421985 0.244028
O O9 0.145247 0.259970 0.217337
O O10 0.063264 0.368325 0.245589
O O11 0.121147 0.369462 0.000000
O O12 0.667358 0.524171 0.500000
O O13 0.725072 0.530026 0.756951
O O14 0.674009 0.395017 0.689414
O O15 0.610936 0.526122 0.757749
O O16 0.713609 0.004933 0.000000
O O17 0.680440 0.267954 0.500000
O O18 0.500000 0.000000 0.762170
O O19 0.502416 0.100003 0.000000
O O20 0.500000 0.500000 0.242168
O O21 0.449944 0.442418 0.000000
#
# Coordination Sequence:
#
# PCOD9427253 Si02
#       8
#     8   8   8   8   8   8   8   8
#     4  10  21  38  58  84 117 155 196 236 292 355
#     4  10  21  37  60  87 118 155 197 247 297 351
#     4  10  21  34  58  89 114 146 191 235 289 351
#     4  10  22  40  60  83 115 158 198 237 297 360
#     4  10  20  36  59  90 120 151 191 242 294 351
#     4   9  21  38  55  80 114 150 187 232 287 350
#     4   9  18  35  58  85 116 150 188 234 289 347
#     4  10  23  40  60  87 116 152 202 256 305 354
#
# _framework density 19.704664000000001
#
# number of rings (size 3 to 8) (size 9 to 14) (size 15 to 20)
#    0.000    2.250    0.000    2.625    3.500    6.750 
#    0.000    0.625    0.000    1.500    0.000    0.000 
#    0.000    0.000    0.000    0.000    0.000    0.000 
#
# Total GULP energy -357183.233911 kJ/mol
# GULP energy per Si atom -5580.988030 kJ/mol
# Density = 1.965982 g / cm^3
# Si number density = 19.704664 Si / 1000 Ang^3
#
#
#
# Elastic Constant Matrix: (Units=GPa)
#
#
# Indices 1 2 3 4 5 6 
#
# 1 112.8143 41.8051 16.0630 0.0000 0.0000 0.0000
# 2 41.8051 59.3894 15.3362 0.0000 0.0000 0.0000
# 3 16.0630 15.3362 9.0525 0.0000 0.0000 0.0000
# 4 0.0000 0.0000 0.0000 21.2098 0.0000 0.0000
# 5 0.0000 0.0000 0.0000 0.0000 -5.7458 0.0000
# 6 0.0000 0.0000 0.0000 0.0000 0.0000 29.6650
#
#
#
# Elastic Compliance Matrix: (Units=1/GPa)
#
#
# Indices 1 2 3 4 5 6 
#
# 1 0.012831 -0.005604 -0.013273 0.000000 0.000000 0.000000
# 2 -0.005604 0.032381 -0.044914 0.000000 0.000000 0.000000
# 3 -0.013273 -0.044914 0.210108 0.000000 0.000000 0.000000
# 4 0.000000 0.000000 0.000000 0.047148 0.000000 0.000000
# 5 0.000000 0.000000 0.000000 0.000000 -0.174041 0.000000
# 6 0.000000 0.000000 0.000000 0.000000 0.000000 0.033710
#
#
# Mechanical properties :
#
#
# Convention : Reuss Voigt Hill
#
# Bulk Modulus (GPa) = 7.82848 36.40718 22.11783
# Shear Modulus (GPa) = 15.04676 16.22925 15.63801
#
# Velocity S-wave (km/s) = 2.76635 2.87300 2.82018
# Velocity P-wave (km/s) = 3.76632 5.43342 4.67478
#
# Compressibility (1/GPa) = 0.12773874
#
# Stress axis : x y z
#
# Youngs Moduli (GPa) = 77.93799 30.88223 4.75946
#
# Poissons Ratio (x) = 0.17307 0.06317
# Poissons Ratio (y) = 0.43679 0.21376
# Poissons Ratio (z) = 1.03444 1.38703
#
# Static dielectric constant tensor:
#      x y z
#    x 1.676010 0.000000 0.000000 
#    y 0.000000 1.567910 0.000000 
#    z 0.000000 0.000000 1.675080 
# 
# From -- ./inp_files/9634.got.cif
#   From: 2010.05.17/outbox.cif.g08.bks.cpg/sg55_5_cif.got.tgz:9634.got - 2010.06.03 13:27:54.
