data_PCOD9427958
_publ_section_title
;
Structure prediction by ZEFSAII (Michael W. Deem and Ramdas Pophale) SiO2 
 PCOD9427958
Probable space group: P B A M
;
_chemical_formula_sum "Si O2"
_cell_formula_units_Z 64
_cell_length_a 33.954358
_cell_length_b 11.910812
_cell_length_c 8.677654
_cell_angle_alpha 90.000000
_cell_angle_beta 90.000000
_cell_angle_gamma 90.000000
_cell_volume 3509.451322
_symmetry_space_group_name_H-M "P B A M"
_symmetry_group_IT_number 55
_symmetry_cell_setting 'orthorhombic'
loop_
_space_group_symop_operation_xyz
x,y,z
-x,-y,z
1/2+x,1/2-y,-z
1/2-x,1/2+y,-z
-x,-y,-z
x,y,-z
1/2-x,1/2+y,z
1/2+x,1/2-y,z
loop_
_atom_site_type_symbol
_atom_site_label
_atom_site_fract_x
_atom_site_fract_y
_atom_site_fract_z
Si Si1 0.942695 0.916406 0.686415
Si Si2 0.527687 0.662122 0.687415
Si Si3 0.907333 0.328712 0.685432
Si Si4 0.301252 0.548207 0.315615
Si Si5 0.633461 0.293430 0.184556
Si Si6 0.136077 0.463566 0.185603
Si Si7 0.715688 0.909069 0.184314
Si Si8 0.672587 0.699703 0.685504
O O1 0.939868 0.913553 0.500000
O O2 0.903746 0.863677 0.755861
O O3 0.982210 0.849103 0.734155
O O4 0.950436 0.046077 0.730938
O O5 0.527661 0.663434 0.500000
O O6 0.552641 0.769148 0.739906
O O7 0.908579 0.337539 0.500000
O O8 0.896254 0.449415 0.752475
O O9 0.870876 0.245682 0.724661
O O10 0.302826 0.555468 0.500000
O O11 0.327134 0.647621 0.245074
O O12 0.256459 0.555178 0.259902
O O13 0.319966 0.428380 0.268978
O O14 0.630748 0.164112 0.237754
O O15 0.633938 0.293901 0.000000
O O16 0.178940 0.512011 0.232477
O O17 0.134856 0.466072 0.000000
O O18 0.703350 0.784287 0.236697
O O19 0.719244 0.913552 0.000000
O O20 0.676805 0.707462 0.500000
#
# Coordination Sequence:
#
# PCOD9427958 Si02
#       8
#     8   8   8   8   8   8   8   8
#     4   9  17  33  56  82 112 146 179 219 272 325
#     4   8  15  30  56  85 112 140 176 224 275 322
#     4   9  16  31  56  81 103 134 179 225 267 313
#     4  11  23  37  56  81 106 136 177 223 272 325
#     4  11  23  38  54  77 110 146 182 221 270 325
#     4   9  21  39  54  72 105 146 181 218 267 322
#     4  10  21  37  56  77 104 139 179 220 268 322
#     4   9  19  35  54  79 107 133 170 222 268 315
#
# _framework density 18.236469
#
# number of rings (size 3 to 8) (size 9 to 14) (size 15 to 20)
#    0.000    2.500    0.000    2.625    1.750    4.500 
#    0.000    5.625    0.000    3.750    0.000    0.000 
#    0.000    0.000    0.000    0.000    0.000    0.000 
#
# Total GULP energy -357120.230758 kJ/mol
# GULP energy per Si atom -5580.003606 kJ/mol
# Density = 1.819496 g / cm^3
# Si number density = 18.236469 Si / 1000 Ang^3
#
#
#
# Elastic Constant Matrix: (Units=GPa)
#
#
# Indices 1 2 3 4 5 6 
#
# 1 54.5216 7.0302 7.5973 0.0000 0.0000 0.0000
# 2 7.0302 51.4740 9.7043 0.0000 0.0000 0.0000
# 3 7.5973 9.7043 13.8414 0.0000 0.0000 0.0000
# 4 0.0000 0.0000 0.0000 14.2201 0.0000 0.0000
# 5 0.0000 0.0000 0.0000 0.0000 9.6512 0.0000
# 6 0.0000 0.0000 0.0000 0.0000 0.0000 14.6370
#
#
#
# Elastic Compliance Matrix: (Units=1/GPa)
#
#
# Indices 1 2 3 4 5 6 
#
# 1 0.019886 -0.000758 -0.010383 0.000000 0.000000 0.000000
# 2 -0.000758 0.022415 -0.015299 0.000000 0.000000 0.000000
# 3 -0.010383 -0.015299 0.088673 0.000000 0.000000 0.000000
# 4 0.000000 0.000000 0.000000 0.070323 0.000000 0.000000
# 5 0.000000 0.000000 0.000000 0.000000 0.103614 0.000000
# 6 0.000000 0.000000 0.000000 0.000000 0.000000 0.068320
#
#
# Mechanical properties :
#
#
# Convention : Reuss Voigt Hill
#
# Bulk Modulus (GPa) = 12.80539 18.72229 15.76384
# Shear Modulus (GPa) = 11.05843 14.06867 12.56355
#
# Velocity S-wave (km/s) = 2.46517 2.78053 2.62758
# Velocity P-wave (km/s) = 3.89100 4.53841 4.22711
#
# Compressibility (1/GPa) = 0.07809209
#
# Stress axis : x y z
#
# Youngs Moduli (GPa) = 50.28661 44.61260 11.27742
#
# Poissons Ratio (x) = 0.03384 0.11710
# Poissons Ratio (y) = 0.03814 0.17253
# Poissons Ratio (z) = 0.52215 0.68253
#
# Static dielectric constant tensor:
#      x y z
#    x 1.613570 0.000000 0.000000 
#    y 0.000000 1.618960 0.000000 
#    z 0.000000 0.000000 1.618010 
# 
# From -- ./inp_files/10833.got.cif
#   From: 2010.05.17/outbox.cif.g08.bks.cpg/sg55_6_cif.got.tgz:10833.got - 2010.06.03 13:27:54.
