data_PCOD9427206
_publ_section_title
;
Structure prediction by ZEFSAII (Michael W. Deem and Ramdas Pophale) SiO2 
 PCOD9427206
Probable space group: P B A M
;
_chemical_formula_sum "Si O2"
_cell_formula_units_Z 64
_cell_length_a 20.099688
_cell_length_b 19.692380
_cell_length_c 8.434500
_cell_angle_alpha 90.000000
_cell_angle_beta 90.000000
_cell_angle_gamma 90.000000
_cell_volume 3338.465298
_symmetry_space_group_name_H-M "P B A M"
_symmetry_group_IT_number 55
_symmetry_cell_setting 'orthorhombic'
loop_
_space_group_symop_operation_xyz
x,y,z
-x,-y,z
1/2+x,1/2-y,-z
1/2-x,1/2+y,-z
-x,-y,-z
x,y,-z
1/2-x,1/2+y,z
1/2+x,1/2-y,z
loop_
_atom_site_type_symbol
_atom_site_label
_atom_site_fract_x
_atom_site_fract_y
_atom_site_fract_z
Si Si1 0.760905 0.003950 0.308436
Si Si2 0.245639 0.649464 0.191903
Si Si3 0.611629 0.017015 0.308105
Si Si4 0.901664 0.042103 0.691543
Si Si5 0.958620 0.651499 0.311844
Si Si6 0.625224 0.273436 0.811643
Si Si7 0.534534 0.394517 0.691434
Si Si8 0.402098 0.135661 0.188691
O O1 0.763076 0.002464 0.500000
O O2 0.764010 0.926180 0.249976
O O3 0.688441 0.031608 0.262425
O O4 0.825781 0.044671 0.250964
O O5 0.302189 0.701729 0.245754
O O6 0.169771 0.663189 0.245211
O O7 0.246519 0.648516 0.000000
O O8 0.607910 0.013831 0.500000
O O9 0.564267 0.077356 0.251587
O O10 0.594731 0.942734 0.244208
O O11 0.900890 0.048258 0.500000
O O12 0.958199 0.094545 0.746040
O O13 0.928699 0.966113 0.724619
O O14 0.963446 0.647145 0.500000
O O15 0.903230 0.705952 0.266377
O O16 0.031203 0.671032 0.248495
O O17 0.573915 0.333906 0.771631
O O18 0.628083 0.263716 0.000000
O O19 0.535786 0.384890 0.500000
O O20 0.401772 0.137624 0.000000
#
# Coordination Sequence:
#
# PCOD9427206 Si02
#       8
#     8   8   8   8   8   8   8   8
#     4   9  15  28  52  78 103 134 171 212 256 308
#     4   9  19  34  52  77 106 135 168 212 260 311
#     4   9  19  34  54  80 107 133 170 221 270 313
#     4   8  14  25  47  76 105 135 171 214 258 301
#     4  11  23  38  54  76 107 142 178 221 267 315
#     4  11  22  36  53  75 106 143 180 217 262 318
#     4   9  16  29  48  73 103 138 176 216 258 305
#     4  10  20  36  59  83 106 134 173 219 267 320
#
# _framework density 19.170486
#
# number of rings (size 3 to 8) (size 9 to 14) (size 15 to 20)
#    0.000    2.500    1.250    2.250    0.000    3.500 
#    0.000    3.125    0.000    1.500    0.000    0.000 
#    0.000    0.000    0.000    0.000    0.000    0.000 
#
# Total GULP energy -356893.116684 kJ/mol
# GULP energy per Si atom -5576.454948 kJ/mol
# Density = 1.912685 g / cm^3
# Si number density = 19.170486 Si / 1000 Ang^3
#
#
#
# Elastic Constant Matrix: (Units=GPa)
#
#
# Indices 1 2 3 4 5 6 
#
# 1 156.1787 29.2754 18.0401 0.0000 0.0000 0.0000
# 2 29.2754 29.6028 1.5591 0.0000 0.0000 0.0000
# 3 18.0401 1.5591 2.3171 0.0000 0.0000 0.0000
# 4 0.0000 0.0000 0.0000 27.8340 0.0000 0.0000
# 5 0.0000 0.0000 0.0000 0.0000 21.3937 0.0000
# 6 0.0000 0.0000 0.0000 0.0000 0.0000 26.3858
#
#
#
# Elastic Compliance Matrix: (Units=1/GPa)
#
#
# Indices 1 2 3 4 5 6 
#
# 1 0.183805 -0.110311 -1.356815 0.000000 0.000000 0.000000
# 2 -0.110311 0.101225 0.790728 0.000000 0.000000 0.000000
# 3 -1.356815 0.790728 10.463186 0.000000 0.000000 0.000000
# 4 0.000000 0.000000 0.000000 0.035927 0.000000 0.000000
# 5 0.000000 0.000000 0.000000 0.000000 0.046743 0.000000
# 6 0.000000 0.000000 0.000000 0.000000 0.000000 0.037899
#
#
# Mechanical properties :
#
#
# Convention : Reuss Voigt Hill
#
# Bulk Modulus (GPa) = 0.10643 31.76087 15.93365
# Shear Modulus (GPa) = 0.32566 24.40429 12.36498
#
# Velocity S-wave (km/s) = 0.41261 3.57180 2.54244
# Velocity P-wave (km/s) = 0.53163 5.79775 4.11683
#
# Compressibility (1/GPa) = 9.39541982
#
# Stress axis : x y z
#
# Youngs Moduli (GPa) = 5.44054 9.87900 0.09557
#
# Poissons Ratio (x) = 1.08976 0.12968
# Poissons Ratio (y) = 0.60015 -0.07557
# Poissons Ratio (z) = 7.38181 -7.81160
#
# Static dielectric constant tensor:
#      x y z
#    x 1.731840 0.000000 0.000000 
#    y 0.000000 1.629370 0.000000 
#    z 0.000000 0.000000 1.656710 
# 
# From -- ./inp_files/8977.got.cif
#   From: 2010.05.17/outbox.cif.g08.bks.cpg/sg55_5_cif.got.tgz:8977.got - 2010.06.03 13:27:54.
