data_PCOD9427854
_publ_section_title
;
Structure prediction by ZEFSAII (Michael W. Deem and Ramdas Pophale) SiO2 
 PCOD9427854
Probable space group: P B A M
;
_chemical_formula_sum "Si O2"
_cell_formula_units_Z 48
_cell_length_a 18.647255
_cell_length_b 5.252502
_cell_length_c 22.166329
_cell_angle_alpha 90.000000
_cell_angle_beta 90.000000
_cell_angle_gamma 90.000000
_cell_volume 2171.075423
_symmetry_space_group_name_H-M "P B A M"
_symmetry_group_IT_number 55
_symmetry_cell_setting 'orthorhombic'
loop_
_space_group_symop_operation_xyz
x,y,z
-x,-y,z
1/2+x,1/2-y,-z
1/2-x,1/2+y,-z
-x,-y,-z
x,y,-z
1/2-x,1/2+y,z
1/2+x,1/2-y,z
loop_
_atom_site_type_symbol
_atom_site_label
_atom_site_fract_x
_atom_site_fract_y
_atom_site_fract_z
Si Si1 0.456778 0.246834 0.927037
Si Si2 0.704991 0.902620 0.428989
Si Si3 0.272457 0.609032 0.231130
Si Si4 0.789036 0.329642 0.098070
Si Si5 0.581265 0.032201 0.336763
Si Si6 0.920424 0.031791 0.259154
O O1 0.500000 0.500000 0.908507
O O2 0.372842 0.225777 0.910320
O O3 0.500000 0.000000 0.904261
O O4 0.458222 0.242379 0.000000
O O5 0.686313 0.920142 0.500000
O O6 0.764407 0.120881 0.417633
O O7 0.638077 0.965877 0.387229
O O8 0.239743 0.370514 0.265714
O O9 0.228423 0.644379 0.169520
O O10 0.354989 0.553801 0.217368
O O11 0.759795 0.598562 0.073641
O O12 0.586214 0.320953 0.312263
O O13 0.500000 0.000000 0.359281
O O14 0.588813 0.818806 0.283419
O O15 0.000000 0.000000 0.233642
#
# Coordination Sequence:
#
# PCOD9427854 Si02
#       6
#     8   8   8   8   8   8
#     4  10  21  38  61  89 121 158 198 241 293 348
#     4  10  21  36  54  80 112 144 180 222 274 336
#     4  10  21  37  55  80 111 145 187 231 280 336
#     4  10  21  38  58  86 119 152 194 241 290 347
#     4  10  21  36  56  82 108 142 185 228 279 331
#     4  10  21  37  56  79 109 142 184 235 280 332
#
# _framework density 22.108857
#
# number of rings (size 3 to 8) (size 9 to 14) (size 15 to 20)
#    0.000    2.000    0.000    3.000    0.000    5.000 
#    0.000   10.000    0.000    6.000    0.000    0.000 
#    0.000    0.000    0.000    0.000    0.000    0.000 
#
# Total GULP energy -268217.069173 kJ/mol
# GULP energy per Si atom -5587.855608 kJ/mol
# Density = 2.205854 g / cm^3
# Si number density = 22.108857 Si / 1000 Ang^3
#
#
#
# Elastic Constant Matrix: (Units=GPa)
#
#
# Indices 1 2 3 4 5 6 
#
# 1 168.4786 45.4254 21.9848 0.0000 0.0000 0.0000
# 2 45.4254 156.9694 -5.3455 0.0000 0.0000 0.0000
# 3 21.9848 -5.3455 52.1863 0.0000 0.0000 0.0000
# 4 0.0000 0.0000 0.0000 -5.8453 0.0000 0.0000
# 5 0.0000 0.0000 0.0000 0.0000 41.4589 0.0000
# 6 0.0000 0.0000 0.0000 0.0000 0.0000 35.5498
#
#
#
# Elastic Compliance Matrix: (Units=1/GPa)
#
#
# Indices 1 2 3 4 5 6 
#
# 1 0.006912 -0.002107 -0.003127 0.000000 0.000000 0.000000
# 2 -0.002107 0.007035 0.001608 0.000000 0.000000 0.000000
# 3 -0.003127 0.001608 0.020644 0.000000 0.000000 0.000000
# 4 0.000000 0.000000 0.000000 -0.171078 0.000000 0.000000
# 5 0.000000 0.000000 0.000000 0.000000 0.024120 0.000000
# 6 0.000000 0.000000 0.000000 0.000000 0.000000 0.028130
#
#
# Mechanical properties :
#
#
# Convention : Reuss Voigt Hill
#
# Bulk Modulus (GPa) = 36.57781 55.75150 46.16465
# Shear Modulus (GPa) = -73.66755 35.27066 -19.19845
#
# Velocity S-wave (km/s) = -5.77864 3.99848 -2.94999
# Velocity P-wave (km/s) = 5.28614 6.82559 3.05331
#
# Compressibility (1/GPa) = 0.02733898
#
# Stress axis : x y z
#
# Youngs Moduli (GPa) = 144.68489 142.14490 48.43936
#
# Poissons Ratio (x) = 0.29945 0.15149
# Poissons Ratio (y) = 0.30480 -0.07790
# Poissons Ratio (z) = 0.45250 -0.22858
#
# Static dielectric constant tensor:
#      x y z
#    x 1.810540 0.000000 0.000000 
#    y 0.000000 1.951880 0.000000 
#    z 0.000000 0.000000 1.823820 
# 
# From -- ./inp_files/23645.got.cif
#   From: 2010.05.17/outbox.cif.g08.bks.cpg/sg55_12_cif.got.tgz:23645.got - 2010.06.03 13:27:54.
