data_PCOD9427309
_publ_section_title
;
Structure prediction by ZEFSAII (Michael W. Deem and Ramdas Pophale) SiO2 
 PCOD9427309
Probable space group: P B A M
;
_chemical_formula_sum "Si O2"
_cell_formula_units_Z 64
_cell_length_a 23.604006
_cell_length_b 15.093769
_cell_length_c 7.604324
_cell_angle_alpha 90.000000
_cell_angle_beta 90.000000
_cell_angle_gamma 90.000000
_cell_volume 2709.218473
_symmetry_space_group_name_H-M "P B A M"
_symmetry_group_IT_number 55
_symmetry_cell_setting 'orthorhombic'
loop_
_space_group_symop_operation_xyz
x,y,z
-x,-y,z
1/2+x,1/2-y,-z
1/2-x,1/2+y,-z
-x,-y,-z
x,y,-z
1/2-x,1/2+y,z
1/2+x,1/2-y,z
loop_
_atom_site_type_symbol
_atom_site_label
_atom_site_fract_x
_atom_site_fract_y
_atom_site_fract_z
Si Si1 0.872512 0.365211 0.700086
Si Si2 0.911719 0.033319 0.785286
Si Si3 0.497946 0.176046 0.792946
Si Si4 0.026733 0.134577 0.785284
Si Si5 0.904246 0.562511 0.213403
Si Si6 0.748410 0.377834 0.292216
Si Si7 0.290382 0.426592 0.205010
Si Si8 0.692145 0.199627 0.212073
O O1 0.871404 0.334085 0.500000
O O2 0.930403 0.326465 0.777423
O O3 0.881534 0.471326 0.708802
O O4 0.810319 0.347165 0.778679
O O5 0.853247 0.072500 0.717443
O O6 0.924098 0.932386 0.728401
O O7 0.966843 0.089588 0.738412
O O8 0.909142 0.032501 0.000000
O O9 0.524345 0.266015 0.718332
O O10 0.532816 0.091144 0.728515
O O11 0.510311 0.177353 0.000000
O O12 0.029086 0.136800 0.000000
O O13 0.863671 0.644797 0.261518
O O14 0.902490 0.549328 0.000000
O O15 0.755137 0.392792 0.500000
O O16 0.731696 0.472443 0.213647
O O17 0.702630 0.300736 0.264451
O O18 0.244975 0.358756 0.281033
O O19 0.295575 0.402275 0.000000
O O20 0.691894 0.198843 0.000000
#
# Coordination Sequence:
#
# PCOD9427309 Si02
#       8
#     8   8   8   8   8   8   8   8
#     4  11  24  41  58  79 112 155 195 235 284 343
#     4   8  15  28  51  81 113 142 178 222 276 334
#     4  10  21  34  58  87 113 144 186 239 291 341
#     4   8  15  29  49  80 115 145 174 221 278 335
#     4  10  21  39  60  87 115 144 186 241 298 345
#     4  11  25  41  58  83 118 160 198 235 289 351
#     4  10  20  36  62  90 113 146 192 245 294 343
#     4  10  22  38  61  91 119 149 192 245 297 345
#
# _framework density 23.623049999999999
#
# number of rings (size 3 to 8) (size 9 to 14) (size 15 to 20)
#    0.000    2.250    1.250    1.875    3.500    4.500 
#    0.000    0.000    0.000    0.000    0.000    1.750 
#    0.000    0.000    0.000    0.000    0.000    0.000 
#
# Total GULP energy -357529.899893 kJ/mol
# GULP energy per Si atom -5586.404686 kJ/mol
# Density = 2.356928 g / cm^3
# Si number density = 23.623050 Si / 1000 Ang^3
#
#
#
# Elastic Constant Matrix: (Units=GPa)
#
#
# Indices 1 2 3 4 5 6 
#
# 1 46.8456 -13.4006 1.8520 0.0000 0.0000 0.0000
# 2 -13.4006 67.9021 -10.3201 0.0000 0.0000 0.0000
# 3 1.8520 -10.3201 47.1602 0.0000 0.0000 0.0000
# 4 0.0000 0.0000 0.0000 62.9330 0.0000 0.0000
# 5 0.0000 0.0000 0.0000 0.0000 -6.7755 0.0000
# 6 0.0000 0.0000 0.0000 0.0000 0.0000 76.3233
#
#
#
# Elastic Compliance Matrix: (Units=1/GPa)
#
#
# Indices 1 2 3 4 5 6 
#
# 1 0.022624 0.004479 0.000092 0.000000 0.000000 0.000000
# 2 0.004479 0.016120 0.003352 0.000000 0.000000 0.000000
# 3 0.000092 0.003352 0.021934 0.000000 0.000000 0.000000
# 4 0.000000 0.000000 0.000000 0.015890 0.000000 0.000000
# 5 0.000000 0.000000 0.000000 0.000000 -0.147590 0.000000
# 6 0.000000 0.000000 0.000000 0.000000 0.000000 0.013102
#
#
# Mechanical properties :
#
#
# Convention : Reuss Voigt Hill
#
# Bulk Modulus (GPa) = 13.06789 13.13006 13.09897
# Shear Modulus (GPa) = -103.61506 38.74792 -32.43357
#
# Velocity S-wave (km/s) = -6.63001 4.05440 -3.70937
# Velocity P-wave (km/s) = 7.28461 5.24288 3.57615
#
# Compressibility (1/GPa) = 0.07652347
#
# Stress axis : x y z
#
# Youngs Moduli (GPa) = 44.20022 62.03313 45.59094
#
# Poissons Ratio (x) = -0.27784 -0.00418
# Poissons Ratio (y) = -0.19797 -0.15281
# Poissons Ratio (z) = -0.00405 -0.20792
#
# Static dielectric constant tensor:
#      x y z
#    x 1.910910 0.000000 0.000000 
#    y 0.000000 1.876210 0.000000 
#    z 0.000000 0.000000 1.920410 
# 
# From -- ./inp_files/9643.got.cif
#   From: 2010.05.17/outbox.cif.g08.bks.cpg/sg55_5_cif.got.tgz:9643.got - 2010.06.03 13:27:54.
