data_PCOD9427141
_publ_section_title
;
Structure prediction by ZEFSAII (Michael W. Deem and Ramdas Pophale) SiO2 
 PCOD9427141
Probable space group: P B A M
;
_chemical_formula_sum "Si O2"
_cell_formula_units_Z 56
_cell_length_a 12.952978
_cell_length_b 23.130848
_cell_length_c 9.020802
_cell_angle_alpha 90.000000
_cell_angle_beta 90.000000
_cell_angle_gamma 90.000000
_cell_volume 2702.752845
_symmetry_space_group_name_H-M "P B A M"
_symmetry_group_IT_number 55
_symmetry_cell_setting 'orthorhombic'
loop_
_space_group_symop_operation_xyz
x,y,z
-x,-y,z
1/2+x,1/2-y,-z
1/2-x,1/2+y,-z
-x,-y,-z
x,y,-z
1/2-x,1/2+y,z
1/2+x,1/2-y,z
loop_
_atom_site_type_symbol
_atom_site_label
_atom_site_fract_x
_atom_site_fract_y
_atom_site_fract_z
Si Si1 0.022373 0.832715 0.827297
Si Si2 0.772127 0.153756 0.325336
Si Si3 0.817061 0.757667 0.826331
Si Si4 0.412368 0.043354 0.171281
Si Si5 0.698176 0.857643 0.668814
Si Si6 0.202079 0.968663 0.829292
Si Si7 0.409973 0.566769 0.668979
O O1 0.927073 0.789163 0.808476
O O2 0.981768 0.895656 0.776322
O O3 0.118232 0.818863 0.723168
O O4 0.052330 0.832878 0.000000
O O5 0.764931 0.146044 0.500000
O O6 0.688585 0.198503 0.263873
O O7 0.770968 0.092481 0.242629
O O8 0.731458 0.802685 0.765665
O O9 0.799604 0.746857 0.000000
O O10 0.389903 0.101825 0.260939
O O11 0.500000 0.000000 0.230656
O O12 0.306008 0.007223 0.170283
O O13 0.438753 0.057608 0.000000
O O14 0.674248 0.840882 0.500000
O O15 0.801802 0.897413 0.665173
O O16 0.119486 0.004476 0.733274
O O17 0.168629 0.962468 0.000000
O O18 0.449318 0.565025 0.500000
#
# Coordination Sequence:
#
# PCOD9427141 Si02
#       7
#     8   8   8   8   8   8   8
#     4  10  21  39  63  88 113 149 196 240 289 350
#     4  12  25  40  59  85 120 155 193 243 298 348
#     4  10  21  40  63  84 111 150 195 241 287 345
#     4   9  18  34  56  83 114 152 195 241 288 343
#     4   9  17  31  54  82 111 146 185 232 285 336
#     4  10  20  36  57  82 116 154 194 239 292 347
#     4   9  17  32  56  85 116 146 182 229 285 343
#
# _framework density 20.719615000000001
#
# number of rings (size 3 to 8) (size 9 to 14) (size 15 to 20)
#    0.000    2.143    0.000    3.429    0.000    6.571 
#    2.571    2.857    0.000    0.000    0.000    0.000 
#    0.000    0.000    0.000    0.000    0.000    0.000 
#
# Total GULP energy -312976.290879 kJ/mol
# GULP energy per Si atom -5588.862337 kJ/mol
# Density = 2.067246 g / cm^3
# Si number density = 20.719615 Si / 1000 Ang^3
#
#
#
# Elastic Constant Matrix: (Units=GPa)
#
#
# Indices 1 2 3 4 5 6 
#
# 1 13.4404 -8.8500 -6.4663 0.0000 0.0000 0.0000
# 2 -8.8500 87.8504 33.3429 0.0000 0.0000 0.0000
# 3 -6.4663 33.3429 118.1602 0.0000 0.0000 0.0000
# 4 0.0000 0.0000 0.0000 30.7931 0.0000 0.0000
# 5 0.0000 0.0000 0.0000 0.0000 23.0467 0.0000
# 6 0.0000 0.0000 0.0000 0.0000 0.0000 29.0472
#
#
#
# Elastic Compliance Matrix: (Units=1/GPa)
#
#
# Indices 1 2 3 4 5 6 
#
# 1 0.080274 0.007189 0.002364 0.000000 0.000000 0.000000
# 2 0.007189 0.013392 -0.003386 0.000000 0.000000 0.000000
# 3 0.002364 -0.003386 0.009548 0.000000 0.000000 0.000000
# 4 0.000000 0.000000 0.000000 0.032475 0.000000 0.000000
# 5 0.000000 0.000000 0.000000 0.000000 0.043390 0.000000
# 6 0.000000 0.000000 0.000000 0.000000 0.000000 0.034427
#
#
# Mechanical properties :
#
#
# Convention : Reuss Voigt Hill
#
# Bulk Modulus (GPa) = 8.65428 28.38938 18.52183
# Shear Modulus (GPa) = 20.86062 30.00570 25.43316
#
# Velocity S-wave (km/s) = 3.17646 3.80962 3.50736
# Velocity P-wave (km/s) = 4.19990 5.75173 5.03595
#
# Compressibility (1/GPa) = 0.11554979
#
# Stress axis : x y z
#
# Youngs Moduli (GPa) = 12.45738 74.67015 104.73576
#
# Poissons Ratio (x) = -0.53683 -0.24762
# Poissons Ratio (y) = -0.08956 0.35460
# Poissons Ratio (z) = -0.02945 0.25281
#
# Static dielectric constant tensor:
#      x y z
#    x 1.776010 0.000000 0.000000 
#    y 0.000000 1.736740 0.000000 
#    z 0.000000 0.000000 1.699460 
# 
# From -- ./inp_files/6022.got.cif
#   From: 2010.05.17/outbox.cif.g08.bks.cpg/sg55_4_cif.got.tgz:6022.got - 2010.06.03 13:27:54.
