data_PCOD9427695
_publ_section_title
;
Structure prediction by ZEFSAII (Michael W. Deem and Ramdas Pophale) SiO2 
 PCOD9427695
Probable space group: P B A M
;
_chemical_formula_sum "Si O2"
_cell_formula_units_Z 48
_cell_length_a 28.691005
_cell_length_b 9.509946
_cell_length_c 8.573367
_cell_angle_alpha 90.000000
_cell_angle_beta 90.000000
_cell_angle_gamma 90.000000
_cell_volume 2339.242399
_symmetry_space_group_name_H-M "P B A M"
_symmetry_group_IT_number 55
_symmetry_cell_setting 'orthorhombic'
loop_
_space_group_symop_operation_xyz
x,y,z
-x,-y,z
1/2+x,1/2-y,-z
1/2-x,1/2+y,-z
-x,-y,-z
x,y,-z
1/2-x,1/2+y,z
1/2+x,1/2-y,z
loop_
_atom_site_type_symbol
_atom_site_label
_atom_site_fract_x
_atom_site_fract_y
_atom_site_fract_z
Si Si1 0.045171 0.095346 0.317794
Si Si2 0.490417 0.164936 0.179422
Si Si3 0.638865 0.521674 0.815936
Si Si4 0.612582 0.814357 0.315987
Si Si5 0.306940 0.008173 0.189009
Si Si6 0.719799 0.306500 0.810229
O O1 0.056735 0.075998 0.500000
O O2 0.089062 0.049504 0.216818
O O3 0.027750 0.251414 0.281629
O O4 0.000000 0.000000 0.282343
O O5 0.438084 0.192394 0.237161
O O6 0.500000 0.000000 0.187199
O O7 0.494897 0.212239 0.000000
O O8 0.638774 0.670125 0.728931
O O9 0.678813 0.413679 0.764212
O O10 0.645109 0.548862 0.000000
O O11 0.606452 0.823706 0.500000
O O12 0.643379 0.943402 0.253754
O O13 0.268457 0.123548 0.238314
O O14 0.290704 0.852712 0.240479
O O15 0.309173 0.008097 0.000000
O O16 0.720352 0.302672 0.000000
#
# Coordination Sequence:
#
# PCOD9427695 Si02
#       6
#     8   8   8   8   8   8
#     4  11  23  40  62  92 128 166 205 251 310 370
#     4  11  25  43  65  91 120 161 213 261 305 361
#     4  11  22  39  65  94 123 163 212 259 304 360
#     4  12  25  41  60  90 126 165 205 251 313 373
#     4  10  20  40  66  92 122 158 202 254 306 365
#     4   9  20  38  66  97 122 154 204 257 307 359
#
# _framework density 20.519463999999999
#
# number of rings (size 3 to 8) (size 9 to 14) (size 15 to 20)
#    0.000    1.333    1.667    4.000    2.333    4.667 
#    0.000    5.000    0.000    0.000    0.000    0.000 
#    0.000    0.000    0.000    0.000    0.000    0.000 
#
# Total GULP energy -268446.537085 kJ/mol
# GULP energy per Si atom -5592.636189 kJ/mol
# Density = 2.047276 g / cm^3
# Si number density = 20.519464 Si / 1000 Ang^3
#
#
#
# Elastic Constant Matrix: (Units=GPa)
#
#
# Indices 1 2 3 4 5 6 
#
# 1 54.2401 7.3652 1.0774 0.0000 0.0000 0.0000
# 2 7.3652 80.2351 0.8112 0.0000 0.0000 0.0000
# 3 1.0774 0.8112 11.7520 0.0000 0.0000 0.0000
# 4 0.0000 0.0000 0.0000 -9.0450 0.0000 0.0000
# 5 0.0000 0.0000 0.0000 0.0000 -34.0482 0.0000
# 6 0.0000 0.0000 0.0000 0.0000 0.0000 38.1037
#
#
#
# Elastic Compliance Matrix: (Units=1/GPa)
#
#
# Indices 1 2 3 4 5 6 
#
# 1 0.018699 -0.001700 -0.001597 0.000000 0.000000 0.000000
# 2 -0.001700 0.012627 -0.000716 0.000000 0.000000 0.000000
# 3 -0.001597 -0.000716 0.085288 0.000000 0.000000 0.000000
# 4 0.000000 0.000000 0.000000 -0.110559 0.000000 0.000000
# 5 0.000000 0.000000 0.000000 0.000000 -0.029370 0.000000
# 6 0.000000 0.000000 0.000000 0.000000 0.000000 0.026244
#
#
# Mechanical properties :
#
#
# Convention : Reuss Voigt Hill
#
# Bulk Modulus (GPa) = 9.20914 18.30388 13.75651
# Shear Modulus (GPa) = 106.04122 8.13365 57.08743
#
# Velocity S-wave (km/s) = 7.19656 1.99311 5.28029
# Velocity P-wave (km/s) = 8.57623 3.77310 6.62526
#
# Compressibility (1/GPa) = 0.10858778
#
# Stress axis : x y z
#
# Youngs Moduli (GPa) = 53.47831 79.19732 11.72498
#
# Poissons Ratio (x) = 0.13466 0.01872
# Poissons Ratio (y) = 0.09093 0.00839
# Poissons Ratio (z) = 0.08540 0.05668
#
# Static dielectric constant tensor:
#      x y z
#    x 1.703260 0.000000 0.000000 
#    y 0.000000 1.741090 0.000000 
#    z 0.000000 0.000000 1.695790 
# 
# From -- ./inp_files/10515.got.cif
#   From: 2010.05.17/outbox.cif.g08.bks.cpg/sg55_6_cif.got.tgz:10515.got - 2010.06.03 13:27:54.
