data_PCOD9427007
_publ_section_title
;
Structure prediction by ZEFSAII (Michael W. Deem and Ramdas Pophale) SiO2 
 PCOD9427007
Probable space group: P B A M
;
_chemical_formula_sum "Si O2"
_cell_formula_units_Z 64
_cell_length_a 12.887517
_cell_length_b 28.144354
_cell_length_c 9.433868
_cell_angle_alpha 90.000000
_cell_angle_beta 90.000000
_cell_angle_gamma 90.000000
_cell_volume 3421.766193
_symmetry_space_group_name_H-M "P B A M"
_symmetry_group_IT_number 55
_symmetry_cell_setting 'orthorhombic'
loop_
_space_group_symop_operation_xyz
x,y,z
-x,-y,z
1/2+x,1/2-y,-z
1/2-x,1/2+y,-z
-x,-y,-z
x,y,-z
1/2-x,1/2+y,z
1/2+x,1/2-y,z
loop_
_atom_site_type_symbol
_atom_site_label
_atom_site_fract_x
_atom_site_fract_y
_atom_site_fract_z
Si Si1 0.393976 0.470116 0.833174
Si Si2 0.242099 0.294279 0.166107
Si Si3 0.171256 0.703989 0.666870
Si Si4 0.563496 0.636820 0.164795
Si Si5 0.522213 0.157218 0.830121
Si Si6 0.129308 0.137684 0.664130
Si Si7 0.549099 0.947912 0.831479
Si Si8 0.738051 0.457903 0.669806
O O1 0.500000 0.500000 0.821033
O O2 0.414664 0.416588 0.785217
O O3 0.305881 0.494700 0.740367
O O4 0.363828 0.469725 0.000000
O O5 0.281357 0.250867 0.261003
O O6 0.332473 0.333275 0.177147
O O7 0.132125 0.318154 0.205733
O O8 0.234947 0.279568 0.000000
O O9 0.148700 0.711349 0.500000
O O10 0.264039 0.665975 0.678854
O O11 0.070589 0.683522 0.747294
O O12 0.465592 0.657760 0.246770
O O13 0.534489 0.633859 0.000000
O O14 0.517680 0.100053 0.801989
O O15 0.506781 0.162816 0.000000
O O16 0.099185 0.138101 0.500000
O O17 0.156872 0.083911 0.706541
O O18 0.652590 0.944774 0.738809
O O19 0.500000 0.000000 0.802899
O O20 0.573498 0.946860 0.000000
O O21 0.745833 0.460805 0.500000
#
# Coordination Sequence:
#
# PCOD9427007 Si02
#       8
#     8   8   8   8   8   8   8   8
#     4  10  20  35  57  86 119 157 199 243 291 348
#     4  10  24  43  63  91 123 157 201 254 310 362
#     4  11  24  43  65  89 120 159 203 253 305 361
#     4  10  22  39  62  89 121 158 200 253 303 356
#     4  10  22  42  66  93 125 160 202 253 307 365
#     4  10  22  39  59  86 122 157 197 248 300 360
#     4  10  22  39  64  92 120 159 204 251 302 361
#     4  11  22  37  57  85 122 162 199 244 299 357
#
# _framework density 18.703790000000001
#
# number of rings (size 3 to 8) (size 9 to 14) (size 15 to 20)
#    0.000    1.750    2.500    0.750    3.500    3.500 
#    0.000    0.000    0.000    0.000    0.000    0.000 
#    0.000    0.000    0.000    0.000    0.000    0.000 
#
# Total GULP energy -357225.263226 kJ/mol
# GULP energy per Si atom -5581.644738 kJ/mol
# Density = 1.866122 g / cm^3
# Si number density = 18.703790 Si / 1000 Ang^3
#
#
#
# Elastic Constant Matrix: (Units=GPa)
#
#
# Indices 1 2 3 4 5 6 
#
# 1 100.8541 31.9347 56.1567 0.0000 0.0000 0.0000
# 2 31.9347 87.4841 45.2071 0.0000 0.0000 0.0000
# 3 56.1567 45.2071 48.8532 0.0000 0.0000 0.0000
# 4 0.0000 0.0000 0.0000 16.3819 0.0000 0.0000
# 5 0.0000 0.0000 0.0000 0.0000 6.6812 0.0000
# 6 0.0000 0.0000 0.0000 0.0000 0.0000 18.3652
#
#
#
# Elastic Compliance Matrix: (Units=1/GPa)
#
#
# Indices 1 2 3 4 5 6 
#
# 1 0.036347 0.015948 -0.056538 0.000000 0.000000 0.000000
# 2 0.015948 0.028903 -0.045078 0.000000 0.000000 0.000000
# 3 -0.056538 -0.045078 0.127174 0.000000 0.000000 0.000000
# 4 0.000000 0.000000 0.000000 0.061043 0.000000 0.000000
# 5 0.000000 0.000000 0.000000 0.000000 0.149674 0.000000
# 6 0.000000 0.000000 0.000000 0.000000 0.000000 0.054451
#
#
# Mechanical properties :
#
#
# Convention : Reuss Voigt Hill
#
# Bulk Modulus (GPa) = 47.42276 55.97650 51.69963
# Shear Modulus (GPa) = 7.86216 15.21186 11.53701
#
# Velocity S-wave (km/s) = 2.05247 2.85494 2.48630
# Velocity P-wave (km/s) = 5.57015 6.39222 5.99529
#
# Compressibility (1/GPa) = 0.02108692
#
# Stress axis : x y z
#
# Youngs Moduli (GPa) = 27.51287 34.59837 7.86323
#
# Poissons Ratio (x) = -0.55178 0.44457
# Poissons Ratio (y) = -0.43878 0.35446
# Poissons Ratio (z) = 1.55553 1.55964
#
# Static dielectric constant tensor:
#      x y z
#    x 1.624120 0.000000 0.000000 
#    y 0.000000 1.674110 0.000000 
#    z 0.000000 0.000000 1.628190 
# 
# From -- ./inp_files/4618.got.cif
#   From: 2010.05.17/outbox.cif.g08.bks.cpg/sg55_3_cif.got.tgz:4618.got - 2010.06.03 13:27:54.
