data_PCOD9427822
_publ_section_title
;
Structure prediction by ZEFSAII (Michael W. Deem and Ramdas Pophale) SiO2 
 PCOD9427822
Probable space group: P B A M
;
_chemical_formula_sum "Si O2"
_cell_formula_units_Z 40
_cell_length_a 18.900795
_cell_length_b 13.824740
_cell_length_c 7.516930
_cell_angle_alpha 90.000000
_cell_angle_beta 90.000000
_cell_angle_gamma 90.000000
_cell_volume 1964.163110
_symmetry_space_group_name_H-M "P B A M"
_symmetry_group_IT_number 55
_symmetry_cell_setting 'orthorhombic'
loop_
_space_group_symop_operation_xyz
x,y,z
-x,-y,z
1/2+x,1/2-y,-z
1/2-x,1/2+y,-z
-x,-y,-z
x,y,-z
1/2-x,1/2+y,z
1/2+x,1/2-y,z
loop_
_atom_site_type_symbol
_atom_site_label
_atom_site_fract_x
_atom_site_fract_y
_atom_site_fract_z
Si Si1 0.819981 0.176939 0.714907
Si Si2 0.670718 0.093701 0.282048
Si Si3 0.473386 0.397490 0.791030
Si Si4 0.622464 0.882149 0.282448
Si Si5 0.472433 0.812104 0.706653
O O1 0.818568 0.177905 0.500000
O O2 0.746126 0.133797 0.779204
O O3 0.889433 0.116394 0.766620
O O4 0.834071 0.287290 0.773368
O O5 0.673114 0.095951 0.500000
O O6 0.603548 0.157148 0.220848
O O7 0.655547 0.983470 0.228053
O O8 0.500000 0.500000 0.717743
O O9 0.510817 0.301824 0.714933
O O10 0.489446 0.395795 0.000000
O O11 0.620920 0.881602 0.500000
O O12 0.541721 0.866226 0.218840
O O13 0.470163 0.840925 0.500000
#
# Coordination Sequence:
#
# PCOD9427822 Si02
#       5
#     8   8   8   8   8
#     4   9  18  31  49  74  99 126 162 200 238 283
#     4   9  16  27  48  77 103 126 156 198 244 286
#     4  10  21  36  51  67  94 132 166 199 244 290
#     4   8  14  26  44  69 101 128 151 189 239 283
#     4   9  17  30  51  76  97 123 162 201 239 287
#
# _framework density 20.364906999999999
#
# number of rings (size 3 to 8) (size 9 to 14) (size 15 to 20)
#    0.000    3.000    0.000    2.400    0.000    5.600 
#    0.000    5.000    0.000   16.800    0.000    0.000 
#    0.000    0.000    0.000    0.000    0.000    0.000 
#
# Total GULP energy -223147.645130 kJ/mol
# GULP energy per Si atom -5578.691128 kJ/mol
# Density = 2.031856 g / cm^3
# Si number density = 20.364907 Si / 1000 Ang^3
#
#
#
# Elastic Constant Matrix: (Units=GPa)
#
#
# Indices 1 2 3 4 5 6 
#
# 1 180.7195 126.3592 -7.4959 0.0000 0.0000 0.0000
# 2 126.3592 133.9416 -11.7670 0.0000 0.0000 0.0000
# 3 -7.4959 -11.7670 48.2543 0.0000 0.0000 0.0000
# 4 0.0000 0.0000 0.0000 -68.8117 0.0000 0.0000
# 5 0.0000 0.0000 0.0000 0.0000 -73.6155 0.0000
# 6 0.0000 0.0000 0.0000 0.0000 0.0000 26.4012
#
#
#
# Elastic Compliance Matrix: (Units=1/GPa)
#
#
# Indices 1 2 3 4 5 6 
#
# 1 0.016330 -0.015515 -0.001247 0.000000 0.000000 0.000000
# 2 -0.015515 0.022370 0.003045 0.000000 0.000000 0.000000
# 3 -0.001247 0.003045 0.021272 0.000000 0.000000 0.000000
# 4 0.000000 0.000000 0.000000 -0.014532 0.000000 0.000000
# 5 0.000000 0.000000 0.000000 0.000000 -0.013584 0.000000
# 6 0.000000 0.000000 0.000000 0.000000 0.000000 0.037877
#
#
# Mechanical properties :
#
#
# Convention : Reuss Voigt Hill
#
# Bulk Modulus (GPa) = 30.73240 64.12310 47.42775
# Shear Modulus (GPa) = 46.29123 -6.15060 20.07031
#
# Velocity S-wave (km/s) = 4.77286 -1.73976 3.14273
# Velocity P-wave (km/s) = 6.74517 5.24593 6.04223
#
# Compressibility (1/GPa) = 0.03253894
#
# Stress axis : x y z
#
# Youngs Moduli (GPa) = 61.23835 44.70293 47.00929
#
# Poissons Ratio (x) = 0.69355 0.05861
# Poissons Ratio (y) = 0.95010 -0.14314
# Poissons Ratio (z) = 0.07634 -0.13612
#
# Static dielectric constant tensor:
#      x y z
#    x 1.699700 0.000000 0.000000 
#    y 0.000000 1.699700 0.000000 
#    z 0.000000 0.000000 1.757970 
# 
# From -- ./inp_files/3632.got.cif
#   From: 2010.05.17/outbox.cif.g08.bks.cpg/sg55_2_cif.got.tgz:3632.got - 2010.06.03 13:27:54.
