data_PCOD9427465
_publ_section_title
;
Structure prediction by ZEFSAII (Michael W. Deem and Ramdas Pophale) SiO2 
 PCOD9427465
Probable space group: P B A M
;
_chemical_formula_sum "Si O2"
_cell_formula_units_Z 64
_cell_length_a 13.132274
_cell_length_b 16.254007
_cell_length_c 14.517147
_cell_angle_alpha 90.000000
_cell_angle_beta 90.000000
_cell_angle_gamma 90.000000
_cell_volume 3098.715129
_symmetry_space_group_name_H-M "P B A M"
_symmetry_group_IT_number 55
_symmetry_cell_setting 'orthorhombic'
loop_
_space_group_symop_operation_xyz
x,y,z
-x,-y,z
1/2+x,1/2-y,-z
1/2-x,1/2+y,-z
-x,-y,-z
x,y,-z
1/2-x,1/2+y,z
1/2+x,1/2-y,z
loop_
_atom_site_type_symbol
_atom_site_label
_atom_site_fract_x
_atom_site_fract_y
_atom_site_fract_z
Si Si1 0.487990 0.400907 0.795666
Si Si2 0.681872 0.344910 0.101273
Si Si3 0.852307 0.484672 0.892430
Si Si4 0.324076 0.284931 0.811717
Si Si5 0.723473 0.948948 0.609079
Si Si6 0.173587 0.394582 0.274067
Si Si7 0.057711 0.630710 0.743670
Si Si8 0.958697 0.907127 0.599649
O O1 0.500000 0.500000 0.804040
O O2 0.589628 0.357700 0.830502
O O3 0.389127 0.363462 0.844877
O O4 0.481200 0.376429 0.688096
O O5 0.753837 0.424887 0.107754
O O6 0.752503 0.266150 0.119591
O O7 0.637129 0.339694 0.000000
O O8 0.828974 0.562593 0.827687
O O9 0.931878 0.429412 0.833061
O O10 0.877788 0.500903 0.000000
O O11 0.246848 0.317050 0.733906
O O12 0.406470 0.219321 0.776918
O O13 0.701807 0.950500 0.500000
O O14 0.639487 0.899990 0.668220
O O15 0.837771 0.913424 0.620360
O O16 0.717575 0.039502 0.654162
O O17 0.056385 0.373631 0.293907
O O18 0.973582 0.866086 0.500000
O O19 0.000000 0.000000 0.591180
#
# Coordination Sequence:
#
# PCOD9427465 Si02
#       8
#     8   8   8   8   8   8   8   8
#     4  11  21  38  65  90 118 161 211 261 308 364
#     4  10  22  39  58  84 121 159 199 252 313 374
#     4   9  18  35  59  85 111 143 189 243 295 350
#     4  11  23  39  57  82 121 161 197 243 302 362
#     4  10  20  37  62  89 118 151 192 244 298 354
#     4  11  21  36  59  85 113 148 195 244 292 358
#     4  10  22  37  56  83 115 152 191 238 299 358
#     4   9  17  31  55  88 121 154 194 241 296 355
#
# _framework density 20.653722999999999
#
# number of rings (size 3 to 8) (size 9 to 14) (size 15 to 20)
#    0.000    1.875    0.000    6.750    0.000    3.250 
#    0.000    3.750    0.000    3.000    0.000    0.000 
#    0.000    0.000    0.000    0.000    0.000    0.000 
#
# Total GULP energy -357081.723175 kJ/mol
# GULP energy per Si atom -5579.401925 kJ/mol
# Density = 2.060671 g / cm^3
# Si number density = 20.653723 Si / 1000 Ang^3
#
#
#
# Elastic Constant Matrix: (Units=GPa)
#
#
# Indices 1 2 3 4 5 6 
#
# 1 84.0515 20.8088 9.2884 0.0000 0.0000 0.0000
# 2 20.8088 64.4455 15.8953 0.0000 0.0000 0.0000
# 3 9.2884 15.8953 91.0286 0.0000 0.0000 0.0000
# 4 0.0000 0.0000 0.0000 12.0258 0.0000 0.0000
# 5 0.0000 0.0000 0.0000 0.0000 12.4263 0.0000
# 6 0.0000 0.0000 0.0000 0.0000 0.0000 34.4488
#
#
#
# Elastic Compliance Matrix: (Units=1/GPa)
#
#
# Indices 1 2 3 4 5 6 
#
# 1 0.012964 -0.004034 -0.000619 0.000000 0.000000 0.000000
# 2 -0.004034 0.017470 -0.002639 0.000000 0.000000 0.000000
# 3 -0.000619 -0.002639 0.011510 0.000000 0.000000 0.000000
# 4 0.000000 0.000000 0.000000 0.083155 0.000000 0.000000
# 5 0.000000 0.000000 0.000000 0.000000 0.080474 0.000000
# 6 0.000000 0.000000 0.000000 0.000000 0.000000 0.029029
#
#
# Mechanical properties :
#
#
# Convention : Reuss Voigt Hill
#
# Bulk Modulus (GPa) = 36.54708 36.83450 36.69079
# Shear Modulus (GPa) = 19.35701 24.68240 22.01970
#
# Velocity S-wave (km/s) = 3.06472 3.46071 3.26872
# Velocity P-wave (km/s) = 5.50063 5.81736 5.66121
#
# Compressibility (1/GPa) = 0.02736197
#
# Stress axis : x y z
#
# Youngs Moduli (GPa) = 77.13425 57.24004 86.88473
#
# Poissons Ratio (x) = 0.23088 0.05374
# Poissons Ratio (y) = 0.31112 0.22930
# Poissons Ratio (z) = 0.04771 0.15106
#
# Static dielectric constant tensor:
#      x y z
#    x 1.746900 0.000000 0.000000 
#    y 0.000000 1.762750 0.000000 
#    z 0.000000 0.000000 1.741780 
# 
# From -- ./inp_files/18544.got.cif
#   From: 2010.05.17/outbox.cif.g08.bks.cpg/sg55_10_cif.got.tgz:18544.got - 2010.06.03 13:27:54.
