data_PCOD9427371
_publ_section_title
;
Structure prediction by ZEFSAII (Michael W. Deem and Ramdas Pophale) SiO2 
 PCOD9427371
Probable space group: P B A M
;
_chemical_formula_sum "Si O2"
_cell_formula_units_Z 58
_cell_length_a 9.150491
_cell_length_b 10.908318
_cell_length_c 28.216910
_cell_angle_alpha 90.000000
_cell_angle_beta 90.000000
_cell_angle_gamma 90.000000
_cell_volume 2816.512229
_symmetry_space_group_name_H-M "P B A M"
_symmetry_group_IT_number 55
_symmetry_cell_setting 'orthorhombic'
loop_
_space_group_symop_operation_xyz
x,y,z
-x,-y,z
1/2+x,1/2-y,-z
1/2-x,1/2+y,-z
-x,-y,-z
x,y,-z
1/2-x,1/2+y,z
1/2+x,1/2-y,z
loop_
_atom_site_type_symbol
_atom_site_label
_atom_site_fract_x
_atom_site_fract_y
_atom_site_fract_z
Si Si1 0.993187 0.141264 0.945490
Si Si2 0.546716 0.138743 0.324985
Si Si3 0.126167 0.329319 0.218948
Si Si4 0.453785 0.639839 0.446919
Si Si5 0.695961 0.907757 0.815296
Si Si6 0.291696 0.250637 0.385770
Si Si7 0.500000 0.000000 0.000000
Si Si8 0.187541 0.646219 0.078983
O O1 0.158587 0.185456 0.943065
O O2 0.898816 0.227766 0.912812
O O3 0.938586 0.148737 0.000000
O O4 0.000000 0.000000 0.931936
O O5 0.602152 0.189204 0.274984
O O6 0.401289 0.203520 0.345124
O O7 0.678760 0.152640 0.362639
O O8 0.500000 0.000000 0.317154
O O9 0.214111 0.457616 0.208873
O O10 0.197324 0.204534 0.199060
O O11 0.966925 0.359343 0.197106
O O12 0.500000 0.500000 0.449438
O O13 0.417081 0.684629 0.500000
O O14 0.596260 0.705652 0.425860
O O15 0.318781 0.656272 0.411016
O O16 0.707484 0.923193 0.871807
O O17 0.400048 0.066231 0.958674
#
# Coordination Sequence:
#
# PCOD9427371 Si02
#       8
#     8   8   8   8   8   8   2   8
#     4  11  25  43  65  99 130 168 221 259 318 383
#     4  11  21  39  63  86 128 163 219 280 326 395
#     4  11  24  46  67  98 132 173 219 279 336 402
#     4  10  20  37  58  88 130 168 214 269 326 394
#     4  11  25  45  69  99 132 174 221 264 338 401
#     4  10  22  36  60  93 120 172 220 267 333 388
#     4  12  24  40  72  96 126 174 212 254 326 372
#     4  12  26  43  70  95 135 172 213 270 317 395
#
# _framework density 20.592845000000001
#
# number of rings (size 3 to 8) (size 9 to 14) (size 15 to 20)
#    0.000    1.103    2.759    3.724    3.862    0.552 
#    0.000    0.000    0.000    6.621    0.000    0.000 
#    0.000    0.000    0.000    0.000    0.000    0.000 
#
# Total GULP energy -323339.631778 kJ/mol
# GULP energy per Si atom -5574.821238 kJ/mol
# Density = 2.054597 g / cm^3
# Si number density = 20.592845 Si / 1000 Ang^3
#
#
#
# Elastic Constant Matrix: (Units=GPa)
#
#
# Indices 1 2 3 4 5 6 
#
# 1 79.9994 35.7096 17.7050 0.0000 0.0000 0.0000
# 2 35.7096 50.4415 30.2812 0.0000 0.0000 0.0000
# 3 17.7050 30.2812 126.1900 0.0000 0.0000 0.0000
# 4 0.0000 0.0000 0.0000 15.9893 0.0000 0.0000
# 5 0.0000 0.0000 0.0000 0.0000 -1.6739 0.0000
# 6 0.0000 0.0000 0.0000 0.0000 0.0000 34.4632
#
#
#
# Elastic Compliance Matrix: (Units=1/GPa)
#
#
# Indices 1 2 3 4 5 6 
#
# 1 0.018318 -0.013348 0.000633 0.000000 0.000000 0.000000
# 2 -0.013348 0.032888 -0.006019 0.000000 0.000000 0.000000
# 3 0.000633 -0.006019 0.009280 0.000000 0.000000 0.000000
# 4 0.000000 0.000000 0.000000 0.062542 0.000000 0.000000
# 5 0.000000 0.000000 0.000000 0.000000 -0.597425 0.000000
# 6 0.000000 0.000000 0.000000 0.000000 0.000000 0.029016
#
#
# Mechanical properties :
#
#
# Convention : Reuss Voigt Hill
#
# Bulk Modulus (GPa) = 43.44488 47.11361 45.27924
# Shear Modulus (GPa) = -12.49256 21.28474 4.39609
#
# Velocity S-wave (km/s) = -2.46569 3.21845 1.46267
# Velocity P-wave (km/s) = 3.61064 6.06131 4.98880
#
# Compressibility (1/GPa) = 0.02301767
#
# Stress axis : x y z
#
# Youngs Moduli (GPa) = 54.59011 30.40601 107.75694
#
# Poissons Ratio (x) = 0.40587 -0.06821
# Poissons Ratio (y) = 0.72869 0.64861
# Poissons Ratio (z) = -0.03455 0.18302
#
# Static dielectric constant tensor:
#      x y z
#    x 1.756680 0.000000 0.000000 
#    y 0.000000 1.744090 0.000000 
#    z 0.000000 0.000000 1.743380 
# 
# From -- ./inp_files/23904.got.cif
#   From: 2010.05.17/outbox.cif.g08.bks.cpg/sg55_12_cif.got.tgz:23904.got - 2010.06.03 13:27:54.
