data_PCOD9427952
_publ_section_title
;
Structure prediction by ZEFSAII (Michael W. Deem and Ramdas Pophale) SiO2 
 PCOD9427952
Probable space group: P B A M
;
_chemical_formula_sum "Si O2"
_cell_formula_units_Z 48
_cell_length_a 8.021724
_cell_length_b 14.320898
_cell_length_c 19.245966
_cell_angle_alpha 90.000000
_cell_angle_beta 90.000000
_cell_angle_gamma 90.000000
_cell_volume 2210.943686
_symmetry_space_group_name_H-M "P B A M"
_symmetry_group_IT_number 55
_symmetry_cell_setting 'orthorhombic'
loop_
_space_group_symop_operation_xyz
x,y,z
-x,-y,z
1/2+x,1/2-y,-z
1/2-x,1/2+y,-z
-x,-y,-z
x,y,-z
1/2-x,1/2+y,z
1/2+x,1/2-y,z
loop_
_atom_site_type_symbol
_atom_site_label
_atom_site_fract_x
_atom_site_fract_y
_atom_site_fract_z
Si Si1 0.798003 0.192485 0.579284
Si Si2 0.677325 0.554075 0.830980
Si Si3 0.334244 0.103545 0.919527
Si Si4 0.668450 0.391691 0.579697
Si Si5 0.818902 0.545017 0.321246
Si Si6 0.482851 0.288017 0.918743
O O1 0.740976 0.175885 0.500000
O O2 0.789613 0.303242 0.589617
O O3 0.682736 0.138383 0.633070
O O4 0.983337 0.150883 0.586471
O O5 0.500000 0.500000 0.828066
O O6 0.802378 0.486746 0.873315
O O7 0.742838 0.566448 0.753575
O O8 0.636150 0.648980 0.871468
O O9 0.473351 0.179142 0.898622
O O10 0.164430 0.165447 0.915021
O O11 0.356066 0.076338 0.000000
O O12 0.686242 0.427061 0.500000
O O13 0.708705 0.470731 0.635115
O O14 0.000000 0.500000 0.313924
O O15 0.430130 0.293085 0.000000
#
# Coordination Sequence:
#
# PCOD9427952 Si02
#       6
#     8   8   8   8   8   8
#     4  10  21  39  63  88 113 144 185 232 281 333
#     4  10  21  37  55  76 109 149 185 224 274 332
#     4   9  18  34  57  82 106 137 179 226 276 329
#     4  10  21  39  63  88 113 144 185 232 281 333
#     4  12  25  38  55  82 117 154 191 230 276 332
#     4   9  18  34  57  82 106 137 179 226 276 329
#
# _framework density 21.710187000000001
#
# number of rings (size 3 to 8) (size 9 to 14) (size 15 to 20)
#    0.000    2.000    0.000    3.500    0.000    8.667 
#    0.000    3.333    0.000    5.000    0.000    0.000 
#    0.000    0.000    0.000    0.000    0.000    0.000 
#
# Total GULP energy -268551.177088 kJ/mol
# GULP energy per Si atom -5594.816189 kJ/mol
# Density = 2.166077 g / cm^3
# Si number density = 21.710187 Si / 1000 Ang^3
#
#
#
# Elastic Constant Matrix: (Units=GPa)
#
#
# Indices 1 2 3 4 5 6 
#
# 1 70.9378 11.3351 18.2946 0.0000 0.0000 0.0000
# 2 11.3351 82.6360 45.7447 0.0000 0.0000 0.0000
# 3 18.2946 45.7447 83.3166 0.0000 0.0000 0.0000
# 4 0.0000 0.0000 0.0000 21.9376 0.0000 0.0000
# 5 0.0000 0.0000 0.0000 0.0000 177.3108 0.0000
# 6 0.0000 0.0000 0.0000 0.0000 0.0000 40.4251
#
#
#
# Elastic Compliance Matrix: (Units=1/GPa)
#
#
# Indices 1 2 3 4 5 6 
#
# 1 0.014950 -0.000335 -0.003098 0.000000 0.000000 0.000000
# 2 -0.000335 0.017393 -0.009476 0.000000 0.000000 0.000000
# 3 -0.003098 -0.009476 0.017885 0.000000 0.000000 0.000000
# 4 0.000000 0.000000 0.000000 0.045584 0.000000 0.000000
# 5 0.000000 0.000000 0.000000 0.000000 0.005640 0.000000
# 6 0.000000 0.000000 0.000000 0.000000 0.000000 0.024737
#
#
# Mechanical properties :
#
#
# Convention : Reuss Voigt Hill
#
# Bulk Modulus (GPa) = 40.96947 43.07102 42.02024
# Shear Modulus (GPa) = 31.22189 58.70243 44.96216
#
# Velocity S-wave (km/s) = 3.79637 5.20556 4.55578
# Velocity P-wave (km/s) = 6.17484 7.48416 6.86080
#
# Compressibility (1/GPa) = 0.02440842
#
# Stress axis : x y z
#
# Youngs Moduli (GPa) = 66.89173 57.49509 55.91138
#
# Poissons Ratio (x) = 0.01928 0.17324
# Poissons Ratio (y) = 0.02244 0.52981
# Poissons Ratio (z) = 0.20726 0.54481
#
# Static dielectric constant tensor:
#      x y z
#    x 1.839360 0.000000 0.000000 
#    y 0.000000 1.768550 0.000000 
#    z 0.000000 0.000000 1.727700 
# 
# From -- ./inp_files/20779.got.cif
#   From: 2010.05.17/outbox.cif.g08.bks.cpg/sg55_11_cif.got.tgz:20779.got - 2010.06.03 13:27:54.
