data_PCOD9427612
_publ_section_title
;
Structure prediction by ZEFSAII (Michael W. Deem and Ramdas Pophale) SiO2 
 PCOD9427612
Probable space group: P B A M
;
_chemical_formula_sum "Si O2"
_cell_formula_units_Z 56
_cell_length_a 8.892330
_cell_length_b 20.511766
_cell_length_c 16.409705
_cell_angle_alpha 90.000000
_cell_angle_beta 90.000000
_cell_angle_gamma 90.000000
_cell_volume 2993.087398
_symmetry_space_group_name_H-M "P B A M"
_symmetry_group_IT_number 55
_symmetry_cell_setting 'orthorhombic'
loop_
_space_group_symop_operation_xyz
x,y,z
-x,-y,z
1/2+x,1/2-y,-z
1/2-x,1/2+y,-z
-x,-y,-z
x,y,-z
1/2-x,1/2+y,z
1/2+x,1/2-y,z
loop_
_atom_site_type_symbol
_atom_site_label
_atom_site_fract_x
_atom_site_fract_y
_atom_site_fract_z
Si Si1 0.401159 0.842946 0.907190
Si Si2 0.105569 0.939060 0.330301
Si Si3 0.089556 0.609549 0.500000
Si Si4 0.930726 0.213463 0.096262
Si Si5 0.598517 0.819942 0.671550
Si Si6 0.768327 0.534470 0.500000
Si Si7 0.415487 0.932637 0.239014
Si Si8 0.561385 0.312406 0.270083
O O1 0.533297 0.790218 0.895445
O O2 0.243309 0.805388 0.890955
O O3 0.415378 0.905103 0.851419
O O4 0.399152 0.863010 0.000000
O O5 0.173321 0.947763 0.420345
O O6 0.247280 0.938760 0.270647
O O7 0.014157 0.873148 0.315879
O O8 0.000000 0.000000 0.312532
O O9 0.114786 0.655677 0.421617
O O10 0.191189 0.543222 0.500000
O O11 0.921394 0.577738 0.500000
O O12 0.021505 0.183570 0.173177
O O13 0.969278 0.197098 0.000000
O O14 0.501704 0.877643 0.710605
O O15 0.761405 0.813497 0.712994
O O16 0.509848 0.753223 0.691090
O O17 0.500000 0.000000 0.249117
#
# Coordination Sequence:
#
# PCOD9427612 Si02
#       8
#     8   8   4   8   8   4   8   8
#     4  10  21  38  63  94 128 168 213 267 328 395
#     4  12  25  43  69  96 128 173 225 274 326 396
#     4  11  24  43  65  96 133 173 216 268 330 383
#     4  10  20  38  65  95 129 166 210 266 326 389
#     4  12  26  42  67  95 134 174 218 276 330 388
#     4  11  23  43  69  92 128 175 225 266 318 397
#     4  12  23  41  63  92 130 174 219 269 330 391
#     4  12  24  43  67  99 131 168 223 272 332 392
#
# _framework density 18.709779000000001
#
# number of rings (size 3 to 8) (size 9 to 14) (size 15 to 20)
#    0.000    0.714    4.286    4.500    0.000    2.000 
#    0.000    0.000    0.000    3.429    0.000    0.000 
#    0.000    0.000    0.000    0.000    0.000    0.000 
#
# Total GULP energy -312860.967022 kJ/mol
# GULP energy per Si atom -5586.802983 kJ/mol
# Density = 1.866719 g / cm^3
# Si number density = 18.709779 Si / 1000 Ang^3
#
#
#
# Elastic Constant Matrix: (Units=GPa)
#
#
# Indices 1 2 3 4 5 6 
#
# 1 63.9279 38.7078 -8.2430 0.0000 0.0000 0.0000
# 2 38.7078 133.5053 31.9430 0.0000 0.0000 0.0000
# 3 -8.2430 31.9430 57.5163 0.0000 0.0000 0.0000
# 4 0.0000 0.0000 0.0000 -66.0378 0.0000 0.0000
# 5 0.0000 0.0000 0.0000 0.0000 33.8256 0.0000
# 6 0.0000 0.0000 0.0000 0.0000 0.0000 13.9401
#
#
#
# Elastic Compliance Matrix: (Units=1/GPa)
#
#
# Indices 1 2 3 4 5 6 
#
# 1 0.021477 -0.008030 0.007538 0.000000 0.000000 0.000000
# 2 -0.008030 0.011641 -0.007616 0.000000 0.000000 0.000000
# 3 0.007538 -0.007616 0.022696 0.000000 0.000000 0.000000
# 4 0.000000 0.000000 0.000000 -0.015143 0.000000 0.000000
# 5 0.000000 0.000000 0.000000 0.000000 0.029563 0.000000
# 6 0.000000 0.000000 0.000000 0.000000 0.000000 0.071736
#
#
# Mechanical properties :
#
#
# Convention : Reuss Voigt Hill
#
# Bulk Modulus (GPa) = 25.25436 42.19614 33.72525
# Shear Modulus (GPa) = 29.17387 9.18168 19.17778
#
# Velocity S-wave (km/s) = 3.95306 2.21767 3.20506
# Velocity P-wave (km/s) = 5.86198 5.39994 5.63570
#
# Compressibility (1/GPa) = 0.03959712
#
# Stress axis : x y z
#
# Youngs Moduli (GPa) = 46.56167 85.90448 44.06001
#
# Poissons Ratio (x) = 0.68985 -0.33212
# Poissons Ratio (y) = 0.37391 0.33556
# Poissons Ratio (z) = -0.35097 0.65424
#
# Static dielectric constant tensor:
#      x y z
#    x 1.635710 0.000000 0.000000 
#    y 0.000000 1.603840 0.000000 
#    z 0.000000 0.000000 1.702620 
# 
# From -- ./inp_files/17687.got.cif
#   From: 2010.05.17/outbox.cif.g08.bks.cpg/sg55_9_cif.got.tgz:17687.got - 2010.06.03 13:27:54.
