data_PCOD9427394
_publ_section_title
;
Structure prediction by ZEFSAII (Michael W. Deem and Ramdas Pophale) SiO2 
 PCOD9427394
Probable space group: P B A M
;
_chemical_formula_sum "Si O2"
_cell_formula_units_Z 64
_cell_length_a 23.418578
_cell_length_b 7.407488
_cell_length_c 17.478854
_cell_angle_alpha 90.000000
_cell_angle_beta 90.000000
_cell_angle_gamma 90.000000
_cell_volume 3032.106365
_symmetry_space_group_name_H-M "P B A M"
_symmetry_group_IT_number 55
_symmetry_cell_setting 'orthorhombic'
loop_
_space_group_symop_operation_xyz
x,y,z
-x,-y,z
1/2+x,1/2-y,-z
1/2-x,1/2+y,-z
-x,-y,-z
x,y,-z
1/2-x,1/2+y,z
1/2+x,1/2-y,z
loop_
_atom_site_type_symbol
_atom_site_label
_atom_site_fract_x
_atom_site_fract_y
_atom_site_fract_z
Si Si1 0.559466 0.248895 0.215797
Si Si2 0.724568 0.066465 0.324526
Si Si3 0.565613 0.821034 0.760840
Si Si4 0.061215 0.967947 0.357881
Si Si5 0.178826 0.109308 0.586341
Si Si6 0.348915 0.652350 0.087280
Si Si7 0.265213 0.998042 0.912644
Si Si8 0.687881 0.759628 0.221476
O O1 0.492039 0.237471 0.195235
O O2 0.563200 0.388297 0.286702
O O3 0.602126 0.313425 0.149232
O O4 0.572324 0.037885 0.236315
O O5 0.685764 0.231530 0.351158
O O6 0.767253 0.115931 0.254319
O O7 0.767022 0.015677 0.393315
O O8 0.688577 0.899384 0.294182
O O9 0.559502 0.733728 0.676787
O O10 0.621834 0.722244 0.791736
O O11 0.119328 0.005698 0.402512
O O12 0.000000 0.000000 0.397376
O O13 0.182332 0.177647 0.500000
O O14 0.303501 0.489800 0.100600
O O15 0.305451 0.823255 0.091535
O O16 0.370787 0.639986 0.000000
O O17 0.289391 0.131974 0.850162
O O18 0.270588 0.066669 0.000000
#
# Coordination Sequence:
#
# PCOD9427394 Si02
#       8
#     8   8   8   8   8   8   8   8
#     4  10  21  38  61  82 121 154 198 254 295 343
#     4  10  23  34  59  89 114 154 191 239 299 360
#     4  10  20  37  59  88 113 153 199 248 293 344
#     4  10  22  39  62  88 115 156 203 245 291 352
#     4  11  22  39  58  86 121 152 190 243 304 361
#     4  10  21  37  54  82 119 158 198 242 304 357
#     4  10  21  33  52  82 119 155 188 242 294 345
#     4  11  19  35  57  84 116 148 203 239 287 360
#
# _framework density 21.107437999999998
#
# number of rings (size 3 to 8) (size 9 to 14) (size 15 to 20)
#    0.000    1.750    2.500    1.875    3.500    1.250 
#    0.000    1.875    0.000    3.375    0.000    5.250 
#    0.000    0.000    0.000    0.000    0.000    0.000 
#
# Total GULP energy -357116.194429 kJ/mol
# GULP energy per Si atom -5579.940538 kJ/mol
# Density = 2.105940 g / cm^3
# Si number density = 21.107438 Si / 1000 Ang^3
#
#
#
# Elastic Constant Matrix: (Units=GPa)
#
#
# Indices 1 2 3 4 5 6 
#
# 1 140.0148 15.8217 33.0734 0.0000 0.0000 0.0000
# 2 15.8217 77.9831 14.3351 0.0000 0.0000 0.0000
# 3 33.0734 14.3351 64.9155 0.0000 0.0000 0.0000
# 4 0.0000 0.0000 0.0000 14.9319 0.0000 0.0000
# 5 0.0000 0.0000 0.0000 0.0000 11.3041 0.0000
# 6 0.0000 0.0000 0.0000 0.0000 0.0000 21.4229
#
#
#
# Elastic Compliance Matrix: (Units=1/GPa)
#
#
# Indices 1 2 3 4 5 6 
#
# 1 0.008184 -0.000932 -0.003964 0.000000 0.000000 0.000000
# 2 -0.000932 0.013472 -0.002500 0.000000 0.000000 0.000000
# 3 -0.003964 -0.002500 0.017976 0.000000 0.000000 0.000000
# 4 0.000000 0.000000 0.000000 0.066971 0.000000 0.000000
# 5 0.000000 0.000000 0.000000 0.000000 0.088463 0.000000
# 6 0.000000 0.000000 0.000000 0.000000 0.000000 0.046679
#
#
# Mechanical properties :
#
#
# Convention : Reuss Voigt Hill
#
# Bulk Modulus (GPa) = 40.25698 45.48599 42.87149
# Shear Modulus (GPa) = 18.88100 24.17733 21.52916
#
# Velocity S-wave (km/s) = 2.99410 3.38811 3.19718
# Velocity P-wave (km/s) = 5.57374 6.07472 5.82962
#
# Compressibility (1/GPa) = 0.02484041
#
# Stress axis : x y z
#
# Youngs Moduli (GPa) = 122.19461 74.22839 55.62912
#
# Poissons Ratio (x) = 0.06916 0.22050
# Poissons Ratio (y) = 0.11385 0.13909
# Poissons Ratio (z) = 0.48434 0.18559
#
# Static dielectric constant tensor:
#      x y z
#    x 1.796270 0.000000 0.000000 
#    y 0.000000 1.866040 0.000000 
#    z 0.000000 0.000000 1.758890 
# 
# From -- ./inp_files/22041.got.cif
#   From: 2010.05.17/outbox.cif.g08.bks.cpg/sg55_12_cif.got.tgz:22041.got - 2010.06.03 13:27:54.
