data_PCOD9427863
_publ_section_title
;
Structure prediction by ZEFSAII (Michael W. Deem and Ramdas Pophale) SiO2 
 PCOD9427863
Probable space group: P B A M
;
_chemical_formula_sum "Si O2"
_cell_formula_units_Z 56
_cell_length_a 16.368671
_cell_length_b 5.061167
_cell_length_c 34.275299
_cell_angle_alpha 90.000000
_cell_angle_beta 90.000000
_cell_angle_gamma 90.000000
_cell_volume 2839.522664
_symmetry_space_group_name_H-M "P B A M"
_symmetry_group_IT_number 55
_symmetry_cell_setting 'orthorhombic'
loop_
_space_group_symop_operation_xyz
x,y,z
-x,-y,z
1/2+x,1/2-y,-z
1/2-x,1/2+y,-z
-x,-y,-z
x,y,-z
1/2-x,1/2+y,z
1/2+x,1/2-y,z
loop_
_atom_site_type_symbol
_atom_site_label
_atom_site_fract_x
_atom_site_fract_y
_atom_site_fract_z
Si Si1 0.443120 0.743481 0.044503
Si Si2 0.804426 0.617646 0.105711
Si Si3 0.443901 0.241356 0.455336
Si Si4 0.901334 0.003690 0.683952
Si Si5 0.196081 0.307617 0.806335
Si Si6 0.402149 0.997450 0.267751
Si Si7 0.305598 0.400219 0.394911
O O1 0.500000 0.500000 0.056974
O O2 0.369813 0.801027 0.073679
O O3 0.500000 0.000000 0.043596
O O4 0.585671 0.310544 0.000000
O O5 0.771615 0.320102 0.101788
O O6 0.837216 0.652470 0.149857
O O7 0.500000 0.500000 0.456253
O O8 0.419442 0.174808 0.500000
O O9 0.367407 0.313139 0.428804
O O10 0.500000 0.000000 0.440276
O O11 0.879284 0.210340 0.718165
O O12 0.855834 0.100880 0.645457
O O13 0.878251 0.711735 0.698492
O O14 0.000000 0.000000 0.677966
O O15 0.273229 0.507485 0.803063
O O16 0.136380 0.396843 0.772201
O O17 0.500000 0.000000 0.264330
O O18 0.268537 0.693146 0.397175
#
# Coordination Sequence:
#
# PCOD9427863 Si02
#       7
#     8   8   8   8   8   8   8
#     4  10  21  37  57  83 113 145 184 232 285 335
#     4  10  21  37  56  82 113 148 190 229 279 345
#     4  10  22  42  66  88 115 157 198 229 278 347
#     4  10  22  39  57  79 113 153 191 232 279 338
#     4  10  21  36  55  79 110 145 180 228 283 334
#     4  10  21  37  57  81 107 144 193 237 278 330
#     4  12  25  38  59  92 122 150 190 241 292 337
#
# _framework density 19.721626000000001
#
# number of rings (size 3 to 8) (size 9 to 14) (size 15 to 20)
#    0.000    1.714    0.000    3.857    0.000    6.857 
#    0.000    2.143    0.000    0.000    0.000    0.000 
#    0.000    0.000    0.000    0.000    0.000    0.000 
#
# Total GULP energy -312847.693602 kJ/mol
# GULP energy per Si atom -5586.565957 kJ/mol
# Density = 1.967674 g / cm^3
# Si number density = 19.721626 Si / 1000 Ang^3
#
#
#
# Elastic Constant Matrix: (Units=GPa)
#
#
# Indices 1 2 3 4 5 6 
#
# 1 40.0327 0.1606 51.1127 0.0000 0.0000 0.0000
# 2 0.1606 75.6410 -7.9456 0.0000 0.0000 0.0000
# 3 51.1127 -7.9456 103.9613 0.0000 0.0000 0.0000
# 4 0.0000 0.0000 0.0000 28.9659 0.0000 0.0000
# 5 0.0000 0.0000 0.0000 0.0000 37.2495 0.0000
# 6 0.0000 0.0000 0.0000 0.0000 0.0000 35.9363
#
#
#
# Elastic Compliance Matrix: (Units=1/GPa)
#
#
# Indices 1 2 3 4 5 6 
#
# 1 0.068107 -0.003692 -0.033767 0.000000 0.000000 0.000000
# 2 -0.003692 0.013527 0.002849 0.000000 0.000000 0.000000
# 3 -0.033767 0.002849 0.026438 0.000000 0.000000 0.000000
# 4 0.000000 0.000000 0.000000 0.034523 0.000000 0.000000
# 5 0.000000 0.000000 0.000000 0.000000 0.026846 0.000000
# 6 0.000000 0.000000 0.000000 0.000000 0.000000 0.027827
#
#
# Mechanical properties :
#
#
# Convention : Reuss Voigt Hill
#
# Bulk Modulus (GPa) = 25.73782 34.03226 29.88504
# Shear Modulus (GPa) = 17.89290 32.18417 25.03853
#
# Velocity S-wave (km/s) = 3.01536 4.04409 3.56701
# Velocity P-wave (km/s) = 5.02017 6.25300 5.67019
#
# Compressibility (1/GPa) = 0.03885333
#
# Stress axis : x y z
#
# Youngs Moduli (GPa) = 14.68269 73.92384 37.82383
#
# Poissons Ratio (x) = 0.27290 1.27720
# Poissons Ratio (y) = 0.05420 -0.10775
# Poissons Ratio (z) = 0.49579 -0.21060
#
# Static dielectric constant tensor:
#      x y z
#    x 1.663490 0.000000 0.000000 
#    y 0.000000 1.684580 0.000000 
#    z 0.000000 0.000000 1.690010 
# 
# From -- ./inp_files/24176.got.cif
#   From: 2010.05.17/outbox.cif.g08.bks.cpg/sg55_13_cif.got.tgz:24176.got - 2010.06.03 13:27:54.
