data_PCOD9427347
_publ_section_title
;
Structure prediction by ZEFSAII (Michael W. Deem and Ramdas Pophale) SiO2 
 PCOD9427347
Probable space group: P B A M
;
_chemical_formula_sum "Si O2"
_cell_formula_units_Z 64
_cell_length_a 20.710783
_cell_length_b 9.297720
_cell_length_c 16.000241
_cell_angle_alpha 90.000000
_cell_angle_beta 90.000000
_cell_angle_gamma 90.000000
_cell_volume 3081.055389
_symmetry_space_group_name_H-M "P B A M"
_symmetry_group_IT_number 55
_symmetry_cell_setting 'orthorhombic'
loop_
_space_group_symop_operation_xyz
x,y,z
-x,-y,z
1/2+x,1/2-y,-z
1/2-x,1/2+y,-z
-x,-y,-z
x,y,-z
1/2-x,1/2+y,z
1/2+x,1/2-y,z
loop_
_atom_site_type_symbol
_atom_site_label
_atom_site_fract_x
_atom_site_fract_y
_atom_site_fract_z
Si Si1 0.382177 0.144583 0.740064
Si Si2 0.058839 0.103454 0.294716
Si Si3 0.768400 0.526276 0.903546
Si Si4 0.138447 0.331633 0.220670
Si Si5 0.839842 0.225430 0.098720
Si Si6 0.982974 0.329564 0.402555
Si Si7 0.833650 0.017280 0.409134
Si Si8 0.248162 0.726090 0.657540
O O1 0.389613 0.231851 0.827228
O O2 0.423339 0.192854 0.660592
O O3 0.306260 0.152929 0.715839
O O4 0.398301 0.977412 0.754167
O O5 0.090355 0.197646 0.221144
O O6 0.036742 0.222510 0.364090
O O7 0.114348 0.008753 0.337305
O O8 0.000000 0.000000 0.272290
O O9 0.823566 0.621815 0.861411
O O10 0.698621 0.581661 0.872905
O O11 0.788967 0.359976 0.897429
O O12 0.766514 0.563444 0.000000
O O13 0.195104 0.295824 0.287038
O O14 0.861013 0.216962 0.000000
O O15 0.970422 0.295106 0.500000
O O16 0.000000 0.500000 0.399900
O O17 0.864819 0.018823 0.500000
O O18 0.791194 0.156764 0.393254
O O19 0.783191 0.887298 0.400805
#
# Coordination Sequence:
#
# PCOD9427347 Si02
#       8
#     8   8   8   8   8   8   8   8
#     4  11  20  37  62  83 119 153 190 244 294 349
#     4  11  24  42  60  81 111 155 208 252 291 337
#     4   9  17  31  55  86 119 151 182 227 287 360
#     4  10  20  37  57  85 121 150 188 240 290 351
#     4   9  18  32  56  87 120 152 186 228 287 360
#     4  11  24  42  62  83 108 153 209 250 293 346
#     4  11  24  39  58  82 118 153 191 247 294 352
#     4  11  21  36  56  89 115 151 186 224 304 363
#
# _framework density 20.772103000000001
#
# number of rings (size 3 to 8) (size 9 to 14) (size 15 to 20)
#    0.000    1.625    3.750    1.500    0.000    3.000 
#    2.250    0.000    0.000    1.500    0.000    0.000 
#    0.000    0.000    0.000    0.000    0.000    0.000 
#
# Total GULP energy -357182.674157 kJ/mol
# GULP energy per Si atom -5580.979284 kJ/mol
# Density = 2.072482 g / cm^3
# Si number density = 20.772103 Si / 1000 Ang^3
#
#
#
# Elastic Constant Matrix: (Units=GPa)
#
#
# Indices 1 2 3 4 5 6 
#
# 1 49.8454 9.0857 6.0026 0.0000 0.0000 0.0000
# 2 9.0857 61.9460 -11.1782 0.0000 0.0000 0.0000
# 3 6.0026 -11.1782 41.1074 0.0000 0.0000 0.0000
# 4 0.0000 0.0000 0.0000 -234.8248 0.0000 0.0000
# 5 0.0000 0.0000 0.0000 0.0000 23.5406 0.0000
# 6 0.0000 0.0000 0.0000 0.0000 0.0000 37.5525
#
#
#
# Elastic Compliance Matrix: (Units=1/GPa)
#
#
# Indices 1 2 3 4 5 6 
#
# 1 0.021268 -0.003870 -0.004158 0.000000 0.000000 0.000000
# 2 -0.003870 0.017680 0.005373 0.000000 0.000000 0.000000
# 3 -0.004158 0.005373 0.026395 0.000000 0.000000 0.000000
# 4 0.000000 0.000000 0.000000 -0.004258 0.000000 0.000000
# 5 0.000000 0.000000 0.000000 0.000000 0.042480 0.000000
# 6 0.000000 0.000000 0.000000 0.000000 0.000000 0.026629
#
#
# Mechanical properties :
#
#
# Convention : Reuss Voigt Hill
#
# Bulk Modulus (GPa) = 16.65742 17.85766 17.25754
# Shear Modulus (GPa) = 32.15135 -24.81376 3.66880
#
# Velocity S-wave (km/s) = 3.93850 -3.46001 1.33043
# Velocity P-wave (km/s) = 5.35900 2.71046 3.26897
#
# Compressibility (1/GPa) = 0.06003331
#
# Stress axis : x y z
#
# Youngs Moduli (GPa) = 47.01873 56.56052 37.88645
#
# Poissons Ratio (x) = 0.21887 0.15753
# Poissons Ratio (y) = 0.18195 -0.20355
# Poissons Ratio (z) = 0.19550 -0.30389
#
# Static dielectric constant tensor:
#      x y z
#    x 1.748580 0.000000 0.000000 
#    y 0.000000 1.795900 0.000000 
#    z 0.000000 0.000000 1.760320 
# 
# From -- ./inp_files/21951.got.cif
#   From: 2010.05.17/outbox.cif.g08.bks.cpg/sg55_11_cif.got.tgz:21951.got - 2010.06.03 13:27:54.
