data_PCOD9427692
_publ_section_title
;
Structure prediction by ZEFSAII (Michael W. Deem and Ramdas Pophale) SiO2 
 PCOD9427692
Probable space group: P B A M
;
_chemical_formula_sum "Si O2"
_cell_formula_units_Z 40
_cell_length_a 12.478014
_cell_length_b 17.596858
_cell_length_c 9.297551
_cell_angle_alpha 90.000000
_cell_angle_beta 90.000000
_cell_angle_gamma 90.000000
_cell_volume 2041.498980
_symmetry_space_group_name_H-M "P B A M"
_symmetry_group_IT_number 55
_symmetry_cell_setting 'orthorhombic'
loop_
_space_group_symop_operation_xyz
x,y,z
-x,-y,z
1/2+x,1/2-y,-z
1/2-x,1/2+y,-z
-x,-y,-z
x,y,-z
1/2-x,1/2+y,z
1/2+x,1/2-y,z
loop_
_atom_site_type_symbol
_atom_site_label
_atom_site_fract_x
_atom_site_fract_y
_atom_site_fract_z
Si Si1 0.719994 0.047719 0.167209
Si Si2 0.381985 0.698276 0.332468
Si Si3 0.189291 0.628957 0.832277
Si Si4 0.540921 0.585669 0.171316
Si Si5 0.034659 0.370299 0.667050
O O1 0.832521 0.087195 0.204625
O O2 0.622676 0.073771 0.265883
O O3 0.734929 0.956973 0.176404
O O4 0.694566 0.065167 0.000000
O O5 0.369037 0.677923 0.500000
O O6 0.271752 0.683319 0.248816
O O7 0.472365 0.645592 0.260166
O O8 0.417454 0.785499 0.323355
O O9 0.074334 0.627761 0.757045
O O10 0.179878 0.649334 0.000000
O O11 0.500000 0.500000 0.199610
O O12 0.527007 0.599405 0.000000
O O13 0.014064 0.388223 0.500000
#
# Coordination Sequence:
#
# PCOD9427692 Si02
#       5
#     8   8   8   8   8
#     4  10  22  41  66  95 124 159 209 261 307 365
#     4  11  25  42  61  91 130 166 205 254 312 371
#     4  11  23  43  68  92 122 161 210 260 307 366
#     4  10  20  40  65  92 124 160 207 258 306 361
#     4  11  26  43  61  91 131 167 204 254 311 372
#
# _framework density 19.593446
#
# number of rings (size 3 to 8) (size 9 to 14) (size 15 to 20)
#    0.000    1.400    2.000    2.400    2.800    8.400 
#    0.000    0.000    0.000    0.000    0.000    0.000 
#    0.000    0.000    0.000    0.000    0.000    0.000 
#
# Total GULP energy -223740.420605 kJ/mol
# GULP energy per Si atom -5593.510515 kJ/mol
# Density = 1.954885 g / cm^3
# Si number density = 19.593446 Si / 1000 Ang^3
#
#
#
# Elastic Constant Matrix: (Units=GPa)
#
#
# Indices 1 2 3 4 5 6 
#
# 1 94.1980 -3.0562 48.7645 0.0000 0.0000 0.0000
# 2 -3.0562 22.1175 16.5733 0.0000 0.0000 0.0000
# 3 48.7645 16.5733 95.0792 0.0000 0.0000 0.0000
# 4 0.0000 0.0000 0.0000 34.6899 0.0000 0.0000
# 5 0.0000 0.0000 0.0000 0.0000 -47.5464 0.0000
# 6 0.0000 0.0000 0.0000 0.0000 0.0000 -1.2963
#
#
#
# Elastic Compliance Matrix: (Units=1/GPa)
#
#
# Indices 1 2 3 4 5 6 
#
# 1 0.016066 0.009656 -0.009923 0.000000 0.000000 0.000000
# 2 0.009656 0.057809 -0.015029 0.000000 0.000000 0.000000
# 3 -0.009923 -0.015029 0.018227 0.000000 0.000000 0.000000
# 4 0.000000 0.000000 0.000000 0.028827 0.000000 0.000000
# 5 0.000000 0.000000 0.000000 0.000000 -0.021032 0.000000
# 6 0.000000 0.000000 0.000000 0.000000 0.000000 -0.771456
#
#
# Mechanical properties :
#
#
# Convention : Reuss Voigt Hill
#
# Bulk Modulus (GPa) = 16.25777 37.32866 26.79321
# Shear Modulus (GPa) = -8.05849 7.11033 -0.47408
#
# Velocity S-wave (km/s) = -2.03022 1.90704 -0.49243
# Velocity P-wave (km/s) = 1.67924 4.89306 3.65800
#
# Compressibility (1/GPa) = 0.06150906
#
# Stress axis : x y z
#
# Youngs Moduli (GPa) = 62.24214 17.29838 54.86456
#
# Poissons Ratio (x) = -0.16703 0.54443
# Poissons Ratio (y) = -0.60100 0.82456
# Poissons Ratio (z) = 0.61764 0.25998
#
# Static dielectric constant tensor:
#      x y z
#    x 1.660570 0.000000 0.000000 
#    y 0.000000 1.670870 0.000000 
#    z 0.000000 0.000000 1.658330 
# 
# From -- ./inp_files/3589.got.cif
#   From: 2010.05.17/outbox.cif.g08.bks.cpg/sg55_2_cif.got.tgz:3589.got - 2010.06.03 13:27:54.
