data_PCOD9427338
_publ_section_title
;
Structure prediction by ZEFSAII (Michael W. Deem and Ramdas Pophale) SiO2 
 PCOD9427338
Probable space group: P B A M
;
_chemical_formula_sum "Si O2"
_cell_formula_units_Z 52
_cell_length_a 5.384087
_cell_length_b 22.680846
_cell_length_c 22.022980
_cell_angle_alpha 90.000000
_cell_angle_beta 90.000000
_cell_angle_gamma 90.000000
_cell_volume 2689.350476
_symmetry_space_group_name_H-M "P B A M"
_symmetry_group_IT_number 55
_symmetry_cell_setting 'orthorhombic'
loop_
_space_group_symop_operation_xyz
x,y,z
-x,-y,z
1/2+x,1/2-y,-z
1/2-x,1/2+y,-z
-x,-y,-z
x,y,-z
1/2-x,1/2+y,z
1/2+x,1/2-y,z
loop_
_atom_site_type_symbol
_atom_site_label
_atom_site_fract_x
_atom_site_fract_y
_atom_site_fract_z
Si Si1 0.404025 0.603071 0.319296
Si Si2 0.748746 0.460783 0.802182
Si Si3 0.981723 0.210484 0.500000
Si Si4 0.195655 0.235372 0.695034
Si Si5 0.288521 0.843440 0.608274
Si Si6 0.661115 0.940637 0.433962
Si Si7 0.249392 0.540029 0.934500
O O1 0.308563 0.578901 0.255969
O O2 0.284642 0.668034 0.324145
O O3 0.690971 0.617651 0.334580
O O4 0.327407 0.561225 0.374360
O O5 0.500000 0.500000 0.805192
O O6 0.762652 0.429468 0.868386
O O7 0.000000 0.500000 0.794092
O O8 0.750389 0.258058 0.500000
O O9 0.927670 0.171048 0.559429
O O10 0.437010 0.257086 0.729524
O O11 0.155147 0.279596 0.637703
O O12 0.488021 0.882580 0.573300
O O13 0.787478 0.939049 0.500000
O O14 0.500000 0.000000 0.432364
O O15 0.500000 0.500000 0.934429
O O16 0.000000 0.500000 0.934802
O O17 0.251283 0.572371 0.000000
#
# Coordination Sequence:
#
# PCOD9427338 Si02
#       7
#     8   8   4   8   8   8   8
#     4  11  24  37  58  75 112 143 183 232 280 335
#     4  10  22  36  56  85 115 155 194 220 272 337
#     4  12  26  40  65  87 107 129 176 240 306 348
#     4  10  20  37  55  81 100 129 171 227 281 330
#     4  11  24  38  58  81 103 137 180 238 289 346
#     4  11  25  41  56  76 106 145 188 229 285 347
#     4   8  14  28  50  78 113 148 184 226 264 311
#
# _framework density 19.335523999999999
#
# number of rings (size 3 to 8) (size 9 to 14) (size 15 to 20)
#    0.000    1.692    2.308    2.308    7.538    0.000 
#    0.000    1.538    0.000    0.000    0.000    0.000 
#    0.000    4.923    0.000    0.000    0.000    6.769 
#
# Total GULP energy -289646.073487 kJ/mol
# GULP energy per Si atom -5570.116798 kJ/mol
# Density = 1.929152 g / cm^3
# Si number density = 19.335524 Si / 1000 Ang^3
#
#
#
# Elastic Constant Matrix: (Units=GPa)
#
#
# Indices 1 2 3 4 5 6 
#
# 1 90.3983 15.7528 11.3133 0.0000 0.0000 0.0000
# 2 15.7528 62.2309 36.0624 0.0000 0.0000 0.0000
# 3 11.3133 36.0624 148.0962 0.0000 0.0000 0.0000
# 4 0.0000 0.0000 0.0000 2.3271 0.0000 0.0000
# 5 0.0000 0.0000 0.0000 0.0000 16.7568 0.0000
# 6 0.0000 0.0000 0.0000 0.0000 0.0000 28.3269
#
#
#
# Elastic Compliance Matrix: (Units=1/GPa)
#
#
# Indices 1 2 3 4 5 6 
#
# 1 0.011578 -0.002815 -0.000199 0.000000 0.000000 0.000000
# 2 -0.002815 0.019394 -0.004507 0.000000 0.000000 0.000000
# 3 -0.000199 -0.004507 0.007865 0.000000 0.000000 0.000000
# 4 0.000000 0.000000 0.000000 0.429727 0.000000 0.000000
# 5 0.000000 0.000000 0.000000 0.000000 0.059677 0.000000
# 6 0.000000 0.000000 0.000000 0.000000 0.000000 0.035302
#
#
# Mechanical properties :
#
#
# Convention : Reuss Voigt Hill
#
# Bulk Modulus (GPa) = 42.02891 47.44251 44.73571
# Shear Modulus (GPa) = 8.52489 25.32196 16.92342
#
# Velocity S-wave (km/s) = 2.10202 3.62278 2.96167
# Velocity P-wave (km/s) = 5.26072 6.48761 5.90611
#
# Compressibility (1/GPa) = 0.02379315
#
# Stress axis : x y z
#
# Youngs Moduli (GPa) = 86.37323 51.56250 127.14301
#
# Poissons Ratio (x) = 0.14517 0.02528
# Poissons Ratio (y) = 0.24318 0.57309
# Poissons Ratio (z) = 0.01718 0.23242
#
# Static dielectric constant tensor:
#      x y z
#    x 1.836530 0.000000 0.000000 
#    y 0.000000 1.699560 0.000000 
#    z 0.000000 0.000000 1.718060 
# 
# From -- ./inp_files/22352.got.cif
#   From: 2010.05.17/outbox.cif.g08.bks.cpg/sg55_12_cif.got.tgz:22352.got - 2010.06.03 13:27:54.
