data_PCOD9427116
_publ_section_title
;
Structure prediction by ZEFSAII (Michael W. Deem and Ramdas Pophale) SiO2 
 PCOD9427116
Probable space group: P B A M
;
_chemical_formula_sum "Si O2"
_cell_formula_units_Z 52
_cell_length_a 7.414830
_cell_length_b 24.282474
_cell_length_c 13.677531
_cell_angle_alpha 90.000000
_cell_angle_beta 90.000000
_cell_angle_gamma 90.000000
_cell_volume 2462.645156
_symmetry_space_group_name_H-M "P B A M"
_symmetry_group_IT_number 55
_symmetry_cell_setting 'orthorhombic'
loop_
_space_group_symop_operation_xyz
x,y,z
-x,-y,z
1/2+x,1/2-y,-z
1/2-x,1/2+y,-z
-x,-y,-z
x,y,-z
1/2-x,1/2+y,z
1/2+x,1/2-y,z
loop_
_atom_site_type_symbol
_atom_site_label
_atom_site_fract_x
_atom_site_fract_y
_atom_site_fract_z
Si Si1 0.749054 0.157321 0.500000
Si Si2 0.806288 0.294749 0.106542
Si Si3 0.858119 0.613715 0.703623
Si Si4 0.756577 0.837214 0.689103
Si Si5 0.128016 0.048520 0.611200
Si Si6 0.384148 0.726403 0.500000
Si Si7 0.725254 0.169311 0.106611
Si Si8 0.500000 0.000000 0.667659
O O1 0.731846 0.121042 0.402492
O O2 0.603330 0.207488 0.500000
O O3 0.927823 0.194052 0.500000
O O4 0.703685 0.314665 0.202965
O O5 0.816420 0.228916 0.112270
O O6 0.008859 0.318714 0.106687
O O7 0.724363 0.308568 0.000000
O O8 0.915251 0.551171 0.724965
O O9 0.044759 0.647472 0.691622
O O10 0.744034 0.636250 0.794068
O O11 0.861074 0.894041 0.667630
O O12 0.793225 0.794646 0.601130
O O13 0.071063 0.060038 0.500000
O O14 0.332574 0.025617 0.609577
O O15 0.000000 0.000000 0.650815
O O16 0.768905 0.144261 0.000000
#
# Coordination Sequence:
#
# PCOD9427116 Si02
#       8
#     4   8   8   8   8   4   8   4
#     4  12  26  35  55  78 115 148 184 222 284 341
#     4   9  18  33  56  81 107 142 181 224 277 331
#     4  10  22  37  55  82 109 150 183 234 281 333
#     4  10  20  36  56  78 113 144 182 231 277 333
#     4  10  21  35  56  81 111 148 193 237 280 336
#     4  12  24  38  52  82 113 151 180 228 278 346
#     4   9  18  35  56  81 110 142 185 227 275 337
#     4  10  23  36  57  80 114 148 195 239 286 334
#
# _framework density 21.115506
#
# number of rings (size 3 to 8) (size 9 to 14) (size 15 to 20)
#    0.000    2.000    0.769    2.538    6.462    3.692 
#    0.000    0.385    0.000    1.385    0.000    0.000 
#    0.000    0.000    0.000    0.000    0.000    0.000 
#
# Total GULP energy -290437.146004 kJ/mol
# GULP energy per Si atom -5585.329731 kJ/mol
# Density = 2.106745 g / cm^3
# Si number density = 21.115506 Si / 1000 Ang^3
#
#
#
# Elastic Constant Matrix: (Units=GPa)
#
#
# Indices 1 2 3 4 5 6 
#
# 1 57.7095 -2.2635 19.7847 0.0000 0.0000 0.0000
# 2 -2.2635 66.8514 48.9519 0.0000 0.0000 0.0000
# 3 19.7847 48.9519 175.8759 0.0000 0.0000 0.0000
# 4 0.0000 0.0000 0.0000 -0.2079 0.0000 0.0000
# 5 0.0000 0.0000 0.0000 0.0000 4.8643 0.0000
# 6 0.0000 0.0000 0.0000 0.0000 0.0000 25.9399
#
#
#
# Elastic Compliance Matrix: (Units=1/GPa)
#
#
# Indices 1 2 3 4 5 6 
#
# 1 0.018399 0.002686 -0.002817 0.000000 0.000000 0.000000
# 2 0.002686 0.019180 -0.005640 0.000000 0.000000 0.000000
# 3 -0.002817 -0.005640 0.007573 0.000000 0.000000 0.000000
# 4 0.000000 0.000000 0.000000 -4.810767 0.000000 0.000000
# 5 0.000000 0.000000 0.000000 0.000000 0.205579 0.000000
# 6 0.000000 0.000000 0.000000 0.000000 0.000000 0.038551
#
#
# Mechanical properties :
#
#
# Convention : Reuss Voigt Hill
#
# Bulk Modulus (GPa) = 29.75474 48.15369 38.95421
# Shear Modulus (GPa) = -1.11142 21.71685 10.30271
#
# Velocity S-wave (km/s) = -0.72629 3.21047 2.21129
# Velocity P-wave (km/s) = 3.66315 6.04956 5.00079
#
# Compressibility (1/GPa) = 0.03360810
#
# Stress axis : x y z
#
# Youngs Moduli (GPa) = 54.34954 52.13832 132.05338
#
# Poissons Ratio (x) = -0.14004 0.37205
# Poissons Ratio (y) = -0.14598 0.74485
# Poissons Ratio (z) = 0.15312 0.29409
#
# Static dielectric constant tensor:
#      x y z
#    x 1.839980 0.000000 0.000000 
#    y 0.000000 1.752140 0.000000 
#    z 0.000000 0.000000 1.764300 
# 
# From -- ./inp_files/17600.got.cif
#   From: 2010.05.17/outbox.cif.g08.bks.cpg/sg55_9_cif.got.tgz:17600.got - 2010.06.03 13:27:54.
