data_PCOD9427010
_publ_section_title
;
Structure prediction by ZEFSAII (Michael W. Deem and Ramdas Pophale) SiO2 
 PCOD9427010
Probable space group: P B A M
;
_chemical_formula_sum "Si O2"
_cell_formula_units_Z 64
_cell_length_a 24.928430
_cell_length_b 14.305151
_cell_length_c 8.379149
_cell_angle_alpha 90.000000
_cell_angle_beta 90.000000
_cell_angle_gamma 90.000000
_cell_volume 2988.046055
_symmetry_space_group_name_H-M "P B A M"
_symmetry_group_IT_number 55
_symmetry_cell_setting 'orthorhombic'
loop_
_space_group_symop_operation_xyz
x,y,z
-x,-y,z
1/2+x,1/2-y,-z
1/2-x,1/2+y,-z
-x,-y,-z
x,y,-z
1/2-x,1/2+y,z
1/2+x,1/2-y,z
loop_
_atom_site_type_symbol
_atom_site_label
_atom_site_fract_x
_atom_site_fract_y
_atom_site_fract_z
Si Si1 0.396602 0.558274 0.817446
Si Si2 0.658781 0.722903 0.186743
Si Si3 0.881802 0.607761 0.811767
Si Si4 0.443242 0.376924 0.313420
Si Si5 0.784703 0.941778 0.313636
Si Si6 0.721076 0.231929 0.807542
Si Si7 0.834132 0.430311 0.311241
Si Si8 0.452827 0.732819 0.313176
O O1 0.436662 0.474533 0.776910
O O2 0.336286 0.523549 0.782110
O O3 0.410675 0.648391 0.712477
O O4 0.400779 0.587469 0.000000
O O5 0.612836 0.676014 0.290393
O O6 0.719623 0.692794 0.228075
O O7 0.657011 0.834471 0.216933
O O8 0.649055 0.702467 0.000000
O O9 0.828558 0.666570 0.765412
O O10 0.877887 0.509103 0.723439
O O11 0.931399 0.674798 0.771807
O O12 0.879450 0.590355 0.000000
O O13 0.453095 0.396727 0.500000
O O14 0.491184 0.310877 0.253589
O O15 0.792296 0.963036 0.500000
O O16 0.784041 0.829978 0.283179
O O17 0.724735 0.970412 0.263022
O O18 0.719181 0.249782 0.000000
O O19 0.831399 0.409160 0.500000
O O20 0.458065 0.753298 0.500000
#
# Coordination Sequence:
#
# PCOD9427010 Si02
#       8
#     8   8   8   8   8   8   8   8
#     4  12  24  38  60  90 124 161 202 249 299 360
#     4  10  21  40  63  90 123 159 202 252 305 361
#     4  11  22  37  61  92 124 160 203 250 302 362
#     4  11  25  43  63  88 120 160 205 253 305 361
#     4  10  20  35  57  87 122 160 199 241 294 357
#     4   9  19  35  56  86 121 158 195 241 300 356
#     4  10  22  39  60  89 125 164 203 249 303 361
#     4  11  24  43  64  88 122 160 203 254 304 359
#
# _framework density 21.418678
#
# number of rings (size 3 to 8) (size 9 to 14) (size 15 to 20)
#    0.000    1.500    1.250    3.750    1.750    6.000 
#    0.000    0.625    0.000    3.750    0.000    0.000 
#    0.000    0.000    0.000    0.000    0.000    0.000 
#
# Total GULP energy -357900.854592 kJ/mol
# GULP energy per Si atom -5592.200853 kJ/mol
# Density = 2.136993 g / cm^3
# Si number density = 21.418678 Si / 1000 Ang^3
#
#
#
# Elastic Constant Matrix: (Units=GPa)
#
#
# Indices 1 2 3 4 5 6 
#
# 1 52.1411 -5.1985 -2.5914 0.0000 0.0000 0.0000
# 2 -5.1985 27.8482 -7.8221 0.0000 0.0000 0.0000
# 3 -2.5914 -7.8221 18.6061 0.0000 0.0000 0.0000
# 4 0.0000 0.0000 0.0000 26.1826 0.0000 0.0000
# 5 0.0000 0.0000 0.0000 0.0000 23.4272 0.0000
# 6 0.0000 0.0000 0.0000 0.0000 0.0000 29.5292
#
#
#
# Elastic Compliance Matrix: (Units=1/GPa)
#
#
# Indices 1 2 3 4 5 6 
#
# 1 0.019932 0.005103 0.004921 0.000000 0.000000 0.000000
# 2 0.005103 0.042023 0.018378 0.000000 0.000000 0.000000
# 3 0.004921 0.018378 0.062157 0.000000 0.000000 0.000000
# 4 0.000000 0.000000 0.000000 0.038193 0.000000 0.000000
# 5 0.000000 0.000000 0.000000 0.000000 0.042686 0.000000
# 6 0.000000 0.000000 0.000000 0.000000 0.000000 0.033865
#
#
# Mechanical properties :
#
#
# Convention : Reuss Voigt Hill
#
# Bulk Modulus (GPa) = 5.52739 7.48572 6.50656
# Shear Modulus (GPa) = 20.63065 23.44161 22.03613
#
# Velocity S-wave (km/s) = 3.10693 3.31183 3.21101
# Velocity P-wave (km/s) = 3.93153 4.25756 4.09779
#
# Compressibility (1/GPa) = 0.18091712
#
# Stress axis : x y z
#
# Youngs Moduli (GPa) = 50.17029 23.79625 16.08822
#
# Poissons Ratio (x) = -0.12144 -0.07918
# Poissons Ratio (y) = -0.25602 -0.29566
# Poissons Ratio (z) = -0.24691 -0.43732
#
# Static dielectric constant tensor:
#      x y z
#    x 1.808440 0.000000 0.000000 
#    y 0.000000 1.758680 0.000000 
#    z 0.000000 0.000000 1.720730 
# 
# From -- ./inp_files/9779.got.cif
#   From: 2010.05.17/outbox.cif.g08.bks.cpg/sg55_5_cif.got.tgz:9779.got - 2010.06.03 13:27:54.
