data_PCOD9427164
_publ_section_title
;
Structure prediction by ZEFSAII (Michael W. Deem and Ramdas Pophale) SiO2 
 PCOD9427164
Probable space group: P B A M
;
_chemical_formula_sum "Si O2"
_cell_formula_units_Z 40
_cell_length_a 13.786224
_cell_length_b 18.517688
_cell_length_c 8.706356
_cell_angle_alpha 90.000000
_cell_angle_beta 90.000000
_cell_angle_gamma 90.000000
_cell_volume 2222.636871
_symmetry_space_group_name_H-M "P B A M"
_symmetry_group_IT_number 55
_symmetry_cell_setting 'orthorhombic'
loop_
_space_group_symop_operation_xyz
x,y,z
-x,-y,z
1/2+x,1/2-y,-z
1/2-x,1/2+y,-z
-x,-y,-z
x,y,-z
1/2-x,1/2+y,z
1/2+x,1/2-y,z
loop_
_atom_site_type_symbol
_atom_site_label
_atom_site_fract_x
_atom_site_fract_y
_atom_site_fract_z
Si Si1 0.121474 0.623863 0.817055
Si Si2 0.583650 0.166956 0.685001
Si Si3 0.319016 0.681288 0.684408
Si Si4 0.199813 0.477189 0.315710
Si Si5 0.397018 0.534787 0.815681
O O1 0.212391 0.669800 0.754594
O O2 0.136088 0.543777 0.747122
O O3 0.020163 0.656556 0.762790
O O4 0.126460 0.619449 0.000000
O O5 0.570636 0.166110 0.500000
O O6 0.634084 0.242319 0.726914
O O7 0.651377 0.098821 0.725409
O O8 0.312145 0.676932 0.500000
O O9 0.382462 0.614283 0.745333
O O10 0.205090 0.482819 0.500000
O O11 0.306760 0.488135 0.246598
O O12 0.500000 0.500000 0.774293
O O13 0.390221 0.539407 0.000000
#
# Coordination Sequence:
#
# PCOD9427164 Si02
#       5
#     8   8   8   8   8
#     4  11  22  36  56  81 111 144 177 219 272 325
#     4  10  22  38  57  82 109 141 182 225 269 318
#     4  10  21  38  58  80 109 143 182 226 268 317
#     4  10  20  36  58  81 107 141 183 226 266 317
#     4  10  21  37  56  80 112 146 181 223 271 323
#
# _framework density 17.996642000000001
#
# number of rings (size 3 to 8) (size 9 to 14) (size 15 to 20)
#    0.000    1.800    0.000    6.600    0.000    8.800 
#    0.000    6.000    0.000    0.000    0.000    0.000 
#    0.000    0.000    0.000    0.000    0.000    0.000 
#
# Total GULP energy -223498.541929 kJ/mol
# GULP energy per Si atom -5587.463548 kJ/mol
# Density = 1.795568 g / cm^3
# Si number density = 17.996642 Si / 1000 Ang^3
#
#
#
# Elastic Constant Matrix: (Units=GPa)
#
#
# Indices 1 2 3 4 5 6 
#
# 1 137.1157 127.8852 57.8495 0.0000 0.0000 0.0000
# 2 127.8852 161.0589 64.2326 0.0000 0.0000 0.0000
# 3 57.8495 64.2326 69.0817 0.0000 0.0000 0.0000
# 4 0.0000 0.0000 0.0000 -15.8311 0.0000 0.0000
# 5 0.0000 0.0000 0.0000 0.0000 39.3149 0.0000
# 6 0.0000 0.0000 0.0000 0.0000 0.0000 19.1536
#
#
#
# Elastic Compliance Matrix: (Units=1/GPa)
#
#
# Indices 1 2 3 4 5 6 
#
# 1 0.028992 -0.021199 -0.004567 0.000000 0.000000 0.000000
# 2 -0.021199 0.025369 -0.005836 0.000000 0.000000 0.000000
# 3 -0.004567 -0.005836 0.023727 0.000000 0.000000 0.000000
# 4 0.000000 0.000000 0.000000 -0.063167 0.000000 0.000000
# 5 0.000000 0.000000 0.000000 0.000000 0.025436 0.000000
# 6 0.000000 0.000000 0.000000 0.000000 0.000000 0.052210
#
#
# Mechanical properties :
#
#
# Convention : Reuss Voigt Hill
#
# Bulk Modulus (GPa) = 67.19000 96.35456 81.77228
# Shear Modulus (GPa) = 31.10799 16.34674 23.72736
#
# Velocity S-wave (km/s) = 4.16209 3.01711 3.63496
# Velocity P-wave (km/s) = 7.77902 8.11134 7.94691
#
# Compressibility (1/GPa) = 0.01488317
#
# Stress axis : x y z
#
# Youngs Moduli (GPa) = 34.49270 39.41849 42.14679
#
# Poissons Ratio (x) = 0.83562 0.19249
# Poissons Ratio (y) = 0.73120 0.24597
# Poissons Ratio (z) = 0.15753 0.23005
#
# Static dielectric constant tensor:
#      x y z
#    x 1.590210 0.000000 0.000000 
#    y 0.000000 1.596720 0.000000 
#    z 0.000000 0.000000 1.603880 
# 
# From -- ./inp_files/5363.got.cif
#   From: 2010.05.17/outbox.cif.g08.bks.cpg/sg55_3_cif.got.tgz:5363.got - 2010.06.03 13:27:54.
