data_PCOD9427764
_publ_section_title
;
Structure prediction by ZEFSAII (Michael W. Deem and Ramdas Pophale) SiO2 
 PCOD9427764
Probable space group: P B A M
;
_chemical_formula_sum "Si O2"
_cell_formula_units_Z 48
_cell_length_a 9.530989
_cell_length_b 32.059091
_cell_length_c 7.408695
_cell_angle_alpha 90.000000
_cell_angle_beta 90.000000
_cell_angle_gamma 90.000000
_cell_volume 2263.762643
_symmetry_space_group_name_H-M "P B A M"
_symmetry_group_IT_number 55
_symmetry_cell_setting 'orthorhombic'
loop_
_space_group_symop_operation_xyz
x,y,z
-x,-y,z
1/2+x,1/2-y,-z
1/2-x,1/2+y,-z
-x,-y,-z
x,y,-z
1/2-x,1/2+y,z
1/2+x,1/2-y,z
loop_
_atom_site_type_symbol
_atom_site_label
_atom_site_fract_x
_atom_site_fract_y
_atom_site_fract_z
Si Si1 0.928664 0.040697 0.793850
Si Si2 0.598016 0.632597 0.779172
Si Si3 0.393191 0.965560 0.289582
Si Si4 0.597401 0.792750 0.779376
Si Si5 0.919310 0.787630 0.779611
Si Si6 0.579533 0.128378 0.217786
O O1 0.951627 0.086895 0.715703
O O2 0.760759 0.034743 0.796541
O O3 0.981915 0.042906 0.000000
O O4 0.000000 0.000000 0.709625
O O5 0.501659 0.670842 0.722473
O O6 0.760441 0.638043 0.724496
O O7 0.597859 0.631721 0.000000
O O8 0.369771 0.974963 0.500000
O O9 0.453416 0.918837 0.273693
O O10 0.500000 0.000000 0.216438
O O11 0.757972 0.787941 0.721557
O O12 0.502788 0.753609 0.722907
O O13 0.526621 0.836008 0.720628
O O14 0.597629 0.792836 0.000000
O O15 0.919283 0.787545 0.000000
O O16 0.579358 0.128824 0.000000
#
# Coordination Sequence:
#
# PCOD9427764 Si02
#       6
#     8   8   8   8   8   8
#     4   9  18  32  51  75 101 129 162 203 248 289
#     4   8  14  25  40  60  90 123 152 186 229 277
#     4  10  21  35  50  70  97 130 165 200 242 292
#     4   9  16  24  38  63  93 123 152 187 233 281
#     4   9  15  23  37  62  96 126 151 185 232 283
#     4   9  17  30  47  67  91 121 158 198 240 282
#
# _framework density 21.203635999999999
#
# number of rings (size 3 to 8) (size 9 to 14) (size 15 to 20)
#    0.000    3.000    0.000    2.500    0.000    7.000 
#    0.000    3.333    0.000    0.000    0.000   10.500 
#    0.000    0.000    0.000    0.000    0.000    0.000 
#
# Total GULP energy -267931.412549 kJ/mol
# GULP energy per Si atom -5581.904428 kJ/mol
# Density = 2.115538 g / cm^3
# Si number density = 21.203636 Si / 1000 Ang^3
#
#
#
# Elastic Constant Matrix: (Units=GPa)
#
#
# Indices 1 2 3 4 5 6 
#
# 1 129.8240 123.6710 -4.1111 0.0000 0.0000 0.0000
# 2 123.6710 209.9818 -6.0647 0.0000 0.0000 0.0000
# 3 -4.1111 -6.0647 69.7049 0.0000 0.0000 0.0000
# 4 0.0000 0.0000 0.0000 333.3350 0.0000 0.0000
# 5 0.0000 0.0000 0.0000 0.0000 9.3293 0.0000
# 6 0.0000 0.0000 0.0000 0.0000 0.0000 48.2591
#
#
#
# Elastic Compliance Matrix: (Units=1/GPa)
#
#
# Indices 1 2 3 4 5 6 
#
# 1 0.017549 -0.010332 0.000136 0.000000 0.000000 0.000000
# 2 -0.010332 0.010857 0.000335 0.000000 0.000000 0.000000
# 3 0.000136 0.000335 0.014383 0.000000 0.000000 0.000000
# 4 0.000000 0.000000 0.000000 0.003000 0.000000 0.000000
# 5 0.000000 0.000000 0.000000 0.000000 0.107190 0.000000
# 6 0.000000 0.000000 0.000000 0.000000 0.000000 0.020721
#
#
# Mechanical properties :
#
#
# Convention : Reuss Voigt Hill
#
# Bulk Modulus (GPa) = 43.34882 70.72234 57.03558
# Shear Modulus (GPa) = 24.86182 97.91904 61.39043
#
# Velocity S-wave (km/s) = 3.42793 6.80298 5.38662
# Velocity P-wave (km/s) = 6.01299 9.75365 8.10215
#
# Compressibility (1/GPa) = 0.02306868
#
# Stress axis : x y z
#
# Youngs Moduli (GPa) = 56.98244 92.10580 69.52464
#
# Poissons Ratio (x) = 0.95163 -0.00946
# Poissons Ratio (y) = 0.58874 -0.02331
# Poissons Ratio (z) = -0.00776 -0.03088
#
# Static dielectric constant tensor:
#      x y z
#    x 1.709070 0.000000 0.000000 
#    y 0.000000 1.747420 0.000000 
#    z 0.000000 0.000000 1.802050 
# 
# From -- ./inp_files/2873.got.cif
#   From: 2010.05.17/outbox.cif.g08.bks.cpg/sg55_2_cif.got.tgz:2873.got - 2010.06.03 13:27:54.
