data_PCOD9427740
_publ_section_title
;
Structure prediction by ZEFSAII (Michael W. Deem and Ramdas Pophale) SiO2 
 PCOD9427740
Probable space group: P B A M
;
_chemical_formula_sum "Si O2"
_cell_formula_units_Z 58
_cell_length_a 22.325157
_cell_length_b 15.275769
_cell_length_c 7.580970
_cell_angle_alpha 90.000000
_cell_angle_beta 90.000000
_cell_angle_gamma 90.000000
_cell_volume 2585.368077
_symmetry_space_group_name_H-M "P B A M"
_symmetry_group_IT_number 55
_symmetry_cell_setting 'orthorhombic'
loop_
_space_group_symop_operation_xyz
x,y,z
-x,-y,z
1/2+x,1/2-y,-z
1/2-x,1/2+y,-z
-x,-y,-z
x,y,-z
1/2-x,1/2+y,z
1/2+x,1/2-y,z
loop_
_atom_site_type_symbol
_atom_site_label
_atom_site_fract_x
_atom_site_fract_y
_atom_site_fract_z
Si Si1 0.850261 0.157282 0.214742
Si Si2 0.356055 0.537345 0.204710
Si Si3 0.212779 0.349694 0.787003
Si Si4 0.609197 0.278691 0.214450
Si Si5 0.781872 0.451782 0.294524
Si Si6 0.500000 0.000000 0.500000
Si Si7 0.104875 0.657436 0.704205
Si Si8 0.474075 0.877285 0.196401
O O1 0.780771 0.170054 0.265815
O O2 0.886578 0.238639 0.287481
O O3 0.867117 0.059744 0.278216
O O4 0.853647 0.159324 0.000000
O O5 0.388270 0.622388 0.282585
O O6 0.284122 0.554447 0.210472
O O7 0.373607 0.531278 0.000000
O O8 0.166876 0.276471 0.725051
O O9 0.197947 0.447616 0.725830
O O10 0.211284 0.351378 0.000000
O O11 0.553154 0.216521 0.251123
O O12 0.612963 0.284836 0.000000
O O13 0.773602 0.431135 0.500000
O O14 0.834399 0.388264 0.228738
O O15 0.461840 0.948229 0.344414
O O16 0.093429 0.628556 0.500000
O O17 0.045542 0.632463 0.806371
O O18 0.451222 0.899323 0.000000
#
# Coordination Sequence:
#
# PCOD9427740 Si02
#       8
#     8   8   8   8   8   2   8   8
#     4   9  18  33  58  86 112 151 195 242 305 361
#     4   9  18  37  60  84 115 149 194 252 302 357
#     4   9  18  33  55  84 115 148 192 242 297 362
#     4   9  19  37  61  86 113 151 200 249 300 358
#     4  10  21  33  51  82 117 154 195 239 302 364
#     4  12  26  48  64  90 130 160 202 260 288 352
#     4  11  23  39  56  81 122 160 200 255 298 348
#     4  11  25  43  67  92 121 163 205 245 302 359
#
# _framework density 22.433941000000001
#
# number of rings (size 3 to 8) (size 9 to 14) (size 15 to 20)
#    0.000    2.207    0.690    2.690    1.931    5.517 
#    1.241    0.690    0.000    4.138    0.000    0.000 
#    0.000    0.000    0.000    0.000    0.000    0.000 
#
# Total GULP energy -323583.147380 kJ/mol
# GULP energy per Si atom -5579.019782 kJ/mol
# Density = 2.238288 g / cm^3
# Si number density = 22.433941 Si / 1000 Ang^3
#
#
#
# Elastic Constant Matrix: (Units=GPa)
#
#
# Indices 1 2 3 4 5 6 
#
# 1 22.8799 29.7491 10.7261 0.0000 0.0000 0.0000
# 2 29.7491 113.1425 16.0892 0.0000 0.0000 0.0000
# 3 10.7261 16.0892 77.5952 0.0000 0.0000 0.0000
# 4 0.0000 0.0000 0.0000 25.9031 0.0000 0.0000
# 5 0.0000 0.0000 0.0000 0.0000 -8.5249 0.0000
# 6 0.0000 0.0000 0.0000 0.0000 0.0000 4.2607
#
#
#
# Elastic Compliance Matrix: (Units=1/GPa)
#
#
# Indices 1 2 3 4 5 6 
#
# 1 0.068977 -0.017290 -0.005950 0.000000 0.000000 0.000000
# 2 -0.017290 0.013441 -0.000397 0.000000 0.000000 0.000000
# 3 -0.005950 -0.000397 0.013792 0.000000 0.000000 0.000000
# 4 0.000000 0.000000 0.000000 0.038605 0.000000 0.000000
# 5 0.000000 0.000000 0.000000 0.000000 -0.117304 0.000000
# 6 0.000000 0.000000 0.000000 0.000000 0.000000 0.234703
#
#
# Mechanical properties :
#
#
# Convention : Reuss Voigt Hill
#
# Bulk Modulus (GPa) = 20.43470 36.30515 28.36993
# Shear Modulus (GPa) = 15.83275 14.79800 15.31537
#
# Velocity S-wave (km/s) = 2.65948 2.57110 2.61566
# Velocity P-wave (km/s) = 4.30802 5.00324 4.66859
#
# Compressibility (1/GPa) = 0.04893636
#
# Stress axis : x y z
#
# Youngs Moduli (GPa) = 14.49757 74.39864 72.50517
#
# Poissons Ratio (x) = 1.28638 0.43138
# Poissons Ratio (y) = 0.25067 0.02878
# Poissons Ratio (z) = 0.08626 0.02953
#
# Static dielectric constant tensor:
#      x y z
#    x 1.839620 0.000000 0.000000 
#    y 0.000000 1.904730 0.000000 
#    z 0.000000 0.000000 1.841870 
# 
# From -- ./inp_files/9587.got.cif
#   From: 2010.05.17/outbox.cif.g08.bks.cpg/sg55_5_cif.got.tgz:9587.got - 2010.06.03 13:27:54.
