data_PCOD9427325
_publ_section_title
;
Structure prediction by ZEFSAII (Michael W. Deem and Ramdas Pophale) SiO2 
 PCOD9427325
Probable space group: P B A M
;
_chemical_formula_sum "Si O2"
_cell_formula_units_Z 64
_cell_length_a 33.745358
_cell_length_b 10.723837
_cell_length_c 8.185192
_cell_angle_alpha 90.000000
_cell_angle_beta 90.000000
_cell_angle_gamma 90.000000
_cell_volume 2962.054978
_symmetry_space_group_name_H-M "P B A M"
_symmetry_group_IT_number 55
_symmetry_cell_setting 'orthorhombic'
loop_
_space_group_symop_operation_xyz
x,y,z
-x,-y,z
1/2+x,1/2-y,-z
1/2-x,1/2+y,-z
-x,-y,-z
x,y,-z
1/2-x,1/2+y,z
1/2+x,1/2-y,z
loop_
_atom_site_type_symbol
_atom_site_label
_atom_site_fract_x
_atom_site_fract_y
_atom_site_fract_z
Si Si1 0.032773 0.901248 0.804305
Si Si2 0.412872 0.833361 0.191250
Si Si3 0.002187 0.357337 0.311835
Si Si4 0.787485 0.530457 0.683925
Si Si5 0.133346 0.579403 0.698299
Si Si6 0.168742 0.239792 0.188303
Si Si7 0.118307 0.853229 0.802838
Si Si8 0.699450 0.537913 0.812389
O O1 0.077917 0.918608 0.742905
O O2 0.020675 0.757522 0.770299
O O3 0.033803 0.917470 0.000000
O O4 0.000000 0.000000 0.740386
O O5 0.451777 0.820862 0.297425
O O6 0.378033 0.734007 0.222689
O O7 0.391959 0.965104 0.230838
O O8 0.424032 0.826709 0.000000
O O9 0.988771 0.364529 0.500000
O O10 0.000000 0.500000 0.243722
O O11 0.781537 0.487948 0.500000
O O12 0.820727 0.437145 0.756593
O O13 0.810255 0.661777 0.695906
O O14 0.744044 0.551751 0.752615
O O15 0.132546 0.572944 0.500000
O O16 0.115867 0.707988 0.760352
O O17 0.189239 0.107802 0.196291
O O18 0.172193 0.286791 0.000000
O O19 0.160897 0.897321 0.734068
O O20 0.119172 0.870718 0.000000
O O21 0.700316 0.579658 0.000000
#
# Coordination Sequence:
#
# PCOD9427325 Si02
#       8
#     8   8   8   8   8   8   8   8
#     4  10  23  42  66  92 123 161 205 257 310 367
#     4  10  20  36  63  91 117 151 197 245 296 350
#     4  11  24  40  61  91 127 162 201 251 306 366
#     4  10  22  38  57  84 118 154 193 238 291 345
#     4  10  21  38  59  86 124 161 195 241 294 351
#     4   9  20  38  60  85 114 149 192 242 291 343
#     4  10  22  39  61  88 117 153 198 243 294 353
#     4  10  22  38  59  85 115 150 194 241 288 346
#
# _framework density 21.606621000000001
#
# number of rings (size 3 to 8) (size 9 to 14) (size 15 to 20)
#    0.000    2.000    0.000    2.250    3.500    6.750 
#    0.000    0.000    0.000    0.000    0.000    0.000 
#    0.000    0.000    0.000    0.000    0.000    0.000 
#
# Total GULP energy -357079.194635 kJ/mol
# GULP energy per Si atom -5579.362416 kJ/mol
# Density = 2.155744 g / cm^3
# Si number density = 21.606621 Si / 1000 Ang^3
#
#
#
# Elastic Constant Matrix: (Units=GPa)
#
#
# Indices 1 2 3 4 5 6 
#
# 1 132.0835 21.1068 5.7801 0.0000 0.0000 0.0000
# 2 21.1068 26.4796 -4.5243 0.0000 0.0000 0.0000
# 3 5.7801 -4.5243 7.3041 0.0000 0.0000 0.0000
# 4 0.0000 0.0000 0.0000 -10.2806 0.0000 0.0000
# 5 0.0000 0.0000 0.0000 0.0000 -8.2685 0.0000
# 6 0.0000 0.0000 0.0000 0.0000 0.0000 15.4940
#
#
#
# Elastic Compliance Matrix: (Units=1/GPa)
#
#
# Indices 1 2 3 4 5 6 
#
# 1 0.009826 -0.010245 -0.014122 0.000000 0.000000 0.000000
# 2 -0.010245 0.052917 0.040885 0.000000 0.000000 0.000000
# 3 -0.014122 0.040885 0.173410 0.000000 0.000000 0.000000
# 4 0.000000 0.000000 0.000000 -0.097270 0.000000 0.000000
# 5 0.000000 0.000000 0.000000 0.000000 -0.120941 0.000000
# 6 0.000000 0.000000 0.000000 0.000000 0.000000 0.064541
#
#
# Mechanical properties :
#
#
# Convention : Reuss Voigt Hill
#
# Bulk Modulus (GPa) = 3.71486 23.39915 13.55701
# Shear Modulus (GPa) = 35.92558 8.95594 22.44076
#
# Velocity S-wave (km/s) = 4.08206 2.03814 3.22624
# Velocity P-wave (km/s) = 4.89292 4.04868 4.49068
#
# Compressibility (1/GPa) = 0.26918905
#
# Stress axis : x y z
#
# Youngs Moduli (GPa) = 101.76945 18.89751 5.76669
#
# Poissons Ratio (x) = 0.19361 0.08144
# Poissons Ratio (y) = 1.04265 -0.23577
# Poissons Ratio (z) = 1.43719 -0.77263
#
# Static dielectric constant tensor:
#      x y z
#    x 1.878270 0.000000 0.000000 
#    y 0.000000 1.774100 0.000000 
#    z 0.000000 0.000000 1.790530 
# 
# From -- ./inp_files/10805.got.cif
#   From: 2010.05.17/outbox.cif.g08.bks.cpg/sg55_6_cif.got.tgz:10805.got - 2010.06.03 13:27:54.
