data_PCOD9427460
_publ_section_title
;
Structure prediction by ZEFSAII (Michael W. Deem and Ramdas Pophale) SiO2 
 PCOD9427460
Probable space group: P B A M
;
_chemical_formula_sum "Si O2"
_cell_formula_units_Z 52
_cell_length_a 17.155658
_cell_length_b 9.578562
_cell_length_c 16.540237
_cell_angle_alpha 90.000000
_cell_angle_beta 90.000000
_cell_angle_gamma 90.000000
_cell_volume 2717.999815
_symmetry_space_group_name_H-M "P B A M"
_symmetry_group_IT_number 55
_symmetry_cell_setting 'orthorhombic'
loop_
_space_group_symop_operation_xyz
x,y,z
-x,-y,z
1/2+x,1/2-y,-z
1/2-x,1/2+y,-z
-x,-y,-z
x,y,-z
1/2-x,1/2+y,z
1/2+x,1/2-y,z
loop_
_atom_site_type_symbol
_atom_site_label
_atom_site_fract_x
_atom_site_fract_y
_atom_site_fract_z
Si Si1 0.212324 0.329820 0.092982
Si Si2 0.500000 0.500000 0.821193
Si Si3 0.831746 0.956700 0.150634
Si Si4 0.383635 0.945676 0.235934
Si Si5 0.232027 0.042101 0.325884
Si Si6 0.837205 0.222970 0.595274
Si Si7 0.033552 0.718821 0.275720
O O1 0.213051 0.163963 0.103313
O O2 0.290263 0.398829 0.128935
O O3 0.142398 0.382881 0.150496
O O4 0.202741 0.368334 0.000000
O O5 0.422654 0.541747 0.869279
O O6 0.525483 0.632933 0.767674
O O7 0.819331 0.925016 0.246198
O O8 0.306702 0.960020 0.289836
O O9 0.448401 0.851305 0.279907
O O10 0.417543 0.102020 0.226352
O O11 0.185583 0.935748 0.382545
O O12 0.269091 0.175720 0.369874
O O13 0.844672 0.242291 0.500000
O O14 0.916862 0.261411 0.642587
#
# Coordination Sequence:
#
# PCOD9427460 Si02
#       7
#     8   4   8   8   8   8   8
#     4  11  23  41  64  94 125 158 203 259 309 362
#     4  12  22  38  68  92 118 158 218 256 292 362
#     4  11  23  40  67  91 122 167 212 248 307 374
#     4   9  20  39  65  83 115 162 211 246 299 374
#     4  10  20  37  62  86 115 163 210 245 291 376
#     4  11  22  37  58  90 125 157 199 261 312 354
#     4  10  21  39  60  88 118 159 208 248 300 376
#
# _framework density 19.131716000000001
#
# number of rings (size 3 to 8) (size 9 to 14) (size 15 to 20)
#    0.000    1.538    3.077    2.769    4.308    0.000 
#    0.000   10.385    0.000    0.000    0.000    0.000 
#    0.000    0.000    0.000    0.000    0.000    0.000 
#
# Total GULP energy -290272.381137 kJ/mol
# GULP energy per Si atom -5582.161176 kJ/mol
# Density = 1.908817 g / cm^3
# Si number density = 19.131716 Si / 1000 Ang^3
#
#
#
# Elastic Constant Matrix: (Units=GPa)
#
#
# Indices 1 2 3 4 5 6 
#
# 1 93.4491 14.6674 15.4872 0.0000 0.0000 0.0000
# 2 14.6674 80.9361 15.4580 0.0000 0.0000 0.0000
# 3 15.4872 15.4580 64.7167 0.0000 0.0000 0.0000
# 4 0.0000 0.0000 0.0000 24.7866 0.0000 0.0000
# 5 0.0000 0.0000 0.0000 0.0000 11.0691 0.0000
# 6 0.0000 0.0000 0.0000 0.0000 0.0000 27.1222
#
#
#
# Elastic Compliance Matrix: (Units=1/GPa)
#
#
# Indices 1 2 3 4 5 6 
#
# 1 0.011340 -0.001610 -0.002329 0.000000 0.000000 0.000000
# 2 -0.001610 0.013175 -0.002762 0.000000 0.000000 0.000000
# 3 -0.002329 -0.002762 0.016669 0.000000 0.000000 0.000000
# 4 0.000000 0.000000 0.000000 0.040344 0.000000 0.000000
# 5 0.000000 0.000000 0.000000 0.000000 0.090342 0.000000
# 6 0.000000 0.000000 0.000000 0.000000 0.000000 0.036870
#
#
# Mechanical properties :
#
#
# Convention : Reuss Voigt Hill
#
# Bulk Modulus (GPa) = 35.99483 36.70299 36.34891
# Shear Modulus (GPa) = 21.60747 25.49487 23.55117
#
# Velocity S-wave (km/s) = 3.36431 3.65444 3.51237
# Velocity P-wave (km/s) = 5.82636 6.08544 5.95731
#
# Compressibility (1/GPa) = 0.02778177
#
# Stress axis : x y z
#
# Youngs Moduli (GPa) = 88.18545 75.90331 59.99179
#
# Poissons Ratio (x) = 0.12222 0.13973
# Poissons Ratio (y) = 0.14199 0.16567
# Poissons Ratio (z) = 0.20539 0.20961
#
# Static dielectric constant tensor:
#      x y z
#    x 1.683430 0.000000 0.000000 
#    y 0.000000 1.701520 0.000000 
#    z 0.000000 0.000000 1.629860 
# 
# From -- ./inp_files/21780.got.cif
#   From: 2010.05.17/outbox.cif.g08.bks.cpg/sg55_11_cif.got.tgz:21780.got - 2010.06.03 13:27:54.
