data_PCOD9427102
_publ_section_title
;
Structure prediction by ZEFSAII (Michael W. Deem and Ramdas Pophale) SiO2 
 PCOD9427102
Probable space group: P B A M
;
_chemical_formula_sum "Si O2"
_cell_formula_units_Z 48
_cell_length_a 32.340758
_cell_length_b 9.566593
_cell_length_c 8.851035
_cell_angle_alpha 90.000000
_cell_angle_beta 90.000000
_cell_angle_gamma 90.000000
_cell_volume 2738.429411
_symmetry_space_group_name_H-M "P B A M"
_symmetry_group_IT_number 55
_symmetry_cell_setting 'orthorhombic'
loop_
_space_group_symop_operation_xyz
x,y,z
-x,-y,z
1/2+x,1/2-y,-z
1/2-x,1/2+y,-z
-x,-y,-z
x,y,-z
1/2-x,1/2+y,z
1/2+x,1/2-y,z
loop_
_atom_site_type_symbol
_atom_site_label
_atom_site_fract_x
_atom_site_fract_y
_atom_site_fract_z
Si Si1 0.540584 0.913870 0.182109
Si Si2 0.373470 0.079552 0.325164
Si Si3 0.784642 0.100748 0.316935
Si Si4 0.124257 0.919518 0.325840
Si Si5 0.039106 0.911898 0.818611
Si Si6 0.287356 0.088327 0.180709
O O1 0.582953 0.967710 0.256160
O O2 0.535056 0.751032 0.225305
O O3 0.500000 0.000000 0.225641
O O4 0.544909 0.920181 0.000000
O O5 0.369257 0.038790 0.500000
O O6 0.374747 0.249631 0.319351
O O7 0.332927 0.037581 0.232221
O O8 0.783564 0.109342 0.500000
O O9 0.829856 0.038543 0.273440
O O10 0.782052 0.255820 0.247842
O O11 0.747750 0.008250 0.253120
O O12 0.119441 0.960761 0.500000
O O13 0.083701 0.965194 0.236575
O O14 0.038911 0.917080 0.000000
O O15 0.000000 0.000000 0.761992
O O16 0.284514 0.090725 0.000000
#
# Coordination Sequence:
#
# PCOD9427102 Si02
#       6
#     8   8   8   8   8   8
#     4   9  17  30  48  69  94 124 159 201 246 292
#     4   9  17  31  50  71  96 129 167 204 245 298
#     4  10  20  36  55  76 104 137 171 210 258 308
#     4   8  16  30  49  70  92 124 164 200 236 287
#     4   9  17  29  46  68  93 122 155 193 239 288
#     4  11  21  34  54  80 105 133 172 214 256 305
#
# _framework density 17.528296999999998
#
# number of rings (size 3 to 8) (size 9 to 14) (size 15 to 20)
#    0.000    2.667    0.000    3.500    0.000    5.333 
#    0.000    1.667    0.000    6.000    0.000    0.000 
#    0.000    0.000    0.000    0.000    0.000    0.000 
#
# Total GULP energy -267513.314422 kJ/mol
# GULP energy per Si atom -5573.194050 kJ/mol
# Density = 1.748840 g / cm^3
# Si number density = 17.528297 Si / 1000 Ang^3
#
#
#
# Elastic Constant Matrix: (Units=GPa)
#
#
# Indices 1 2 3 4 5 6 
#
# 1 201.4587 60.0975 66.7985 0.0000 0.0000 0.0000
# 2 60.0975 36.3936 27.7908 0.0000 0.0000 0.0000
# 3 66.7985 27.7908 71.6038 0.0000 0.0000 0.0000
# 4 0.0000 0.0000 0.0000 17.8085 0.0000 0.0000
# 5 0.0000 0.0000 0.0000 0.0000 35.5981 0.0000
# 6 0.0000 0.0000 0.0000 0.0000 0.0000 33.1225
#
#
#
# Elastic Compliance Matrix: (Units=1/GPa)
#
#
# Indices 1 2 3 4 5 6 
#
# 1 0.010690 -0.014266 -0.004436 0.000000 0.000000 0.000000
# 2 -0.014266 0.058088 -0.009237 0.000000 0.000000 0.000000
# 3 -0.004436 -0.009237 0.021689 0.000000 0.000000 0.000000
# 4 0.000000 0.000000 0.000000 0.056153 0.000000 0.000000
# 5 0.000000 0.000000 0.000000 0.000000 0.028091 0.000000
# 6 0.000000 0.000000 0.000000 0.000000 0.000000 0.030191
#
#
# Mechanical properties :
#
#
# Convention : Reuss Voigt Hill
#
# Bulk Modulus (GPa) = 28.90993 68.75886 48.83439
# Shear Modulus (GPa) = 18.36147 27.62376 22.99261
#
# Velocity S-wave (km/s) = 3.24007 3.97413 3.62573
# Velocity P-wave (km/s) = 5.52508 7.76987 6.74156
#
# Compressibility (1/GPa) = 0.03459020
#
# Stress axis : x y z
#
# Youngs Moduli (GPa) = 93.54289 17.21537 46.10605
#
# Poissons Ratio (x) = 0.24559 0.20453
# Poissons Ratio (y) = 1.33444 0.42587
# Poissons Ratio (z) = 0.41497 0.15901
#
# Static dielectric constant tensor:
#      x y z
#    x 1.609920 0.000000 0.000000 
#    y 0.000000 1.587710 0.000000 
#    z 0.000000 0.000000 1.588130 
# 
# From -- ./inp_files/2864.got.cif
#   From: 2010.05.17/outbox.cif.g08.bks.cpg/sg55_2_cif.got.tgz:2864.got - 2010.06.03 13:27:54.
