data_PCOD9427092
_publ_section_title
;
Structure prediction by ZEFSAII (Michael W. Deem and Ramdas Pophale) SiO2 
 PCOD9427092
Probable space group: P B A M
;
_chemical_formula_sum "Si O2"
_cell_formula_units_Z 64
_cell_length_a 9.345295
_cell_length_b 24.542224
_cell_length_c 14.307980
_cell_angle_alpha 90.000000
_cell_angle_beta 90.000000
_cell_angle_gamma 90.000000
_cell_volume 3281.597070
_symmetry_space_group_name_H-M "P B A M"
_symmetry_group_IT_number 55
_symmetry_cell_setting 'orthorhombic'
loop_
_space_group_symop_operation_xyz
x,y,z
-x,-y,z
1/2+x,1/2-y,-z
1/2-x,1/2+y,-z
-x,-y,-z
x,y,-z
1/2-x,1/2+y,z
1/2+x,1/2-y,z
loop_
_atom_site_type_symbol
_atom_site_label
_atom_site_fract_x
_atom_site_fract_y
_atom_site_fract_z
Si Si1 0.887316 0.136631 0.802440
Si Si2 0.959934 0.756802 0.203720
Si Si3 0.602013 0.947934 0.792601
Si Si4 0.598197 0.446739 0.892254
Si Si5 0.245325 0.340842 0.394951
Si Si6 0.577788 0.887960 0.395191
Si Si7 0.293189 0.220678 0.333228
Si Si8 0.587055 0.142049 0.890263
O O1 0.844025 0.140921 0.692646
O O2 0.742151 0.122188 0.855959
O O3 0.941484 0.195782 0.837113
O O4 0.012603 0.096005 0.828812
O O5 0.817628 0.783253 0.247186
O O6 0.926571 0.705180 0.140006
O O7 0.052875 0.734278 0.289771
O O8 0.750655 0.958566 0.844313
O O9 0.615636 0.931359 0.684132
O O10 0.530138 0.894772 0.839338
O O11 0.500000 0.000000 0.802874
O O12 0.500000 0.500000 0.895310
O O13 0.616967 0.427465 0.000000
O O14 0.293824 0.355833 0.500000
O O15 0.244802 0.274710 0.388707
O O16 0.086117 0.365891 0.381542
O O17 0.586877 0.909876 0.500000
O O18 0.683730 0.835941 0.385347
O O19 0.572497 0.136340 0.000000
#
# Coordination Sequence:
#
# PCOD9427092 Si02
#       8
#     8   8   8   8   8   8   8   8
#     4  11  22  41  64  93 131 168 210 268 321 379
#     4  11  21  37  60  87 134 169 210 251 317 390
#     4  12  25  46  70  93 125 166 214 274 331 390
#     4  11  26  46  70  97 124 162 216 272 328 384
#     4  10  20  35  62  94 128 172 210 254 315 377
#     4  11  22  39  65  98 131 169 219 265 318 387
#     4  11  17  38  58  88 128 169 211 257 309 368
#     4  12  24  41  63  91 127 170 220 269 327 388
#
# _framework density 19.502700999999998
#
# number of rings (size 3 to 8) (size 9 to 14) (size 15 to 20)
#    0.000    0.875    6.250    2.625    0.000    3.250 
#    0.000    3.750    0.000    0.750    0.000    0.000 
#    0.000    0.000    0.000    0.000    0.000    0.000 
#
# Total GULP energy -357384.011182 kJ/mol
# GULP energy per Si atom -5584.125175 kJ/mol
# Density = 1.945831 g / cm^3
# Si number density = 19.502701 Si / 1000 Ang^3
#
#
#
# Elastic Constant Matrix: (Units=GPa)
#
#
# Indices 1 2 3 4 5 6 
#
# 1 104.0972 29.0450 46.5138 0.0000 0.0000 0.0000
# 2 29.0450 47.3735 30.7762 0.0000 0.0000 0.0000
# 3 46.5138 30.7762 126.6120 0.0000 0.0000 0.0000
# 4 0.0000 0.0000 0.0000 12.4642 0.0000 0.0000
# 5 0.0000 0.0000 0.0000 0.0000 5.7169 0.0000
# 6 0.0000 0.0000 0.0000 0.0000 0.0000 33.7550
#
#
#
# Elastic Compliance Matrix: (Units=1/GPa)
#
#
# Indices 1 2 3 4 5 6 
#
# 1 0.012639 -0.005620 -0.003277 0.000000 0.000000 0.000000
# 2 -0.005620 0.027566 -0.004636 0.000000 0.000000 0.000000
# 3 -0.003277 -0.004636 0.010229 0.000000 0.000000 0.000000
# 4 0.000000 0.000000 0.000000 0.080230 0.000000 0.000000
# 5 0.000000 0.000000 0.000000 0.000000 0.174920 0.000000
# 6 0.000000 0.000000 0.000000 0.000000 0.000000 0.029625
#
#
# Mechanical properties :
#
#
# Convention : Reuss Voigt Hill
#
# Bulk Modulus (GPa) = 42.79381 54.52807 48.66094
# Shear Modulus (GPa) = 13.51116 21.83706 17.67411
#
# Velocity S-wave (km/s) = 2.63493 3.34981 3.01365
# Velocity P-wave (km/s) = 5.58993 6.55604 6.09216
#
# Compressibility (1/GPa) = 0.02336787
#
# Stress axis : x y z
#
# Youngs Moduli (GPa) = 79.12167 36.27616 97.76163
#
# Poissons Ratio (x) = 0.20387 0.32037
# Poissons Ratio (y) = 0.44466 0.45323
# Poissons Ratio (z) = 0.25929 0.16818
#
# Static dielectric constant tensor:
#      x y z
#    x 1.691910 0.000000 0.000000 
#    y 0.000000 1.700170 0.000000 
#    z 0.000000 0.000000 1.688440 
# 
# From -- ./inp_files/17810.got.cif
#   From: 2010.05.17/outbox.cif.g08.bks.cpg/sg55_9_cif.got.tgz:17810.got - 2010.06.03 13:27:54.
