data_PCOD9427038
_publ_section_title
;
Structure prediction by ZEFSAII (Michael W. Deem and Ramdas Pophale) SiO2 
 PCOD9427038
Probable space group: P B A M
;
_chemical_formula_sum "Si O2"
_cell_formula_units_Z 64
_cell_length_a 19.359896
_cell_length_b 20.384257
_cell_length_c 7.620888
_cell_angle_alpha 90.000000
_cell_angle_beta 90.000000
_cell_angle_gamma 90.000000
_cell_volume 3007.485106
_symmetry_space_group_name_H-M "P B A M"
_symmetry_group_IT_number 55
_symmetry_cell_setting 'orthorhombic'
loop_
_space_group_symop_operation_xyz
x,y,z
-x,-y,z
1/2+x,1/2-y,-z
1/2-x,1/2+y,-z
-x,-y,-z
x,y,-z
1/2-x,1/2+y,z
1/2+x,1/2-y,z
loop_
_atom_site_type_symbol
_atom_site_label
_atom_site_fract_x
_atom_site_fract_y
_atom_site_fract_z
Si Si1 0.804552 0.405627 0.787974
Si Si2 0.041244 0.564192 0.215129
Si Si3 0.189897 0.744553 0.787657
Si Si4 0.303606 0.851950 0.296616
Si Si5 0.542041 0.693262 0.212214
Si Si6 0.439000 0.455838 0.704632
Si Si7 0.284932 0.472095 0.292214
Si Si8 0.455812 0.811427 0.205138
O O1 0.879145 0.433155 0.730336
O O2 0.798291 0.330250 0.728897
O O3 0.745556 0.455645 0.730562
O O4 0.804519 0.404626 0.000000
O O5 0.000000 0.500000 0.272336
O O6 0.001433 0.629001 0.277999
O O7 0.040724 0.564002 0.000000
O O8 0.247141 0.794678 0.719918
O O9 0.113908 0.770805 0.739590
O O10 0.193161 0.745141 0.000000
O O11 0.319434 0.864243 0.500000
O O12 0.268542 0.917724 0.219318
O O13 0.375714 0.828827 0.217043
O O14 0.541305 0.620315 0.285527
O O15 0.480272 0.740856 0.273640
O O16 0.540739 0.686325 0.000000
O O17 0.500000 0.500000 0.783251
O O18 0.433019 0.475570 0.500000
O O19 0.362133 0.464648 0.781783
O O20 0.289438 0.457116 0.500000
O O21 0.474383 0.808911 0.000000
#
# Coordination Sequence:
#
# PCOD9427038 Si02
#       8
#     8   8   8   8   8   8   8   8
#     4  10  20  35  58  87 114 148 192 234 284 349
#     4   9  16  29  52  81 112 146 184 224 272 333
#     4  10  20  37  60  86 115 150 194 242 293 348
#     4  11  23  38  57  84 117 156 199 238 285 350
#     4  10  20  37  62  88 117 149 190 247 300 347
#     4  10  22  41  63  84 113 157 202 244 294 350
#     4  10  22  39  56  82 120 157 197 244 290 343
#     4  10  20  36  58  87 119 149 189 242 293 342
#
# _framework density 21.280238000000001
#
# number of rings (size 3 to 8) (size 9 to 14) (size 15 to 20)
#    0.000    2.000    2.500    1.125    0.000    4.750 
#    0.000    3.125    0.000    2.250    0.000    0.000 
#    0.000    0.000    0.000    0.000    0.000    0.000 
#
# Total GULP energy -357504.835356 kJ/mol
# GULP energy per Si atom -5586.013052 kJ/mol
# Density = 2.123180 g / cm^3
# Si number density = 21.280238 Si / 1000 Ang^3
#
#
#
# Elastic Constant Matrix: (Units=GPa)
#
#
# Indices 1 2 3 4 5 6 
#
# 1 103.9343 52.0336 -4.3390 0.0000 0.0000 0.0000
# 2 52.0336 136.6774 -13.2594 0.0000 0.0000 0.0000
# 3 -4.3390 -13.2594 34.3437 0.0000 0.0000 0.0000
# 4 0.0000 0.0000 0.0000 19.4914 0.0000 0.0000
# 5 0.0000 0.0000 0.0000 0.0000 63.5074 0.0000
# 6 0.0000 0.0000 0.0000 0.0000 0.0000 42.0464
#
#
#
# Elastic Compliance Matrix: (Units=1/GPa)
#
#
# Indices 1 2 3 4 5 6 
#
# 1 0.011889 -0.004551 -0.000255 0.000000 0.000000 0.000000
# 2 -0.004551 0.009343 0.003032 0.000000 0.000000 0.000000
# 3 -0.000255 0.003032 0.030256 0.000000 0.000000 0.000000
# 4 0.000000 0.000000 0.000000 0.051305 0.000000 0.000000
# 5 0.000000 0.000000 0.000000 0.000000 0.015746 0.000000
# 6 0.000000 0.000000 0.000000 0.000000 0.000000 0.023783
#
#
# Mechanical properties :
#
#
# Convention : Reuss Voigt Hill
#
# Bulk Modulus (GPa) = 20.85900 38.20288 29.53094
# Shear Modulus (GPa) = 30.89276 41.04372 35.96824
#
# Velocity S-wave (km/s) = 3.81427 4.39649 4.11569
# Velocity P-wave (km/s) = 5.40569 6.61539 6.04090
#
# Compressibility (1/GPa) = 0.04794094
#
# Stress axis : x y z
#
# Youngs Moduli (GPa) = 84.10970 107.02900 33.05142
#
# Poissons Ratio (x) = 0.48709 0.00843
# Poissons Ratio (y) = 0.38278 -0.10022
# Poissons Ratio (z) = 0.02145 -0.32454
#
# Static dielectric constant tensor:
#      x y z
#    x 1.743110 0.000000 0.000000 
#    y 0.000000 1.742990 0.000000 
#    z 0.000000 0.000000 1.807940 
# 
# From -- ./inp_files/8061.got.cif
#   From: 2010.05.17/outbox.cif.g08.bks.cpg/sg55_5_cif.got.tgz:8061.got - 2010.06.03 13:27:54.
