data_PCOD9427413
_publ_section_title
;
Structure prediction by ZEFSAII (Michael W. Deem and Ramdas Pophale) SiO2 
 PCOD9427413
Probable space group: P B A M
;
_chemical_formula_sum "Si O2"
_cell_formula_units_Z 64
_cell_length_a 23.723115
_cell_length_b 14.779862
_cell_length_c 9.123076
_cell_angle_alpha 90.000000
_cell_angle_beta 90.000000
_cell_angle_gamma 90.000000
_cell_volume 3198.772738
_symmetry_space_group_name_H-M "P B A M"
_symmetry_group_IT_number 55
_symmetry_cell_setting 'orthorhombic'
loop_
_space_group_symop_operation_xyz
x,y,z
-x,-y,z
1/2+x,1/2-y,-z
1/2-x,1/2+y,-z
-x,-y,-z
x,y,-z
1/2-x,1/2+y,z
1/2+x,1/2-y,z
loop_
_atom_site_type_symbol
_atom_site_label
_atom_site_fract_x
_atom_site_fract_y
_atom_site_fract_z
Si Si1 0.448853 0.070275 0.174394
Si Si2 0.970382 0.096920 0.664424
Si Si3 0.520466 0.239713 0.172791
Si Si4 0.760449 0.273390 0.323981
Si Si5 0.170701 0.541983 0.675894
Si Si6 0.128702 0.207197 0.670723
Si Si7 0.856675 0.998795 0.332812
Si Si8 0.241622 0.914973 0.826902
O O1 0.476353 0.164515 0.225025
O O2 0.392413 0.047431 0.261860
O O3 0.500000 0.000000 0.192217
O O4 0.435310 0.074638 0.000000
O O5 0.981979 0.133435 0.500000
O O6 0.904439 0.074731 0.677299
O O7 0.993652 0.164941 0.782929
O O8 0.000000 0.000000 0.674351
O O9 0.582656 0.236310 0.241926
O O10 0.526197 0.229127 0.000000
O O11 0.765311 0.260572 0.500000
O O12 0.795993 0.363766 0.287605
O O13 0.694133 0.284873 0.287528
O O14 0.776399 0.181613 0.240784
O O15 0.171061 0.532721 0.500000
O O16 0.203801 0.457803 0.747984
O O17 0.124101 0.230936 0.500000
O O18 0.116162 0.100017 0.686321
O O19 0.832771 0.999363 0.500000
O O20 0.808564 0.016926 0.216410
O O21 0.250031 0.908471 0.000000
#
# Coordination Sequence:
#
# PCOD9427413 Si02
#       8
#     8   8   8   8   8   8   8   8
#     4  10  25  48  67  89 129 174 215 267 329 383
#     4  10  20  37  60  86 121 166 209 250 305 369
#     4  11  24  39  60  92 129 165 208 260 315 380
#     4  10  23  43  67  95 127 166 211 266 319 376
#     4  11  24  46  72  98 128 166 221 275 320 377
#     4  10  20  40  66  90 122 161 209 262 312 372
#     4  10  20  39  63  88 123 166 212 257 306 371
#     4  12  26  41  64  95 131 169 205 255 326 395
#
# _framework density 20.007671999999999
#
# number of rings (size 3 to 8) (size 9 to 14) (size 15 to 20)
#    0.000    1.500    2.500    1.875    3.500    4.000 
#    0.000    0.000    0.000    0.000    0.000    0.000 
#    0.000    0.000    0.000    0.000    0.000    0.000 
#
# Total GULP energy -357544.524186 kJ/mol
# GULP energy per Si atom -5586.633190 kJ/mol
# Density = 1.996213 g / cm^3
# Si number density = 20.007672 Si / 1000 Ang^3
#
#
#
# Elastic Constant Matrix: (Units=GPa)
#
#
# Indices 1 2 3 4 5 6 
#
# 1 83.7171 -2.0376 28.1334 0.0000 0.0000 0.0000
# 2 -2.0376 40.0156 17.3743 0.0000 0.0000 0.0000
# 3 28.1334 17.3743 46.8458 0.0000 0.0000 0.0000
# 4 0.0000 0.0000 0.0000 21.6030 0.0000 0.0000
# 5 0.0000 0.0000 0.0000 0.0000 30.2771 0.0000
# 6 0.0000 0.0000 0.0000 0.0000 0.0000 25.0145
#
#
#
# Elastic Compliance Matrix: (Units=1/GPa)
#
#
# Indices 1 2 3 4 5 6 
#
# 1 0.016080 0.005974 -0.011873 0.000000 0.000000 0.000000
# 2 0.005974 0.032006 -0.015458 0.000000 0.000000 0.000000
# 3 -0.011873 -0.015458 0.034210 0.000000 0.000000 0.000000
# 4 0.000000 0.000000 0.000000 0.046290 0.000000 0.000000
# 5 0.000000 0.000000 0.000000 0.000000 0.033028 0.000000
# 6 0.000000 0.000000 0.000000 0.000000 0.000000 0.039977
#
#
# Mechanical properties :
#
#
# Convention : Reuss Voigt Hill
#
# Bulk Modulus (GPa) = 25.26377 28.61321 26.93849
# Shear Modulus (GPa) = 19.41753 23.85281 21.63517
#
# Velocity S-wave (km/s) = 3.11867 3.45655 3.29195
# Velocity P-wave (km/s) = 5.06188 5.50113 5.28607
#
# Compressibility (1/GPa) = 0.03958237
#
# Stress axis : x y z
#
# Youngs Moduli (GPa) = 62.18826 31.24399 29.23132
#
# Poissons Ratio (x) = -0.18664 0.34705
# Poissons Ratio (y) = -0.37150 0.45186
# Poissons Ratio (z) = 0.73834 0.48297
#
# Static dielectric constant tensor:
#      x y z
#    x 1.727790 0.000000 0.000000 
#    y 0.000000 1.730850 0.000000 
#    z 0.000000 0.000000 1.676120 
# 
# From -- ./inp_files/9784.got.cif
#   From: 2010.05.17/outbox.cif.g08.bks.cpg/sg55_5_cif.got.tgz:9784.got - 2010.06.03 13:27:54.
