data_PCOD9427876
_publ_section_title
;
Structure prediction by ZEFSAII (Michael W. Deem and Ramdas Pophale) SiO2 
 PCOD9427876
Probable space group: P B A M
;
_chemical_formula_sum "Si O2"
_cell_formula_units_Z 64
_cell_length_a 31.498336
_cell_length_b 11.586340
_cell_length_c 7.577682
_cell_angle_alpha 90.000000
_cell_angle_beta 90.000000
_cell_angle_gamma 90.000000
_cell_volume 2765.478307
_symmetry_space_group_name_H-M "P B A M"
_symmetry_group_IT_number 55
_symmetry_cell_setting 'orthorhombic'
loop_
_space_group_symop_operation_xyz
x,y,z
-x,-y,z
1/2+x,1/2-y,-z
1/2-x,1/2+y,-z
-x,-y,-z
x,y,-z
1/2-x,1/2+y,z
1/2+x,1/2-y,z
loop_
_atom_site_type_symbol
_atom_site_label
_atom_site_fract_x
_atom_site_fract_y
_atom_site_fract_z
Si Si1 0.576612 0.870065 0.289899
Si Si2 0.646173 0.332678 0.297396
Si Si3 0.208127 0.987412 0.714072
Si Si4 0.986508 0.183030 0.788441
Si Si5 0.840698 0.236082 0.291336
Si Si6 0.434084 0.539958 0.214151
Si Si7 0.303672 0.027512 0.206150
Si Si8 0.112668 0.400211 0.300545
O O1 0.583729 0.880167 0.500000
O O2 0.532290 0.805800 0.263360
O O3 0.614587 0.786780 0.219427
O O4 0.582802 0.000169 0.219521
O O5 0.655731 0.299521 0.500000
O O6 0.688081 0.391503 0.220947
O O7 0.611211 0.433323 0.293507
O O8 0.623119 0.222356 0.212567
O O9 0.205602 0.988466 0.500000
O O10 0.257188 0.978054 0.761791
O O11 0.179756 0.880705 0.781037
O O12 0.032738 0.140188 0.730302
O O13 0.954191 0.081751 0.729684
O O14 0.987295 0.178738 0.000000
O O15 0.847120 0.218016 0.500000
O O16 0.807295 0.339736 0.264901
O O17 0.431060 0.539513 0.000000
O O18 0.341194 0.961047 0.304923
O O19 0.313742 0.020611 0.000000
O O20 0.096822 0.376916 0.500000
#
# Coordination Sequence:
#
# PCOD9427876 Si02
#       8
#     8   8   8   8   8   8   8   8
#     4   9  17  32  55  80 103 133 178 227 263 303
#     4  10  21  37  58  81 104 138 182 223 267 320
#     4  10  21  36  56  79 103 137 178 220 268 322
#     4   9  18  33  54  79 110 146 178 211 266 329
#     4   9  19  36  55  75 104 137 173 217 265 318
#     4   9  19  35  53  78 113 146 174 216 270 323
#     4  11  23  36  53  79 108 136 176 223 266 316
#     4   9  20  39  57  75 106 145 181 218 268 326
#
# _framework density 23.142472000000001
#
# number of rings (size 3 to 8) (size 9 to 14) (size 15 to 20)
#    0.000    2.500    0.000    3.375    1.750    5.500 
#    0.000    1.875    0.000    3.750    0.000    0.000 
#    0.000    0.000    0.000    0.000    0.000    0.000 
#
# Total GULP energy -357235.987905 kJ/mol
# GULP energy per Si atom -5581.812311 kJ/mol
# Density = 2.308980 g / cm^3
# Si number density = 23.142472 Si / 1000 Ang^3
#
#
#
# Elastic Constant Matrix: (Units=GPa)
#
#
# Indices 1 2 3 4 5 6 
#
# 1 23.3509 -7.0241 -7.9344 0.0000 0.0000 0.0000
# 2 -7.0241 57.2729 -4.4312 0.0000 0.0000 0.0000
# 3 -7.9344 -4.4312 59.8578 0.0000 0.0000 0.0000
# 4 0.0000 0.0000 0.0000 0.0462 0.0000 0.0000
# 5 0.0000 0.0000 0.0000 0.0000 64.5553 0.0000
# 6 0.0000 0.0000 0.0000 0.0000 0.0000 11.7047
#
#
#
# Elastic Compliance Matrix: (Units=1/GPa)
#
#
# Indices 1 2 3 4 5 6 
#
# 1 0.046989 0.006281 0.006693 0.000000 0.000000 0.000000
# 2 0.006281 0.018400 0.002195 0.000000 0.000000 0.000000
# 3 0.006693 0.002195 0.017756 0.000000 0.000000 0.000000
# 4 0.000000 0.000000 0.000000 21.625733 0.000000 0.000000
# 5 0.000000 0.000000 0.000000 0.000000 0.015491 0.000000
# 6 0.000000 0.000000 0.000000 0.000000 0.000000 0.085436
#
#
# Mechanical properties :
#
#
# Convention : Reuss Voigt Hill
#
# Bulk Modulus (GPa) = 8.81193 11.30025 10.05609
# Shear Modulus (GPa) = 0.22918 25.91933 13.07425
#
# Velocity S-wave (km/s) = 0.31503 3.35026 2.37944
# Velocity P-wave (km/s) = 1.98703 4.45636 3.45017
#
# Compressibility (1/GPa) = 0.11348248
#
# Stress axis : x y z
#
# Youngs Moduli (GPa) = 21.28176 54.34683 56.31911
#
# Poissons Ratio (x) = -0.34133 -0.37697
# Poissons Ratio (y) = -0.13366 -0.12360
# Poissons Ratio (z) = -0.14245 -0.11927
#
# Static dielectric constant tensor:
#      x y z
#    x 1.835790 0.000000 0.000000 
#    y 0.000000 1.922520 0.000000 
#    z 0.000000 0.000000 1.890790 
# 
# From -- ./inp_files/10845.got.cif
#   From: 2010.05.17/outbox.cif.g08.bks.cpg/sg55_6_cif.got.tgz:10845.got - 2010.06.03 13:27:54.
