data_PCOD9427039
_publ_section_title
;
Structure prediction by ZEFSAII (Michael W. Deem and Ramdas Pophale) SiO2 
 PCOD9427039
Probable space group: P B A M
;
_chemical_formula_sum "Si O2"
_cell_formula_units_Z 64
_cell_length_a 20.311135
_cell_length_b 18.850123
_cell_length_c 7.628072
_cell_angle_alpha 90.000000
_cell_angle_beta 90.000000
_cell_angle_gamma 90.000000
_cell_volume 2920.540040
_symmetry_space_group_name_H-M "P B A M"
_symmetry_group_IT_number 55
_symmetry_cell_setting 'orthorhombic'
loop_
_space_group_symop_operation_xyz
x,y,z
-x,-y,z
1/2+x,1/2-y,-z
1/2-x,1/2+y,-z
-x,-y,-z
x,y,-z
1/2-x,1/2+y,z
1/2+x,1/2-y,z
loop_
_atom_site_type_symbol
_atom_site_label
_atom_site_fract_x
_atom_site_fract_y
_atom_site_fract_z
Si Si1 0.445701 0.056386 0.284500
Si Si2 0.615040 0.236096 0.205182
Si Si3 0.129436 0.836869 0.711040
Si Si4 0.533025 0.784433 0.295442
Si Si5 0.775125 0.630086 0.208629
Si Si6 0.298930 0.030266 0.705820
Si Si7 0.325648 0.612746 0.286973
Si Si8 0.575078 0.511222 0.714137
O O1 0.447075 0.054953 0.500000
O O2 0.461463 0.136046 0.224012
O O3 0.372593 0.035856 0.223504
O O4 0.500000 0.000000 0.225983
O O5 0.542503 0.240206 0.285256
O O6 0.661878 0.173645 0.277663
O O7 0.653224 0.309873 0.227136
O O8 0.604900 0.222501 0.000000
O O9 0.122858 0.838207 0.500000
O O10 0.083464 0.773490 0.779789
O O11 0.206590 0.830886 0.751037
O O12 0.103663 0.913422 0.774677
O O13 0.550861 0.790678 0.500000
O O14 0.773130 0.550010 0.278154
O O15 0.781339 0.625547 0.000000
O O16 0.304124 0.046713 0.500000
O O17 0.245113 0.084983 0.777451
O O18 0.325088 0.613419 0.500000
O O19 0.379087 0.553996 0.231235
O O20 0.500000 0.500000 0.769631
O O21 0.575746 0.511965 0.500000
#
# Coordination Sequence:
#
# PCOD9427039 Si02
#       8
#     8   8   8   8   8   8   8   8
#     4   9  18  33  57  90 122 147 185 246 305 352
#     4  11  25  41  57  82 120 162 201 241 293 355
#     4  10  20  36  60  88 116 150 195 247 298 348
#     4  10  21  38  63  91 115 152 201 250 306 359
#     4  11  24  40  58  83 120 164 202 237 291 358
#     4  10  20  37  62  90 117 150 195 249 301 350
#     4  10  20  35  58  87 114 149 195 242 295 348
#     4   9  16  30  53  82 113 140 174 226 282 337
#
# _framework density 21.913754999999998
#
# number of rings (size 3 to 8) (size 9 to 14) (size 15 to 20)
#    0.000    2.000    1.250    2.250    1.750    6.000 
#    0.000    0.625    0.000    3.750    0.000    0.000 
#    0.000    0.000    0.000    0.000    0.000    0.000 
#
# Total GULP energy -357691.010313 kJ/mol
# GULP energy per Si atom -5588.922036 kJ/mol
# Density = 2.186388 g / cm^3
# Si number density = 21.913755 Si / 1000 Ang^3
#
#
#
# Elastic Constant Matrix: (Units=GPa)
#
#
# Indices 1 2 3 4 5 6 
#
# 1 129.6562 27.2640 -12.4211 0.0000 0.0000 0.0000
# 2 27.2640 84.2014 -12.2543 0.0000 0.0000 0.0000
# 3 -12.4211 -12.2543 39.6669 0.0000 0.0000 0.0000
# 4 0.0000 0.0000 0.0000 22.2684 0.0000 0.0000
# 5 0.0000 0.0000 0.0000 0.0000 4.8477 0.0000
# 6 0.0000 0.0000 0.0000 0.0000 0.0000 41.9214
#
#
#
# Elastic Compliance Matrix: (Units=1/GPa)
#
#
# Indices 1 2 3 4 5 6 
#
# 1 0.008407 -0.002449 0.001876 0.000000 0.000000 0.000000
# 2 -0.002449 0.013149 0.003295 0.000000 0.000000 0.000000
# 3 0.001876 0.003295 0.026815 0.000000 0.000000 0.000000
# 4 0.000000 0.000000 0.000000 0.044907 0.000000 0.000000
# 5 0.000000 0.000000 0.000000 0.000000 0.206283 0.000000
# 6 0.000000 0.000000 0.000000 0.000000 0.000000 0.023854
#
#
# Mechanical properties :
#
#
# Convention : Reuss Voigt Hill
#
# Bulk Modulus (GPa) = 18.58200 28.74461 23.66331
# Shear Modulus (GPa) = 14.88492 30.53657 22.71075
#
# Velocity S-wave (km/s) = 2.60907 3.73700 3.22276
# Velocity P-wave (km/s) = 4.19218 5.63612 4.96690
#
# Compressibility (1/GPa) = 0.05381553
#
# Stress axis : x y z
#
# Youngs Moduli (GPa) = 118.94200 76.05198 37.29208
#
# Poissons Ratio (x) = 0.18627 -0.06996
# Poissons Ratio (y) = 0.29132 -0.12288
# Poissons Ratio (z) = -0.22314 -0.25060
#
# Static dielectric constant tensor:
#      x y z
#    x 1.777210 0.000000 0.000000 
#    y 0.000000 1.765070 0.000000 
#    z 0.000000 0.000000 1.827880 
# 
# From -- ./inp_files/8972.got.cif
#   From: 2010.05.17/outbox.cif.g08.bks.cpg/sg55_5_cif.got.tgz:8972.got - 2010.06.03 13:27:54.
