data_PCOD9427672
_publ_section_title
;
Structure prediction by ZEFSAII (Michael W. Deem and Ramdas Pophale) SiO2 
 PCOD9427672
Probable space group: P B A M
;
_chemical_formula_sum "Si O2"
_cell_formula_units_Z 48
_cell_length_a 14.503080
_cell_length_b 10.906966
_cell_length_c 14.402721
_cell_angle_alpha 90.000000
_cell_angle_beta 90.000000
_cell_angle_gamma 90.000000
_cell_volume 2278.288667
_symmetry_space_group_name_H-M "P B A M"
_symmetry_group_IT_number 55
_symmetry_cell_setting 'orthorhombic'
loop_
_space_group_symop_operation_xyz
x,y,z
-x,-y,z
1/2+x,1/2-y,-z
1/2-x,1/2+y,-z
-x,-y,-z
x,y,-z
1/2-x,1/2+y,z
1/2+x,1/2-y,z
loop_
_atom_site_type_symbol
_atom_site_label
_atom_site_fract_x
_atom_site_fract_y
_atom_site_fract_z
Si Si1 0.067763 0.383129 0.716271
Si Si2 0.312810 0.535319 0.894668
Si Si3 0.219693 0.521727 0.604839
Si Si4 0.083615 0.751527 0.604563
Si Si5 0.104717 0.985963 0.704963
Si Si6 0.669133 0.188021 0.893868
O O1 0.162077 0.426961 0.667659
O O2 0.092506 0.322255 0.814272
O O3 0.000000 0.500000 0.730593
O O4 0.012413 0.294406 0.647495
O O5 0.385162 0.511001 0.813363
O O6 0.282200 0.678198 0.884325
O O7 0.234714 0.430996 0.882904
O O8 0.348269 0.522406 0.000000
O O9 0.235103 0.475050 0.500000
O O10 0.151741 0.636873 0.599520
O O11 0.315809 0.559638 0.651756
O O12 0.071728 0.800589 0.500000
O O13 0.127166 0.847796 0.674996
O O14 0.000000 0.000000 0.673340
O O15 0.633151 0.183728 0.000000
#
# Coordination Sequence:
#
# PCOD9427672 Si02
#       6
#     8   8   8   8   8   8
#     4  10  20  39  66  95 129 172 220 267 319 389
#     4  10  23  42  66  93 129 170 215 269 328 391
#     4  10  22  41  63  88 125 173 220 265 321 384
#     4  10  23  41  63  93 128 170 219 268 320 382
#     4  12  25  39  62  93 128 164 214 266 325 384
#     4  10  21  40  66  98 130 168 217 270 328 390
#
# _framework density 21.068445000000001
#
# number of rings (size 3 to 8) (size 9 to 14) (size 15 to 20)
#    0.000    1.667    1.667    2.000    2.333    5.333 
#    0.000    2.500    0.000    0.000    0.000    0.000 
#    0.000    0.000    0.000    0.000    0.000    0.000 
#
# Total GULP energy -267920.756571 kJ/mol
# GULP energy per Si atom -5581.682429 kJ/mol
# Density = 2.102049 g / cm^3
# Si number density = 21.068445 Si / 1000 Ang^3
#
#
#
# Elastic Constant Matrix: (Units=GPa)
#
#
# Indices 1 2 3 4 5 6 
#
# 1 113.9383 13.6934 57.9226 0.0000 0.0000 0.0000
# 2 13.6934 89.9564 41.0434 0.0000 0.0000 0.0000
# 3 57.9226 41.0434 137.8682 0.0000 0.0000 0.0000
# 4 0.0000 0.0000 0.0000 24.8987 0.0000 0.0000
# 5 0.0000 0.0000 0.0000 0.0000 -1.5367 0.0000
# 6 0.0000 0.0000 0.0000 0.0000 0.0000 16.3334
#
#
#
# Elastic Compliance Matrix: (Units=1/GPa)
#
#
# Indices 1 2 3 4 5 6 
#
# 1 0.011181 0.000511 -0.004849 0.000000 0.000000 0.000000
# 2 0.000511 0.012887 -0.004051 0.000000 0.000000 0.000000
# 3 -0.004849 -0.004051 0.010497 0.000000 0.000000 0.000000
# 4 0.000000 0.000000 0.000000 0.040163 0.000000 0.000000
# 5 0.000000 0.000000 0.000000 0.000000 -0.650759 0.000000
# 6 0.000000 0.000000 0.000000 0.000000 0.000000 0.061224
#
#
# Mechanical properties :
#
#
# Convention : Reuss Voigt Hill
#
# Bulk Modulus (GPa) = 56.22762 63.00908 59.61835
# Shear Modulus (GPa) = -10.16054 23.21264 6.52605
#
# Velocity S-wave (km/s) = -2.19843 3.32290 1.76189
# Velocity P-wave (km/s) = 4.50576 6.68536 5.70069
#
# Compressibility (1/GPa) = 0.01778485
#
# Stress axis : x y z
#
# Youngs Moduli (GPa) = 89.44108 77.59704 95.26864
#
# Poissons Ratio (x) = -0.03962 0.46199
# Poissons Ratio (y) = -0.04567 0.38593
# Poissons Ratio (z) = 0.43373 0.31435
#
# Static dielectric constant tensor:
#      x y z
#    x 1.745160 0.000000 0.000000 
#    y 0.000000 1.843850 0.000000 
#    z 0.000000 0.000000 1.745040 
# 
# From -- ./inp_files/18872.got.cif
#   From: 2010.05.17/outbox.cif.g08.bks.cpg/sg55_10_cif.got.tgz:18872.got - 2010.06.03 13:27:54.
