data_PCOD9427809
_publ_section_title
;
Structure prediction by ZEFSAII (Michael W. Deem and Ramdas Pophale) SiO2 
 PCOD9427809
Probable space group: P B A M
;
_chemical_formula_sum "Si O2"
_cell_formula_units_Z 40
_cell_length_a 19.574329
_cell_length_b 5.216842
_cell_length_c 16.857079
_cell_angle_alpha 90.000000
_cell_angle_beta 90.000000
_cell_angle_gamma 90.000000
_cell_volume 1721.380541
_symmetry_space_group_name_H-M "P B A M"
_symmetry_group_IT_number 55
_symmetry_cell_setting 'orthorhombic'
loop_
_space_group_symop_operation_xyz
x,y,z
-x,-y,z
1/2+x,1/2-y,-z
1/2-x,1/2+y,-z
-x,-y,-z
x,y,-z
1/2-x,1/2+y,z
1/2+x,1/2-y,z
loop_
_atom_site_type_symbol
_atom_site_label
_atom_site_fract_x
_atom_site_fract_y
_atom_site_fract_z
Si Si1 0.072706 0.847050 0.174083
Si Si2 0.452211 0.250452 0.000000
Si Si3 0.285673 0.381779 0.759147
Si Si4 0.580596 0.262650 0.412427
Si Si5 0.000000 0.500000 0.714762
Si Si6 0.827433 0.258464 0.588252
O O1 0.086835 0.767865 0.083348
O O2 0.139219 0.970959 0.213315
O O3 0.058859 0.600557 0.228361
O O4 0.000000 0.000000 0.175903
O O5 0.500000 0.500000 0.000000
O O6 0.500000 0.000000 0.000000
O O7 0.233870 0.598594 0.788355
O O8 0.284195 0.332300 0.663875
O O9 0.550081 0.226225 0.500000
O O10 0.614404 0.539753 0.411678
O O11 0.527210 0.218316 0.343191
O O12 0.636908 0.035415 0.401988
O O13 0.794728 0.252398 0.500000
#
# Coordination Sequence:
#
# PCOD9427809 Si02
#       6
#     8   4   8   8   4   8
#     4  11  25  44  73 103 136 175 230 279 344 410
#     4  10  22  42  70 106 136 170 217 283 334 406
#     4  12  27  44  67  99 139 178 225 279 342 402
#     4  10  21  35  57  92 129 171 221 276 335 388
#     4  12  21  35  68  92 136 170 220 275 339 392
#     4  10  21  40  60  84 126 177 228 273 323 392
#
# _framework density 23.237161
#
# number of rings (size 3 to 8) (size 9 to 14) (size 15 to 20)
#    0.000    1.200    3.000    2.700    2.800    0.800 
#    0.000    4.000    0.000    0.000    0.000    0.000 
#    0.000    0.000    0.000    0.000    0.000    0.000 
#
# Total GULP energy -223696.658101 kJ/mol
# GULP energy per Si atom -5592.416453 kJ/mol
# Density = 2.318427 g / cm^3
# Si number density = 23.237161 Si / 1000 Ang^3
#
#
#
# Elastic Constant Matrix: (Units=GPa)
#
#
# Indices 1 2 3 4 5 6 
#
# 1 75.0592 36.7348 20.8424 0.0000 0.0000 0.0000
# 2 36.7348 99.1669 11.0955 0.0000 0.0000 0.0000
# 3 20.8424 11.0955 137.4916 0.0000 0.0000 0.0000
# 4 0.0000 0.0000 0.0000 12.4188 0.0000 0.0000
# 5 0.0000 0.0000 0.0000 0.0000 19.1194 0.0000
# 6 0.0000 0.0000 0.0000 0.0000 0.0000 47.4565
#
#
#
# Elastic Compliance Matrix: (Units=1/GPa)
#
#
# Indices 1 2 3 4 5 6 
#
# 1 0.016836 -0.006005 -0.002068 0.000000 0.000000 0.000000
# 2 -0.006005 0.012318 -0.000084 0.000000 0.000000 0.000000
# 3 -0.002068 -0.000084 0.007593 0.000000 0.000000 0.000000
# 4 0.000000 0.000000 0.000000 0.080523 0.000000 0.000000
# 5 0.000000 0.000000 0.000000 0.000000 0.052303 0.000000
# 6 0.000000 0.000000 0.000000 0.000000 0.000000 0.021072
#
#
# Mechanical properties :
#
#
# Convention : Reuss Voigt Hill
#
# Bulk Modulus (GPa) = 48.93762 49.89591 49.41676
# Shear Modulus (GPa) = 23.38966 32.00194 27.69580
#
# Velocity S-wave (km/s) = 3.17608 3.71507 3.45610
# Velocity P-wave (km/s) = 5.87841 6.31834 6.10234
#
# Compressibility (1/GPa) = 0.02043418
#
# Stress axis : x y z
#
# Youngs Moduli (GPa) = 59.39657 81.18241 131.69429
#
# Poissons Ratio (x) = 0.48752 0.27228
# Poissons Ratio (y) = 0.35669 0.01102
# Poissons Ratio (z) = 0.12280 0.00680
#
# Static dielectric constant tensor:
#      x y z
#    x 1.901150 0.000000 0.000000 
#    y 0.000000 1.906740 0.000000 
#    z 0.000000 0.000000 1.880680 
# 
# From -- ./inp_files/21880.got.cif
#   From: 2010.05.17/outbox.cif.g08.bks.cpg/sg55_11_cif.got.tgz:21880.got - 2010.06.03 13:27:54.
