data_PCOD9427208
_publ_section_title
;
Structure prediction by ZEFSAII (Michael W. Deem and Ramdas Pophale) SiO2 
 PCOD9427208
Probable space group: P B A M
;
_chemical_formula_sum "Si O2"
_cell_formula_units_Z 56
_cell_length_a 19.144885
_cell_length_b 14.142958
_cell_length_c 9.798352
_cell_angle_alpha 90.000000
_cell_angle_beta 90.000000
_cell_angle_gamma 90.000000
_cell_volume 2653.053763
_symmetry_space_group_name_H-M "P B A M"
_symmetry_group_IT_number 55
_symmetry_cell_setting 'orthorhombic'
loop_
_space_group_symop_operation_xyz
x,y,z
-x,-y,z
1/2+x,1/2-y,-z
1/2-x,1/2+y,-z
-x,-y,-z
x,y,-z
1/2-x,1/2+y,z
1/2+x,1/2-y,z
loop_
_atom_site_type_symbol
_atom_site_label
_atom_site_fract_x
_atom_site_fract_y
_atom_site_fract_z
Si Si1 0.344533 0.238881 0.838515
Si Si2 0.930624 0.885879 0.340274
Si Si3 0.498519 0.239037 0.156385
Si Si4 0.699597 0.056236 0.345886
Si Si5 0.717841 0.284301 0.655878
Si Si6 0.927996 0.545391 0.840028
Si Si7 0.143783 0.927808 0.661502
O O1 0.421563 0.194620 0.821428
O O2 0.279736 0.192173 0.760517
O O3 0.354575 0.340367 0.764088
O O4 0.330136 0.247560 0.000000
O O5 0.948571 0.880217 0.500000
O O6 0.984949 0.825771 0.254223
O O7 0.855710 0.834515 0.320051
O O8 0.915280 0.995098 0.307670
O O9 0.556131 0.157551 0.170950
O O10 0.499255 0.272454 0.000000
O O11 0.677984 0.032620 0.500000
O O12 0.705155 0.170917 0.336062
O O13 0.641784 0.022239 0.240896
O O14 0.779421 0.024104 0.325665
O O15 0.740160 0.304975 0.500000
O O16 0.000000 0.500000 0.787992
O O17 0.920602 0.520952 0.000000
O O18 0.138265 0.899687 0.500000
#
# Coordination Sequence:
#
# PCOD9427208 Si02
#       7
#     8   8   8   8   8   8   8
#     4  10  21  36  54  78 112 151 186 223 275 329
#     4  10  20  36  59  83 108 144 186 227 280 334
#     4  10  22  38  54  78 113 148 183 228 275 328
#     4   9  17  33  54  77 105 134 171 222 272 318
#     4   9  18  34  56  80 106 138 181 231 276 325
#     4  10  21  36  54  77 108 145 181 221 273 327
#     4   9  20  37  56  81 111 141 180 232 278 321
#
# _framework density 21.107752000000001
#
# number of rings (size 3 to 8) (size 9 to 14) (size 15 to 20)
#    0.000    2.429    1.429    1.286    0.000    6.571 
#    0.000    2.857    0.000    0.000    0.000    0.000 
#    0.000    0.000    0.000    0.000    0.000    0.000 
#
# Total GULP energy -312764.891876 kJ/mol
# GULP energy per Si atom -5585.087355 kJ/mol
# Density = 2.105971 g / cm^3
# Si number density = 21.107752 Si / 1000 Ang^3
#
#
#
# Elastic Constant Matrix: (Units=GPa)
#
#
# Indices 1 2 3 4 5 6 
#
# 1 95.7564 3.3395 57.2497 0.0000 0.0000 0.0000
# 2 3.3395 41.8931 12.9923 0.0000 0.0000 0.0000
# 3 57.2497 12.9923 75.8770 0.0000 0.0000 0.0000
# 4 0.0000 0.0000 0.0000 15.1362 0.0000 0.0000
# 5 0.0000 0.0000 0.0000 0.0000 41.6806 0.0000
# 6 0.0000 0.0000 0.0000 0.0000 0.0000 35.6043
#
#
#
# Elastic Compliance Matrix: (Units=1/GPa)
#
#
# Indices 1 2 3 4 5 6 
#
# 1 0.019414 0.003163 -0.015190 0.000000 0.000000 0.000000
# 2 0.003163 0.025724 -0.006791 0.000000 0.000000 0.000000
# 3 -0.015190 -0.006791 0.025803 0.000000 0.000000 0.000000
# 4 0.000000 0.000000 0.000000 0.066067 0.000000 0.000000
# 5 0.000000 0.000000 0.000000 0.000000 0.023992 0.000000
# 6 0.000000 0.000000 0.000000 0.000000 0.000000 0.028086
#
#
# Mechanical properties :
#
#
# Convention : Reuss Voigt Hill
#
# Bulk Modulus (GPa) = 30.02505 40.07661 35.05083
# Shear Modulus (GPa) = 21.02384 27.81389 24.41887
#
# Velocity S-wave (km/s) = 3.15941 3.63397 3.40496
# Velocity P-wave (km/s) = 5.25021 6.05273 5.66569
#
# Compressibility (1/GPa) = 0.03330553
#
# Stress axis : x y z
#
# Youngs Moduli (GPa) = 51.50812 38.87367 38.75520
#
# Poissons Ratio (x) = -0.12297 0.58869
# Poissons Ratio (y) = -0.16293 0.26320
# Poissons Ratio (z) = 0.78240 0.26401
#
# Static dielectric constant tensor:
#      x y z
#    x 1.777880 0.000000 0.000000 
#    y 0.000000 1.801990 0.000000 
#    z 0.000000 0.000000 1.703100 
# 
# From -- ./inp_files/8685.got.cif
#   From: 2010.05.17/outbox.cif.g08.bks.cpg/sg55_5_cif.got.tgz:8685.got - 2010.06.03 13:27:54.
