data_PCOD9427835
_publ_section_title
;
Structure prediction by ZEFSAII (Michael W. Deem and Ramdas Pophale) SiO2 
 PCOD9427835
Probable space group: P B A M
;
_chemical_formula_sum "Si O2"
_cell_formula_units_Z 56
_cell_length_a 24.728364
_cell_length_b 13.822699
_cell_length_c 7.439313
_cell_angle_alpha 90.000000
_cell_angle_beta 90.000000
_cell_angle_gamma 90.000000
_cell_volume 2542.851903
_symmetry_space_group_name_H-M "P B A M"
_symmetry_group_IT_number 55
_symmetry_cell_setting 'orthorhombic'
loop_
_space_group_symop_operation_xyz
x,y,z
-x,-y,z
1/2+x,1/2-y,-z
1/2-x,1/2+y,-z
-x,-y,-z
x,y,-z
1/2-x,1/2+y,z
1/2+x,1/2-y,z
loop_
_atom_site_type_symbol
_atom_site_label
_atom_site_fract_x
_atom_site_fract_y
_atom_site_fract_z
Si Si1 0.055771 0.217115 0.779732
Si Si2 0.164729 0.533612 0.283720
Si Si3 0.950109 0.562958 0.786112
Si Si4 0.158377 0.752508 0.718168
Si Si5 0.731541 0.573184 0.291251
Si Si6 0.055132 0.874921 0.790386
Si Si7 0.870617 0.950456 0.782170
O O1 0.053920 0.327401 0.716646
O O2 0.108117 0.154598 0.727595
O O3 0.002043 0.160338 0.717636
O O4 0.054933 0.218084 0.000000
O O5 0.170445 0.537288 0.500000
O O6 0.106009 0.491837 0.242700
O O7 0.169545 0.644089 0.219875
O O8 0.212407 0.464789 0.212761
O O9 0.000000 0.500000 0.713329
O O10 0.958902 0.572070 0.000000
O O11 0.158672 0.754281 0.500000
O O12 0.201547 0.832183 0.784725
O O13 0.099173 0.789587 0.774645
O O14 0.741610 0.595938 0.500000
O O15 0.687472 0.487003 0.281503
O O16 0.085361 0.969815 0.717626
O O17 0.045453 0.896175 0.000000
O O18 0.869175 0.954501 0.000000
#
# Coordination Sequence:
#
# PCOD9427835 Si02
#       7
#     8   8   8   8   8   8   8
#     4   9  17  30  49  74 104 133 160 199 249 291
#     4  10  21  36  54  74  97 129 166 202 243 292
#     4  10  21  36  53  74 101 131 163 201 245 292
#     4   9  18  33  51  71  98 130 163 203 247 288
#     4   9  19  35  52  72 100 131 163 201 245 291
#     4   9  16  29  51  75  99 131 168 199 235 290
#     4   9  17  30  50  76 102 129 164 203 241 286
#
# _framework density 22.022518999999999
#
# number of rings (size 3 to 8) (size 9 to 14) (size 15 to 20)
#    0.000    2.714    0.000    1.286    0.000    5.429 
#    0.000    3.571    0.000    3.429    0.000    0.000 
#    0.000    0.000    0.000    0.000    0.000    0.000 
#
# Total GULP energy -312709.235034 kJ/mol
# GULP energy per Si atom -5584.093483 kJ/mol
# Density = 2.197239 g / cm^3
# Si number density = 22.022519 Si / 1000 Ang^3
#
#
#
# Elastic Constant Matrix: (Units=GPa)
#
#
# Indices 1 2 3 4 5 6 
#
# 1 134.4242 52.9673 -13.8799 0.0000 0.0000 0.0000
# 2 52.9673 75.4014 -5.3844 0.0000 0.0000 0.0000
# 3 -13.8799 -5.3844 66.9749 0.0000 0.0000 0.0000
# 4 0.0000 0.0000 0.0000 11.3591 0.0000 0.0000
# 5 0.0000 0.0000 0.0000 0.0000 14.3491 0.0000
# 6 0.0000 0.0000 0.0000 0.0000 0.0000 20.5504
#
#
#
# Elastic Compliance Matrix: (Units=1/GPa)
#
#
# Indices 1 2 3 4 5 6 
#
# 1 0.010451 -0.007228 0.001585 0.000000 0.000000 0.000000
# 2 -0.007228 0.018338 -0.000024 0.000000 0.000000 0.000000
# 3 0.001585 -0.000024 0.015257 0.000000 0.000000 0.000000
# 4 0.000000 0.000000 0.000000 0.088035 0.000000 0.000000
# 5 0.000000 0.000000 0.000000 0.000000 0.069691 0.000000
# 6 0.000000 0.000000 0.000000 0.000000 0.000000 0.048661
#
#
# Mechanical properties :
#
#
# Convention : Reuss Voigt Hill
#
# Bulk Modulus (GPa) = 30.56963 38.24519 34.40741
# Shear Modulus (GPa) = 18.33702 25.45821 21.89761
#
# Velocity S-wave (km/s) = 2.88870 3.40370 3.15672
# Velocity P-wave (km/s) = 5.00373 5.73158 5.37998
#
# Compressibility (1/GPa) = 0.03271220
#
# Stress axis : x y z
#
# Youngs Moduli (GPa) = 95.68505 54.53055 65.54158
#
# Poissons Ratio (x) = 0.39416 -0.10387
# Poissons Ratio (y) = 0.69164 0.00155
# Poissons Ratio (z) = -0.15164 0.00129
#
# Static dielectric constant tensor:
#      x y z
#    x 1.764720 0.000000 0.000000 
#    y 0.000000 1.802920 0.000000 
#    z 0.000000 0.000000 1.843240 
# 
# From -- ./inp_files/6014.got.cif
#   From: 2010.05.17/outbox.cif.g08.bks.cpg/sg55_4_cif.got.tgz:6014.got - 2010.06.03 13:27:54.
