data_PCOD9427571
_publ_section_title
;
Structure prediction by ZEFSAII (Michael W. Deem and Ramdas Pophale) SiO2 
 PCOD9427571
Probable space group: P B A M
;
_chemical_formula_sum "Si O2"
_cell_formula_units_Z 40
_cell_length_a 14.262503
_cell_length_b 18.905770
_cell_length_c 7.256518
_cell_angle_alpha 90.000000
_cell_angle_beta 90.000000
_cell_angle_gamma 90.000000
_cell_volume 1956.673647
_symmetry_space_group_name_H-M "P B A M"
_symmetry_group_IT_number 55
_symmetry_cell_setting 'orthorhombic'
loop_
_space_group_symop_operation_xyz
x,y,z
-x,-y,z
1/2+x,1/2-y,-z
1/2-x,1/2+y,-z
-x,-y,-z
x,y,-z
1/2-x,1/2+y,z
1/2+x,1/2-y,z
loop_
_atom_site_type_symbol
_atom_site_label
_atom_site_fract_x
_atom_site_fract_y
_atom_site_fract_z
Si Si1 0.803496 0.024026 0.221374
Si Si2 0.446118 0.110034 0.500000
Si Si3 0.060142 0.852730 0.223160
Si Si4 0.643907 0.046271 0.500000
Si Si5 0.151306 0.137358 0.776746
Si Si6 0.158358 0.708385 0.222023
O O1 0.890507 0.073928 0.274726
O O2 0.711364 0.051716 0.323544
O O3 0.821881 0.942836 0.275251
O O4 0.792669 0.026832 0.000000
O O5 0.557607 0.100004 0.500000
O O6 0.408538 0.152587 0.676653
O O7 0.400092 0.032417 0.500000
O O8 0.124243 0.786367 0.275893
O O9 0.953343 0.845516 0.287825
O O10 0.056976 0.852823 0.000000
O O11 0.235236 0.189460 0.722531
O O12 0.148757 0.138514 0.000000
O O13 0.151348 0.701625 0.000000
#
# Coordination Sequence:
#
# PCOD9427571 Si02
#       6
#     8   4   8   4   8   8
#     4  10  20  38  62  89 120 156 196 246 300 352
#     4  11  24  41  58  83 119 155 199 249 289 348
#     4   9  19  35  60  92 121 152 199 249 294 353
#     4  11  24  39  59  88 117 152 202 249 289 347
#     4   9  17  34  60  86 117 157 193 237 298 351
#     4  10  21  39  61  85 118 161 199 239 299 359
#
# _framework density 20.442857
#
# number of rings (size 3 to 8) (size 9 to 14) (size 15 to 20)
#    0.000    2.200    2.000    0.600    0.000    5.600 
#    0.000   11.000    0.000    0.000    0.000    0.000 
#    0.000    0.000    0.000    0.000    0.000    0.000 
#
# Total GULP energy -223458.162914 kJ/mol
# GULP energy per Si atom -5586.454073 kJ/mol
# Density = 2.039633 g / cm^3
# Si number density = 20.442857 Si / 1000 Ang^3
#
#
#
# Elastic Constant Matrix: (Units=GPa)
#
#
# Indices 1 2 3 4 5 6 
#
# 1 195.4769 67.8032 26.4378 0.0000 0.0000 0.0000
# 2 67.8032 65.2312 10.9180 0.0000 0.0000 0.0000
# 3 26.4378 10.9180 95.8560 0.0000 0.0000 0.0000
# 4 0.0000 0.0000 0.0000 -6.7737 0.0000 0.0000
# 5 0.0000 0.0000 0.0000 0.0000 -58.2874 0.0000
# 6 0.0000 0.0000 0.0000 0.0000 0.0000 25.6428
#
#
#
# Elastic Compliance Matrix: (Units=1/GPa)
#
#
# Indices 1 2 3 4 5 6 
#
# 1 0.008158 -0.008261 -0.001309 0.000000 0.000000 0.000000
# 2 -0.008261 0.023992 -0.000454 0.000000 0.000000 0.000000
# 3 -0.001309 -0.000454 0.010845 0.000000 0.000000 0.000000
# 4 0.000000 0.000000 0.000000 -0.147631 0.000000 0.000000
# 5 0.000000 0.000000 0.000000 0.000000 -0.017156 0.000000
# 6 0.000000 0.000000 0.000000 0.000000 0.000000 0.038997
#
#
# Mechanical properties :
#
#
# Convention : Reuss Voigt Hill
#
# Bulk Modulus (GPa) = 43.57811 62.98691 53.28251
# Shear Modulus (GPa) = -90.74942 8.87668 -40.93637
#
# Velocity S-wave (km/s) = -6.66994 2.08605 -4.47976
# Velocity P-wave (km/s) = 6.16070 6.05642 0.79810
#
# Compressibility (1/GPa) = 0.02294730
#
# Stress axis : x y z
#
# Youngs Moduli (GPa) = 122.57874 41.67982 92.20711
#
# Poissons Ratio (x) = 0.34430 0.12071
# Poissons Ratio (y) = 1.01257 0.04190
# Poissons Ratio (z) = 0.16048 0.01894
#
# Static dielectric constant tensor:
#      x y z
#    x 1.702720 0.000000 0.000000 
#    y 0.000000 1.695010 0.000000 
#    z 0.000000 0.000000 1.744350 
# 
# From -- ./inp_files/3657.got.cif
#   From: 2010.05.17/outbox.cif.g08.bks.cpg/sg55_2_cif.got.tgz:3657.got - 2010.06.03 13:27:54.
