data_PCOD9427762
_publ_section_title
;
Structure prediction by ZEFSAII (Michael W. Deem and Ramdas Pophale) SiO2 
 PCOD9427762
Probable space group: P B A M
;
_chemical_formula_sum "Si O2"
_cell_formula_units_Z 56
_cell_length_a 14.354087
_cell_length_b 24.088290
_cell_length_c 7.717058
_cell_angle_alpha 90.000000
_cell_angle_beta 90.000000
_cell_angle_gamma 90.000000
_cell_volume 2668.291726
_symmetry_space_group_name_H-M "P B A M"
_symmetry_group_IT_number 55
_symmetry_cell_setting 'orthorhombic'
loop_
_space_group_symop_operation_xyz
x,y,z
-x,-y,z
1/2+x,1/2-y,-z
1/2-x,1/2+y,-z
-x,-y,-z
x,y,-z
1/2-x,1/2+y,z
1/2+x,1/2-y,z
loop_
_atom_site_type_symbol
_atom_site_label
_atom_site_fract_x
_atom_site_fract_y
_atom_site_fract_z
Si Si1 0.784149 0.961605 0.791039
Si Si2 0.690821 0.733987 0.297956
Si Si3 0.105017 0.938710 0.800198
Si Si4 0.299781 0.869995 0.200389
Si Si5 0.901912 0.525438 0.787576
Si Si6 0.807442 0.833382 0.291108
Si Si7 0.488414 0.329092 0.296429
O O1 0.790296 0.897663 0.745428
O O2 0.869511 0.000699 0.727197
O O3 0.685441 0.987429 0.732869
O O4 0.786619 0.966899 0.000000
O O5 0.670896 0.743946 0.500000
O O6 0.771678 0.687223 0.289070
O O7 0.729907 0.790987 0.222073
O O8 0.597737 0.706113 0.220049
O O9 0.205664 0.907509 0.795631
O O10 0.036100 0.894473 0.716978
O O11 0.075316 0.944195 0.000000
O O12 0.379212 0.911415 0.269216
O O13 0.319882 0.857232 0.000000
O O14 0.000000 0.500000 0.731786
O O15 0.901501 0.526626 0.000000
O O16 0.809490 0.827051 0.500000
O O17 0.910005 0.818344 0.221507
O O18 0.492414 0.316382 0.500000
#
# Coordination Sequence:
#
# PCOD9427762 Si02
#       7
#     8   8   8   8   8   8   8
#     4   9  18  32  50  73 101 131 159 195 243 289
#     4   9  18  34  51  66  91 128 164 201 241 283
#     4   8  15  29  49  72  97 122 151 192 239 283
#     4   8  14  27  49  72  92 120 158 197 235 277
#     4   8  14  28  50  74 101 130 159 194 241 295
#     4  10  21  35  49  69  99 131 162 201 246 288
#     4   9  18  33  52  70  90 125 167 197 236 294
#
# _framework density 20.987210000000001
#
# number of rings (size 3 to 8) (size 9 to 14) (size 15 to 20)
#    0.000    3.286    0.000    1.714    0.000    2.286 
#    2.571    5.000    0.000    0.857    0.000    0.000 
#    0.000    0.000    0.000    0.000    0.000    0.000 
#
# Total GULP energy -312047.258095 kJ/mol
# GULP energy per Si atom -5572.272466 kJ/mol
# Density = 2.093944 g / cm^3
# Si number density = 20.987210 Si / 1000 Ang^3
#
#
#
# Elastic Constant Matrix: (Units=GPa)
#
#
# Indices 1 2 3 4 5 6 
#
# 1 71.8323 34.7589 4.2635 0.0000 0.0000 0.0000
# 2 34.7589 119.8752 -0.5839 0.0000 0.0000 0.0000
# 3 4.2635 -0.5839 30.0720 0.0000 0.0000 0.0000
# 4 0.0000 0.0000 0.0000 21.6308 0.0000 0.0000
# 5 0.0000 0.0000 0.0000 0.0000 8.7186 0.0000
# 6 0.0000 0.0000 0.0000 0.0000 0.0000 24.1524
#
#
#
# Elastic Compliance Matrix: (Units=1/GPa)
#
#
# Indices 1 2 3 4 5 6 
#
# 1 0.016367 -0.004757 -0.002413 0.000000 0.000000 0.000000
# 2 -0.004757 0.009726 0.000863 0.000000 0.000000 0.000000
# 3 -0.002413 0.000863 0.033612 0.000000 0.000000 0.000000
# 4 0.000000 0.000000 0.000000 0.046230 0.000000 0.000000
# 5 0.000000 0.000000 0.000000 0.000000 0.114697 0.000000
# 6 0.000000 0.000000 0.000000 0.000000 0.000000 0.041404
#
#
# Mechanical properties :
#
#
# Convention : Reuss Voigt Hill
#
# Bulk Modulus (GPa) = 21.23550 33.18402 27.20976
# Shear Modulus (GPa) = 17.22082 23.12311 20.17196
#
# Velocity S-wave (km/s) = 2.86761 3.32290 3.10361
# Velocity P-wave (km/s) = 4.59397 5.52884 5.08294
#
# Compressibility (1/GPa) = 0.04709096
#
# Stress axis : x y z
#
# Youngs Moduli (GPa) = 61.10015 102.82075 29.75099
#
# Poissons Ratio (x) = 0.48916 0.07178
# Poissons Ratio (y) = 0.29068 -0.02568
# Poissons Ratio (z) = 0.14742 -0.08877
#
# Static dielectric constant tensor:
#      x y z
#    x 1.785000 0.000000 0.000000 
#    y 0.000000 1.764890 0.000000 
#    z 0.000000 0.000000 1.789020 
# 
# From -- ./inp_files/6152.got.cif
#   From: 2010.05.17/outbox.cif.g08.bks.cpg/sg55_4_cif.got.tgz:6152.got - 2010.06.03 13:27:54.
