data_PCOD9427497
_publ_section_title
;
Structure prediction by ZEFSAII (Michael W. Deem and Ramdas Pophale) SiO2 
 PCOD9427497
Probable space group: P B A M
;
_chemical_formula_sum "Si O2"
_cell_formula_units_Z 48
_cell_length_a 9.081969
_cell_length_b 31.450859
_cell_length_c 8.417720
_cell_angle_alpha 90.000000
_cell_angle_beta 90.000000
_cell_angle_gamma 90.000000
_cell_volume 2404.401567
_symmetry_space_group_name_H-M "P B A M"
_symmetry_group_IT_number 55
_symmetry_cell_setting 'orthorhombic'
loop_
_space_group_symop_operation_xyz
x,y,z
-x,-y,z
1/2+x,1/2-y,-z
1/2-x,1/2+y,-z
-x,-y,-z
x,y,-z
1/2-x,1/2+y,z
1/2+x,1/2-y,z
loop_
_atom_site_type_symbol
_atom_site_label
_atom_site_fract_x
_atom_site_fract_y
_atom_site_fract_z
Si Si1 0.926210 0.214234 0.814725
Si Si2 0.401408 0.793752 0.313641
Si Si3 0.408982 0.127341 0.187909
Si Si4 0.578346 0.370275 0.310579
Si Si5 0.923088 0.544699 0.307977
Si Si6 0.418505 0.457207 0.306418
O O1 0.754545 0.211181 0.772817
O O2 0.002903 0.251574 0.715443
O O3 0.002713 0.169639 0.773425
O O4 0.945413 0.224141 0.000000
O O5 0.374186 0.799983 0.500000
O O6 0.491024 0.833762 0.247077
O O7 0.250922 0.128751 0.272480
O O8 0.491007 0.083671 0.230754
O O9 0.386711 0.130788 0.000000
O O10 0.556642 0.365977 0.500000
O O11 0.503468 0.414525 0.258032
O O12 0.928854 0.549867 0.500000
O O13 0.752143 0.544017 0.258862
O O14 0.000000 0.500000 0.269396
O O15 0.500000 0.500000 0.251247
O O16 0.420777 0.458137 0.500000
#
# Coordination Sequence:
#
# PCOD9427497 Si02
#       6
#     8   8   8   8   8   8
#     4  12  25  43  65  94 129 162 200 253 315 368
#     4  12  25  44  67  92 122 162 210 253 301 368
#     4  12  25  41  61  89 125 163 205 259 319 369
#     4  11  22  39  63  90 122 164 211 255 304 369
#     4  10  20  37  63  92 122 160 207 257 310 373
#     4   9  18  34  59  90 120 153 199 253 303 355
#
# _framework density 19.963388999999999
#
# number of rings (size 3 to 8) (size 9 to 14) (size 15 to 20)
#    0.000    1.000    0.000    8.000    0.000    4.333 
#    0.000    0.833    0.000    3.500    0.000    0.000 
#    0.000    0.000    0.000    0.000    0.000    0.000 
#
# Total GULP energy -268696.432766 kJ/mol
# GULP energy per Si atom -5597.842349 kJ/mol
# Density = 1.991795 g / cm^3
# Si number density = 19.963389 Si / 1000 Ang^3
#
#
#
# Elastic Constant Matrix: (Units=GPa)
#
#
# Indices 1 2 3 4 5 6 
#
# 1 122.2344 32.0939 -21.6021 0.0000 0.0000 0.0000
# 2 32.0939 114.6195 -14.0344 0.0000 0.0000 0.0000
# 3 -21.6021 -14.0344 34.7246 0.0000 0.0000 0.0000
# 4 0.0000 0.0000 0.0000 121.3733 0.0000 0.0000
# 5 0.0000 0.0000 0.0000 0.0000 -248.0991 0.0000
# 6 0.0000 0.0000 0.0000 0.0000 0.0000 39.4888
#
#
#
# Elastic Compliance Matrix: (Units=1/GPa)
#
#
# Indices 1 2 3 4 5 6 
#
# 1 0.009635 -0.002066 0.005159 0.000000 0.000000 0.000000
# 2 -0.002066 0.009622 0.002603 0.000000 0.000000 0.000000
# 3 0.005159 0.002603 0.033060 0.000000 0.000000 0.000000
# 4 0.000000 0.000000 0.000000 0.008239 0.000000 0.000000
# 5 0.000000 0.000000 0.000000 0.000000 -0.004031 0.000000
# 6 0.000000 0.000000 0.000000 0.000000 0.000000 0.025324
#
#
# Mechanical properties :
#
#
# Convention : Reuss Voigt Hill
#
# Bulk Modulus (GPa) = 15.69637 29.38814 22.54226
# Shear Modulus (GPa) = 54.52993 0.89400 27.71196
#
# Velocity S-wave (km/s) = 5.23204 0.66992 3.72982
# Velocity P-wave (km/s) = 6.66173 3.91808 5.46489
#
# Compressibility (1/GPa) = 0.06370899
#
# Stress axis : x y z
#
# Youngs Moduli (GPa) = 103.78570 103.93019 30.24840
#
# Poissons Ratio (x) = 0.21474 -0.15605
# Poissons Ratio (y) = 0.21444 -0.07875
# Poissons Ratio (z) = -0.53543 -0.27057
#
# Static dielectric constant tensor:
#      x y z
#    x 1.661290 0.000000 0.000000 
#    y 0.000000 1.662020 0.000000 
#    z 0.000000 0.000000 1.679180 
# 
# From -- ./inp_files/2760.got.cif
#   From: 2010.05.17/outbox.cif.g08.bks.cpg/sg55_2_cif.got.tgz:2760.got - 2010.06.03 13:27:54.
