data_PCOD9427134
_publ_section_title
;
Structure prediction by ZEFSAII (Michael W. Deem and Ramdas Pophale) SiO2 
 PCOD9427134
Probable space group: P B A M
;
_chemical_formula_sum "Si O2"
_cell_formula_units_Z 64
_cell_length_a 29.627183
_cell_length_b 12.879669
_cell_length_c 7.547336
_cell_angle_alpha 90.000000
_cell_angle_beta 90.000000
_cell_angle_gamma 90.000000
_cell_volume 2879.975193
_symmetry_space_group_name_H-M "P B A M"
_symmetry_group_IT_number 55
_symmetry_cell_setting 'orthorhombic'
loop_
_space_group_symop_operation_xyz
x,y,z
-x,-y,z
1/2+x,1/2-y,-z
1/2-x,1/2+y,-z
-x,-y,-z
x,y,-z
1/2-x,1/2+y,z
1/2+x,1/2-y,z
loop_
_atom_site_type_symbol
_atom_site_label
_atom_site_fract_x
_atom_site_fract_y
_atom_site_fract_z
Si Si1 0.941056 0.231417 0.204328
Si Si2 0.877974 0.832657 0.713702
Si Si3 0.341519 0.293626 0.217768
Si Si4 0.950121 0.468825 0.285458
Si Si5 0.864741 0.600783 0.285829
Si Si6 0.024178 0.101040 0.704476
Si Si7 0.700731 0.494371 0.211199
Si Si8 0.704101 0.918804 0.791604
O O1 0.893352 0.190361 0.276741
O O2 0.938101 0.355296 0.216763
O O3 0.986507 0.190643 0.293353
O O4 0.944720 0.199770 0.000000
O O5 0.880759 0.824744 0.500000
O O6 0.862168 0.719128 0.777455
O O7 0.927994 0.862720 0.780990
O O8 0.841666 0.919804 0.758471
O O9 0.311146 0.390277 0.276223
O O10 0.321573 0.183143 0.279222
O O11 0.343316 0.292198 0.000000
O O12 0.950038 0.463869 0.500000
O O13 0.912615 0.551635 0.231004
O O14 0.000000 0.500000 0.227068
O O15 0.863407 0.600976 0.500000
O O16 0.826279 0.521374 0.226297
O O17 0.034297 0.073503 0.500000
O O18 0.000000 0.000000 0.785569
O O19 0.746546 0.443832 0.284361
O O20 0.707107 0.505119 0.000000
O O21 0.709968 0.896759 0.000000
#
# Coordination Sequence:
#
# PCOD9427134 Si02
#       8
#     8   8   8   8   8   8   8   8
#     4  11  21  34  56  84 118 152 186 242 297 342
#     4  10  22  40  59  85 122 155 190 243 294 338
#     4   9  19  37  56  84 120 147 184 240 293 338
#     4  10  20  36  57  80 110 150 193 235 285 345
#     4  10  21  37  57  82 115 152 189 236 290 344
#     4  10  21  38  60  84 115 158 203 239 283 349
#     4  10  22  38  62  87 112 151 195 237 289 352
#     4  10  21  38  61  85 113 150 191 240 292 345
#
# _framework density 22.222413
#
# number of rings (size 3 to 8) (size 9 to 14) (size 15 to 20)
#    0.000    2.000    1.250    1.875    1.750    4.000 
#    0.000    2.500    0.000    0.000    0.000    0.000 
#    0.000    0.000    0.000    0.000    0.000    0.000 
#
# Total GULP energy -357657.224740 kJ/mol
# GULP energy per Si atom -5588.394137 kJ/mol
# Density = 2.217183 g / cm^3
# Si number density = 22.222413 Si / 1000 Ang^3
#
#
#
# Elastic Constant Matrix: (Units=GPa)
#
#
# Indices 1 2 3 4 5 6 
#
# 1 164.4686 51.3099 -2.1630 0.0000 0.0000 0.0000
# 2 51.3099 123.2296 -10.3673 0.0000 0.0000 0.0000
# 3 -2.1630 -10.3673 48.2542 0.0000 0.0000 0.0000
# 4 0.0000 0.0000 0.0000 12.0558 0.0000 0.0000
# 5 0.0000 0.0000 0.0000 0.0000 -7.6472 0.0000
# 6 0.0000 0.0000 0.0000 0.0000 0.0000 27.7212
#
#
#
# Elastic Compliance Matrix: (Units=1/GPa)
#
#
# Indices 1 2 3 4 5 6 
#
# 1 0.006993 -0.002938 -0.000318 0.000000 0.000000 0.000000
# 2 -0.002938 0.009499 0.001909 0.000000 0.000000 0.000000
# 3 -0.000318 0.001909 0.021120 0.000000 0.000000 0.000000
# 4 0.000000 0.000000 0.000000 0.082948 0.000000 0.000000
# 5 0.000000 0.000000 0.000000 0.000000 -0.130767 0.000000
# 6 0.000000 0.000000 0.000000 0.000000 0.000000 0.036074
#
#
# Mechanical properties :
#
#
# Convention : Reuss Voigt Hill
#
# Bulk Modulus (GPa) = 28.63925 45.94573 37.29249
# Shear Modulus (GPa) = 124.38326 26.23747 75.31037
#
# Velocity S-wave (km/s) = 7.48956 3.43982 5.82777
# Velocity P-wave (km/s) = 9.36519 6.04126 7.88047
#
# Compressibility (1/GPa) = 0.03491711
#
# Stress axis : x y z
#
# Youngs Moduli (GPa) = 143.00648 105.27422 47.34955
#
# Poissons Ratio (x) = 0.30933 0.01505
# Poissons Ratio (y) = 0.42020 -0.09040
# Poissons Ratio (z) = 0.04545 -0.20098
#
# Static dielectric constant tensor:
#      x y z
#    x 1.801110 0.000000 0.000000 
#    y 0.000000 1.788420 0.000000 
#    z 0.000000 0.000000 1.882230 
# 
# From -- ./inp_files/4677.got.cif
#   From: 2010.05.17/outbox.cif.g08.bks.cpg/sg55_3_cif.got.tgz:4677.got - 2010.06.03 13:27:54.
