data_PCOD9427017
_publ_section_title
;
Structure prediction by ZEFSAII (Michael W. Deem and Ramdas Pophale) SiO2 
 PCOD9427017
Probable space group: P B A M
;
_chemical_formula_sum "Si O2"
_cell_formula_units_Z 64
_cell_length_a 24.644603
_cell_length_b 14.441575
_cell_length_c 7.481198
_cell_angle_alpha 90.000000
_cell_angle_beta 90.000000
_cell_angle_gamma 90.000000
_cell_volume 2662.609858
_symmetry_space_group_name_H-M "P B A M"
_symmetry_group_IT_number 55
_symmetry_cell_setting 'orthorhombic'
loop_
_space_group_symop_operation_xyz
x,y,z
-x,-y,z
1/2+x,1/2-y,-z
1/2-x,1/2+y,-z
-x,-y,-z
x,y,-z
1/2-x,1/2+y,z
1/2+x,1/2-y,z
loop_
_atom_site_type_symbol
_atom_site_label
_atom_site_fract_x
_atom_site_fract_y
_atom_site_fract_z
Si Si1 0.860057 0.903518 0.711210
Si Si2 0.462931 0.919195 0.202736
Si Si3 0.755064 0.173180 0.218084
Si Si4 0.956025 0.264125 0.293333
Si Si5 0.661662 0.830304 0.782255
Si Si6 0.247294 0.529611 0.206114
Si Si7 0.631731 0.200457 0.785274
Si Si8 0.445099 0.446608 0.282171
O O1 0.853968 0.914082 0.500000
O O2 0.887996 0.804540 0.744144
O O3 0.799563 0.904387 0.789650
O O4 0.895073 0.989991 0.780519
O O5 0.499855 0.827233 0.197676
O O6 0.406908 0.881413 0.284062
O O7 0.500000 0.000000 0.286425
O O8 0.450423 0.951796 0.000000
O O9 0.801065 0.243963 0.276877
O O10 0.765400 0.068669 0.280875
O O11 0.693777 0.194705 0.277102
O O12 0.756148 0.178413 0.000000
O O13 0.973377 0.256389 0.500000
O O14 0.898851 0.317012 0.283063
O O15 0.946812 0.159934 0.222661
O O16 0.694623 0.920258 0.718268
O O17 0.660014 0.831623 0.000000
O O18 0.233427 0.511256 0.000000
O O19 0.632024 0.191486 0.000000
O O20 0.500000 0.500000 0.232912
O O21 0.442372 0.445016 0.500000
#
# Coordination Sequence:
#
# PCOD9427017 Si02
#       8
#     8   8   8   8   8   8   8   8
#     4  11  21  35  58  87 119 153 192 239 292 350
#     4  10  23  41  64  89 115 153 200 247 292 344
#     4   9  18  34  58  86 111 148 194 241 290 341
#     4  11  23  39  60  85 119 155 192 240 291 350
#     4  10  20  36  58  83 115 150 191 235 284 346
#     4  10  20  35  58  82 111 151 193 237 289 347
#     4  10  20  38  61  85 115 151 197 243 290 347
#     4   9  19  36  57  81 112 153 191 226 283 350
#
# _framework density 24.036569
#
# number of rings (size 3 to 8) (size 9 to 14) (size 15 to 20)
#    0.000    2.000    1.250    2.250    1.750    2.250 
#    0.000    2.500    0.000    4.500    0.000    0.000 
#    0.000    0.000    0.000    0.000    0.000    0.000 
#
# Total GULP energy -357776.176363 kJ/mol
# GULP energy per Si atom -5590.252756 kJ/mol
# Density = 2.398186 g / cm^3
# Si number density = 24.036569 Si / 1000 Ang^3
#
#
#
# Elastic Constant Matrix: (Units=GPa)
#
#
# Indices 1 2 3 4 5 6 
#
# 1 68.5672 -12.0413 -12.8287 0.0000 0.0000 0.0000
# 2 -12.0413 55.9148 -5.0369 0.0000 0.0000 0.0000
# 3 -12.8287 -5.0369 73.7513 0.0000 0.0000 0.0000
# 4 0.0000 0.0000 0.0000 13.5433 0.0000 0.0000
# 5 0.0000 0.0000 0.0000 0.0000 -4.7551 0.0000
# 6 0.0000 0.0000 0.0000 0.0000 0.0000 42.3317
#
#
#
# Elastic Compliance Matrix: (Units=1/GPa)
#
#
# Indices 1 2 3 4 5 6 
#
# 1 0.015790 0.003670 0.002997 0.000000 0.000000 0.000000
# 2 0.003670 0.018848 0.001926 0.000000 0.000000 0.000000
# 3 0.002997 0.001926 0.014212 0.000000 0.000000 0.000000
# 4 0.000000 0.000000 0.000000 0.073837 0.000000 0.000000
# 5 0.000000 0.000000 0.000000 0.000000 -0.210300 0.000000
# 6 0.000000 0.000000 0.000000 0.000000 0.000000 0.023623
#
#
# Mechanical properties :
#
#
# Convention : Reuss Voigt Hill
#
# Bulk Modulus (GPa) = 15.14325 15.37994 15.26160
# Shear Modulus (GPa) = -84.51007 25.43333 -29.53837
#
# Velocity S-wave (km/s) = -5.93593 3.25639 -3.50936
# Velocity P-wave (km/s) = 6.37704 4.53334 3.17139
#
# Compressibility (1/GPa) = 0.06603602
#
# Stress axis : x y z
#
# Youngs Moduli (GPa) = 63.33306 53.05539 70.36337
#
# Poissons Ratio (x) = -0.19473 -0.21089
# Poissons Ratio (y) = -0.23245 -0.13550
# Poissons Ratio (z) = -0.18982 -0.10217
#
# Static dielectric constant tensor:
#      x y z
#    x 1.877960 0.000000 0.000000 
#    y 0.000000 1.934320 0.000000 
#    z 0.000000 0.000000 1.935780 
# 
# From -- ./inp_files/9731.got.cif
#   From: 2010.05.17/outbox.cif.g08.bks.cpg/sg55_5_cif.got.tgz:9731.got - 2010.06.03 13:27:54.
