data_PCOD9427442
_publ_section_title
;
Structure prediction by ZEFSAII (Michael W. Deem and Ramdas Pophale) SiO2 
 PCOD9427442
Probable space group: P B A M
;
_chemical_formula_sum "Si O2"
_cell_formula_units_Z 48
_cell_length_a 12.147332
_cell_length_b 23.607541
_cell_length_c 8.987400
_cell_angle_alpha 90.000000
_cell_angle_beta 90.000000
_cell_angle_gamma 90.000000
_cell_volume 2577.304459
_symmetry_space_group_name_H-M "P B A M"
_symmetry_group_IT_number 55
_symmetry_cell_setting 'orthorhombic'
loop_
_space_group_symop_operation_xyz
x,y,z
-x,-y,z
1/2+x,1/2-y,-z
1/2-x,1/2+y,-z
-x,-y,-z
x,y,-z
1/2-x,1/2+y,z
1/2+x,1/2-y,z
loop_
_atom_site_type_symbol
_atom_site_label
_atom_site_fract_x
_atom_site_fract_y
_atom_site_fract_z
Si Si1 0.856489 0.774674 0.178329
Si Si2 0.580734 0.156493 0.677720
Si Si3 0.272880 0.426843 0.677528
Si Si4 0.326284 0.545870 0.824599
Si Si5 0.997105 0.872638 0.676815
Si Si6 0.654321 0.853122 0.824566
O O1 0.873785 0.713447 0.247402
O O2 0.947943 0.817949 0.241437
O O3 0.738236 0.802459 0.216338
O O4 0.864971 0.773026 0.000000
O O5 0.584628 0.162742 0.500000
O O6 0.659819 0.104150 0.718778
O O7 0.456611 0.147297 0.731811
O O8 0.272155 0.438584 0.500000
O O9 0.294688 0.484703 0.763864
O O10 0.374951 0.384527 0.705965
O O11 0.428096 0.573570 0.736718
O O12 0.225002 0.589621 0.804489
O O13 0.352476 0.544083 0.000000
O O14 0.980606 0.866841 0.500000
O O15 0.627934 0.847612 0.000000
#
# Coordination Sequence:
#
# PCOD9427442 Si02
#       6
#     8   8   8   8   8   8
#     4  10  22  40  61  86 116 151 195 244 294 348
#     4  11  24  39  58  86 118 155 197 241 291 349
#     4  10  23  39  56  86 122 154 193 239 290 346
#     4  10  21  38  61  88 117 153 196 242 292 344
#     4  10  20  37  61  88 118 155 194 239 293 347
#     4   9  21  41  60  83 115 152 194 239 291 349
#
# _framework density 18.624109000000001
#
# number of rings (size 3 to 8) (size 9 to 14) (size 15 to 20)
#    0.000    2.000    0.000    3.500    2.333    9.333 
#    0.000    3.333    0.000    0.000    0.000    0.000 
#    0.000    0.000    0.000    0.000    0.000    0.000 
#
# Total GULP energy -268210.517898 kJ/mol
# GULP energy per Si atom -5587.719123 kJ/mol
# Density = 1.858172 g / cm^3
# Si number density = 18.624109 Si / 1000 Ang^3
#
#
#
# Elastic Constant Matrix: (Units=GPa)
#
#
# Indices 1 2 3 4 5 6 
#
# 1 73.6809 -9.0067 29.8131 0.0000 0.0000 0.0000
# 2 -9.0067 20.4064 3.5952 0.0000 0.0000 0.0000
# 3 29.8131 3.5952 42.0958 0.0000 0.0000 0.0000
# 4 0.0000 0.0000 0.0000 34.1119 0.0000 0.0000
# 5 0.0000 0.0000 0.0000 0.0000 17.6074 0.0000
# 6 0.0000 0.0000 0.0000 0.0000 0.0000 6.2924
#
#
#
# Elastic Compliance Matrix: (Units=1/GPa)
#
#
# Indices 1 2 3 4 5 6 
#
# 1 0.021774 0.012515 -0.016490 0.000000 0.000000 0.000000
# 2 0.012515 0.056947 -0.013727 0.000000 0.000000 0.000000
# 3 -0.016490 -0.013727 0.036606 0.000000 0.000000 0.000000
# 4 0.000000 0.000000 0.000000 0.029315 0.000000 0.000000
# 5 0.000000 0.000000 0.000000 0.000000 0.056794 0.000000
# 6 0.000000 0.000000 0.000000 0.000000 0.000000 0.158922
#
#
# Mechanical properties :
#
#
# Convention : Reuss Voigt Hill
#
# Bulk Modulus (GPa) = 12.51192 20.55403 16.53297
# Shear Modulus (GPa) = 11.83706 19.05444 15.44575
#
# Velocity S-wave (km/s) = 2.52380 3.20207 2.88295
# Velocity P-wave (km/s) = 3.90198 4.97305 4.46972
#
# Compressibility (1/GPa) = 0.07992378
#
# Stress axis : x y z
#
# Youngs Moduli (GPa) = 45.92625 17.56034 27.31793
#
# Poissons Ratio (x) = -0.21978 0.45046
# Poissons Ratio (y) = -0.57479 0.37500
# Poissons Ratio (z) = 0.75731 0.24105
#
# Static dielectric constant tensor:
#      x y z
#    x 1.629780 0.000000 0.000000 
#    y 0.000000 1.617800 0.000000 
#    z 0.000000 0.000000 1.621710 
# 
# From -- ./inp_files/4030.got.cif
#   From: 2010.05.17/outbox.cif.g08.bks.cpg/sg55_3_cif.got.tgz:4030.got - 2010.06.03 13:27:54.
