data_PCOD9427663
_publ_section_title
;
Structure prediction by ZEFSAII (Michael W. Deem and Ramdas Pophale) SiO2 
 PCOD9427663
Probable space group: P B A M
;
_chemical_formula_sum "Si O2"
_cell_formula_units_Z 64
_cell_length_a 11.654909
_cell_length_b 25.016156
_cell_length_c 9.956490
_cell_angle_alpha 90.000000
_cell_angle_beta 90.000000
_cell_angle_gamma 90.000000
_cell_volume 2902.924397
_symmetry_space_group_name_H-M "P B A M"
_symmetry_group_IT_number 55
_symmetry_cell_setting 'orthorhombic'
loop_
_space_group_symop_operation_xyz
x,y,z
-x,-y,z
1/2+x,1/2-y,-z
1/2-x,1/2+y,-z
-x,-y,-z
x,y,-z
1/2-x,1/2+y,z
1/2+x,1/2-y,z
loop_
_atom_site_type_symbol
_atom_site_label
_atom_site_fract_x
_atom_site_fract_y
_atom_site_fract_z
Si Si1 0.164330 0.340553 0.729355
Si Si2 0.428080 0.721164 0.341704
Si Si3 0.540671 0.909074 0.156860
Si Si4 0.251653 0.173315 0.851401
Si Si5 0.032344 0.063059 0.151452
Si Si6 0.633890 0.710839 0.142101
Si Si7 0.732616 0.986371 0.160128
Si Si8 0.662348 0.577209 0.350032
O O1 0.112669 0.283470 0.681441
O O2 0.254068 0.326308 0.847575
O O3 0.253640 0.372445 0.637449
O O4 0.064661 0.382194 0.766674
O O5 0.434351 0.711543 0.500000
O O6 0.339481 0.681741 0.266358
O O7 0.547709 0.711308 0.266330
O O8 0.644405 0.867019 0.168899
O O9 0.607293 0.963515 0.194951
O O10 0.508222 0.914064 0.000000
O O11 0.313733 0.230344 0.858713
O O12 0.200151 0.163298 0.000000
O O13 0.168805 0.059674 0.174275
O O14 0.953275 0.088954 0.264954
O O15 0.005598 0.081405 0.000000
O O16 0.000000 0.000000 0.154378
O O17 0.572377 0.701960 0.000000
O O18 0.770769 0.033778 0.257922
O O19 0.734633 0.000614 0.000000
O O20 0.634975 0.557105 0.500000
#
# Coordination Sequence:
#
# PCOD9427663 Si02
#       8
#     8   8   8   8   8   8   8   8
#     4  11  24  41  59  90 126 166 206 255 310 371
#     4  11  23  40  62  88 123 162 202 250 310 378
#     4  10  20  39  65  91 120 159 207 259 310 367
#     4   9  19  37  61  88 116 148 196 253 307 362
#     4   8  16  34  59  87 118 151 196 253 310 356
#     4  10  21  38  63  90 116 150 198 256 309 363
#     4   9  20  39  64  93 125 161 206 260 316 367
#     4  11  23  39  60  89 129 171 213 255 301 362
#
# _framework density 22.046733
#
# number of rings (size 3 to 8) (size 9 to 14) (size 15 to 20)
#    0.000    2.125    1.250    2.250    0.000    9.250 
#    0.000    5.000    0.000    0.000    0.000    0.000 
#    0.000    0.000    0.000    0.000    0.000    0.000 
#
# Total GULP energy -357069.285562 kJ/mol
# GULP energy per Si atom -5579.207587 kJ/mol
# Density = 2.199655 g / cm^3
# Si number density = 22.046733 Si / 1000 Ang^3
#
#
#
# Elastic Constant Matrix: (Units=GPa)
#
#
# Indices 1 2 3 4 5 6 
#
# 1 135.3700 34.9616 70.4591 0.0000 0.0000 0.0000
# 2 34.9616 62.0368 31.4520 0.0000 0.0000 0.0000
# 3 70.4591 31.4520 168.4157 0.0000 0.0000 0.0000
# 4 0.0000 0.0000 0.0000 -3.7716 0.0000 0.0000
# 5 0.0000 0.0000 0.0000 0.0000 57.3018 0.0000
# 6 0.0000 0.0000 0.0000 0.0000 0.0000 44.3656
#
#
#
# Elastic Compliance Matrix: (Units=1/GPa)
#
#
# Indices 1 2 3 4 5 6 
#
# 1 0.010264 -0.003985 -0.003550 0.000000 0.000000 0.000000
# 2 -0.003985 0.019352 -0.001947 0.000000 0.000000 0.000000
# 3 -0.003550 -0.001947 0.007786 0.000000 0.000000 0.000000
# 4 0.000000 0.000000 0.000000 -0.265139 0.000000 0.000000
# 5 0.000000 0.000000 0.000000 0.000000 0.017451 0.000000
# 6 0.000000 0.000000 0.000000 0.000000 0.000000 0.022540
#
#
# Mechanical properties :
#
#
# Convention : Reuss Voigt Hill
#
# Bulk Modulus (GPa) = 54.23163 71.06311 62.64737
# Shear Modulus (GPa) = -30.74367 34.84249 2.04941
#
# Velocity S-wave (km/s) = -3.73832 3.97973 0.96519
# Velocity P-wave (km/s) = 2.45326 7.30894 5.45156
#
# Compressibility (1/GPa) = 0.01843942
#
# Stress axis : x y z
#
# Youngs Moduli (GPa) = 97.42817 51.67378 128.42786
#
# Poissons Ratio (x) = 0.20590 0.45591
# Poissons Ratio (y) = 0.38821 0.25005
# Poissons Ratio (z) = 0.34586 0.10061
#
# Static dielectric constant tensor:
#      x y z
#    x 1.838080 0.000000 0.000000 
#    y 0.000000 1.889000 0.000000 
#    z 0.000000 0.000000 1.833370 
# 
# From -- ./inp_files/4545.got.cif
#   From: 2010.05.17/outbox.cif.g08.bks.cpg/sg55_3_cif.got.tgz:4545.got - 2010.06.03 13:27:54.
