data_PCOD9427290
_publ_section_title
;
Structure prediction by ZEFSAII (Michael W. Deem and Ramdas Pophale) SiO2 
 PCOD9427290
Probable space group: P B A M
;
_chemical_formula_sum "Si O2"
_cell_formula_units_Z 48
_cell_length_a 31.841933
_cell_length_b 9.181800
_cell_length_c 8.473466
_cell_angle_alpha 90.000000
_cell_angle_beta 90.000000
_cell_angle_gamma 90.000000
_cell_volume 2477.355567
_symmetry_space_group_name_H-M "P B A M"
_symmetry_group_IT_number 55
_symmetry_cell_setting 'orthorhombic'
loop_
_space_group_symop_operation_xyz
x,y,z
-x,-y,z
1/2+x,1/2-y,-z
1/2-x,1/2+y,-z
-x,-y,-z
x,y,-z
1/2-x,1/2+y,z
1/2+x,1/2-y,z
loop_
_atom_site_type_symbol
_atom_site_label
_atom_site_fract_x
_atom_site_fract_y
_atom_site_fract_z
Si Si1 0.790234 0.916072 0.689464
Si Si2 0.875031 0.416524 0.189047
Si Si3 0.042601 0.418990 0.691034
Si Si4 0.374030 0.413153 0.690919
Si Si5 0.457804 0.582591 0.692668
Si Si6 0.791230 0.586343 0.189409
O O1 0.789473 0.915535 0.500000
O O2 0.790707 0.750905 0.749004
O O3 0.832368 0.000391 0.741755
O O4 0.749393 0.999904 0.750904
O O5 0.916583 0.496998 0.249389
O O6 0.873711 0.251476 0.249363
O O7 0.833527 0.503740 0.242753
O O8 0.875264 0.415614 0.000000
O O9 0.043366 0.420465 0.500000
O O10 0.042644 0.250718 0.743094
O O11 0.000000 0.500000 0.741809
O O12 0.374384 0.410295 0.500000
O O13 0.416024 0.497479 0.743367
O O14 0.500000 0.500000 0.744031
O O15 0.457972 0.582493 0.500000
O O16 0.790674 0.588296 0.000000
#
# Coordination Sequence:
#
# PCOD9427290 Si02
#       6
#     8   8   8   8   8   8
#     4  11  23  39  62  90 117 150 196 249 297 344
#     4  11  24  39  57  83 116 154 193 235 285 345
#     4  10  20  36  61  88 114 149 191 237 290 345
#     4  10  21  37  58  84 114 148 189 239 290 341
#     4   9  17  32  56  85 113 142 182 230 280 337
#     4  11  24  41  60  84 118 158 195 236 294 359
#
# _framework density 19.375498
#
# number of rings (size 3 to 8) (size 9 to 14) (size 15 to 20)
#    0.000    1.667    0.000    4.500    0.000   11.000 
#    0.000    0.833    0.000    2.000    0.000    0.000 
#    0.000    0.000    0.000    0.000    0.000    0.000 
#
# Total GULP energy -268387.316901 kJ/mol
# GULP energy per Si atom -5591.402435 kJ/mol
# Density = 1.933140 g / cm^3
# Si number density = 19.375498 Si / 1000 Ang^3
#
#
#
# Elastic Constant Matrix: (Units=GPa)
#
#
# Indices 1 2 3 4 5 6 
#
# 1 247.0976 152.8635 38.1048 0.0000 0.0000 0.0000
# 2 152.8635 246.1865 34.6699 0.0000 0.0000 0.0000
# 3 38.1048 34.6699 22.3118 0.0000 0.0000 0.0000
# 4 0.0000 0.0000 0.0000 3.9268 0.0000 0.0000
# 5 0.0000 0.0000 0.0000 0.0000 20.2419 0.0000
# 6 0.0000 0.0000 0.0000 0.0000 0.0000 47.2628
#
#
#
# Elastic Compliance Matrix: (Units=1/GPa)
#
#
# Indices 1 2 3 4 5 6 
#
# 1 0.007331 -0.003570 -0.006972 0.000000 0.000000 0.000000
# 2 -0.003570 0.006938 -0.004685 0.000000 0.000000 0.000000
# 3 -0.006972 -0.004685 0.064006 0.000000 0.000000 0.000000
# 4 0.000000 0.000000 0.000000 0.254661 0.000000 0.000000
# 5 0.000000 0.000000 0.000000 0.000000 0.049402 0.000000
# 6 0.000000 0.000000 0.000000 0.000000 0.000000 0.021158
#
#
# Mechanical properties :
#
#
# Convention : Reuss Voigt Hill
#
# Bulk Modulus (GPa) = 20.91108 107.43026 64.17067
# Shear Modulus (GPa) = 11.11381 33.61680 22.36531
#
# Velocity S-wave (km/s) = 2.39760 4.16987 3.40120
# Velocity P-wave (km/s) = 4.29891 8.87415 6.97249
#
# Compressibility (1/GPa) = 0.04782154
#
# Stress axis : x y z
#
# Youngs Moduli (GPa) = 136.41358 144.12727 15.62351
#
# Poissons Ratio (x) = 0.51452 0.10893
# Poissons Ratio (y) = 0.48698 0.07319
# Poissons Ratio (z) = 0.95112 0.67517
#
# Static dielectric constant tensor:
#      x y z
#    x 1.651920 0.000000 0.000000 
#    y 0.000000 1.657540 0.000000 
#    z 0.000000 0.000000 1.665560 
# 
# From -- ./inp_files/2900.got.cif
#   From: 2010.05.17/outbox.cif.g08.bks.cpg/sg55_2_cif.got.tgz:2900.got - 2010.06.03 13:27:54.
