data_PCOD9427011
_publ_section_title
;
Structure prediction by ZEFSAII (Michael W. Deem and Ramdas Pophale) SiO2 
 PCOD9427011
Probable space group: P B A M
;
_chemical_formula_sum "Si O2"
_cell_formula_units_Z 56
_cell_length_a 9.377710
_cell_length_b 23.044467
_cell_length_c 13.396516
_cell_angle_alpha 90.000000
_cell_angle_beta 90.000000
_cell_angle_gamma 90.000000
_cell_volume 2895.045096
_symmetry_space_group_name_H-M "P B A M"
_symmetry_group_IT_number 55
_symmetry_cell_setting 'orthorhombic'
loop_
_space_group_symop_operation_xyz
x,y,z
-x,-y,z
1/2+x,1/2-y,-z
1/2-x,1/2+y,-z
-x,-y,-z
x,y,-z
1/2-x,1/2+y,z
1/2+x,1/2-y,z
loop_
_atom_site_type_symbol
_atom_site_label
_atom_site_fract_x
_atom_site_fract_y
_atom_site_fract_z
Si Si1 0.575871 0.442358 0.193645
Si Si2 0.392535 0.140162 0.610665
Si Si3 0.339218 0.019950 0.294365
Si Si4 0.033051 0.187033 0.116399
Si Si5 0.387469 0.430437 0.615552
Si Si6 0.208873 0.318938 0.390932
Si Si7 0.702634 0.766095 0.773856
O O1 0.500000 0.500000 0.150332
O O2 0.743733 0.456042 0.202320
O O3 0.533347 0.381499 0.144467
O O4 0.517498 0.437891 0.308148
O O5 0.340746 0.157960 0.500000
O O6 0.351189 0.074206 0.631268
O O7 0.563191 0.145318 0.609452
O O8 0.344872 0.181393 0.701327
O O9 0.500000 0.000000 0.269770
O O10 0.244261 0.968982 0.343302
O O11 0.191022 0.209684 0.143000
O O12 0.922282 0.226557 0.179302
O O13 0.001289 0.193570 0.000000
O O14 0.417374 0.444009 0.500000
O O15 0.337841 0.363782 0.619815
O O16 0.219882 0.290245 0.500000
O O17 0.209714 0.274897 0.301047
#
# Coordination Sequence:
#
# PCOD9427011 Si02
#       7
#     8   8   8   8   8   8   8
#     4  10  23  42  63  89 122 162 203 259 312 368
#     4  11  22  35  58  93 131 169 201 240 300 369
#     4  11  21  35  58  89 126 166 203 243 292 358
#     4  12  26  45  69  92 117 158 212 270 322 369
#     4  10  20  35  57  87 124 163 206 247 295 361
#     4  10  20  35  59  91 128 164 200 246 302 368
#     4  12  23  44  63  92 124 160 202 260 309 376
#
# _framework density 19.343394
#
# number of rings (size 3 to 8) (size 9 to 14) (size 15 to 20)
#    0.000    1.143    5.714    1.286    0.000    4.000 
#    0.000    0.000    0.000    0.429    0.000    0.000 
#    0.000    0.000    0.000    0.000    0.000    0.000 
#
# Total GULP energy -312491.095797 kJ/mol
# GULP energy per Si atom -5580.198139 kJ/mol
# Density = 1.929937 g / cm^3
# Si number density = 19.343394 Si / 1000 Ang^3
#
#
#
# Elastic Constant Matrix: (Units=GPa)
#
#
# Indices 1 2 3 4 5 6 
#
# 1 85.8276 27.2317 22.5224 0.0000 0.0000 0.0000
# 2 27.2317 89.6013 25.5234 0.0000 0.0000 0.0000
# 3 22.5224 25.5234 81.7936 0.0000 0.0000 0.0000
# 4 0.0000 0.0000 0.0000 199.4142 0.0000 0.0000
# 5 0.0000 0.0000 0.0000 0.0000 17.3215 0.0000
# 6 0.0000 0.0000 0.0000 0.0000 0.0000 31.0571
#
#
#
# Elastic Compliance Matrix: (Units=1/GPa)
#
#
# Indices 1 2 3 4 5 6 
#
# 1 0.013400 -0.003316 -0.002655 0.000000 0.000000 0.000000
# 2 -0.003316 0.013070 -0.003165 0.000000 0.000000 0.000000
# 3 -0.002655 -0.003165 0.013945 0.000000 0.000000 0.000000
# 4 0.000000 0.000000 0.000000 0.005015 0.000000 0.000000
# 5 0.000000 0.000000 0.000000 0.000000 0.057732 0.000000
# 6 0.000000 0.000000 0.000000 0.000000 0.000000 0.032199
#
#
# Mechanical properties :
#
#
# Convention : Reuss Voigt Hill
#
# Bulk Modulus (GPa) = 45.16354 45.30863 45.23608
# Shear Modulus (GPa) = 31.05320 61.68822 46.37071
#
# Velocity S-wave (km/s) = 4.01105 5.65335 4.90147
# Velocity P-wave (km/s) = 6.69704 8.12945 7.44776
#
# Compressibility (1/GPa) = 0.02214176
#
# Stress axis : x y z
#
# Youngs Moduli (GPa) = 74.62586 76.51051 71.71190
#
# Poissons Ratio (x) = 0.25373 0.19039
# Poissons Ratio (y) = 0.24748 0.22699
# Poissons Ratio (z) = 0.19813 0.24218
#
# Static dielectric constant tensor:
#      x y z
#    x 1.696600 0.000000 0.000000 
#    y 0.000000 1.701940 0.000000 
#    z 0.000000 0.000000 1.658750 
# 
# From -- ./inp_files/17675.got.cif
#   From: 2010.05.17/outbox.cif.g08.bks.cpg/sg55_9_cif.got.tgz:17675.got - 2010.06.03 13:27:54.
