data_PCOD9427520
_publ_section_title
;
Structure prediction by ZEFSAII (Michael W. Deem and Ramdas Pophale) SiO2 
 PCOD9427520
Probable space group: P B A M
;
_chemical_formula_sum "Si O2"
_cell_formula_units_Z 36
_cell_length_a 24.638969
_cell_length_b 4.970090
_cell_length_c 14.523806
_cell_angle_alpha 90.000000
_cell_angle_beta 90.000000
_cell_angle_gamma 90.000000
_cell_volume 1778.554687
_symmetry_space_group_name_H-M "P B A M"
_symmetry_group_IT_number 55
_symmetry_cell_setting 'orthorhombic'
loop_
_space_group_symop_operation_xyz
x,y,z
-x,-y,z
1/2+x,1/2-y,-z
1/2-x,1/2+y,-z
-x,-y,-z
x,y,-z
1/2-x,1/2+y,z
1/2+x,1/2-y,z
loop_
_atom_site_type_symbol
_atom_site_label
_atom_site_fract_x
_atom_site_fract_y
_atom_site_fract_z
Si Si1 0.285409 0.752925 0.890259
Si Si2 0.785684 0.327816 0.393846
Si Si3 0.540118 0.749039 0.500000
Si Si4 0.627451 0.053704 0.250940
Si Si5 0.063006 0.917066 0.697322
O O1 0.263803 0.456968 0.866554
O O2 0.338409 0.843342 0.836052
O O3 0.293946 0.769476 0.000000
O O4 0.803594 0.365798 0.500000
O O5 0.766872 0.021015 0.381603
O O6 0.829086 0.426697 0.321121
O O7 0.500000 0.500000 0.500000
O O8 0.570794 0.717495 0.403899
O O9 0.500000 0.000000 0.500000
O O10 0.597452 0.311971 0.293551
O O11 0.584257 0.814293 0.234087
O O12 0.000000 0.000000 0.708542
#
# Coordination Sequence:
#
# PCOD9427520 Si02
#       5
#     8   8   4   8   8
#     4  10  21  39  64  93 121 148 190 246 299 355
#     4  10  21  35  51  77 114 147 182 227 280 350
#     4  10  20  38  56  76 110 152 202 250 288 320
#     4  12  22  36  62  84 114 156 197 240 291 361
#     4  11  24  38  57  83 117 155 201 253 289 335
#
# _framework density 20.241154000000002
#
# number of rings (size 3 to 8) (size 9 to 14) (size 15 to 20)
#    0.000    1.333    0.000    7.333    3.111    0.000 
#    0.000    0.000    0.000    4.000    0.000    0.000 
#    0.000    0.000    0.000    0.000    0.000    0.000 
#
# Total GULP energy -201300.205772 kJ/mol
# GULP energy per Si atom -5591.672383 kJ/mol
# Density = 2.019508 g / cm^3
# Si number density = 20.241154 Si / 1000 Ang^3
#
#
#
# Elastic Constant Matrix: (Units=GPa)
#
#
# Indices 1 2 3 4 5 6 
#
# 1 74.5992 8.1712 30.4424 0.0000 0.0000 0.0000
# 2 8.1712 82.0250 -7.8609 0.0000 0.0000 0.0000
# 3 30.4424 -7.8609 37.9281 0.0000 0.0000 0.0000
# 4 0.0000 0.0000 0.0000 18.7568 0.0000 0.0000
# 5 0.0000 0.0000 0.0000 0.0000 25.2619 0.0000
# 6 0.0000 0.0000 0.0000 0.0000 0.0000 45.0957
#
#
#
# Elastic Compliance Matrix: (Units=1/GPa)
#
#
# Indices 1 2 3 4 5 6 
#
# 1 0.021027 -0.003787 -0.017662 0.000000 0.000000 0.000000
# 2 -0.003787 0.013121 0.005759 0.000000 0.000000 0.000000
# 3 -0.017662 0.005759 0.041736 0.000000 0.000000 0.000000
# 4 0.000000 0.000000 0.000000 0.053314 0.000000 0.000000
# 5 0.000000 0.000000 0.000000 0.000000 0.039585 0.000000
# 6 0.000000 0.000000 0.000000 0.000000 0.000000 0.022175
#
#
# Mechanical properties :
#
#
# Convention : Reuss Voigt Hill
#
# Bulk Modulus (GPa) = 22.47047 28.45085 25.46066
# Shear Modulus (GPa) = 21.08162 28.74285 24.91223
#
# Velocity S-wave (km/s) = 3.23076 3.77240 3.51204
# Velocity P-wave (km/s) = 5.00426 5.74988 5.38998
#
# Compressibility (1/GPa) = 0.04450285
#
# Stress axis : x y z
#
# Youngs Moduli (GPa) = 47.55686 76.21584 23.96030
#
# Poissons Ratio (x) = 0.28866 0.42319
# Poissons Ratio (y) = 0.18012 -0.13799
# Poissons Ratio (z) = 0.83996 -0.43894
#
# Static dielectric constant tensor:
#      x y z
#    x 1.726460 0.000000 0.000000 
#    y 0.000000 1.707150 0.000000 
#    z 0.000000 0.000000 1.764600 
# 
# From -- ./inp_files/16490.got.cif
#   From: 2010.05.17/outbox.cif.g08.bks.cpg/sg55_9_cif.got.tgz:16490.got - 2010.06.03 13:27:54.
