data_PCOD9427726
_publ_section_title
;
Structure prediction by ZEFSAII (Michael W. Deem and Ramdas Pophale) SiO2 
 PCOD9427726
Probable space group: P B A M
;
_chemical_formula_sum "Si O2"
_cell_formula_units_Z 38
_cell_length_a 18.006361
_cell_length_b 7.568826
_cell_length_c 10.483095
_cell_angle_alpha 90.000000
_cell_angle_beta 90.000000
_cell_angle_gamma 90.000000
_cell_volume 1428.709708
_symmetry_space_group_name_H-M "P B A M"
_symmetry_group_IT_number 55
_symmetry_cell_setting 'orthorhombic'
loop_
_space_group_symop_operation_xyz
x,y,z
-x,-y,z
1/2+x,1/2-y,-z
1/2-x,1/2+y,-z
-x,-y,-z
x,y,-z
1/2-x,1/2+y,z
1/2+x,1/2-y,z
loop_
_atom_site_type_symbol
_atom_site_label
_atom_site_fract_x
_atom_site_fract_y
_atom_site_fract_z
Si Si1 0.000000 0.500000 0.229555
Si Si2 0.223438 0.381734 0.276863
Si Si3 0.583465 0.342817 0.753065
Si Si4 0.863780 0.306981 0.636462
Si Si5 0.728209 0.151626 0.000000
Si Si6 0.000000 0.000000 0.500000
Si Si7 0.125892 0.995158 0.000000
O O1 0.046611 0.331983 0.178749
O O2 0.063877 0.609463 0.302403
O O3 0.167633 0.215855 0.281186
O O4 0.308176 0.330960 0.300502
O O5 0.190779 0.525334 0.370366
O O6 0.213429 0.448188 0.131856
O O7 0.545564 0.393817 0.618967
O O8 0.583327 0.488725 0.865899
O O9 0.888752 0.230865 0.500000
O O10 0.679357 0.328997 0.000000
O O11 0.817936 0.169820 0.000000
#
# Coordination Sequence:
#
# PCOD9427726 Si02
#       7
#     4   8   8   8   4   2   4
#     4  10  25  45  66  98 144 192 226 288 372 438
#     4  10  22  41  67  98 129 177 231 294 352 422
#     4  10  25  45  70 101 144 192 238 302 367 439
#     4  11  23  39  64  97 135 174 230 285 345 429
#     4  10  20  42  70 101 144 173 229 306 364 414
#     4  12  28  44  68 100 156 198 248 304 380 420
#     4  10  22  46  74 106 148 184 243 302 368 439
#
# _framework density 26.597425999999999
#
# number of rings (size 3 to 8) (size 9 to 14) (size 15 to 20)
#    0.000    1.684    0.000    3.474    8.842    4.211 
#    0.000    2.105    0.000    0.000    0.000    0.000 
#    0.000    0.000    0.000    0.000    0.000    0.000 
#
# Total GULP energy -211687.265115 kJ/mol
# GULP energy per Si atom -5570.717503 kJ/mol
# Density = 2.653689 g / cm^3
# Si number density = 26.597426 Si / 1000 Ang^3
#
#
#
# Elastic Constant Matrix: (Units=GPa)
#
#
# Indices 1 2 3 4 5 6 
#
# 1 144.8251 25.4132 21.3137 0.0000 0.0000 0.0000
# 2 25.4132 89.5676 18.4230 0.0000 0.0000 0.0000
# 3 21.3137 18.4230 149.8455 0.0000 0.0000 0.0000
# 4 0.0000 0.0000 0.0000 58.6734 0.0000 0.0000
# 5 0.0000 0.0000 0.0000 0.0000 7.7507 0.0000
# 6 0.0000 0.0000 0.0000 0.0000 0.0000 66.8549
#
#
#
# Elastic Compliance Matrix: (Units=1/GPa)
#
#
# Indices 1 2 3 4 5 6 
#
# 1 0.007361 -0.001922 -0.000811 0.000000 0.000000 0.000000
# 2 -0.001922 0.011956 -0.001197 0.000000 0.000000 0.000000
# 3 -0.000811 -0.001197 0.006936 0.000000 0.000000 0.000000
# 4 0.000000 0.000000 0.000000 0.017043 0.000000 0.000000
# 5 0.000000 0.000000 0.000000 0.000000 0.129020 0.000000
# 6 0.000000 0.000000 0.000000 0.000000 0.000000 0.014958
#
#
# Mechanical properties :
#
#
# Convention : Reuss Voigt Hill
#
# Bulk Modulus (GPa) = 54.36252 57.17087 55.76670
# Shear Modulus (GPa) = 24.84284 47.92838 36.38561
#
# Velocity S-wave (km/s) = 3.05951 4.24959 3.70268
# Velocity P-wave (km/s) = 5.74144 6.75428 6.26835
#
# Compressibility (1/GPa) = 0.01839503
#
# Stress axis : x y z
#
# Youngs Moduli (GPa) = 135.84287 83.63871 144.17574
#
# Poissons Ratio (x) = 0.16075 0.11690
# Poissons Ratio (y) = 0.26108 0.17252
# Poissons Ratio (z) = 0.11014 0.10008
#
# Static dielectric constant tensor:
#      x y z
#    x 2.510760 0.000000 0.000000 
#    y 0.000000 2.141030 0.000000 
#    z 0.000000 0.000000 2.104760 
# 
# From -- ./inp_files/14696.got.cif
#   From: 2010.05.17/outbox.cif.g08.bks.cpg/sg55_8_cif.got.tgz:14696.got - 2010.06.03 13:27:54.
