data_PCOD9427438
_publ_section_title
;
Structure prediction by ZEFSAII (Michael W. Deem and Ramdas Pophale) SiO2 
 PCOD9427438
Probable space group: P B A M
;
_chemical_formula_sum "Si O2"
_cell_formula_units_Z 58
_cell_length_a 7.909648
_cell_length_b 24.479017
_cell_length_c 14.059968
_cell_angle_alpha 90.000000
_cell_angle_beta 90.000000
_cell_angle_gamma 90.000000
_cell_volume 2722.296739
_symmetry_space_group_name_H-M "P B A M"
_symmetry_group_IT_number 55
_symmetry_cell_setting 'orthorhombic'
loop_
_space_group_symop_operation_xyz
x,y,z
-x,-y,z
1/2+x,1/2-y,-z
1/2-x,1/2+y,-z
-x,-y,-z
x,y,-z
1/2-x,1/2+y,z
1/2+x,1/2-y,z
loop_
_atom_site_type_symbol
_atom_site_label
_atom_site_fract_x
_atom_site_fract_y
_atom_site_fract_z
Si Si1 0.888492 0.725212 0.892293
Si Si2 0.752519 0.337141 0.105418
Si Si3 0.221513 0.776581 0.689347
Si Si4 0.000000 0.500000 0.500000
Si Si5 0.219831 0.586370 0.281751
Si Si6 0.049127 0.670562 0.611718
Si Si7 0.808164 0.018742 0.352225
Si Si8 0.462667 0.372052 0.613084
O O1 0.892441 0.791143 0.888515
O O2 0.782106 0.712852 0.797212
O O3 0.070310 0.696436 0.884598
O O4 0.822254 0.712444 0.000000
O O5 0.743532 0.381808 0.185759
O O6 0.750308 0.361081 0.000000
O O7 0.173663 0.714654 0.662332
O O8 0.368194 0.800696 0.622534
O O9 0.062977 0.814070 0.662417
O O10 0.151034 0.492883 0.579614
O O11 0.054681 0.613727 0.329595
O O12 0.255798 0.522417 0.267740
O O13 0.353556 0.605563 0.361944
O O14 0.085982 0.662491 0.500000
O O15 0.835136 0.083231 0.342474
O O16 0.000000 0.000000 0.384197
O O17 0.436907 0.369164 0.500000
#
# Coordination Sequence:
#
# PCOD9427438 Si02
#       8
#     8   8   8   2   8   8   8   8
#     4  10  20  37  61  87 119 154 203 261 308 366
#     4  10  21  39  61  90 120 159 205 257 321 380
#     4  12  23  39  55  84 123 159 204 246 307 383
#     4  12  22  36  72  86 122 168 218 268 304 376
#     4  11  23  39  62  86 120 160 200 264 315 366
#     4  12  24  35  54  84 121 163 200 242 303 379
#     4  10  25  41  61  92 126 160 219 264 314 365
#     4  11  24  41  60  84 124 168 207 258 308 367
#
# _framework density 21.305540000000001
#
# number of rings (size 3 to 8) (size 9 to 14) (size 15 to 20)
#    0.000    1.103    3.448    2.690    7.724    0.000 
#    0.000    0.000    0.000    4.552    0.000    2.414 
#    0.000    0.000    0.000    0.000    0.000    0.138 
#
# Total GULP energy -323089.437208 kJ/mol
# GULP energy per Si atom -5570.507538 kJ/mol
# Density = 2.125705 g / cm^3
# Si number density = 21.305540 Si / 1000 Ang^3
#
#
#
# Elastic Constant Matrix: (Units=GPa)
#
#
# Indices 1 2 3 4 5 6 
#
# 1 76.0580 -10.8276 -9.8775 0.0000 0.0000 0.0000
# 2 -10.8276 49.8306 36.7011 0.0000 0.0000 0.0000
# 3 -9.8775 36.7011 123.0754 0.0000 0.0000 0.0000
# 4 0.0000 0.0000 0.0000 36.1796 0.0000 0.0000
# 5 0.0000 0.0000 0.0000 0.0000 24.8301 0.0000
# 6 0.0000 0.0000 0.0000 0.0000 0.0000 20.9920
#
#
#
# Elastic Compliance Matrix: (Units=1/GPa)
#
#
# Indices 1 2 3 4 5 6 
#
# 1 0.013574 0.002751 0.000269 0.000000 0.000000 0.000000
# 2 0.002751 0.026274 -0.007614 0.000000 0.000000 0.000000
# 3 0.000269 -0.007614 0.010417 0.000000 0.000000 0.000000
# 4 0.000000 0.000000 0.000000 0.027640 0.000000 0.000000
# 5 0.000000 0.000000 0.000000 0.000000 0.040274 0.000000
# 6 0.000000 0.000000 0.000000 0.000000 0.000000 0.047637
#
#
# Mechanical properties :
#
#
# Convention : Reuss Voigt Hill
#
# Bulk Modulus (GPa) = 24.34379 31.21733 27.78056
# Shear Modulus (GPa) = 26.49764 31.93153 29.21459
#
# Velocity S-wave (km/s) = 3.53044 3.87556 3.70702
# Velocity P-wave (km/s) = 5.29806 5.89157 5.60268
#
# Compressibility (1/GPa) = 0.04107824
#
# Stress axis : x y z
#
# Youngs Moduli (GPa) = 73.66757 38.06090 95.99529
#
# Poissons Ratio (x) = -0.10472 -0.02582
# Poissons Ratio (y) = -0.20270 0.73091
# Poissons Ratio (z) = -0.01981 0.28980
#
# Static dielectric constant tensor:
#      x y z
#    x 1.858600 0.000000 0.000000 
#    y 0.000000 1.847110 0.000000 
#    z 0.000000 0.000000 1.745070 
# 
# From -- ./inp_files/17770.got.cif
#   From: 2010.05.17/outbox.cif.g08.bks.cpg/sg55_9_cif.got.tgz:17770.got - 2010.06.03 13:27:54.
