data_PCOD9427786
_publ_section_title
;
Structure prediction by ZEFSAII (Michael W. Deem and Ramdas Pophale) SiO2 
 PCOD9427786
Probable space group: P B A M
;
_chemical_formula_sum "Si O2"
_cell_formula_units_Z 48
_cell_length_a 7.876308
_cell_length_b 16.679464
_cell_length_c 15.405041
_cell_angle_alpha 90.000000
_cell_angle_beta 90.000000
_cell_angle_gamma 90.000000
_cell_volume 2023.800224
_symmetry_space_group_name_H-M "P B A M"
_symmetry_group_IT_number 55
_symmetry_cell_setting 'orthorhombic'
loop_
_space_group_symop_operation_xyz
x,y,z
-x,-y,z
1/2+x,1/2-y,-z
1/2-x,1/2+y,-z
-x,-y,-z
x,y,-z
1/2-x,1/2+y,z
1/2+x,1/2-y,z
loop_
_atom_site_type_symbol
_atom_site_label
_atom_site_fract_x
_atom_site_fract_y
_atom_site_fract_z
Si Si1 0.763740 0.471228 0.155690
Si Si2 0.580485 0.628917 0.152658
Si Si3 0.606645 0.823496 0.401671
Si Si4 0.408375 0.120740 0.000000
Si Si5 0.689839 0.987393 0.641984
Si Si6 0.243781 0.842516 0.663197
Si Si7 0.562896 0.274653 0.000000
O O1 0.696204 0.555687 0.118965
O O2 0.600896 0.413495 0.168180
O O3 0.822107 0.485935 0.253542
O O4 0.888518 0.430061 0.087664
O O5 0.662844 0.659554 0.241380
O O6 0.541631 0.697463 0.084328
O O7 0.541730 0.828497 0.500000
O O8 0.736971 0.897635 0.387286
O O9 0.682456 0.736039 0.386626
O O10 0.448800 0.836658 0.336652
O O11 0.567679 0.179338 0.000000
O O12 0.238695 0.177154 0.000000
O O13 0.500000 0.000000 0.605120
O O14 0.793645 0.068789 0.623394
#
# Coordination Sequence:
#
# PCOD9427786 Si02
#       7
#     8   8   8   4   8   8   4
#     4   9  18  37  59  83 115 158 207 242 297 355
#     4   9  19  36  61  84 115 158 200 250 293 359
#     4  11  24  41  64  90 121 161 203 254 317 378
#     4  10  21  35  54  83 120 162 196 251 291 358
#     4   9  21  41  62  91 122 163 205 254 311 368
#     4  10  23  40  63  92 122 158 205 253 308 369
#     4  10  21  35  53  86 117 155 198 239 299 346
#
# _framework density 23.717756000000001
#
# number of rings (size 3 to 8) (size 9 to 14) (size 15 to 20)
#    0.000    2.333    0.000    1.000    4.667    7.000 
#    6.000    0.417    0.000    2.000    0.000    0.000 
#    0.000    0.000    0.000    0.000    0.000    0.000 
#
# Total GULP energy -268236.291028 kJ/mol
# GULP energy per Si atom -5588.256063 kJ/mol
# Density = 2.366377 g / cm^3
# Si number density = 23.717756 Si / 1000 Ang^3
#
#
#
# Elastic Constant Matrix: (Units=GPa)
#
#
# Indices 1 2 3 4 5 6 
#
# 1 57.9873 37.9566 9.2237 0.0000 0.0000 0.0000
# 2 37.9566 172.0827 53.1176 0.0000 0.0000 0.0000
# 3 9.2237 53.1176 63.6443 0.0000 0.0000 0.0000
# 4 0.0000 0.0000 0.0000 -32.5874 0.0000 0.0000
# 5 0.0000 0.0000 0.0000 0.0000 21.2144 0.0000
# 6 0.0000 0.0000 0.0000 0.0000 0.0000 38.8426
#
#
#
# Elastic Compliance Matrix: (Units=1/GPa)
#
#
# Indices 1 2 3 4 5 6 
#
# 1 0.020209 -0.004787 0.001066 0.000000 0.000000 0.000000
# 2 -0.004787 0.008961 -0.006786 0.000000 0.000000 0.000000
# 3 0.001066 -0.006786 0.021221 0.000000 0.000000 0.000000
# 4 0.000000 0.000000 0.000000 -0.030687 0.000000 0.000000
# 5 0.000000 0.000000 0.000000 0.000000 0.047138 0.000000
# 6 0.000000 0.000000 0.000000 0.000000 0.000000 0.025745
#
#
# Mechanical properties :
#
#
# Convention : Reuss Voigt Hill
#
# Bulk Modulus (GPa) = 34.03767 54.92336 44.48052
# Shear Modulus (GPa) = 40.52113 18.38834 29.45474
#
# Velocity S-wave (km/s) = 4.13785 2.78744 3.52786
# Velocity P-wave (km/s) = 6.10011 5.79371 5.94888
#
# Compressibility (1/GPa) = 0.02937921
#
# Stress axis : x y z
#
# Youngs Moduli (GPa) = 49.48359 111.58875 47.12302
#
# Poissons Ratio (x) = 0.53413 -0.05024
# Poissons Ratio (y) = 0.23686 0.31976
# Poissons Ratio (z) = -0.05275 0.75719
#
# Static dielectric constant tensor:
#      x y z
#    x 1.921310 0.000000 0.000000 
#    y 0.000000 1.954630 0.000000 
#    z 0.000000 0.000000 1.823790 
# 
# From -- ./inp_files/17384.got.cif
#   From: 2010.05.17/outbox.cif.g08.bks.cpg/sg55_9_cif.got.tgz:17384.got - 2010.06.03 13:27:54.
