data_PCOD9427004
_publ_section_title
;
Structure prediction by ZEFSAII (Michael W. Deem and Ramdas Pophale) SiO2 
 PCOD9427004
Probable space group: P B A M
;
_chemical_formula_sum "Si O2"
_cell_formula_units_Z 52
_cell_length_a 29.162781
_cell_length_b 9.677642
_cell_length_c 7.404082
_cell_angle_alpha 90.000000
_cell_angle_beta 90.000000
_cell_angle_gamma 90.000000
_cell_volume 2089.631512
_symmetry_space_group_name_H-M "P B A M"
_symmetry_group_IT_number 55
_symmetry_cell_setting 'orthorhombic'
loop_
_space_group_symop_operation_xyz
x,y,z
-x,-y,z
1/2+x,1/2-y,-z
1/2-x,1/2+y,-z
-x,-y,-z
x,y,-z
1/2-x,1/2+y,z
1/2+x,1/2-y,z
loop_
_atom_site_type_symbol
_atom_site_label
_atom_site_fract_x
_atom_site_fract_y
_atom_site_fract_z
Si Si1 0.727019 0.121214 0.500000
Si Si2 0.454418 0.581708 0.217667
Si Si3 0.137627 0.404208 0.701799
Si Si4 0.006168 0.656368 0.220806
Si Si5 0.354313 0.599808 0.293393
Si Si6 0.605547 0.805823 0.203986
Si Si7 0.302805 0.334801 0.206408
O O1 0.690623 0.064063 0.344250
O O2 0.761198 0.180213 0.658263
O O3 0.500000 0.500000 0.272839
O O4 0.465673 0.739847 0.268909
O O5 0.405366 0.536778 0.292095
O O6 0.451287 0.570787 0.000000
O O7 0.116089 0.392631 0.500000
O O8 0.139033 0.252105 0.787200
O O9 0.113290 0.528981 0.800081
O O10 0.055302 0.714580 0.283903
O O11 0.000000 0.500000 0.281334
O O12 0.008210 0.654971 0.000000
O O13 0.337520 0.624634 0.500000
O O14 0.318642 0.495793 0.207297
O O15 0.651709 0.741887 0.282005
O O16 0.603818 0.749125 0.000000
O O17 0.293809 0.290079 0.000000
#
# Coordination Sequence:
#
# PCOD9427004 Si02
#       7
#     4   8   8   8   8   8   8
#     4  10  24  46  68  92 128 164 208 268 322 384
#     4  10  20  35  57  85 123 165 211 262 305 360
#     4   9  23  40  62  85 124 163 202 259 327 372
#     4   9  17  31  54  84 120 160 203 255 305 358
#     4  11  22  40  61  92 127 171 211 258 317 380
#     4  10  21  38  62  94 123 162 215 257 313 382
#     4  11  24  41  66  96 127 165 212 261 320 387
#
# _framework density 24.884768999999999
#
# number of rings (size 3 to 8) (size 9 to 14) (size 15 to 20)
#    0.462    1.538    0.769    2.308    1.077    8.308 
#    0.000    2.308    0.000    2.769    0.000    0.000 
#    0.000    0.000    0.000    0.000    0.000    0.000 
#
# Total GULP energy -289562.103824 kJ/mol
# GULP energy per Si atom -5568.501997 kJ/mol
# Density = 2.482813 g / cm^3
# Si number density = 24.884769 Si / 1000 Ang^3
#
#
#
# Elastic Constant Matrix: (Units=GPa)
#
#
# Indices 1 2 3 4 5 6 
#
# 1 79.8459 -22.8177 12.1962 0.0000 0.0000 0.0000
# 2 -22.8177 69.6823 -6.4620 0.0000 0.0000 0.0000
# 3 12.1962 -6.4620 103.4460 0.0000 0.0000 0.0000
# 4 0.0000 0.0000 0.0000 28.9032 0.0000 0.0000
# 5 0.0000 0.0000 0.0000 0.0000 38.1189 0.0000
# 6 0.0000 0.0000 0.0000 0.0000 0.0000 14.8044
#
#
#
# Elastic Compliance Matrix: (Units=1/GPa)
#
#
# Indices 1 2 3 4 5 6 
#
# 1 0.014008 0.004460 -0.001373 0.000000 0.000000 0.000000
# 2 0.004460 0.015854 0.000465 0.000000 0.000000 0.000000
# 3 -0.001373 0.000465 0.009858 0.000000 0.000000 0.000000
# 4 0.000000 0.000000 0.000000 0.034598 0.000000 0.000000
# 5 0.000000 0.000000 0.000000 0.000000 0.026234 0.000000
# 6 0.000000 0.000000 0.000000 0.000000 0.000000 0.067548
#
#
# Mechanical properties :
#
#
# Convention : Reuss Voigt Hill
#
# Bulk Modulus (GPa) = 21.35697 24.31188 22.83443
# Shear Modulus (GPa) = 28.31179 34.36914 31.34047
#
# Velocity S-wave (km/s) = 3.37666 3.72039 3.55269
# Velocity P-wave (km/s) = 4.87888 5.31470 5.10145
#
# Compressibility (1/GPa) = 0.04682311
#
# Stress axis : x y z
#
# Youngs Moduli (GPa) = 71.38618 63.07436 101.44275
#
# Poissons Ratio (x) = -0.28130 0.13928
# Poissons Ratio (y) = -0.31836 -0.04713
# Poissons Ratio (z) = 0.09801 -0.02930
#
# Static dielectric constant tensor:
#      x y z
#    x 1.964290 0.000000 0.000000 
#    y 0.000000 2.053480 0.000000 
#    z 0.000000 0.000000 2.149420 
# 
# From -- ./inp_files/10131.got.cif
#   From: 2010.05.17/outbox.cif.g08.bks.cpg/sg55_6_cif.got.tgz:10131.got - 2010.06.03 13:27:54.
