data_PCOD9427756
_publ_section_title
;
Structure prediction by ZEFSAII (Michael W. Deem and Ramdas Pophale) SiO2 
 PCOD9427756
Probable space group: P B A M
;
_chemical_formula_sum "Si O2"
_cell_formula_units_Z 64
_cell_length_a 18.314816
_cell_length_b 11.761433
_cell_length_c 14.198433
_cell_angle_alpha 90.000000
_cell_angle_beta 90.000000
_cell_angle_gamma 90.000000
_cell_volume 3058.462889
_symmetry_space_group_name_H-M "P B A M"
_symmetry_group_IT_number 55
_symmetry_cell_setting 'orthorhombic'
loop_
_space_group_symop_operation_xyz
x,y,z
-x,-y,z
1/2+x,1/2-y,-z
1/2-x,1/2+y,-z
-x,-y,-z
x,y,-z
1/2-x,1/2+y,z
1/2+x,1/2-y,z
loop_
_atom_site_type_symbol
_atom_site_label
_atom_site_fract_x
_atom_site_fract_y
_atom_site_fract_z
Si Si1 0.903714 0.627758 0.389219
Si Si2 0.131692 0.636270 0.393278
Si Si3 0.694619 0.335497 0.603474
Si Si4 0.865444 0.949386 0.785102
Si Si5 0.380964 0.284264 0.788054
Si Si6 0.037428 0.260808 0.203342
Si Si7 0.418114 0.970219 0.888052
Si Si8 0.281206 0.123965 0.887402
O O1 0.926531 0.636339 0.500000
O O2 0.892753 0.493455 0.369769
O O3 0.829505 0.703807 0.380605
O O4 0.954289 0.686490 0.309528
O O5 0.105981 0.660587 0.500000
O O6 0.219590 0.642763 0.394617
O O7 0.112941 0.729709 0.315609
O O8 0.666549 0.365092 0.500000
O O9 0.659138 0.413868 0.680974
O O10 0.933231 0.866607 0.803427
O O11 0.796473 0.917910 0.850735
O O12 0.882471 0.081147 0.789312
O O13 0.455201 0.238110 0.835655
O O14 0.307939 0.239951 0.838440
O O15 0.089840 0.340060 0.141702
O O16 0.500000 0.000000 0.850620
O O17 0.347395 0.039836 0.855778
O O18 0.420595 0.983647 0.000000
O O19 0.281183 0.133213 0.000000
#
# Coordination Sequence:
#
# PCOD9427756 Si02
#       8
#     8   8   8   8   8   8   8   8
#     4   9  20  37  58  89 132 171 213 266 317 368
#     4  10  21  34  59  97 130 166 215 270 323 373
#     4   9  19  36  59  89 127 170 211 259 316 372
#     4  11  26  42  64  93 133 172 215 260 316 383
#     4  12  25  42  64  93 132 171 213 258 316 387
#     4  11  24  42  66  92 129 175 214 258 316 379
#     4  10  21  40  67  96 123 157 205 263 322 377
#     4  11  25  44  67  97 125 158 208 270 331 385
#
# _framework density 20.925543000000001
#
# number of rings (size 3 to 8) (size 9 to 14) (size 15 to 20)
#    0.000    1.625    2.500    1.125    3.500    2.000 
#    0.000    1.250    0.000    6.000    0.000    0.000 
#    0.000    0.000    0.000    0.000    0.000    0.000 
#
# Total GULP energy -357190.293794 kJ/mol
# GULP energy per Si atom -5581.098341 kJ/mol
# Density = 2.087792 g / cm^3
# Si number density = 20.925543 Si / 1000 Ang^3
#
#
#
# Elastic Constant Matrix: (Units=GPa)
#
#
# Indices 1 2 3 4 5 6 
#
# 1 62.5665 8.8589 11.4929 0.0000 0.0000 0.0000
# 2 8.8589 104.9300 5.4119 0.0000 0.0000 0.0000
# 3 11.4929 5.4119 38.5664 0.0000 0.0000 0.0000
# 4 0.0000 0.0000 0.0000 14.2156 0.0000 0.0000
# 5 0.0000 0.0000 0.0000 0.0000 10.5205 0.0000
# 6 0.0000 0.0000 0.0000 0.0000 0.0000 16.3241
#
#
#
# Elastic Compliance Matrix: (Units=1/GPa)
#
#
# Indices 1 2 3 4 5 6 
#
# 1 0.017054 -0.001186 -0.004916 0.000000 0.000000 0.000000
# 2 -0.001186 0.009682 -0.001005 0.000000 0.000000 0.000000
# 3 -0.004916 -0.001005 0.027535 0.000000 0.000000 0.000000
# 4 0.000000 0.000000 0.000000 0.070345 0.000000 0.000000
# 5 0.000000 0.000000 0.000000 0.000000 0.095053 0.000000
# 6 0.000000 0.000000 0.000000 0.000000 0.000000 0.061259
#
#
# Mechanical properties :
#
#
# Convention : Reuss Voigt Hill
#
# Bulk Modulus (GPa) = 24.96435 28.62117 26.79276
# Shear Modulus (GPa) = 16.20773 20.23199 18.21986
#
# Velocity S-wave (km/s) = 2.78608 3.11280 2.95396
# Velocity P-wave (km/s) = 4.72288 5.16011 4.94633
#
# Compressibility (1/GPa) = 0.04005711
#
# Stress axis : x y z
#
# Youngs Moduli (GPa) = 58.63758 103.28277 36.31713
#
# Poissons Ratio (x) = 0.12252 0.17852
# Poissons Ratio (y) = 0.06956 0.03650
# Poissons Ratio (z) = 0.28824 0.10382
#
# Static dielectric constant tensor:
#      x y z
#    x 1.772670 0.000000 0.000000 
#    y 0.000000 1.771660 0.000000 
#    z 0.000000 0.000000 1.774960 
# 
# From -- ./inp_files/19527.got.cif
#   From: 2010.05.17/outbox.cif.g08.bks.cpg/sg55_10_cif.got.tgz:19527.got - 2010.06.03 13:27:54.
