data_PCOD9427000
_publ_section_title
;
Structure prediction by ZEFSAII (Michael W. Deem and Ramdas Pophale) SiO2 
 PCOD9427000
Probable space group: P B A M
;
_chemical_formula_sum "Si O2"
_cell_formula_units_Z 64
_cell_length_a 13.071619
_cell_length_b 27.006798
_cell_length_c 9.390824
_cell_angle_alpha 90.000000
_cell_angle_beta 90.000000
_cell_angle_gamma 90.000000
_cell_volume 3315.172859
_symmetry_space_group_name_H-M "P B A M"
_symmetry_group_IT_number 55
_symmetry_cell_setting 'orthorhombic'
loop_
_space_group_symop_operation_xyz
x,y,z
-x,-y,z
1/2+x,1/2-y,-z
1/2-x,1/2+y,-z
-x,-y,-z
x,y,-z
1/2-x,1/2+y,z
1/2+x,1/2-y,z
loop_
_atom_site_type_symbol
_atom_site_label
_atom_site_fract_x
_atom_site_fract_y
_atom_site_fract_z
Si Si1 0.680206 0.724995 0.831389
Si Si2 0.724993 0.053774 0.829015
Si Si3 0.129654 0.127531 0.329748
Si Si4 0.560524 0.801590 0.339575
Si Si5 0.698915 0.953312 0.330211
Si Si6 0.422284 0.378455 0.170643
Si Si7 0.854659 0.757878 0.660822
Si Si8 0.978110 0.590013 0.670269
O O1 0.638222 0.776128 0.767070
O O2 0.612698 0.677453 0.790648
O O3 0.791703 0.722021 0.763108
O O4 0.684513 0.726703 0.000000
O O5 0.825937 0.086256 0.795836
O O6 0.622240 0.075845 0.757786
O O7 0.736048 0.999418 0.761942
O O8 0.714083 0.052250 0.000000
O O9 0.112419 0.126176 0.500000
O O10 0.229376 0.094221 0.299697
O O11 0.146029 0.185141 0.291226
O O12 0.027516 0.109246 0.250387
O O13 0.603392 0.808112 0.500000
O O14 0.468630 0.762513 0.345626
O O15 0.514829 0.854251 0.297425
O O16 0.707534 0.963469 0.500000
O O17 0.579012 0.942978 0.300977
O O18 0.438615 0.380173 0.000000
O O19 0.812340 0.754763 0.500000
O O20 0.956345 0.586903 0.500000
#
# Coordination Sequence:
#
# PCOD9427000 Si02
#       8
#     8   8   8   8   8   8   8   8
#     4  11  22  35  55  83 118 157 192 233 287 348
#     4  11  24  41  61  86 118 157 203 251 300 358
#     4  10  21  39  63  89 118 155 200 251 297 352
#     4  10  20  36  59  86 115 150 191 234 284 343
#     4  10  22  40  61  87 119 153 196 252 311 360
#     4  10  23  41  58  83 122 161 197 245 298 352
#     4  10  20  35  57  85 116 151 193 238 283 340
#     4  10  21  39  63  90 121 154 192 247 307 359
#
# _framework density 19.305178000000002
#
# number of rings (size 3 to 8) (size 9 to 14) (size 15 to 20)
#    0.000    1.750    1.250    2.625    0.000    8.000 
#    0.000    3.750    0.000    0.000    0.000    0.000 
#    0.000    0.000    0.000    0.000    0.000    0.000 
#
# Total GULP energy -357367.396874 kJ/mol
# GULP energy per Si atom -5583.865576 kJ/mol
# Density = 1.926124 g / cm^3
# Si number density = 19.305178 Si / 1000 Ang^3
#
#
#
# Elastic Constant Matrix: (Units=GPa)
#
#
# Indices 1 2 3 4 5 6 
#
# 1 91.8540 5.3410 30.1752 0.0000 0.0000 0.0000
# 2 5.3410 63.9285 15.3304 0.0000 0.0000 0.0000
# 3 30.1752 15.3304 30.8309 0.0000 0.0000 0.0000
# 4 0.0000 0.0000 0.0000 24.6316 0.0000 0.0000
# 5 0.0000 0.0000 0.0000 0.0000 16.1866 0.0000
# 6 0.0000 0.0000 0.0000 0.0000 0.0000 31.8357
#
#
#
# Elastic Compliance Matrix: (Units=1/GPa)
#
#
# Indices 1 2 3 4 5 6 
#
# 1 0.016485 0.002829 -0.017541 0.000000 0.000000 0.000000
# 2 0.002829 0.018246 -0.011842 0.000000 0.000000 0.000000
# 3 -0.017541 -0.011842 0.055491 0.000000 0.000000 0.000000
# 4 0.000000 0.000000 0.000000 0.040598 0.000000 0.000000
# 5 0.000000 0.000000 0.000000 0.000000 0.061780 0.000000
# 6 0.000000 0.000000 0.000000 0.000000 0.000000 0.031411
#
#
# Mechanical properties :
#
#
# Convention : Reuss Voigt Hill
#
# Bulk Modulus (GPa) = 26.94341 32.03408 29.48874
# Shear Modulus (GPa) = 17.27183 23.58189 20.42686
#
# Velocity S-wave (km/s) = 2.99435 3.49883 3.25638
# Velocity P-wave (km/s) = 5.09330 5.74038 5.42650
#
# Compressibility (1/GPa) = 0.03711483
#
# Stress axis : x y z
#
# Youngs Moduli (GPa) = 60.66219 54.80726 18.02100
#
# Poissons Ratio (x) = -0.15506 0.31610
# Poissons Ratio (y) = -0.17162 0.21340
# Poissons Ratio (z) = 1.06407 0.64900
#
# Static dielectric constant tensor:
#      x y z
#    x 1.686460 0.000000 0.000000 
#    y 0.000000 1.674720 0.000000 
#    z 0.000000 0.000000 1.653380 
# 
# From -- ./inp_files/4671.got.cif
#   From: 2010.05.17/outbox.cif.g08.bks.cpg/sg55_3_cif.got.tgz:4671.got - 2010.06.03 13:27:54.
