data_PCOD9427766
_publ_section_title
;
Structure prediction by ZEFSAII (Michael W. Deem and Ramdas Pophale) SiO2 
 PCOD9427766
Probable space group: P B A M
;
_chemical_formula_sum "Si O2"
_cell_formula_units_Z 64
_cell_length_a 30.942649
_cell_length_b 14.683202
_cell_length_c 8.598439
_cell_angle_alpha 90.000000
_cell_angle_beta 90.000000
_cell_angle_gamma 90.000000
_cell_volume 3906.590405
_symmetry_space_group_name_H-M "P B A M"
_symmetry_group_IT_number 55
_symmetry_cell_setting 'orthorhombic'
loop_
_space_group_symop_operation_xyz
x,y,z
-x,-y,z
1/2+x,1/2-y,-z
1/2-x,1/2+y,-z
-x,-y,-z
x,y,-z
1/2-x,1/2+y,z
1/2+x,1/2-y,z
loop_
_atom_site_type_symbol
_atom_site_label
_atom_site_fract_x
_atom_site_fract_y
_atom_site_fract_z
Si Si1 0.047962 0.404370 0.681909
Si Si2 0.872800 0.692696 0.182689
Si Si3 0.701302 0.329799 0.187200
Si Si4 0.285465 0.277284 0.687095
Si Si5 0.129937 0.670174 0.681545
Si Si6 0.826678 0.499168 0.820818
Si Si7 0.267732 0.487222 0.314761
Si Si8 0.044691 0.603928 0.817481
O O1 0.050648 0.425514 0.500000
O O2 0.083207 0.329268 0.727822
O O3 0.056220 0.498702 0.775024
O O4 0.999406 0.375587 0.726059
O O5 0.841329 0.773502 0.235659
O O6 0.844613 0.600583 0.196234
O O7 0.882749 0.705851 0.000000
O O8 0.744523 0.275074 0.239547
O O9 0.702277 0.429822 0.261399
O O10 0.701753 0.335223 0.000000
O O11 0.282546 0.263873 0.500000
O O12 0.331383 0.235458 0.738526
O O13 0.283571 0.384970 0.718744
O O14 0.122277 0.687887 0.500000
O O15 0.149405 0.569552 0.706793
O O16 0.084521 0.667687 0.769866
O O17 0.776634 0.498714 0.778147
O O18 0.833759 0.470009 0.000000
O O19 0.259721 0.493802 0.500000
O O20 0.036402 0.609032 0.000000
#
# Coordination Sequence:
#
# PCOD9427766 Si02
#       8
#     8   8   8   8   8   8   8   8
#     4  11  21  33  52  76 102 135 172 212 253 307
#     4  10  21  35  50  73 104 138 174 212 256 308
#     4  11  22  35  53  75 102 136 177 218 257 306
#     4  10  22  36  52  73 102 138 175 216 259 304
#     4  11  21  34  51  75 102 136 177 216 255 304
#     4  11  20  31  49  73 103 139 175 212 256 301
#     4  11  22  36  51  72 104 139 177 218 260 304
#     4  11  21  34  51  73 105 139 168 209 257 309
#
# _framework density 16.382573000000001
#
# number of rings (size 3 to 8) (size 9 to 14) (size 15 to 20)
#    0.000    1.250    3.750    4.500    0.000    2.500 
#    0.000    0.000    0.000    0.000    0.000    0.875 
#    0.000    7.000    0.000    0.000    0.000    0.000 
#
# Total GULP energy -357359.095283 kJ/mol
# GULP energy per Si atom -5583.735864 kJ/mol
# Density = 1.634529 g / cm^3
# Si number density = 16.382573 Si / 1000 Ang^3
#
#
#
# Elastic Constant Matrix: (Units=GPa)
#
#
# Indices 1 2 3 4 5 6 
#
# 1 74.2250 13.9899 -1.7255 0.0000 0.0000 0.0000
# 2 13.9899 53.6843 6.5863 0.0000 0.0000 0.0000
# 3 -1.7255 6.5863 28.7693 0.0000 0.0000 0.0000
# 4 0.0000 0.0000 0.0000 19.6890 0.0000 0.0000
# 5 0.0000 0.0000 0.0000 0.0000 25.2957 0.0000
# 6 0.0000 0.0000 0.0000 0.0000 0.0000 23.7116
#
#
#
# Elastic Compliance Matrix: (Units=1/GPa)
#
#
# Indices 1 2 3 4 5 6 
#
# 1 0.014254 -0.003930 0.001755 0.000000 0.000000 0.000000
# 2 -0.003930 0.020249 -0.004871 0.000000 0.000000 0.000000
# 3 0.001755 -0.004871 0.035980 0.000000 0.000000 0.000000
# 4 0.000000 0.000000 0.000000 0.050790 0.000000 0.000000
# 5 0.000000 0.000000 0.000000 0.000000 0.039532 0.000000
# 6 0.000000 0.000000 0.000000 0.000000 0.000000 0.042173
#
#
# Mechanical properties :
#
#
# Convention : Reuss Voigt Hill
#
# Bulk Modulus (GPa) = 17.73376 21.59778 19.66577
# Shear Modulus (GPa) = 21.19827 22.92781 22.06304
#
# Velocity S-wave (km/s) = 3.60106 3.74508 3.67377
# Velocity P-wave (km/s) = 5.30457 5.64915 5.47957
#
# Compressibility (1/GPa) = 0.05638963
#
# Stress axis : x y z
#
# Youngs Moduli (GPa) = 70.15568 49.38478 27.79339
#
# Poissons Ratio (x) = 0.19407 -0.04877
# Poissons Ratio (y) = 0.27570 0.13539
# Poissons Ratio (z) = -0.12309 0.24057
#
# Static dielectric constant tensor:
#      x y z
#    x 1.562580 0.000000 0.000000 
#    y 0.000000 1.540030 0.000000 
#    z 0.000000 0.000000 1.560610 
# 
# From -- ./inp_files/10893.got.cif
#   From: 2010.05.17/outbox.cif.g08.bks.cpg/sg55_6_cif.got.tgz:10893.got - 2010.06.03 13:27:54.
