data_PCOD9427273
_publ_section_title
;
Structure prediction by ZEFSAII (Michael W. Deem and Ramdas Pophale) SiO2 
 PCOD9427273
Probable space group: P B A M
;
_chemical_formula_sum "Si O2"
_cell_formula_units_Z 64
_cell_length_a 14.854470
_cell_length_b 24.044055
_cell_length_c 7.830841
_cell_angle_alpha 90.000000
_cell_angle_beta 90.000000
_cell_angle_gamma 90.000000
_cell_volume 2796.876434
_symmetry_space_group_name_H-M "P B A M"
_symmetry_group_IT_number 55
_symmetry_cell_setting 'orthorhombic'
loop_
_space_group_symop_operation_xyz
x,y,z
-x,-y,z
1/2+x,1/2-y,-z
1/2-x,1/2+y,-z
-x,-y,-z
x,y,-z
1/2-x,1/2+y,z
1/2+x,1/2-y,z
loop_
_atom_site_type_symbol
_atom_site_label
_atom_site_fract_x
_atom_site_fract_y
_atom_site_fract_z
Si Si1 0.856744 0.911780 0.706182
Si Si2 0.633098 0.169774 0.207243
Si Si3 0.440065 0.183884 0.201606
Si Si4 0.816481 0.223817 0.198498
Si Si5 0.384064 0.462646 0.192943
Si Si6 0.849093 0.425527 0.705994
Si Si7 0.973509 0.144527 0.306501
Si Si8 0.681475 0.048066 0.296981
O O1 0.857331 0.909742 0.500000
O O2 0.752826 0.909297 0.762040
O O3 0.925927 0.864208 0.766393
O O4 0.891581 0.972887 0.758938
O O5 0.539793 0.196799 0.268751
O O6 0.724943 0.198162 0.273008
O O7 0.632106 0.105227 0.259927
O O8 0.634154 0.170804 0.000000
O O9 0.358889 0.220417 0.277165
O O10 0.417349 0.119416 0.223501
O O11 0.442461 0.196588 0.000000
O O12 0.899413 0.180498 0.209253
O O13 0.795107 0.234322 0.000000
O O14 0.434357 0.418155 0.308225
O O15 0.278097 0.449423 0.206684
O O16 0.415245 0.453781 0.000000
O O17 0.852521 0.422497 0.500000
O O18 0.864366 0.489886 0.754763
O O19 0.978254 0.165923 0.500000
O O20 0.698957 0.043827 0.500000
#
# Coordination Sequence:
#
# PCOD9427273 Si02
#       8
#     8   8   8   8   8   8   8   8
#     4   9  20  36  53  79 118 158 193 238 294 349
#     4  10  21  39  62  88 119 154 193 242 299 356
#     4  10  23  41  61  87 118 154 197 245 301 357
#     4  10  22  40  60  84 117 155 198 246 294 351
#     4  11  20  31  51  83 120 156 195 239 289 349
#     4   9  20  39  59  83 118 156 196 245 297 352
#     4  11  21  34  55  82 114 154 200 244 291 345
#     4  10  20  36  60  88 119 156 198 244 299 353
#
# _framework density 22.882669
#
# number of rings (size 3 to 8) (size 9 to 14) (size 15 to 20)
#    0.000    2.000    1.250    3.000    0.000    7.500 
#    0.000    3.750    0.000    0.000    0.000    0.000 
#    0.000    0.000    0.000    0.000    0.000    0.000 
#
# Total GULP energy -357455.708790 kJ/mol
# GULP energy per Si atom -5585.245450 kJ/mol
# Density = 2.283059 g / cm^3
# Si number density = 22.882669 Si / 1000 Ang^3
#
#
#
# Elastic Constant Matrix: (Units=GPa)
#
#
# Indices 1 2 3 4 5 6 
#
# 1 95.5392 59.9513 5.9245 0.0000 0.0000 0.0000
# 2 59.9513 72.7830 -1.2289 0.0000 0.0000 0.0000
# 3 5.9245 -1.2289 41.5575 0.0000 0.0000 0.0000
# 4 0.0000 0.0000 0.0000 9.8383 0.0000 0.0000
# 5 0.0000 0.0000 0.0000 0.0000 9.2876 0.0000
# 6 0.0000 0.0000 0.0000 0.0000 0.0000 22.1062
#
#
#
# Elastic Compliance Matrix: (Units=1/GPa)
#
#
# Indices 1 2 3 4 5 6 
#
# 1 0.022223 -0.018368 -0.003711 0.000000 0.000000 0.000000
# 2 -0.018368 0.028927 0.003474 0.000000 0.000000 0.000000
# 3 -0.003711 0.003474 0.024695 0.000000 0.000000 0.000000
# 4 0.000000 0.000000 0.000000 0.101643 0.000000 0.000000
# 5 0.000000 0.000000 0.000000 0.000000 0.107670 0.000000
# 6 0.000000 0.000000 0.000000 0.000000 0.000000 0.045236
#
#
# Mechanical properties :
#
#
# Convention : Reuss Voigt Hill
#
# Bulk Modulus (GPa) = 25.88305 37.68596 31.78450
# Shear Modulus (GPa) = 13.14121 17.92862 15.53492
#
# Velocity S-wave (km/s) = 2.39903 2.80215 2.60839
# Velocity P-wave (km/s) = 4.35999 5.19368 4.79499
#
# Compressibility (1/GPa) = 0.03863532
#
# Stress axis : x y z
#
# Youngs Moduli (GPa) = 44.99893 34.56927 40.49422
#
# Poissons Ratio (x) = 0.63495 0.15029
# Poissons Ratio (y) = 0.82652 -0.14067
# Poissons Ratio (z) = 0.16700 -0.12009
#
# Static dielectric constant tensor:
#      x y z
#    x 1.886520 0.000000 0.000000 
#    y 0.000000 1.852910 0.000000 
#    z 0.000000 0.000000 1.834120 
# 
# From -- ./inp_files/6488.got.cif
#   From: 2010.05.17/outbox.cif.g08.bks.cpg/sg55_4_cif.got.tgz:6488.got - 2010.06.03 13:27:54.
