data_PCOD9427466
_publ_section_title
;
Structure prediction by ZEFSAII (Michael W. Deem and Ramdas Pophale) SiO2 
 PCOD9427466
Probable space group: P B A M
;
_chemical_formula_sum "Si O2"
_cell_formula_units_Z 48
_cell_length_a 15.467668
_cell_length_b 19.465206
_cell_length_c 8.782967
_cell_angle_alpha 90.000000
_cell_angle_beta 90.000000
_cell_angle_gamma 90.000000
_cell_volume 2644.387508
_symmetry_space_group_name_H-M "P B A M"
_symmetry_group_IT_number 55
_symmetry_cell_setting 'orthorhombic'
loop_
_space_group_symop_operation_xyz
x,y,z
-x,-y,z
1/2+x,1/2-y,-z
1/2-x,1/2+y,-z
-x,-y,-z
x,y,-z
1/2-x,1/2+y,z
1/2+x,1/2-y,z
loop_
_atom_site_type_symbol
_atom_site_label
_atom_site_fract_x
_atom_site_fract_y
_atom_site_fract_z
Si Si1 0.127103 0.671489 0.816352
Si Si2 0.525042 0.421494 0.316472
Si Si3 0.873136 0.169550 0.182611
Si Si4 0.778128 0.577240 0.682530
Si Si5 0.966880 0.576588 0.816559
Si Si6 0.723551 0.422370 0.683486
O O1 0.125615 0.750829 0.769038
O O2 0.209425 0.631311 0.751973
O O3 0.040362 0.630810 0.770056
O O4 0.130866 0.668940 0.000000
O O5 0.500000 0.500000 0.277748
O O6 0.518309 0.415450 0.500000
O O7 0.457902 0.369861 0.241111
O O8 0.624365 0.409171 0.271375
O O9 0.790032 0.130387 0.248572
O O10 0.870485 0.167032 0.000000
O O11 0.774527 0.580876 0.500000
O O12 0.874856 0.589912 0.740500
O O13 0.750422 0.499801 0.728811
O O14 0.000000 0.500000 0.777078
O O15 0.956993 0.579307 0.000000
O O16 0.727682 0.419329 0.500000
#
# Coordination Sequence:
#
# PCOD9427466 Si02
#       6
#     8   8   8   8   8   8
#     4  10  23  41  59  85 123 157 192 244 298 347
#     4  10  20  39  62  86 118 153 192 245 296 343
#     4  11  24  40  59  87 121 157 196 242 295 352
#     4  11  22  38  61  89 120 155 197 244 291 349
#     4  10  20  37  62  89 118 155 197 243 293 345
#     4  10  21  37  61  89 117 152 196 242 291 349
#
# _framework density 18.151651000000001
#
# number of rings (size 3 to 8) (size 9 to 14) (size 15 to 20)
#    0.000    1.667    3.333    1.000    0.000    5.333 
#    0.000    5.000    0.000    0.000    0.000    0.000 
#    0.000    0.000    0.000    0.000    0.000    0.000 
#
# Total GULP energy -268197.792868 kJ/mol
# GULP energy per Si atom -5587.454018 kJ/mol
# Density = 1.811034 g / cm^3
# Si number density = 18.151651 Si / 1000 Ang^3
#
#
#
# Elastic Constant Matrix: (Units=GPa)
#
#
# Indices 1 2 3 4 5 6 
#
# 1 215.8412 121.5873 51.6786 0.0000 0.0000 0.0000
# 2 121.5873 190.7720 50.5268 0.0000 0.0000 0.0000
# 3 51.6786 50.5268 26.3571 0.0000 0.0000 0.0000
# 4 0.0000 0.0000 0.0000 26.3489 0.0000 0.0000
# 5 0.0000 0.0000 0.0000 0.0000 36.9595 0.0000
# 6 0.0000 0.0000 0.0000 0.0000 0.0000 32.7561
#
#
#
# Elastic Compliance Matrix: (Units=1/GPa)
#
#
# Indices 1 2 3 4 5 6 
#
# 1 0.009165 -0.002198 -0.013756 0.000000 0.000000 0.000000
# 2 -0.002198 0.011175 -0.017114 0.000000 0.000000 0.000000
# 3 -0.013756 -0.017114 0.097720 0.000000 0.000000 0.000000
# 4 0.000000 0.000000 0.000000 0.037952 0.000000 0.000000
# 5 0.000000 0.000000 0.000000 0.000000 0.027057 0.000000
# 6 0.000000 0.000000 0.000000 0.000000 0.000000 0.030529
#
#
# Mechanical properties :
#
#
# Convention : Reuss Voigt Hill
#
# Bulk Modulus (GPa) = 19.25888 97.83950 58.54919
# Shear Modulus (GPa) = 16.83263 33.15808 24.99535
#
# Velocity S-wave (km/s) = 3.04852 4.27866 3.71486
# Velocity P-wave (km/s) = 4.79836 8.85592 7.12221
#
# Compressibility (1/GPa) = 0.05192410
#
# Stress axis : x y z
#
# Youngs Moduli (GPa) = 109.11494 89.48356 10.23328
#
# Poissons Ratio (x) = 0.19665 0.14077
# Poissons Ratio (y) = 0.23979 0.17513
# Poissons Ratio (z) = 1.50102 1.53143
#
# Static dielectric constant tensor:
#      x y z
#    x 1.591350 0.000000 0.000000 
#    y 0.000000 1.600580 0.000000 
#    z 0.000000 0.000000 1.613220 
# 
# From -- ./inp_files/5624.got.cif
#   From: 2010.05.17/outbox.cif.g08.bks.cpg/sg55_3_cif.got.tgz:5624.got - 2010.06.03 13:27:54.
