data_PCOD9427607
_publ_section_title
;
Structure prediction by ZEFSAII (Michael W. Deem and Ramdas Pophale) SiO2 
 PCOD9427607
Probable space group: P B A M
;
_chemical_formula_sum "Si O2"
_cell_formula_units_Z 64
_cell_length_a 28.706724
_cell_length_b 12.412180
_cell_length_c 8.979165
_cell_angle_alpha 90.000000
_cell_angle_beta 90.000000
_cell_angle_gamma 90.000000
_cell_volume 3199.393448
_symmetry_space_group_name_H-M "P B A M"
_symmetry_group_IT_number 55
_symmetry_cell_setting 'orthorhombic'
loop_
_space_group_symop_operation_xyz
x,y,z
-x,-y,z
1/2+x,1/2-y,-z
1/2-x,1/2+y,-z
-x,-y,-z
x,y,-z
1/2-x,1/2+y,z
1/2+x,1/2-y,z
loop_
_atom_site_type_symbol
_atom_site_label
_atom_site_fract_x
_atom_site_fract_y
_atom_site_fract_z
Si Si1 0.169997 0.644421 0.331412
Si Si2 0.220349 0.421403 0.673915
Si Si3 0.978060 0.267979 0.678423
Si Si4 0.184134 0.862763 0.173812
Si Si5 0.409085 0.426197 0.675326
Si Si6 0.070541 0.524468 0.674160
Si Si7 0.936999 0.859822 0.822917
Si Si8 0.121621 0.313770 0.319505
O O1 0.173888 0.690002 0.500000
O O2 0.205974 0.546494 0.315573
O O3 0.177851 0.737094 0.213564
O O4 0.119299 0.589936 0.320888
O O5 0.230472 0.397986 0.500000
O O6 0.264912 0.395992 0.771418
O O7 0.173763 0.354325 0.714445
O O8 0.987325 0.272641 0.500000
O O9 0.967023 0.389562 0.733052
O O10 0.019639 0.207723 0.759819
O O11 0.933364 0.189944 0.698276
O O12 0.143223 0.922015 0.263874
O O13 0.178032 0.882759 0.000000
O O14 0.409965 0.449027 0.500000
O O15 0.436877 0.519463 0.759982
O O16 0.058838 0.508269 0.500000
O O17 0.084934 0.406941 0.732524
O O18 0.892263 0.797014 0.757037
O O19 0.936783 0.860429 0.000000
O O20 0.118057 0.306208 0.500000
#
# Coordination Sequence:
#
# PCOD9427607 Si02
#       8
#     8   8   8   8   8   8   8   8
#     4   9  17  36  61  84 110 146 195 245 290 338
#     4   9  20  38  63  88 113 152 204 252 290 341
#     4  10  20  38  65  91 114 150 201 253 300 350
#     4  12  24  36  57  90 125 156 188 235 304 368
#     4  11  23  42  66  86 112 153 208 256 292 346
#     4   8  15  33  63  91 111 141 195 255 290 331
#     4  12  26  40  56  85 129 165 194 241 306 370
#     4   9  19  39  64  87 115 156 206 251 295 346
#
# _framework density 20.003792000000001
#
# number of rings (size 3 to 8) (size 9 to 14) (size 15 to 20)
#    0.000    2.000    1.250    4.500    0.000    5.000 
#    0.000    6.250    0.000    0.000    0.000    0.000 
#    0.000    0.000    0.000    0.000    0.000    0.000 
#
# Total GULP energy -357476.925583 kJ/mol
# GULP energy per Si atom -5585.576962 kJ/mol
# Density = 1.995826 g / cm^3
# Si number density = 20.003792 Si / 1000 Ang^3
#
#
#
# Elastic Constant Matrix: (Units=GPa)
#
#
# Indices 1 2 3 4 5 6 
#
# 1 72.6979 8.8387 30.4022 0.0000 0.0000 0.0000
# 2 8.8387 67.6381 22.2352 0.0000 0.0000 0.0000
# 3 30.4022 22.2352 56.6567 0.0000 0.0000 0.0000
# 4 0.0000 0.0000 0.0000 -7.9602 0.0000 0.0000
# 5 0.0000 0.0000 0.0000 0.0000 -349.7129 0.0000
# 6 0.0000 0.0000 0.0000 0.0000 0.0000 25.3749
#
#
#
# Elastic Compliance Matrix: (Units=1/GPa)
#
#
# Indices 1 2 3 4 5 6 
#
# 1 0.017787 0.000934 -0.009911 0.000000 0.000000 0.000000
# 2 0.000934 0.017024 -0.007182 0.000000 0.000000 0.000000
# 3 -0.009911 -0.007182 0.025787 0.000000 0.000000 0.000000
# 4 0.000000 0.000000 0.000000 -0.125624 0.000000 0.000000
# 5 0.000000 0.000000 0.000000 0.000000 -0.002859 0.000000
# 6 0.000000 0.000000 0.000000 0.000000 0.000000 0.039409
#
#
# Mechanical properties :
#
#
# Convention : Reuss Voigt Hill
#
# Bulk Modulus (GPa) = 35.36194 35.54943 35.45568
# Shear Modulus (GPa) = 376.86991 -57.42521 159.72235
#
# Velocity S-wave (km/s) = 13.74075 -5.36372 8.94536
# Velocity P-wave (km/s) = 16.41525 4.53314 11.15596
#
# Compressibility (1/GPa) = 0.02827899
#
# Stress axis : x y z
#
# Youngs Moduli (GPa) = 56.22157 58.74214 38.77923
#
# Poissons Ratio (x) = -0.05485 0.38434
# Poissons Ratio (y) = -0.05250 0.27851
# Poissons Ratio (z) = 0.55721 0.42189
#
# Static dielectric constant tensor:
#      x y z
#    x 1.725030 0.000000 0.000000 
#    y 0.000000 1.712320 0.000000 
#    z 0.000000 0.000000 1.657910 
# 
# From -- ./inp_files/10863.got.cif
#   From: 2010.05.17/outbox.cif.g08.bks.cpg/sg55_6_cif.got.tgz:10863.got - 2010.06.03 13:27:54.
