data_PCOD9427602
_publ_section_title
;
Structure prediction by ZEFSAII (Michael W. Deem and Ramdas Pophale) SiO2 
 PCOD9427602
Probable space group: P B A M
;
_chemical_formula_sum "Si O2"
_cell_formula_units_Z 52
_cell_length_a 15.637747
_cell_length_b 19.959924
_cell_length_c 7.457598
_cell_angle_alpha 90.000000
_cell_angle_beta 90.000000
_cell_angle_gamma 90.000000
_cell_volume 2327.726951
_symmetry_space_group_name_H-M "P B A M"
_symmetry_group_IT_number 55
_symmetry_cell_setting 'orthorhombic'
loop_
_space_group_symop_operation_xyz
x,y,z
-x,-y,z
1/2+x,1/2-y,-z
1/2-x,1/2+y,-z
-x,-y,-z
x,y,-z
1/2-x,1/2+y,z
1/2+x,1/2-y,z
loop_
_atom_site_type_symbol
_atom_site_label
_atom_site_fract_x
_atom_site_fract_y
_atom_site_fract_z
Si Si1 0.515120 0.423920 0.792574
Si Si2 0.202433 0.342294 0.282459
Si Si3 0.611787 0.688326 0.283239
Si Si4 0.239525 0.497258 0.208274
Si Si5 0.362370 0.562193 0.500000
Si Si6 0.520181 0.202318 0.293277
Si Si7 0.440242 0.060818 0.784278
O O1 0.500000 0.500000 0.725392
O O2 0.428023 0.382611 0.772428
O O3 0.585400 0.395945 0.657931
O O4 0.539822 0.425278 0.000000
O O5 0.199461 0.341912 0.500000
O O6 0.290078 0.306413 0.223992
O O7 0.210554 0.420062 0.227840
O O8 0.114664 0.309284 0.215015
O O9 0.613637 0.691290 0.500000
O O10 0.545304 0.743735 0.213989
O O11 0.313217 0.518457 0.343041
O O12 0.157363 0.542884 0.256430
O O13 0.262605 0.508126 0.000000
O O14 0.532953 0.222178 0.500000
O O15 0.473273 0.130738 0.288811
O O16 0.500000 0.000000 0.721086
O O17 0.447919 0.064034 0.000000
#
# Coordination Sequence:
#
# PCOD9427602 Si02
#       7
#     8   8   8   8   4   8   8
#     4  11  24  42  67  97 131 173 226 277 333 403
#     4  10  20  38  64  91 129 177 230 277 338 406
#     4  10  22  42  63  94 135 180 227 280 340 408
#     4  11  23  38  63 102 137 174 227 283 338 408
#     4  12  23  40  63  94 134 172 213 273 337 390
#     4  10  22  39  64  97 131 180 231 281 340 411
#     4  10  21  39  62  92 133 171 217 284 348 404
#
# _framework density 22.339390000000002
#
# number of rings (size 3 to 8) (size 9 to 14) (size 15 to 20)
#    0.000    1.538    3.077    1.615    3.231    2.769 
#    2.769    0.000    0.000    0.000    0.000    0.000 
#    0.000    0.000    0.000    0.000    0.000    0.000 
#
# Total GULP energy -289728.635325 kJ/mol
# GULP energy per Si atom -5571.704525 kJ/mol
# Density = 2.228854 g / cm^3
# Si number density = 22.339390 Si / 1000 Ang^3
#
#
#
# Elastic Constant Matrix: (Units=GPa)
#
#
# Indices 1 2 3 4 5 6 
#
# 1 170.9455 65.1968 35.0711 0.0000 0.0000 0.0000
# 2 65.1968 73.9086 -2.3595 0.0000 0.0000 0.0000
# 3 35.0711 -2.3595 106.4193 0.0000 0.0000 0.0000
# 4 0.0000 0.0000 0.0000 34.3504 0.0000 0.0000
# 5 0.0000 0.0000 0.0000 0.0000 0.8016 0.0000
# 6 0.0000 0.0000 0.0000 0.0000 0.0000 35.9274
#
#
#
# Elastic Compliance Matrix: (Units=1/GPa)
#
#
# Indices 1 2 3 4 5 6 
#
# 1 0.009955 -0.008892 -0.003478 0.000000 0.000000 0.000000
# 2 -0.008892 0.021483 0.003407 0.000000 0.000000 0.000000
# 3 -0.003478 0.003407 0.010618 0.000000 0.000000 0.000000
# 4 0.000000 0.000000 0.000000 0.029112 0.000000 0.000000
# 5 0.000000 0.000000 0.000000 0.000000 1.247545 0.000000
# 6 0.000000 0.000000 0.000000 0.000000 0.000000 0.027834
#
#
# Mechanical properties :
#
#
# Convention : Reuss Voigt Hill
#
# Bulk Modulus (GPa) = 41.44260 60.78780 51.11520
# Shear Modulus (GPa) = 3.64294 31.10687 17.37491
#
# Velocity S-wave (km/s) = 1.27838 3.73563 2.79188
# Velocity P-wave (km/s) = 4.55748 6.77323 5.77266
#
# Compressibility (1/GPa) = 0.02412976
#
# Stress axis : x y z
#
# Youngs Moduli (GPa) = 100.45397 46.54786 94.17550
#
# Poissons Ratio (x) = 0.41392 0.32753
# Poissons Ratio (y) = 0.89328 -0.32084
# Poissons Ratio (z) = 0.34936 -0.15858
#
# Static dielectric constant tensor:
#      x y z
#    x 1.867540 0.000000 0.000000 
#    y 0.000000 1.797190 0.000000 
#    z 0.000000 0.000000 1.751320 
# 
# From -- ./inp_files/5888.got.cif
#   From: 2010.05.17/outbox.cif.g08.bks.cpg/sg55_3_cif.got.tgz:5888.got - 2010.06.03 13:27:54.
