data_PCOD9427492
_publ_section_title
;
Structure prediction by ZEFSAII (Michael W. Deem and Ramdas Pophale) SiO2 
 PCOD9427492
Probable space group: P B A M
;
_chemical_formula_sum "Si O2"
_cell_formula_units_Z 40
_cell_length_a 8.787745
_cell_length_b 13.073928
_cell_length_c 17.106298
_cell_angle_alpha 90.000000
_cell_angle_beta 90.000000
_cell_angle_gamma 90.000000
_cell_volume 1965.348486
_symmetry_space_group_name_H-M "P B A M"
_symmetry_group_IT_number 55
_symmetry_cell_setting 'orthorhombic'
loop_
_space_group_symop_operation_xyz
x,y,z
-x,-y,z
1/2+x,1/2-y,-z
1/2-x,1/2+y,-z
-x,-y,-z
x,y,-z
1/2-x,1/2+y,z
1/2+x,1/2-y,z
loop_
_atom_site_type_symbol
_atom_site_label
_atom_site_fract_x
_atom_site_fract_y
_atom_site_fract_z
Si Si1 0.484076 0.880818 0.407105
Si Si2 0.976407 0.883622 0.236622
Si Si3 0.730068 0.753112 0.320947
Si Si4 0.376368 0.315290 0.093337
Si Si5 0.539995 0.111171 0.905760
O O1 0.458853 0.875931 0.500000
O O2 0.635742 0.819463 0.383363
O O3 0.347856 0.823759 0.362251
O O4 0.500000 0.000000 0.384565
O O5 0.110352 0.813780 0.272440
O O6 0.999992 0.876737 0.143435
O O7 0.822911 0.832114 0.266969
O O8 0.000000 0.000000 0.262249
O O9 0.207190 0.349584 0.117479
O O10 0.414594 0.196961 0.111055
O O11 0.392982 0.329931 0.000000
O O12 0.500000 0.000000 0.872874
O O13 0.546055 0.103184 0.000000
#
# Coordination Sequence:
#
# PCOD9427492 Si02
#       5
#     8   8   8   8   8
#     4  10  20  37  63  91 118 151 188 228 277 334
#     4  11  23  39  58  82 115 156 194 236 293 342
#     4  10  22  39  58  86 121 152 188 233 279 343
#     4  10  21  37  57  82 110 147 201 250 288 338
#     4   9  19  36  56  78 107 140 179 238 300 344
#
# _framework density 20.352626000000001
#
# number of rings (size 3 to 8) (size 9 to 14) (size 15 to 20)
#    0.000    2.000    0.000    3.000    0.000    3.600 
#    0.000    9.000    0.000    9.600    0.000    0.000 
#    0.000    0.800    0.000    0.000    0.000    0.000 
#
# Total GULP energy -223503.268434 kJ/mol
# GULP energy per Si atom -5587.581711 kJ/mol
# Density = 2.030630 g / cm^3
# Si number density = 20.352626 Si / 1000 Ang^3
#
#
#
# Elastic Constant Matrix: (Units=GPa)
#
#
# Indices 1 2 3 4 5 6 
#
# 1 31.4422 -13.5947 3.0016 0.0000 0.0000 0.0000
# 2 -13.5947 93.4965 9.9021 0.0000 0.0000 0.0000
# 3 3.0016 9.9021 46.8079 0.0000 0.0000 0.0000
# 4 0.0000 0.0000 0.0000 20.5201 0.0000 0.0000
# 5 0.0000 0.0000 0.0000 0.0000 -17.7749 0.0000
# 6 0.0000 0.0000 0.0000 0.0000 0.0000 22.8059
#
#
#
# Elastic Compliance Matrix: (Units=1/GPa)
#
#
# Indices 1 2 3 4 5 6 
#
# 1 0.034442 0.005362 -0.003343 0.000000 0.000000 0.000000
# 2 0.005362 0.011775 -0.002835 0.000000 0.000000 0.000000
# 3 -0.003343 -0.002835 0.022178 0.000000 0.000000 0.000000
# 4 0.000000 0.000000 0.000000 0.048733 0.000000 0.000000
# 5 0.000000 0.000000 0.000000 0.000000 -0.056259 0.000000
# 6 0.000000 0.000000 0.000000 0.000000 0.000000 0.043848
#
#
# Mechanical properties :
#
#
# Convention : Reuss Voigt Hill
#
# Bulk Modulus (GPa) = 14.97818 18.92938 16.95378
# Shear Modulus (GPa) = 38.87921 16.60606 27.74264
#
# Velocity S-wave (km/s) = 4.37542 2.85953 3.69602
# Velocity P-wave (km/s) = 5.73594 4.49705 5.15385
#
# Compressibility (1/GPa) = 0.06676379
#
# Stress axis : x y z
#
# Youngs Moduli (GPa) = 29.03438 84.92214 45.08973
#
# Poissons Ratio (x) = -0.45535 0.15073
# Poissons Ratio (y) = -0.15568 0.12783
# Poissons Ratio (z) = 0.09706 0.24075
#
# Static dielectric constant tensor:
#      x y z
#    x 1.714030 0.000000 0.000000 
#    y 0.000000 1.720140 0.000000 
#    z 0.000000 0.000000 1.726890 
# 
# From -- ./inp_files/20596.got.cif
#   From: 2010.05.17/outbox.cif.g08.bks.cpg/sg55_11_cif.got.tgz:20596.got - 2010.06.03 13:27:54.
