data_PCOD9427914
_publ_section_title
;
Structure prediction by ZEFSAII (Michael W. Deem and Ramdas Pophale) SiO2 
 PCOD9427914
Probable space group: P B A M
;
_chemical_formula_sum "Si O2"
_cell_formula_units_Z 56
_cell_length_a 5.388832
_cell_length_b 31.730778
_cell_length_c 13.673670
_cell_angle_alpha 90.000000
_cell_angle_beta 90.000000
_cell_angle_gamma 90.000000
_cell_volume 2338.085882
_symmetry_space_group_name_H-M "P B A M"
_symmetry_group_IT_number 55
_symmetry_cell_setting 'orthorhombic'
loop_
_space_group_symop_operation_xyz
x,y,z
-x,-y,z
1/2+x,1/2-y,-z
1/2-x,1/2+y,-z
-x,-y,-z
x,y,-z
1/2-x,1/2+y,z
1/2+x,1/2-y,z
loop_
_atom_site_type_symbol
_atom_site_label
_atom_site_fract_x
_atom_site_fract_y
_atom_site_fract_z
Si Si1 0.958229 0.933743 0.890586
Si Si2 0.740130 0.475345 0.303132
Si Si3 0.069388 0.699979 0.609058
Si Si4 0.355125 0.610170 0.390138
Si Si5 0.464239 0.880670 0.108412
Si Si6 0.545717 0.739054 0.200413
Si Si7 0.802754 0.157168 0.277234
O O1 0.859496 0.963333 0.804771
O O2 0.744320 0.897579 0.888009
O O3 0.239993 0.915589 0.881625
O O4 0.940086 0.952117 0.000000
O O5 0.500000 0.500000 0.348424
O O6 0.793158 0.430990 0.358096
O O7 0.000000 0.500000 0.300085
O O8 0.104360 0.717853 0.500000
O O9 0.092311 0.733607 0.697962
O O10 0.795230 0.681410 0.627366
O O11 0.225904 0.656251 0.614127
O O12 0.443939 0.604167 0.500000
O O13 0.575717 0.614599 0.312859
O O14 0.415447 0.851252 0.200887
O O15 0.424966 0.862021 0.000000
O O16 0.805726 0.744457 0.147675
O O17 0.519593 0.690007 0.224052
#
# Coordination Sequence:
#
# PCOD9427914 Si02
#       7
#     8   8   8   8   8   8   8
#     4  10  21  41  67  99 128 160 205 263 327 385
#     4  12  27  44  66  93 128 171 211 267 321 382
#     4  10  22  38  61  93 128 167 214 267 322 376
#     4  11  24  42  64  90 122 172 222 263 316 384
#     4  10  21  37  67  98 129 166 211 258 311 384
#     4  10  21  36  57  92 126 164 202 258 315 364
#     4  11  21  38  65  91 131 169 216 255 325 378
#
# _framework density 23.951215999999999
#
# number of rings (size 3 to 8) (size 9 to 14) (size 15 to 20)
#    0.000    1.429    2.857    2.143    2.000    4.000 
#    0.000    0.000    0.000    3.429    0.000    0.000 
#    0.000    0.000    0.000    0.000    0.000    0.000 
#
# Total GULP energy -312360.111833 kJ/mol
# GULP energy per Si atom -5577.859140 kJ/mol
# Density = 2.389670 g / cm^3
# Si number density = 23.951216 Si / 1000 Ang^3
#
#
#
# Elastic Constant Matrix: (Units=GPa)
#
#
# Indices 1 2 3 4 5 6 
#
# 1 96.8167 16.2768 -1.3484 0.0000 0.0000 0.0000
# 2 16.2768 76.5126 20.3041 0.0000 0.0000 0.0000
# 3 -1.3484 20.3041 68.9522 0.0000 0.0000 0.0000
# 4 0.0000 0.0000 0.0000 18.2355 0.0000 0.0000
# 5 0.0000 0.0000 0.0000 0.0000 19.4695 0.0000
# 6 0.0000 0.0000 0.0000 0.0000 0.0000 43.6575
#
#
#
# Elastic Compliance Matrix: (Units=1/GPa)
#
#
# Indices 1 2 3 4 5 6 
#
# 1 0.010770 -0.002546 0.000960 0.000000 0.000000 0.000000
# 2 -0.002546 0.014779 -0.004402 0.000000 0.000000 0.000000
# 3 0.000960 -0.004402 0.015818 0.000000 0.000000 0.000000
# 4 0.000000 0.000000 0.000000 0.054838 0.000000 0.000000
# 5 0.000000 0.000000 0.000000 0.000000 0.051362 0.000000
# 6 0.000000 0.000000 0.000000 0.000000 0.000000 0.022906
#
#
# Mechanical properties :
#
#
# Convention : Reuss Voigt Hill
#
# Bulk Modulus (GPa) = 34.02241 34.74961 34.38601
# Shear Modulus (GPa) = 26.00833 30.07576 28.04205
#
# Velocity S-wave (km/s) = 3.29886 3.54744 3.42541
# Velocity P-wave (km/s) = 5.36150 5.59635 5.48018
#
# Compressibility (1/GPa) = 0.02939239
#
# Stress axis : x y z
#
# Youngs Moduli (GPa) = 92.84874 67.66133 63.21995
#
# Poissons Ratio (x) = 0.17227 -0.06071
# Poissons Ratio (y) = 0.23640 0.27829
# Poissons Ratio (z) = -0.08917 0.29784
#
# Static dielectric constant tensor:
#      x y z
#    x 2.022420 0.000000 0.000000 
#    y 0.000000 1.964900 0.000000 
#    z 0.000000 0.000000 1.908160 
# 
# From -- ./inp_files/16756.got.cif
#   From: 2010.05.17/outbox.cif.g08.bks.cpg/sg55_9_cif.got.tgz:16756.got - 2010.06.03 13:27:54.
