data_PCOD9427978
_publ_section_title
;
Structure prediction by ZEFSAII (Michael W. Deem and Ramdas Pophale) SiO2 
 PCOD9427978
Probable space group: P B A M
;
_chemical_formula_sum "Si O2"
_cell_formula_units_Z 64
_cell_length_a 13.018890
_cell_length_b 26.492574
_cell_length_c 9.221948
_cell_angle_alpha 90.000000
_cell_angle_beta 90.000000
_cell_angle_gamma 90.000000
_cell_volume 3180.685893
_symmetry_space_group_name_H-M "P B A M"
_symmetry_group_IT_number 55
_symmetry_cell_setting 'orthorhombic'
loop_
_space_group_symop_operation_xyz
x,y,z
-x,-y,z
1/2+x,1/2-y,-z
1/2-x,1/2+y,-z
-x,-y,-z
x,y,-z
1/2-x,1/2+y,z
1/2+x,1/2-y,z
loop_
_atom_site_type_symbol
_atom_site_label
_atom_site_fract_x
_atom_site_fract_y
_atom_site_fract_z
Si Si1 0.669278 0.722228 0.829222
Si Si2 0.731627 0.057563 0.830333
Si Si3 0.150577 0.125623 0.326185
Si Si4 0.555907 0.803371 0.337925
Si Si5 0.681194 0.942368 0.170377
Si Si6 0.437324 0.381548 0.175165
Si Si7 0.846618 0.755346 0.662271
Si Si8 0.979084 0.584230 0.673318
O O1 0.632026 0.776165 0.770522
O O2 0.600053 0.674925 0.782471
O O3 0.783286 0.719190 0.767351
O O4 0.669416 0.721886 0.000000
O O5 0.840504 0.082496 0.789481
O O6 0.633932 0.075211 0.737011
O O7 0.734481 0.997046 0.819773
O O8 0.713116 0.070880 0.000000
O O9 0.151299 0.118312 0.500000
O O10 0.247313 0.097797 0.253422
O O11 0.154814 0.185830 0.297605
O O12 0.043529 0.106694 0.255988
O O13 0.600850 0.807829 0.500000
O O14 0.461274 0.764938 0.342311
O O15 0.513062 0.857900 0.299433
O O16 0.569416 0.946203 0.245485
O O17 0.670001 0.929399 0.000000
O O18 0.453327 0.383175 0.000000
O O19 0.803321 0.749687 0.500000
O O20 0.980400 0.575030 0.500000
#
# Coordination Sequence:
#
# PCOD9427978 Si02
#       8
#     8   8   8   8   8   8   8   8
#     4  11  22  34  56  88 118 151 193 245 292 339
#     4  10  23  43  65  88 119 163 207 252 315 377
#     4  11  23  40  63  90 122 162 206 254 305 361
#     4  10  21  38  57  82 117 157 193 227 286 357
#     4  11  24  42  64  88 120 163 206 254 314 375
#     4  10  22  41  62  88 123 160 204 254 304 363
#     4  10  21  37  57  81 115 158 196 232 283 353
#     4  11  23  39  63  94 125 157 202 259 310 364
#
# _framework density 20.121447
#
# number of rings (size 3 to 8) (size 9 to 14) (size 15 to 20)
#    0.000    1.500    1.250    3.375    0.000    9.500 
#    0.000    2.500    0.000    0.000    0.000    0.000 
#    0.000    0.000    0.000    0.000    0.000    0.000 
#
# Total GULP energy -357519.829439 kJ/mol
# GULP energy per Si atom -5586.247335 kJ/mol
# Density = 2.007565 g / cm^3
# Si number density = 20.121447 Si / 1000 Ang^3
#
#
#
# Elastic Constant Matrix: (Units=GPa)
#
#
# Indices 1 2 3 4 5 6 
#
# 1 101.7445 10.0842 41.8412 0.0000 0.0000 0.0000
# 2 10.0842 52.6264 22.6625 0.0000 0.0000 0.0000
# 3 41.8412 22.6625 57.4617 0.0000 0.0000 0.0000
# 4 0.0000 0.0000 0.0000 21.4016 0.0000 0.0000
# 5 0.0000 0.0000 0.0000 0.0000 44.9665 0.0000
# 6 0.0000 0.0000 0.0000 0.0000 0.0000 36.7176
#
#
#
# Elastic Compliance Matrix: (Units=1/GPa)
#
#
# Indices 1 2 3 4 5 6 
#
# 1 0.014218 0.002089 -0.011176 0.000000 0.000000 0.000000
# 2 0.002089 0.023196 -0.010669 0.000000 0.000000 0.000000
# 3 -0.011176 -0.010669 0.029749 0.000000 0.000000 0.000000
# 4 0.000000 0.000000 0.000000 0.046726 0.000000 0.000000
# 5 0.000000 0.000000 0.000000 0.000000 0.022239 0.000000
# 6 0.000000 0.000000 0.000000 0.000000 0.000000 0.027235
#
#
# Mechanical properties :
#
#
# Convention : Reuss Voigt Hill
#
# Bulk Modulus (GPa) = 36.16816 40.11206 38.14011
# Shear Modulus (GPa) = 23.57466 29.76680 26.67073
#
# Velocity S-wave (km/s) = 3.42660 3.85041 3.64467
# Velocity P-wave (km/s) = 5.80254 6.30443 6.05868
#
# Compressibility (1/GPa) = 0.02764862
#
# Stress axis : x y z
#
# Youngs Moduli (GPa) = 70.33484 43.11071 33.61469
#
# Poissons Ratio (x) = -0.09004 0.37569
# Poissons Ratio (y) = -0.14689 0.35864
# Poissons Ratio (z) = 0.78609 0.45995
#
# Static dielectric constant tensor:
#      x y z
#    x 1.722350 0.000000 0.000000 
#    y 0.000000 1.717770 0.000000 
#    z 0.000000 0.000000 1.696650 
# 
# From -- ./inp_files/4674.got.cif
#   From: 2010.05.17/outbox.cif.g08.bks.cpg/sg55_3_cif.got.tgz:4674.got - 2010.06.03 13:27:54.
