data_PCOD9427510
_publ_section_title
;
Structure prediction by ZEFSAII (Michael W. Deem and Ramdas Pophale) SiO2 
 PCOD9427510
Probable space group: P B A M
;
_chemical_formula_sum "Si O2"
_cell_formula_units_Z 44
_cell_length_a 5.118049
_cell_length_b 26.714979
_cell_length_c 16.088053
_cell_angle_alpha 90.000000
_cell_angle_beta 90.000000
_cell_angle_gamma 90.000000
_cell_volume 2199.696506
_symmetry_space_group_name_H-M "P B A M"
_symmetry_group_IT_number 55
_symmetry_cell_setting 'orthorhombic'
loop_
_space_group_symop_operation_xyz
x,y,z
-x,-y,z
1/2+x,1/2-y,-z
1/2-x,1/2+y,-z
-x,-y,-z
x,y,-z
1/2-x,1/2+y,z
1/2+x,1/2-y,z
loop_
_atom_site_type_symbol
_atom_site_label
_atom_site_fract_x
_atom_site_fract_y
_atom_site_fract_z
Si Si1 0.379846 0.443445 0.095049
Si Si2 0.773767 0.150975 0.500000
Si Si3 0.000000 0.500000 0.813449
Si Si4 0.373369 0.067901 0.679395
Si Si5 0.259230 0.283595 0.333263
Si Si6 0.899545 0.119410 0.254253
Si Si7 0.225341 0.581096 0.500000
O O1 0.500000 0.500000 0.102317
O O2 0.459292 0.402582 0.162885
O O3 0.086555 0.456047 0.125386
O O4 0.404690 0.427980 0.000000
O O5 0.991185 0.107178 0.500000
O O6 0.797442 0.185142 0.581584
O O7 0.489839 0.125411 0.500000
O O8 0.194385 0.524873 0.746228
O O9 0.664032 0.087192 0.702668
O O10 0.330320 0.051755 0.585051
O O11 0.165679 0.111833 0.694651
O O12 0.473424 0.240051 0.330593
O O13 0.309364 0.323646 0.260291
#
# Coordination Sequence:
#
# PCOD9427510 Si02
#       7
#     8   4   4   8   8   8   4
#     4  10  20  37  64  93 119 148 189 242 300 357
#     4  12  22  37  56  85 113 146 206 258 296 329
#     4  10  21  35  58  86 126 154 200 239 289 354
#     4  11  21  36  57  80 120 164 197 238 289 341
#     4  12  23  38  59  84 115 157 200 247 296 345
#     4  11  22  40  58  86 121 155 191 244 301 351
#     4  12  20  36  56  80 119 162 201 242 287 343
#
# _framework density 20.002761
#
# number of rings (size 3 to 8) (size 9 to 14) (size 15 to 20)
#    0.000    0.909    5.455    3.000    0.000    0.364 
#    0.000    0.000    0.000    5.455    0.000    0.000 
#    0.000    0.000    0.000    0.000    0.000    0.000 
#
# Total GULP energy -245478.502062 kJ/mol
# GULP energy per Si atom -5579.056865 kJ/mol
# Density = 1.995723 g / cm^3
# Si number density = 20.002761 Si / 1000 Ang^3
#
#
#
# Elastic Constant Matrix: (Units=GPa)
#
#
# Indices 1 2 3 4 5 6 
#
# 1 59.9060 -5.8382 -0.6237 0.0000 0.0000 0.0000
# 2 -5.8382 41.9357 14.3699 0.0000 0.0000 0.0000
# 3 -0.6237 14.3699 148.9700 0.0000 0.0000 0.0000
# 4 0.0000 0.0000 0.0000 26.9539 0.0000 0.0000
# 5 0.0000 0.0000 0.0000 0.0000 15.2291 0.0000
# 6 0.0000 0.0000 0.0000 0.0000 0.0000 27.9004
#
#
#
# Elastic Compliance Matrix: (Units=1/GPa)
#
#
# Indices 1 2 3 4 5 6 
#
# 1 0.016926 0.002412 -0.000162 0.000000 0.000000 0.000000
# 2 0.002412 0.025005 -0.002402 0.000000 0.000000 0.000000
# 3 -0.000162 -0.002402 0.006944 0.000000 0.000000 0.000000
# 4 0.000000 0.000000 0.000000 0.037100 0.000000 0.000000
# 5 0.000000 0.000000 0.000000 0.000000 0.065664 0.000000
# 6 0.000000 0.000000 0.000000 0.000000 0.000000 0.035842
#
#
# Mechanical properties :
#
#
# Convention : Reuss Voigt Hill
#
# Bulk Modulus (GPa) = 20.58837 29.62531 25.10684
# Shear Modulus (GPa) = 24.51281 30.21025 27.36153
#
# Velocity S-wave (km/s) = 3.50447 3.89048 3.70251
# Velocity P-wave (km/s) = 5.16626 5.91810 5.55491
#
# Compressibility (1/GPa) = 0.04857112
#
# Stress axis : x y z
#
# Youngs Moduli (GPa) = 59.08006 39.99225 144.01385
#
# Poissons Ratio (x) = -0.09646 0.02330
# Poissons Ratio (y) = -0.14249 0.34591
# Poissons Ratio (z) = 0.00956 0.09606
#
# Static dielectric constant tensor:
#      x y z
#    x 1.821500 0.000000 0.000000 
#    y 0.000000 1.738000 0.000000 
#    z 0.000000 0.000000 1.713210 
# 
# From -- ./inp_files/16646.got.cif
#   From: 2010.05.17/outbox.cif.g08.bks.cpg/sg55_9_cif.got.tgz:16646.got - 2010.06.03 13:27:54.
