data_PCOD9427296
_publ_section_title
;
Structure prediction by ZEFSAII (Michael W. Deem and Ramdas Pophale) SiO2 
 PCOD9427296
Probable space group: P B A M
;
_chemical_formula_sum "Si O2"
_cell_formula_units_Z 56
_cell_length_a 19.593530
_cell_length_b 16.835476
_cell_length_c 7.557538
_cell_angle_alpha 90.000000
_cell_angle_beta 90.000000
_cell_angle_gamma 90.000000
_cell_volume 2492.977884
_symmetry_space_group_name_H-M "P B A M"
_symmetry_group_IT_number 55
_symmetry_cell_setting 'orthorhombic'
loop_
_space_group_symop_operation_xyz
x,y,z
-x,-y,z
1/2+x,1/2-y,-z
1/2-x,1/2+y,-z
-x,-y,-z
x,y,-z
1/2-x,1/2+y,z
1/2+x,1/2-y,z
loop_
_atom_site_type_symbol
_atom_site_label
_atom_site_fract_x
_atom_site_fract_y
_atom_site_fract_z
Si Si1 0.075054 0.495350 0.201523
Si Si2 0.359392 0.157734 0.705500
Si Si3 0.146987 0.970830 0.783355
Si Si4 0.060689 0.816514 0.214832
Si Si5 0.291386 0.920743 0.205345
Si Si6 0.090910 0.139951 0.213740
Si Si7 0.724218 0.260123 0.292212
O O1 0.106756 0.583235 0.200181
O O2 0.134818 0.441424 0.284367
O O3 0.000000 0.500000 0.285258
O O4 0.063858 0.465137 0.000000
O O5 0.351654 0.134780 0.500000
O O6 0.407086 0.234991 0.718970
O O7 0.285596 0.184825 0.777537
O O8 0.106609 0.891701 0.730163
O O9 0.225197 0.965437 0.719975
O O10 0.109543 0.050981 0.726222
O O11 0.148002 0.970752 0.000000
O O12 0.983109 0.830903 0.273713
O O13 0.061675 0.813651 0.000000
O O14 0.276454 0.827325 0.211146
O O15 0.295834 0.945644 0.000000
O O16 0.152060 0.197715 0.266653
O O17 0.088717 0.138046 0.000000
O O18 0.737707 0.248962 0.500000
#
# Coordination Sequence:
#
# PCOD9427296 Si02
#       7
#     8   8   8   8   8   8   8
#     4  10  23  41  63  92 123 154 201 260 307 352
#     4  11  24  41  60  85 121 164 203 238 294 359
#     4   9  17  34  60  89 115 146 191 239 290 347
#     4  10  20  36  61  90 121 153 189 243 297 348
#     4  10  20  37  62  87 114 154 200 247 298 347
#     4  10  21  36  60  90 118 149 190 241 299 352
#     4  11  24  40  58  85 121 161 201 243 289 348
#
# _framework density 22.463096
#
# number of rings (size 3 to 8) (size 9 to 14) (size 15 to 20)
#    0.000    1.857    1.429    2.143    2.000    6.000 
#    0.000    1.429    0.000    1.714    0.000    0.000 
#    0.000    0.000    0.000    0.000    0.000    0.000 
#
# Total GULP energy -313089.651490 kJ/mol
# GULP energy per Si atom -5590.886634 kJ/mol
# Density = 2.241197 g / cm^3
# Si number density = 22.463096 Si / 1000 Ang^3
#
#
#
# Elastic Constant Matrix: (Units=GPa)
#
#
# Indices 1 2 3 4 5 6 
#
# 1 178.3780 14.3508 2.8314 0.0000 0.0000 0.0000
# 2 14.3508 31.6839 -5.7377 0.0000 0.0000 0.0000
# 3 2.8314 -5.7377 58.5870 0.0000 0.0000 0.0000
# 4 0.0000 0.0000 0.0000 25.6213 0.0000 0.0000
# 5 0.0000 0.0000 0.0000 0.0000 1.9040 0.0000
# 6 0.0000 0.0000 0.0000 0.0000 0.0000 18.8470
#
#
#
# Elastic Compliance Matrix: (Units=1/GPa)
#
#
# Indices 1 2 3 4 5 6 
#
# 1 0.005835 -0.002743 -0.000551 0.000000 0.000000 0.000000
# 2 -0.002743 0.033421 0.003406 0.000000 0.000000 0.000000
# 3 -0.000551 0.003406 0.017429 0.000000 0.000000 0.000000
# 4 0.000000 0.000000 0.000000 0.039030 0.000000 0.000000
# 5 0.000000 0.000000 0.000000 0.000000 0.525203 0.000000
# 6 0.000000 0.000000 0.000000 0.000000 0.000000 0.053059
#
#
# Mechanical properties :
#
#
# Convention : Reuss Voigt Hill
#
# Bulk Modulus (GPa) = 17.57178 32.39311 24.98244
# Shear Modulus (GPa) = 7.21790 26.42144 16.81967
#
# Velocity S-wave (km/s) = 1.79449 3.43332 2.73933
# Velocity P-wave (km/s) = 3.48326 5.49261 4.59902
#
# Compressibility (1/GPa) = 0.05690942
#
# Stress axis : x y z
#
# Youngs Moduli (GPa) = 171.36555 29.92146 57.37641
#
# Poissons Ratio (x) = 0.08207 0.03159
# Poissons Ratio (y) = 0.47002 -0.19540
# Poissons Ratio (z) = 0.09436 -0.10190
#
# Static dielectric constant tensor:
#      x y z
#    x 1.837800 0.000000 0.000000 
#    y 0.000000 1.762180 0.000000 
#    z 0.000000 0.000000 1.888720 
# 
# From -- ./inp_files/8765.got.cif
#   From: 2010.05.17/outbox.cif.g08.bks.cpg/sg55_5_cif.got.tgz:8765.got - 2010.06.03 13:27:54.
