data_PCOD9427705
_publ_section_title
;
Structure prediction by ZEFSAII (Michael W. Deem and Ramdas Pophale) SiO2 
 PCOD9427705
Probable space group: P B A M
;
_chemical_formula_sum "Si O2"
_cell_formula_units_Z 64
_cell_length_a 8.395150
_cell_length_b 14.726766
_cell_length_c 22.262272
_cell_angle_alpha 90.000000
_cell_angle_beta 90.000000
_cell_angle_gamma 90.000000
_cell_volume 2752.360592
_symmetry_space_group_name_H-M "P B A M"
_symmetry_group_IT_number 55
_symmetry_cell_setting 'orthorhombic'
loop_
_space_group_symop_operation_xyz
x,y,z
-x,-y,z
1/2+x,1/2-y,-z
1/2-x,1/2+y,-z
-x,-y,-z
x,y,-z
1/2-x,1/2+y,z
1/2+x,1/2-y,z
loop_
_atom_site_type_symbol
_atom_site_label
_atom_site_fract_x
_atom_site_fract_y
_atom_site_fract_z
Si Si1 0.748882 0.476400 0.110620
Si Si2 0.651489 0.215433 0.371544
Si Si3 0.700175 0.229465 0.233419
Si Si4 0.173774 0.958705 0.761279
Si Si5 0.060905 0.861133 0.069540
Si Si6 0.684653 0.530285 0.628344
Si Si7 0.584335 0.819524 0.148070
Si Si8 0.158397 0.633756 0.569549
O O1 0.759128 0.508261 0.179424
O O2 0.593295 0.413783 0.095946
O O3 0.708596 0.568541 0.075216
O O4 0.895324 0.406930 0.105774
O O5 0.649252 0.245891 0.301775
O O6 0.487157 0.168067 0.389721
O O7 0.695340 0.300603 0.412534
O O8 0.785091 0.136992 0.381275
O O9 0.834001 0.150594 0.237590
O O10 0.565367 0.185487 0.191828
O O11 0.769708 0.312243 0.195697
O O12 0.243831 0.986137 0.696954
O O13 0.000000 0.000000 0.764160
O O14 0.089541 0.770411 0.107218
O O15 0.031663 0.840816 0.000000
O O16 0.500000 0.500000 0.624392
O O17 0.788537 0.468122 0.584859
O O18 0.117030 0.642882 0.500000
#
# Coordination Sequence:
#
# PCOD9427705 Si02
#       8
#     8   8   8   8   8   8   8   8
#     4  11  21  40  67  94 128 175 221 276 338 402
#     4  11  25  44  67 102 136 174 229 285 342 410
#     4  11  24  42  67 102 136 173 219 285 352 401
#     4  10  20  40  68  95 135 169 218 276 344 406
#     4  11  24  44  66  95 135 185 232 270 338 409
#     4  10  24  42  67 102 132 176 223 279 344 408
#     4  12  24  42  68 101 136 175 226 288 343 410
#     4  12  26  45  68  95 135 184 229 277 337 409
#
# _framework density 23.252766999999999
#
# number of rings (size 3 to 8) (size 9 to 14) (size 15 to 20)
#    0.000    1.000    3.750    3.000    3.500    4.250 
#    0.000    0.000    0.000    0.750    0.000    0.000 
#    0.000    0.000    0.000    0.000    0.000    0.000 
#
# Total GULP energy -357965.132339 kJ/mol
# GULP energy per Si atom -5593.205193 kJ/mol
# Density = 2.319984 g / cm^3
# Si number density = 23.252767 Si / 1000 Ang^3
#
#
#
# Elastic Constant Matrix: (Units=GPa)
#
#
# Indices 1 2 3 4 5 6 
#
# 1 48.4010 -5.9473 9.3084 0.0000 0.0000 0.0000
# 2 -5.9473 89.7716 36.1444 0.0000 0.0000 0.0000
# 3 9.3084 36.1444 114.2808 0.0000 0.0000 0.0000
# 4 0.0000 0.0000 0.0000 11.8116 0.0000 0.0000
# 5 0.0000 0.0000 0.0000 0.0000 7.7550 0.0000
# 6 0.0000 0.0000 0.0000 0.0000 0.0000 36.0554
#
#
#
# Elastic Compliance Matrix: (Units=1/GPa)
#
#
# Indices 1 2 3 4 5 6 
#
# 1 0.021444 0.002434 -0.002516 0.000000 0.000000 0.000000
# 2 0.002434 0.013041 -0.004323 0.000000 0.000000 0.000000
# 3 -0.002516 -0.004323 0.010323 0.000000 0.000000 0.000000
# 4 0.000000 0.000000 0.000000 0.084662 0.000000 0.000000
# 5 0.000000 0.000000 0.000000 0.000000 0.128949 0.000000
# 6 0.000000 0.000000 0.000000 0.000000 0.000000 0.027735
#
#
# Mechanical properties :
#
#
# Convention : Reuss Voigt Hill
#
# Bulk Modulus (GPa) = 27.78044 36.82937 32.30491
# Shear Modulus (GPa) = 16.28855 25.32093 20.80474
#
# Velocity S-wave (km/s) = 2.64957 3.30349 2.99443
# Velocity P-wave (km/s) = 4.61881 5.51578 5.08710
#
# Compressibility (1/GPa) = 0.03599655
#
# Stress axis : x y z
#
# Youngs Moduli (GPa) = 46.63365 76.68059 96.87514
#
# Poissons Ratio (x) = -0.18663 0.24378
# Poissons Ratio (y) = -0.11350 0.41878
# Poissons Ratio (z) = 0.11735 0.33148
#
# Static dielectric constant tensor:
#      x y z
#    x 1.937900 0.000000 0.000000 
#    y 0.000000 1.906240 0.000000 
#    z 0.000000 0.000000 1.827750 
# 
# From -- ./inp_files/23475.got.cif
#   From: 2010.05.17/outbox.cif.g08.bks.cpg/sg55_12_cif.got.tgz:23475.got - 2010.06.03 13:27:54.
