data_PCOD9427610
_publ_section_title
;
Structure prediction by ZEFSAII (Michael W. Deem and Ramdas Pophale) SiO2 
 PCOD9427610
Probable space group: P B A M
;
_chemical_formula_sum "Si O2"
_cell_formula_units_Z 58
_cell_length_a 26.221981
_cell_length_b 11.742481
_cell_length_c 7.435117
_cell_angle_alpha 90.000000
_cell_angle_beta 90.000000
_cell_angle_gamma 90.000000
_cell_volume 2289.355156
_symmetry_space_group_name_H-M "P B A M"
_symmetry_group_IT_number 55
_symmetry_cell_setting 'orthorhombic'
loop_
_space_group_symop_operation_xyz
x,y,z
-x,-y,z
1/2+x,1/2-y,-z
1/2-x,1/2+y,-z
-x,-y,-z
x,y,-z
1/2-x,1/2+y,z
1/2+x,1/2-y,z
loop_
_atom_site_type_symbol
_atom_site_label
_atom_site_fract_x
_atom_site_fract_y
_atom_site_fract_z
Si Si1 0.075621 0.001680 0.210202
Si Si2 0.747722 0.753521 0.798759
Si Si3 0.500000 0.500000 0.500000
Si Si4 0.459869 0.824327 0.709852
Si Si5 0.640600 0.306989 0.714912
Si Si6 0.889024 0.478291 0.782990
Si Si7 0.428725 0.249783 0.204534
Si Si8 0.775982 0.511891 0.220283
O O1 0.034811 0.059865 0.340666
O O2 0.075037 0.873805 0.287759
O O3 0.129434 0.061983 0.237746
O O4 0.061545 0.005054 0.000000
O O5 0.808857 0.764253 0.806547
O O6 0.742888 0.623576 0.721320
O O7 0.734629 0.880052 0.721096
O O8 0.724779 0.751507 0.000000
O O9 0.467327 0.802441 0.500000
O O10 0.410487 0.756106 0.780706
O O11 0.513211 0.794049 0.798620
O O12 0.438932 0.952379 0.728061
O O13 0.644970 0.292768 0.500000
O O14 0.894870 0.349693 0.714973
O O15 0.835220 0.529958 0.724720
O O16 0.888751 0.475299 0.000000
O O17 0.411277 0.267398 0.000000
O O18 0.772498 0.511567 0.000000
#
# Coordination Sequence:
#
# PCOD9427610 Si02
#       8
#     8   8   2   8   8   8   8   8
#     4  11  24  40  61  90 127 173 220 267 328 385
#     4  10  20  38  65  94 122 160 210 264 330 401
#     4  12  22  40  60  90 130 172 222 276 316 380
#     4  11  23  36  57  86 121 164 210 258 316 376
#     4  11  23  40  61  90 126 166 211 272 321 381
#     4  10  20  39  61  86 122 161 209 263 315 380
#     4  10  23  38  58  89 124 166 214 263 314 380
#     4   9  19  36  63  94 122 157 207 268 328 394
#
# _framework density 25.334645999999999
#
# number of rings (size 3 to 8) (size 9 to 14) (size 15 to 20)
#    0.000    1.655    2.069    2.276    2.897    6.069 
#    0.000    5.517    0.000    0.000    0.000    0.000 
#    0.000    0.000    0.000    0.000    0.000    0.000 
#
# Total GULP energy -323477.968622 kJ/mol
# GULP energy per Si atom -5577.206356 kJ/mol
# Density = 2.527698 g / cm^3
# Si number density = 25.334646 Si / 1000 Ang^3
#
#
#
# Elastic Constant Matrix: (Units=GPa)
#
#
# Indices 1 2 3 4 5 6 
#
# 1 46.1932 21.5689 -4.7574 0.0000 0.0000 0.0000
# 2 21.5689 176.2345 -0.1879 0.0000 0.0000 0.0000
# 3 -4.7574 -0.1879 128.9573 0.0000 0.0000 0.0000
# 4 0.0000 0.0000 0.0000 13.4340 0.0000 0.0000
# 5 0.0000 0.0000 0.0000 0.0000 24.2075 0.0000
# 6 0.0000 0.0000 0.0000 0.0000 0.0000 47.1162
#
#
#
# Elastic Compliance Matrix: (Units=1/GPa)
#
#
# Indices 1 2 3 4 5 6 
#
# 1 0.023052 -0.002820 0.000846 0.000000 0.000000 0.000000
# 2 -0.002820 0.006019 -0.000095 0.000000 0.000000 0.000000
# 3 0.000846 -0.000095 0.007786 0.000000 0.000000 0.000000
# 4 0.000000 0.000000 0.000000 0.074438 0.000000 0.000000
# 5 0.000000 0.000000 0.000000 0.000000 0.041310 0.000000
# 6 0.000000 0.000000 0.000000 0.000000 0.000000 0.021224
#
#
# Mechanical properties :
#
#
# Convention : Reuss Voigt Hill
#
# Bulk Modulus (GPa) = 30.56377 42.73692 36.65034
# Shear Modulus (GPa) = 26.47272 39.26895 32.87084
#
# Velocity S-wave (km/s) = 3.23603 3.94129 3.60594
# Velocity P-wave (km/s) = 5.10419 6.13329 5.64225
#
# Compressibility (1/GPa) = 0.03271848
#
# Stress axis : x y z
#
# Youngs Moduli (GPa) = 43.37962 166.13114 128.44241
#
# Poissons Ratio (x) = 0.46856 -0.10870
# Poissons Ratio (y) = 0.12235 0.01224
# Poissons Ratio (z) = -0.03671 0.01583
#
# Static dielectric constant tensor:
#      x y z
#    x 1.991560 0.000000 0.000000 
#    y 0.000000 2.213470 0.000000 
#    z 0.000000 0.000000 1.962400 
# 
# From -- ./inp_files/10199.got.cif
#   From: 2010.05.17/outbox.cif.g08.bks.cpg/sg55_6_cif.got.tgz:10199.got - 2010.06.03 13:27:54.
