data_PCOD9427795
_publ_section_title
;
Structure prediction by ZEFSAII (Michael W. Deem and Ramdas Pophale) SiO2 
 PCOD9427795
Probable space group: P B A M
;
_chemical_formula_sum "Si O2"
_cell_formula_units_Z 36
_cell_length_a 27.724271
_cell_length_b 4.980218
_cell_length_c 10.926044
_cell_angle_alpha 90.000000
_cell_angle_beta 90.000000
_cell_angle_gamma 90.000000
_cell_volume 1508.590728
_symmetry_space_group_name_H-M "P B A M"
_symmetry_group_IT_number 55
_symmetry_cell_setting 'orthorhombic'
loop_
_space_group_symop_operation_xyz
x,y,z
-x,-y,z
1/2+x,1/2-y,-z
1/2-x,1/2+y,-z
-x,-y,-z
x,y,-z
1/2-x,1/2+y,z
1/2+x,1/2-y,z
loop_
_atom_site_type_symbol
_atom_site_label
_atom_site_fract_x
_atom_site_fract_y
_atom_site_fract_z
Si Si1 0.283958 0.317328 0.860478
Si Si2 0.051263 0.991011 0.713650
Si Si3 0.651092 0.312052 0.708596
Si Si4 0.578542 0.032729 0.140488
Si Si5 0.782776 0.577295 0.500000
O O1 0.260861 0.025577 0.846362
O O2 0.322292 0.430224 0.764726
O O3 0.302352 0.345482 0.000000
O O4 0.062969 0.702888 0.769412
O O5 0.952756 0.795451 0.826050
O O6 0.100090 0.095010 0.649362
O O7 0.000000 0.000000 0.647831
O O8 0.632222 0.129393 0.821350
O O9 0.685031 0.156725 0.616056
O O10 0.575327 0.956578 0.000000
O O11 0.763745 0.274376 0.500000
#
# Coordination Sequence:
#
# PCOD9427795 Si02
#       5
#     8   8   8   8   4
#     4  10  21  35  55  83 118 155 194 246 313 379
#     4  10  23  39  62  94 135 172 212 256 313 378
#     4  10  25  41  64  91 126 162 214 266 316 381
#     4  10  22  37  62  93 132 169 206 254 312 374
#     4  12  28  46  73  95 121 165 218 272 332 378
#
# _framework density 23.863330999999999
#
# number of rings (size 3 to 8) (size 9 to 14) (size 15 to 20)
#    1.333    0.444    0.000    3.333    6.222    2.667 
#    0.000    0.556    0.000    1.333    0.000    0.000 
#    0.000    0.000    0.000    0.000    0.000    0.000 
#
# Total GULP energy -201252.158931 kJ/mol
# GULP energy per Si atom -5590.337748 kJ/mol
# Density = 2.380902 g / cm^3
# Si number density = 23.863331 Si / 1000 Ang^3
#
#
#
# Elastic Constant Matrix: (Units=GPa)
#
#
# Indices 1 2 3 4 5 6 
#
# 1 125.4114 -1.6344 23.3467 0.0000 0.0000 0.0000
# 2 -1.6344 91.0395 -4.5359 0.0000 0.0000 0.0000
# 3 23.3467 -4.5359 76.1183 0.0000 0.0000 0.0000
# 4 0.0000 0.0000 0.0000 14.2185 0.0000 0.0000
# 5 0.0000 0.0000 0.0000 0.0000 11.4886 0.0000
# 6 0.0000 0.0000 0.0000 0.0000 0.0000 21.1048
#
#
#
# Elastic Compliance Matrix: (Units=1/GPa)
#
#
# Indices 1 2 3 4 5 6 
#
# 1 0.008457 0.000023 -0.002592 0.000000 0.000000 0.000000
# 2 0.000023 0.011017 0.000650 0.000000 0.000000 0.000000
# 3 -0.002592 0.000650 0.013971 0.000000 0.000000 0.000000
# 4 0.000000 0.000000 0.000000 0.070331 0.000000 0.000000
# 5 0.000000 0.000000 0.000000 0.000000 0.087043 0.000000
# 6 0.000000 0.000000 0.000000 0.000000 0.000000 0.047382
#
#
# Mechanical properties :
#
#
# Convention : Reuss Voigt Hill
#
# Bulk Modulus (GPa) = 33.77863 36.32466 35.05164
# Shear Modulus (GPa) = 19.84836 27.72191 23.78513
#
# Velocity S-wave (km/s) = 2.88714 3.41206 3.16052
# Velocity P-wave (km/s) = 5.02990 5.54778 5.29517
#
# Compressibility (1/GPa) = 0.02960451
#
# Stress axis : x y z
#
# Youngs Moduli (GPa) = 118.24998 90.76868 71.57533
#
# Poissons Ratio (x) = -0.00206 0.18555
# Poissons Ratio (y) = -0.00268 -0.04649
# Poissons Ratio (z) = 0.30656 -0.05896
#
# Static dielectric constant tensor:
#      x y z
#    x 1.996970 0.000000 0.000000 
#    y 0.000000 1.893940 0.000000 
#    z 0.000000 0.000000 1.927320 
# 
# From -- ./inp_files/15532.got.cif
#   From: 2010.05.17/outbox.cif.g08.bks.cpg/sg55_8_cif.got.tgz:15532.got - 2010.06.03 13:27:54.
