data_PCOD9427285
_publ_section_title
;
Structure prediction by ZEFSAII (Michael W. Deem and Ramdas Pophale) SiO2 
 PCOD9427285
Probable space group: P B A M
;
_chemical_formula_sum "Si O2"
_cell_formula_units_Z 64
_cell_length_a 21.411955
_cell_length_b 16.887644
_cell_length_c 9.496386
_cell_angle_alpha 90.000000
_cell_angle_beta 90.000000
_cell_angle_gamma 90.000000
_cell_volume 3433.869184
_symmetry_space_group_name_H-M "P B A M"
_symmetry_group_IT_number 55
_symmetry_cell_setting 'orthorhombic'
loop_
_space_group_symop_operation_xyz
x,y,z
-x,-y,z
1/2+x,1/2-y,-z
1/2-x,1/2+y,-z
-x,-y,-z
x,y,-z
1/2-x,1/2+y,z
1/2+x,1/2-y,z
loop_
_atom_site_type_symbol
_atom_site_label
_atom_site_fract_x
_atom_site_fract_y
_atom_site_fract_z
Si Si1 0.629074 0.662739 0.163856
Si Si2 0.406484 0.190286 0.332963
Si Si3 0.317568 0.615577 0.167701
Si Si4 0.134622 0.405569 0.334899
Si Si5 0.298169 0.070656 0.663125
Si Si6 0.990039 0.594487 0.836567
Si Si7 0.723846 0.202917 0.163643
Si Si8 0.428389 0.508129 0.830154
O O1 0.594374 0.722764 0.267367
O O2 0.702401 0.684439 0.174050
O O3 0.610486 0.572474 0.197713
O O4 0.610905 0.676611 0.000000
O O5 0.418359 0.189442 0.500000
O O6 0.339186 0.148773 0.309058
O O7 0.456091 0.138026 0.249170
O O8 0.262172 0.566616 0.240093
O O9 0.299368 0.707316 0.192663
O O10 0.385034 0.582297 0.216641
O O11 0.314627 0.603571 0.000000
O O12 0.122446 0.392234 0.500000
O O13 0.156247 0.496299 0.316811
O O14 0.074599 0.388242 0.240995
O O15 0.189744 0.352178 0.275140
O O16 0.278574 0.071563 0.500000
O O17 0.000000 0.500000 0.831589
O O18 0.989526 0.618992 0.000000
O O19 0.706371 0.185319 0.000000
O O20 0.500000 0.500000 0.776987
O O21 0.433345 0.515464 0.000000
#
# Coordination Sequence:
#
# PCOD9427285 Si02
#       8
#     8   8   8   8   8   8   8   8
#     4  10  20  37  60  88 118 151 201 256 301 354
#     4  11  22  37  59  85 118 156 197 242 298 360
#     4  10  20  36  61  86 114 152 197 250 301 354
#     4  11  23  38  57  83 119 159 195 236 292 354
#     4  10  21  36  56  83 115 153 193 238 292 355
#     4  11  23  38  58  84 115 154 197 239 287 346
#     4  10  21  36  56  88 121 150 195 251 304 356
#     4   9  19  36  59  86 116 155 199 247 304 358
#
# _framework density 18.637868000000001
#
# number of rings (size 3 to 8) (size 9 to 14) (size 15 to 20)
#    0.000    1.750    2.500    1.875    0.000    5.000 
#    0.000    3.125    0.000    1.500    0.000    0.000 
#    0.000    0.000    0.000    0.000    0.000    0.000 
#
# Total GULP energy -357061.916137 kJ/mol
# GULP energy per Si atom -5579.092440 kJ/mol
# Density = 1.859545 g / cm^3
# Si number density = 18.637868 Si / 1000 Ang^3
#
#
#
# Elastic Constant Matrix: (Units=GPa)
#
#
# Indices 1 2 3 4 5 6 
#
# 1 63.7514 24.4668 34.9044 0.0000 0.0000 0.0000
# 2 24.4668 60.6658 32.3787 0.0000 0.0000 0.0000
# 3 34.9044 32.3787 63.2249 0.0000 0.0000 0.0000
# 4 0.0000 0.0000 0.0000 22.9181 0.0000 0.0000
# 5 0.0000 0.0000 0.0000 0.0000 -18.8036 0.0000
# 6 0.0000 0.0000 0.0000 0.0000 0.0000 24.5868
#
#
#
# Elastic Compliance Matrix: (Units=1/GPa)
#
#
# Indices 1 2 3 4 5 6 
#
# 1 0.022991 -0.003438 -0.010932 0.000000 0.000000 0.000000
# 2 -0.003438 0.023198 -0.009982 0.000000 0.000000 0.000000
# 3 -0.010932 -0.009982 0.026964 0.000000 0.000000 0.000000
# 4 0.000000 0.000000 0.000000 0.043634 0.000000 0.000000
# 5 0.000000 0.000000 0.000000 0.000000 -0.053181 0.000000
# 6 0.000000 0.000000 0.000000 0.000000 0.000000 0.040672
#
#
# Mechanical properties :
#
#
# Convention : Reuss Voigt Hill
#
# Bulk Modulus (GPa) = 40.90196 41.23800 41.06998
# Shear Modulus (GPa) = 31.03087 12.13308 21.58197
#
# Velocity S-wave (km/s) = 4.08479 2.55422 3.40658
# Velocity P-wave (km/s) = 6.65136 5.55632 6.12835
#
# Compressibility (1/GPa) = 0.02444870
#
# Stress axis : x y z
#
# Youngs Moduli (GPa) = 43.49621 43.10723 37.08674
#
# Poissons Ratio (x) = 0.14819 0.40543
# Poissons Ratio (y) = 0.14952 0.37021
# Poissons Ratio (z) = 0.47549 0.43031
#
# Static dielectric constant tensor:
#      x y z
#    x 1.653120 0.000000 0.000000 
#    y 0.000000 1.660150 0.000000 
#    z 0.000000 0.000000 1.613820 
# 
# From -- ./inp_files/9010.got.cif
#   From: 2010.05.17/outbox.cif.g08.bks.cpg/sg55_5_cif.got.tgz:9010.got - 2010.06.03 13:27:54.
