data_PCOD9427364
_publ_section_title
;
Structure prediction by ZEFSAII (Michael W. Deem and Ramdas Pophale) SiO2 
 PCOD9427364
Probable space group: P B A M
;
_chemical_formula_sum "Si O2"
_cell_formula_units_Z 64
_cell_length_a 13.057516
_cell_length_b 29.514271
_cell_length_c 9.239828
_cell_angle_alpha 90.000000
_cell_angle_beta 90.000000
_cell_angle_gamma 90.000000
_cell_volume 3560.873242
_symmetry_space_group_name_H-M "P B A M"
_symmetry_group_IT_number 55
_symmetry_cell_setting 'orthorhombic'
loop_
_space_group_symop_operation_xyz
x,y,z
-x,-y,z
1/2+x,1/2-y,-z
1/2-x,1/2+y,-z
-x,-y,-z
x,y,-z
1/2-x,1/2+y,z
1/2+x,1/2-y,z
loop_
_atom_site_type_symbol
_atom_site_label
_atom_site_fract_x
_atom_site_fract_y
_atom_site_fract_z
Si Si1 0.984607 0.141994 0.671520
Si Si2 0.115667 0.551409 0.324856
Si Si3 0.277663 0.210579 0.162576
Si Si4 0.960661 0.248725 0.332571
Si Si5 0.772507 0.121671 0.828157
Si Si6 0.884891 0.554795 0.675056
Si Si7 0.127177 0.292733 0.161745
Si Si8 0.288134 0.621391 0.325198
O O1 0.969271 0.133395 0.500000
O O2 0.995295 0.196608 0.687897
O O3 0.884566 0.125942 0.757484
O O4 0.091998 0.119125 0.717759
O O5 0.114673 0.553185 0.500000
O O6 0.126510 0.498448 0.287987
O O7 0.211428 0.581604 0.276018
O O8 0.001720 0.567841 0.280388
O O9 0.366861 0.240991 0.228613
O O10 0.181785 0.244140 0.156167
O O11 0.255714 0.168020 0.262978
O O12 0.302205 0.195508 0.000000
O O13 0.932259 0.253987 0.500000
O O14 0.044147 0.285956 0.285882
O O15 0.701623 0.084085 0.752376
O O16 0.710546 0.168798 0.807837
O O17 0.781171 0.113746 0.000000
O O18 0.876939 0.559445 0.500000
O O19 0.083710 0.301753 0.000000
O O20 0.286997 0.622890 0.500000
#
# Coordination Sequence:
#
# PCOD9427364 Si02
#       8
#     8   8   8   8   8   8   8   8
#     4  10  21  36  55  79 110 146 189 235 275 324
#     4   8  17  36  63  87 112 141 175 227 287 341
#     4  11  22  36  53  77 112 153 187 223 273 333
#     4  11  22  35  53  77 107 145 189 236 276 318
#     4  11  23  38  56  81 113 151 190 229 276 334
#     4   9  18  37  62  88 112 141 180 225 284 343
#     4  10  22  37  52  74 109 149 187 223 270 329
#     4  10  20  37  58  85 112 143 190 237 279 329
#
# _framework density 17.973119000000001
#
# number of rings (size 3 to 8) (size 9 to 14) (size 15 to 20)
#    0.000    2.000    2.500    1.875    1.750    2.500 
#    0.000    2.500    0.000    3.750    0.000    0.000 
#    0.000    0.000    0.000    0.000    0.000    0.000 
#
# Total GULP energy -356830.907342 kJ/mol
# GULP energy per Si atom -5575.482927 kJ/mol
# Density = 1.793221 g / cm^3
# Si number density = 17.973119 Si / 1000 Ang^3
#
#
#
# Elastic Constant Matrix: (Units=GPa)
#
#
# Indices 1 2 3 4 5 6 
#
# 1 60.6715 23.7903 32.7895 0.0000 0.0000 0.0000
# 2 23.7903 57.4015 16.0734 0.0000 0.0000 0.0000
# 3 32.7895 16.0734 34.2886 0.0000 0.0000 0.0000
# 4 0.0000 0.0000 0.0000 -5.0675 0.0000 0.0000
# 5 0.0000 0.0000 0.0000 0.0000 20.2183 0.0000
# 6 0.0000 0.0000 0.0000 0.0000 0.0000 35.7437
#
#
#
# Elastic Compliance Matrix: (Units=1/GPa)
#
#
# Indices 1 2 3 4 5 6 
#
# 1 0.035850 -0.006053 -0.031445 0.000000 0.000000 0.000000
# 2 -0.006053 0.021075 -0.004091 0.000000 0.000000 0.000000
# 3 -0.031445 -0.004091 0.061152 0.000000 0.000000 0.000000
# 4 0.000000 0.000000 0.000000 -0.197336 0.000000 0.000000
# 5 0.000000 0.000000 0.000000 0.000000 0.049460 0.000000
# 6 0.000000 0.000000 0.000000 0.000000 0.000000 0.027977
#
#
# Mechanical properties :
#
#
# Convention : Reuss Voigt Hill
#
# Bulk Modulus (GPa) = 28.65395 33.07422 30.86409
# Shear Modulus (GPa) = 53.76941 15.49281 34.63111
#
# Velocity S-wave (km/s) = 5.47554 2.93917 4.39433
# Velocity P-wave (km/s) = 7.48015 5.47360 6.55412
#
# Compressibility (1/GPa) = 0.03489920
#
# Stress axis : x y z
#
# Youngs Moduli (GPa) = 27.89403 47.44863 16.35266
#
# Poissons Ratio (x) = 0.28721 0.51421
# Poissons Ratio (y) = 0.16884 0.06690
# Poissons Ratio (z) = 0.87713 0.19411
#
# Static dielectric constant tensor:
#      x y z
#    x 1.643280 0.000000 0.000000 
#    y 0.000000 1.599980 0.000000 
#    z 0.000000 0.000000 1.603620 
# 
# From -- ./inp_files/4538.got.cif
#   From: 2010.05.17/outbox.cif.g08.bks.cpg/sg55_3_cif.got.tgz:4538.got - 2010.06.03 13:27:54.
