data_PCOD9427563
_publ_section_title
;
Structure prediction by ZEFSAII (Michael W. Deem and Ramdas Pophale) SiO2 
 PCOD9427563
Probable space group: P B A M
;
_chemical_formula_sum "Si O2"
_cell_formula_units_Z 64
_cell_length_a 19.584360
_cell_length_b 19.787113
_cell_length_c 7.810551
_cell_angle_alpha 90.000000
_cell_angle_beta 90.000000
_cell_angle_gamma 90.000000
_cell_volume 3026.728668
_symmetry_space_group_name_H-M "P B A M"
_symmetry_group_IT_number 55
_symmetry_cell_setting 'orthorhombic'
loop_
_space_group_symop_operation_xyz
x,y,z
-x,-y,z
1/2+x,1/2-y,-z
1/2-x,1/2+y,-z
-x,-y,-z
x,y,-z
1/2-x,1/2+y,z
1/2+x,1/2-y,z
loop_
_atom_site_type_symbol
_atom_site_label
_atom_site_fract_x
_atom_site_fract_y
_atom_site_fract_z
Si Si1 0.521679 0.126387 0.204319
Si Si2 0.360040 0.966296 0.210004
Si Si3 0.962283 0.898821 0.708355
Si Si4 0.131992 0.617881 0.204496
Si Si5 0.395341 0.739405 0.292153
Si Si6 0.259430 0.230801 0.302591
Si Si7 0.104548 0.963770 0.292571
Si Si8 0.766740 0.121233 0.800467
O O1 0.566556 0.062663 0.265267
O O2 0.444577 0.132805 0.272246
O O3 0.566642 0.192811 0.237065
O O4 0.516126 0.118161 0.000000
O O5 0.301691 0.914217 0.268687
O O6 0.347346 0.042998 0.267223
O O7 0.357956 0.965603 0.000000
O O8 0.962478 0.898672 0.500000
O O9 0.937427 0.826128 0.766186
O O10 0.038386 0.920036 0.760540
O O11 0.911580 0.959378 0.759940
O O12 0.186728 0.676551 0.235328
O O13 0.126752 0.612321 0.000000
O O14 0.393853 0.740133 0.500000
O O15 0.317418 0.732592 0.227803
O O16 0.251130 0.212908 0.500000
O O17 0.284736 0.307888 0.286482
O O18 0.108537 0.962130 0.500000
O O19 0.172498 0.931882 0.219596
O O20 0.756176 0.136515 0.000000
#
# Coordination Sequence:
#
# PCOD9427563 Si02
#       8
#     8   8   8   8   8   8   8   8
#     4  10  20  38  62  87 114 152 194 236 288 345
#     4   9  19  38  61  85 115 153 191 233 288 345
#     4   8  17  35  57  81 110 149 189 230 284 342
#     4  10  22  39  63  90 116 148 193 241 288 343
#     4  10  21  37  57  81 114 154 194 235 282 341
#     4  11  24  40  57  83 117 155 193 235 286 338
#     4   9  18  35  59  83 110 147 191 233 284 346
#     4  11  22  37  58  83 116 153 191 237 287 339
#
# _framework density 21.144942
#
# number of rings (size 3 to 8) (size 9 to 14) (size 15 to 20)
#    0.000    2.250    1.250    1.875    3.500    2.500 
#    0.000    3.125    0.000    1.500    0.000    0.000 
#    0.000    0.000    0.000    0.000    0.000    0.000 
#
# Total GULP energy -357327.627945 kJ/mol
# GULP energy per Si atom -5583.244187 kJ/mol
# Density = 2.109682 g / cm^3
# Si number density = 21.144942 Si / 1000 Ang^3
#
#
#
# Elastic Constant Matrix: (Units=GPa)
#
#
# Indices 1 2 3 4 5 6 
#
# 1 42.0483 50.6724 2.0785 0.0000 0.0000 0.0000
# 2 50.6724 125.8841 -1.1030 0.0000 0.0000 0.0000
# 3 2.0785 -1.1030 24.6869 0.0000 0.0000 0.0000
# 4 0.0000 0.0000 0.0000 -24.9521 0.0000 0.0000
# 5 0.0000 0.0000 0.0000 0.0000 14.4810 0.0000
# 6 0.0000 0.0000 0.0000 0.0000 0.0000 35.7972
#
#
#
# Elastic Compliance Matrix: (Units=1/GPa)
#
#
# Indices 1 2 3 4 5 6 
#
# 1 0.046744 -0.018858 -0.004778 0.000000 0.000000 0.000000
# 2 -0.018858 0.015555 0.002283 0.000000 0.000000 0.000000
# 3 -0.004778 0.002283 0.041012 0.000000 0.000000 0.000000
# 4 0.000000 0.000000 0.000000 -0.040077 0.000000 0.000000
# 5 0.000000 0.000000 0.000000 0.000000 0.069056 0.000000
# 6 0.000000 0.000000 0.000000 0.000000 0.000000 0.027935
#
#
# Mechanical properties :
#
#
# Convention : Reuss Voigt Hill
#
# Bulk Modulus (GPa) = 16.50062 32.87946 24.69004
# Shear Modulus (GPa) = 22.40823 14.46332 18.43578
#
# Velocity S-wave (km/s) = 3.25890 2.61819 2.95596
# Velocity P-wave (km/s) = 4.68840 4.97225 4.83241
#
# Compressibility (1/GPa) = 0.06060380
#
# Stress axis : x y z
#
# Youngs Moduli (GPa) = 21.39313 64.28924 24.38335
#
# Poissons Ratio (x) = 1.21236 0.11651
# Poissons Ratio (y) = 0.40343 -0.05566
# Poissons Ratio (z) = 0.10222 -0.14675
#
# Static dielectric constant tensor:
#      x y z
#    x 1.761920 0.000000 0.000000 
#    y 0.000000 1.733720 0.000000 
#    z 0.000000 0.000000 1.782160 
# 
# From -- ./inp_files/9006.got.cif
#   From: 2010.05.17/outbox.cif.g08.bks.cpg/sg55_5_cif.got.tgz:9006.got - 2010.06.03 13:27:54.
