data_PCOD9427073
_publ_section_title
;
Structure prediction by ZEFSAII (Michael W. Deem and Ramdas Pophale) SiO2 
 PCOD9427073
Probable space group: P B A M
;
_chemical_formula_sum "Si O2"
_cell_formula_units_Z 58
_cell_length_a 26.404635
_cell_length_b 5.278450
_cell_length_c 20.431518
_cell_angle_alpha 90.000000
_cell_angle_beta 90.000000
_cell_angle_gamma 90.000000
_cell_volume 2847.653969
_symmetry_space_group_name_H-M "P B A M"
_symmetry_group_IT_number 55
_symmetry_cell_setting 'orthorhombic'
loop_
_space_group_symop_operation_xyz
x,y,z
-x,-y,z
1/2+x,1/2-y,-z
1/2-x,1/2+y,-z
-x,-y,-z
x,y,-z
1/2-x,1/2+y,z
1/2+x,1/2-y,z
loop_
_atom_site_type_symbol
_atom_site_label
_atom_site_fract_x
_atom_site_fract_y
_atom_site_fract_z
Si Si1 0.970248 0.760889 0.635077
Si Si2 0.266264 0.683633 0.299444
Si Si3 0.601277 0.456699 0.142497
Si Si4 0.119638 0.297061 0.271577
Si Si5 0.715752 0.070441 0.071212
Si Si6 0.000000 0.000000 0.500000
Si Si7 0.559951 0.960016 0.924279
Si Si8 0.322263 0.188182 0.193417
O O1 0.914938 0.718279 0.665117
O O2 0.000000 0.500000 0.645405
O O3 0.971742 0.834717 0.558617
O O4 0.000000 0.000000 0.667138
O O5 0.245192 0.442476 0.336040
O O6 0.325321 0.670507 0.283609
O O7 0.229352 0.714865 0.235071
O O8 0.589376 0.345491 0.214103
O O9 0.587615 0.223539 0.095169
O O10 0.658169 0.566144 0.154870
O O11 0.574639 0.713858 0.118181
O O12 0.135917 0.573524 0.243385
O O13 0.754549 0.833518 0.072444
O O14 0.684528 0.020075 0.136644
O O15 0.689099 0.055740 0.000000
O O16 0.500000 0.000000 0.916740
O O17 0.570633 0.900263 0.000000
#
# Coordination Sequence:
#
# PCOD9427073 Si02
#       8
#     8   8   8   8   8   2   8   8
#     4  10  24  42  72 104 146 181 219 259 322 387
#     4  10  20  35  60  82 130 172 211 258 328 387
#     4  12  24  41  63  93 122 159 219 278 356 397
#     4  11  24  41  63 104 134 172 218 270 332 399
#     4  10  22  37  54  77 108 159 217 270 334 402
#     4   8  22  48  74 100 150 188 216 252 322 368
#     4  11  26  48  67  82 113 167 230 291 351 422
#     4  11  23  39  60  89 130 168 214 281 343 401
#
# _framework density 20.367643999999999
#
# number of rings (size 3 to 8) (size 9 to 14) (size 15 to 20)
#    0.414    0.966    2.759    2.690    3.862    3.862 
#    0.000    0.000    0.000    0.000    0.000    3.862 
#    0.000    0.000    0.000    0.000    0.000    0.000 
#
# Total GULP energy -322874.163719 kJ/mol
# GULP energy per Si atom -5566.795926 kJ/mol
# Density = 2.032129 g / cm^3
# Si number density = 20.367644 Si / 1000 Ang^3
#
#
#
# Elastic Constant Matrix: (Units=GPa)
#
#
# Indices 1 2 3 4 5 6 
#
# 1 114.2977 44.3668 50.8552 0.0000 0.0000 0.0000
# 2 44.3668 140.6386 31.8368 0.0000 0.0000 0.0000
# 3 50.8552 31.8368 67.7922 0.0000 0.0000 0.0000
# 4 0.0000 0.0000 0.0000 2.9149 0.0000 0.0000
# 5 0.0000 0.0000 0.0000 0.0000 10.9217 0.0000
# 6 0.0000 0.0000 0.0000 0.0000 0.0000 27.5534
#
#
#
# Elastic Compliance Matrix: (Units=1/GPa)
#
#
# Indices 1 2 3 4 5 6 
#
# 1 0.013734 -0.002238 -0.009252 0.000000 0.000000 0.000000
# 2 -0.002238 0.008321 -0.002229 0.000000 0.000000 0.000000
# 3 -0.009252 -0.002229 0.022738 0.000000 0.000000 0.000000
# 4 0.000000 0.000000 0.000000 0.343068 0.000000 0.000000
# 5 0.000000 0.000000 0.000000 0.000000 0.091561 0.000000
# 6 0.000000 0.000000 0.000000 0.000000 0.000000 0.036293
#
#
# Mechanical properties :
#
#
# Convention : Reuss Voigt Hill
#
# Bulk Modulus (GPa) = 57.61782 64.09402 60.85592
# Shear Modulus (GPa) = 9.10849 21.32264 15.21556
#
# Velocity S-wave (km/s) = 2.11701 3.23907 2.73618
# Velocity P-wave (km/s) = 5.85884 6.74727 6.31869
#
# Compressibility (1/GPa) = 0.01735574
#
# Stress axis : x y z
#
# Youngs Moduli (GPa) = 72.80959 120.17700 43.97930
#
# Poissons Ratio (x) = 0.26900 0.40689
# Poissons Ratio (y) = 0.16298 0.09801
# Poissons Ratio (z) = 0.67362 0.26783
#
# Static dielectric constant tensor:
#      x y z
#    x 1.774150 0.000000 0.000000 
#    y 0.000000 1.845910 0.000000 
#    z 0.000000 0.000000 1.696420 
# 
# From -- ./inp_files/22097.got.cif
#   From: 2010.05.17/outbox.cif.g08.bks.cpg/sg55_12_cif.got.tgz:22097.got - 2010.06.03 13:27:54.
