data_PCOD9427353
_publ_section_title
;
Structure prediction by ZEFSAII (Michael W. Deem and Ramdas Pophale) SiO2 
 PCOD9427353
Probable space group: P B A M
;
_chemical_formula_sum "Si O2"
_cell_formula_units_Z 48
_cell_length_a 30.439410
_cell_length_b 10.482573
_cell_length_c 8.136828
_cell_angle_alpha 90.000000
_cell_angle_beta 90.000000
_cell_angle_gamma 90.000000
_cell_volume 2596.326234
_symmetry_space_group_name_H-M "P B A M"
_symmetry_group_IT_number 55
_symmetry_cell_setting 'orthorhombic'
loop_
_space_group_symop_operation_xyz
x,y,z
-x,-y,z
1/2+x,1/2-y,-z
1/2-x,1/2+y,-z
-x,-y,-z
x,y,-z
1/2-x,1/2+y,z
1/2+x,1/2-y,z
loop_
_atom_site_type_symbol
_atom_site_label
_atom_site_fract_x
_atom_site_fract_y
_atom_site_fract_z
Si Si1 0.381570 0.981042 0.699981
Si Si2 0.524708 0.626622 0.701321
Si Si3 0.717293 0.018077 0.305384
Si Si4 0.616911 0.723849 0.698205
Si Si5 0.472097 0.876292 0.299144
Si Si6 0.285159 0.269290 0.808555
O O1 0.380506 0.975683 0.500000
O O2 0.332220 0.953447 0.758211
O O3 0.391857 0.128121 0.742612
O O4 0.421746 0.893262 0.755569
O O5 0.500000 0.500000 0.755616
O O6 0.525283 0.626799 0.500000
O O7 0.575327 0.641365 0.754054
O O8 0.496858 0.749481 0.754308
O O9 0.717551 0.039174 0.500000
O O10 0.725278 0.866856 0.277029
O O11 0.752294 0.115732 0.232068
O O12 0.618906 0.718132 0.500000
O O13 0.665132 0.691292 0.762173
O O14 0.471789 0.875132 0.500000
O O15 0.500000 0.000000 0.249764
O O16 0.283409 0.241895 0.000000
#
# Coordination Sequence:
#
# PCOD9427353 Si02
#       6
#     8   8   8   8   8   8
#     4   8  14  25  45  71  96 128 169 214 260 309
#     4   9  16  25  40  68 104 133 164 215 270 314
#     4  10  20  37  58  81 109 140 182 231 275 325
#     4   9  16  30  50  72 101 138 176 215 263 320
#     4   9  13  21  40  65  96 129 161 201 255 309
#     4  11  22  37  57  81 109 144 182 225 279 336
#
# _framework density 18.487660999999999
#
# number of rings (size 3 to 8) (size 9 to 14) (size 15 to 20)
#    0.000    2.667    1.667    3.000    0.000    0.000 
#    3.000    0.000    0.000    0.500    0.000   10.500 
#    0.000    0.000    0.000    0.000    0.000    0.000 
#
# Total GULP energy -267568.177178 kJ/mol
# GULP energy per Si atom -5574.337025 kJ/mol
# Density = 1.844558 g / cm^3
# Si number density = 18.487661 Si / 1000 Ang^3
#
#
#
# Elastic Constant Matrix: (Units=GPa)
#
#
# Indices 1 2 3 4 5 6 
#
# 1 149.4528 76.2640 2.1129 0.0000 0.0000 0.0000
# 2 76.2640 98.7344 -5.3178 0.0000 0.0000 0.0000
# 3 2.1129 -5.3178 12.3353 0.0000 0.0000 0.0000
# 4 0.0000 0.0000 0.0000 7.0845 0.0000 0.0000
# 5 0.0000 0.0000 0.0000 0.0000 -9.8642 0.0000
# 6 0.0000 0.0000 0.0000 0.0000 0.0000 36.7557
#
#
#
# Elastic Compliance Matrix: (Units=1/GPa)
#
#
# Indices 1 2 3 4 5 6 
#
# 1 0.011450 -0.009163 -0.005912 0.000000 0.000000 0.000000
# 2 -0.009163 0.017701 0.009201 0.000000 0.000000 0.000000
# 3 -0.005912 0.009201 0.086047 0.000000 0.000000 0.000000
# 4 0.000000 0.000000 0.000000 0.141153 0.000000 0.000000
# 5 0.000000 0.000000 0.000000 0.000000 -0.101377 0.000000
# 6 0.000000 0.000000 0.000000 0.000000 0.000000 0.027207
#
#
# Mechanical properties :
#
#
# Convention : Reuss Voigt Hill
#
# Bulk Modulus (GPa) = 9.66637 45.18230 27.42434
# Shear Modulus (GPa) = 21.89017 19.29276 20.59147
#
# Velocity S-wave (km/s) = 3.44472 3.23390 3.34098
# Velocity P-wave (km/s) = 4.58927 6.19971 5.45426
#
# Compressibility (1/GPa) = 0.10345147
#
# Stress axis : x y z
#
# Youngs Moduli (GPa) = 87.33376 56.49327 11.62152
#
# Poissons Ratio (x) = 0.51764 0.06870
# Poissons Ratio (y) = 0.80022 -0.10693
# Poissons Ratio (z) = 0.51627 -0.51977
#
# Static dielectric constant tensor:
#      x y z
#    x 1.654320 0.000000 0.000000 
#    y 0.000000 1.606990 0.000000 
#    z 0.000000 0.000000 1.640190 
# 
# From -- ./inp_files/10526.got.cif
#   From: 2010.05.17/outbox.cif.g08.bks.cpg/sg55_6_cif.got.tgz:10526.got - 2010.06.03 13:27:54.
