data_PCOD9427648
_publ_section_title
;
Structure prediction by ZEFSAII (Michael W. Deem and Ramdas Pophale) SiO2 
 PCOD9427648
Probable space group: P B A M
;
_chemical_formula_sum "Si O2"
_cell_formula_units_Z 64
_cell_length_a 18.545540
_cell_length_b 9.131448
_cell_length_c 18.553202
_cell_angle_alpha 90.000000
_cell_angle_beta 90.000000
_cell_angle_gamma 90.000000
_cell_volume 3141.940864
_symmetry_space_group_name_H-M "P B A M"
_symmetry_group_IT_number 55
_symmetry_cell_setting 'orthorhombic'
loop_
_space_group_symop_operation_xyz
x,y,z
-x,-y,z
1/2+x,1/2-y,-z
1/2-x,1/2+y,-z
-x,-y,-z
x,y,-z
1/2-x,1/2+y,z
1/2+x,1/2-y,z
loop_
_atom_site_type_symbol
_atom_site_label
_atom_site_fract_x
_atom_site_fract_y
_atom_site_fract_z
Si Si1 0.080186 0.568625 0.078579
Si Si2 0.776254 0.849251 0.733972
Si Si3 0.915760 0.513283 0.626472
Si Si4 0.142142 0.802550 0.579259
Si Si5 0.306954 0.742955 0.422523
Si Si6 0.351114 0.361229 0.266062
Si Si7 0.894954 0.629310 0.789040
Si Si8 0.476036 0.338889 0.847572
O O1 0.116103 0.486957 0.146446
O O2 0.065555 0.738775 0.094579
O O3 0.000000 0.500000 0.075800
O O4 0.114555 0.545552 0.000000
O O5 0.799182 0.847704 0.650001
O O6 0.695540 0.787918 0.738135
O O7 0.827887 0.735478 0.774436
O O8 0.795079 0.012374 0.756695
O O9 0.877287 0.366503 0.597596
O O10 0.872301 0.645382 0.589335
O O11 0.911493 0.547674 0.712898
O O12 0.000000 0.500000 0.608081
O O13 0.112485 0.838874 0.500000
O O14 0.228834 0.821649 0.576079
O O15 0.119573 0.881718 0.652501
O O16 0.314618 0.666735 0.500000
O O17 0.419071 0.363691 0.215522
O O18 0.959810 0.737643 0.814759
O O19 0.500000 0.500000 0.873086
#
# Coordination Sequence:
#
# PCOD9427648 Si02
#       8
#     8   8   8   8   8   8   8   8
#     4   9  19  35  61  94 122 152 191 237 287 349
#     4  10  23  36  59  86 114 153 204 244 298 352
#     4  11  21  37  61  87 114 150 204 253 296 359
#     4  10  22  36  56  81 115 154 197 254 312 358
#     4   9  21  35  52  77 113 149 193 248 299 347
#     4  11  23  38  58  87 115 153 201 251 292 356
#     4  10  20  39  62  90 119 155 196 246 296 352
#     4  11  21  38  62  89 125 159 192 246 301 350
#
# _framework density 20.369575999999999
#
# number of rings (size 3 to 8) (size 9 to 14) (size 15 to 20)
#    0.000    1.875    1.250    3.000   12.250    1.750 
#    0.000    0.000    0.000    1.125    0.000    0.000 
#    0.000    0.000    0.000    0.000    0.000    0.000 
#
# Total GULP energy -356943.433302 kJ/mol
# GULP energy per Si atom -5577.241145 kJ/mol
# Density = 2.032321 g / cm^3
# Si number density = 20.369576 Si / 1000 Ang^3
#
#
#
# Elastic Constant Matrix: (Units=GPa)
#
#
# Indices 1 2 3 4 5 6 
#
# 1 51.1414 24.0062 3.8717 0.0000 0.0000 0.0000
# 2 24.0062 98.3661 28.7465 0.0000 0.0000 0.0000
# 3 3.8717 28.7465 109.5662 0.0000 0.0000 0.0000
# 4 0.0000 0.0000 0.0000 -12.5220 0.0000 0.0000
# 5 0.0000 0.0000 0.0000 0.0000 13.2667 0.0000
# 6 0.0000 0.0000 0.0000 0.0000 0.0000 27.6124
#
#
#
# Elastic Compliance Matrix: (Units=1/GPa)
#
#
# Indices 1 2 3 4 5 6 
#
# 1 0.022131 -0.005602 0.000688 0.000000 0.000000 0.000000
# 2 -0.005602 0.012428 -0.003063 0.000000 0.000000 0.000000
# 3 0.000688 -0.003063 0.009906 0.000000 0.000000 0.000000
# 4 0.000000 0.000000 0.000000 -0.079859 0.000000 0.000000
# 5 0.000000 0.000000 0.000000 0.000000 0.075377 0.000000
# 6 0.000000 0.000000 0.000000 0.000000 0.000000 0.036216
#
#
# Mechanical properties :
#
#
# Convention : Reuss Voigt Hill
#
# Bulk Modulus (GPa) = 35.07367 41.36919 38.22143
# Shear Modulus (GPa) = 49.18500 19.16802 34.17651
#
# Velocity S-wave (km/s) = 4.91922 3.07092 4.10057
# Velocity P-wave (km/s) = 7.03712 5.73825 6.42061
#
# Compressibility (1/GPa) = 0.02851142
#
# Stress axis : x y z
#
# Youngs Moduli (GPa) = 45.18503 80.46100 100.94706
#
# Poissons Ratio (x) = 0.45075 -0.06943
# Poissons Ratio (y) = 0.25313 0.30918
# Poissons Ratio (z) = -0.03108 0.24644
#
# Static dielectric constant tensor:
#      x y z
#    x 1.705830 0.000000 0.000000 
#    y 0.000000 1.773540 0.000000 
#    z 0.000000 0.000000 1.758300 
# 
# From -- ./inp_files/21970.got.cif
#   From: 2010.05.17/outbox.cif.g08.bks.cpg/sg55_11_cif.got.tgz:21970.got - 2010.06.03 13:27:54.
