data_PCOD9427375
_publ_section_title
;
Structure prediction by ZEFSAII (Michael W. Deem and Ramdas Pophale) SiO2 
 PCOD9427375
Probable space group: P B A M
;
_chemical_formula_sum "Si O2"
_cell_formula_units_Z 56
_cell_length_a 21.979645
_cell_length_b 15.160007
_cell_length_c 7.767241
_cell_angle_alpha 90.000000
_cell_angle_beta 90.000000
_cell_angle_gamma 90.000000
_cell_volume 2588.134584
_symmetry_space_group_name_H-M "P B A M"
_symmetry_group_IT_number 55
_symmetry_cell_setting 'orthorhombic'
loop_
_space_group_symop_operation_xyz
x,y,z
-x,-y,z
1/2+x,1/2-y,-z
1/2-x,1/2+y,-z
-x,-y,-z
x,y,-z
1/2-x,1/2+y,z
1/2+x,1/2-y,z
loop_
_atom_site_type_symbol
_atom_site_label
_atom_site_fract_x
_atom_site_fract_y
_atom_site_fract_z
Si Si1 0.077762 0.583564 0.792419
Si Si2 0.306248 0.584118 0.711809
Si Si3 0.534105 0.587594 0.800385
Si Si4 0.692996 0.800805 0.705759
Si Si5 0.670529 0.609154 0.700003
Si Si6 0.422739 0.695243 0.702016
Si Si7 0.061343 0.388411 0.207983
O O1 0.129170 0.650693 0.735619
O O2 0.089275 0.482193 0.735949
O O3 0.009626 0.609438 0.736145
O O4 0.076762 0.583247 0.000000
O O5 0.306794 0.583148 0.500000
O O6 0.247937 0.638925 0.770778
O O7 0.306401 0.483388 0.773959
O O8 0.367856 0.633925 0.765830
O O9 0.500000 0.500000 0.732378
O O10 0.597175 0.606656 0.707967
O O11 0.485909 0.666720 0.788282
O O12 0.549199 0.571303 0.000000
O O13 0.700840 0.793979 0.500000
O O14 0.692022 0.701607 0.778046
O O15 0.689080 0.609124 0.500000
O O16 0.430420 0.678306 0.500000
O O17 0.409327 0.798259 0.728220
O O18 0.062394 0.386646 0.000000
#
# Coordination Sequence:
#
# PCOD9427375 Si02
#       7
#     8   8   8   8   8   8   8
#     4   9  19  37  57  78 108 147 181 220 278 331
#     4   9  20  37  54  77 111 147 181 224 276 327
#     4  11  22  35  55  83 114 147 182 230 284 333
#     4  10  21  36  57  82 107 144 191 231 272 325
#     4  10  20  37  59  81 111 149 186 229 280 335
#     4  11  21  34  56  84 112 146 185 226 278 332
#     4   9  19  36  57  80 111 145 178 222 278 332
#
# _framework density 21.637205000000002
#
# number of rings (size 3 to 8) (size 9 to 14) (size 15 to 20)
#    0.000    2.143    1.429    2.571    0.000    5.714 
#    0.000    6.429    0.000    0.000    0.000    0.000 
#    0.000    0.000    0.000    0.000    0.000    0.000 
#
# Total GULP energy -312852.746664 kJ/mol
# GULP energy per Si atom -5586.656190 kJ/mol
# Density = 2.158796 g / cm^3
# Si number density = 21.637205 Si / 1000 Ang^3
#
#
#
# Elastic Constant Matrix: (Units=GPa)
#
#
# Indices 1 2 3 4 5 6 
#
# 1 63.4595 63.2681 0.4557 0.0000 0.0000 0.0000
# 2 63.2681 207.1473 4.6407 0.0000 0.0000 0.0000
# 3 0.4557 4.6407 33.3059 0.0000 0.0000 0.0000
# 4 0.0000 0.0000 0.0000 -10.4612 0.0000 0.0000
# 5 0.0000 0.0000 0.0000 0.0000 13.7730 0.0000
# 6 0.0000 0.0000 0.0000 0.0000 0.0000 26.1956
#
#
#
# Elastic Compliance Matrix: (Units=1/GPa)
#
#
# Indices 1 2 3 4 5 6 
#
# 1 0.022672 -0.006939 0.000657 0.000000 0.000000 0.000000
# 2 -0.006939 0.006967 -0.000876 0.000000 0.000000 0.000000
# 3 0.000657 -0.000876 0.030138 0.000000 0.000000 0.000000
# 4 0.000000 0.000000 0.000000 -0.095591 0.000000 0.000000
# 5 0.000000 0.000000 0.000000 0.000000 0.072606 0.000000
# 6 0.000000 0.000000 0.000000 0.000000 0.000000 0.038174
#
#
# Mechanical properties :
#
#
# Convention : Reuss Voigt Hill
#
# Bulk Modulus (GPa) = 21.99764 48.96017 35.47891
# Shear Modulus (GPa) = 47.87687 21.60469 34.74078
#
# Velocity S-wave (km/s) = 4.70905 3.16333 4.01135
# Velocity P-wave (km/s) = 6.30520 6.00159 6.15527
#
# Compressibility (1/GPa) = 0.04545941
#
# Stress axis : x y z
#
# Youngs Moduli (GPa) = 44.10795 143.54386 33.18096
#
# Poissons Ratio (x) = 0.99608 -0.02179
# Poissons Ratio (y) = 0.30607 0.02906
# Poissons Ratio (z) = -0.02897 0.12571
#
# Static dielectric constant tensor:
#      x y z
#    x 1.742260 0.000000 0.000000 
#    y 0.000000 1.810960 0.000000 
#    z 0.000000 0.000000 1.797270 
# 
# From -- ./inp_files/6103.got.cif
#   From: 2010.05.17/outbox.cif.g08.bks.cpg/sg55_4_cif.got.tgz:6103.got - 2010.06.03 13:27:54.
