data_PCOD9427637
_publ_section_title
;
Structure prediction by ZEFSAII (Michael W. Deem and Ramdas Pophale) SiO2 
 PCOD9427637
Probable space group: P B A M
;
_chemical_formula_sum "Si O2"
_cell_formula_units_Z 40
_cell_length_a 17.665355
_cell_length_b 5.385764
_cell_length_c 18.629965
_cell_angle_alpha 90.000000
_cell_angle_beta 90.000000
_cell_angle_gamma 90.000000
_cell_volume 1772.481567
_symmetry_space_group_name_H-M "P B A M"
_symmetry_group_IT_number 55
_symmetry_cell_setting 'orthorhombic'
loop_
_space_group_symop_operation_xyz
x,y,z
-x,-y,z
1/2+x,1/2-y,-z
1/2-x,1/2+y,-z
-x,-y,-z
x,y,-z
1/2-x,1/2+y,z
1/2+x,1/2-y,z
loop_
_atom_site_type_symbol
_atom_site_label
_atom_site_fract_x
_atom_site_fract_y
_atom_site_fract_z
Si Si1 0.928228 0.323164 0.422992
Si Si2 0.201920 0.368005 0.914775
Si Si3 0.092470 0.281293 0.790883
Si Si4 0.920286 0.216105 0.733585
Si Si5 0.221756 0.355883 0.416446
O O1 0.924078 0.187237 0.500000
O O2 0.930829 0.167206 0.350559
O O3 0.858826 0.513950 0.417965
O O4 0.000000 0.500000 0.422457
O O5 0.244949 0.627890 0.898852
O O6 0.124659 0.342384 0.869214
O O7 0.186314 0.363839 0.000000
O O8 0.117615 0.515680 0.743342
O O9 0.002203 0.249928 0.773747
O O10 0.122648 0.012335 0.768574
O O11 0.245034 0.313986 0.500000
O O12 0.273226 0.579174 0.384706
#
# Coordination Sequence:
#
# PCOD9427637 Si02
#       5
#     8   8   8   8   8
#     4  10  20  39  65  90 118 165 221 274 327 374
#     4  10  21  39  65  96 128 161 201 248 296 367
#     4  10  20  39  60  84 121 162 192 247 311 361
#     4  10  21  39  60  83 122 159 206 259 307 367
#     4   9  19  37  56  78 110 144 185 247 315 372
#
# _framework density 22.567228
#
# number of rings (size 3 to 8) (size 9 to 14) (size 15 to 20)
#    0.000    2.200    2.000    1.200    0.000    1.600 
#    0.000   15.000    0.000    0.000    0.000    0.000 
#    0.000    0.000    0.000    0.000    0.000    0.000 
#
# Total GULP energy -223047.472452 kJ/mol
# GULP energy per Si atom -5576.186811 kJ/mol
# Density = 2.251586 g / cm^3
# Si number density = 22.567228 Si / 1000 Ang^3
#
#
#
# Elastic Constant Matrix: (Units=GPa)
#
#
# Indices 1 2 3 4 5 6 
#
# 1 84.9676 -6.5460 33.7062 0.0000 0.0000 0.0000
# 2 -6.5460 133.2240 21.2479 0.0000 0.0000 0.0000
# 3 33.7062 21.2479 102.6752 0.0000 0.0000 0.0000
# 4 0.0000 0.0000 0.0000 35.9766 0.0000 0.0000
# 5 0.0000 0.0000 0.0000 0.0000 33.7891 0.0000
# 6 0.0000 0.0000 0.0000 0.0000 0.0000 24.4325
#
#
#
# Elastic Compliance Matrix: (Units=1/GPa)
#
#
# Indices 1 2 3 4 5 6 
#
# 1 0.013796 0.001448 -0.004829 0.000000 0.000000 0.000000
# 2 0.001448 0.007914 -0.002113 0.000000 0.000000 0.000000
# 3 -0.004829 -0.002113 0.011762 0.000000 0.000000 0.000000
# 4 0.000000 0.000000 0.000000 0.027796 0.000000 0.000000
# 5 0.000000 0.000000 0.000000 0.000000 0.029595 0.000000
# 6 0.000000 0.000000 0.000000 0.000000 0.000000 0.040929
#
#
# Mechanical properties :
#
#
# Convention : Reuss Voigt Hill
#
# Bulk Modulus (GPa) = 44.47447 46.40924 45.44185
# Shear Modulus (GPa) = 33.27223 37.00355 35.13789
#
# Velocity S-wave (km/s) = 3.84391 4.05372 3.95020
# Velocity P-wave (km/s) = 6.28101 6.52071 6.40199
#
# Compressibility (1/GPa) = 0.02248481
#
# Stress axis : x y z
#
# Youngs Moduli (GPa) = 72.48337 126.35307 85.02008
#
# Poissons Ratio (x) = -0.18296 0.41054
# Poissons Ratio (y) = -0.10496 0.17966
# Poissons Ratio (z) = 0.35000 0.26701
#
# Static dielectric constant tensor:
#      x y z
#    x 1.889640 0.000000 0.000000 
#    y 0.000000 2.459200 0.000000 
#    z 0.000000 0.000000 1.851010 
# 
# From -- ./inp_files/20327.got.cif
#   From: 2010.05.17/outbox.cif.g08.bks.cpg/sg55_11_cif.got.tgz:20327.got - 2010.06.03 13:27:54.
