data_PCOD9427233
_publ_section_title
;
Structure prediction by ZEFSAII (Michael W. Deem and Ramdas Pophale) SiO2 
 PCOD9427233
Probable space group: P B A M
;
_chemical_formula_sum "Si O2"
_cell_formula_units_Z 48
_cell_length_a 13.793995
_cell_length_b 9.844039
_cell_length_c 19.021414
_cell_angle_alpha 90.000000
_cell_angle_beta 90.000000
_cell_angle_gamma 90.000000
_cell_volume 2582.891648
_symmetry_space_group_name_H-M "P B A M"
_symmetry_group_IT_number 55
_symmetry_cell_setting 'orthorhombic'
loop_
_space_group_symop_operation_xyz
x,y,z
-x,-y,z
1/2+x,1/2-y,-z
1/2-x,1/2+y,-z
-x,-y,-z
x,y,-z
1/2-x,1/2+y,z
1/2+x,1/2-y,z
loop_
_atom_site_type_symbol
_atom_site_label
_atom_site_fract_x
_atom_site_fract_y
_atom_site_fract_z
Si Si1 0.096675 0.589569 0.500000
Si Si2 0.702047 0.265808 0.287033
Si Si3 0.959719 0.853374 0.184858
Si Si4 0.596949 0.590096 0.500000
Si Si5 0.334668 0.250464 0.151871
Si Si6 0.755145 0.515296 0.616357
Si Si7 0.795019 0.963273 0.083399
O O1 0.074207 0.749646 0.500000
O O2 0.162843 0.550775 0.566983
O O3 0.000000 0.500000 0.500000
O O4 0.602100 0.279702 0.244588
O O5 0.784852 0.242183 0.228414
O O6 0.722224 0.406604 0.326169
O O7 0.704530 0.146868 0.343842
O O8 0.886434 0.890712 0.121504
O O9 0.050676 0.766255 0.159824
O O10 0.000000 0.000000 0.210366
O O11 0.500000 0.500000 0.500000
O O12 0.664555 0.555872 0.567104
O O13 0.297986 0.114706 0.114197
O O14 0.297916 0.380705 0.107846
O O15 0.800461 0.952659 0.000000
#
# Coordination Sequence:
#
# PCOD9427233 Si02
#       7
#     4   8   8   4   8   8   8
#     4  11  26  44  61  97 129 157 205 255 304 366
#     4  11  22  40  64  89 119 164 201 251 311 361
#     4   9  20  37  59  88 120 152 207 257 297 360
#     4  11  26  44  69  93 125 163 207 251 304 366
#     4  10  21  38  58  86 122 152 201 255 298 362
#     4  11  24  43  66  88 126 161 205 252 305 366
#     4  10  20  36  59  86 118 162 202 246 307 363
#
# _framework density 18.583822999999999
#
# number of rings (size 3 to 8) (size 9 to 14) (size 15 to 20)
#    0.000    1.667    1.667    3.500    2.333    7.000 
#    0.000    6.667    0.000    5.000    0.000    0.000 
#    0.000    0.000    0.000    0.000    0.000    0.000 
#
# Total GULP energy -268213.691445 kJ/mol
# GULP energy per Si atom -5587.785238 kJ/mol
# Density = 1.854152 g / cm^3
# Si number density = 18.583823 Si / 1000 Ang^3
#
#
#
# Elastic Constant Matrix: (Units=GPa)
#
#
# Indices 1 2 3 4 5 6 
#
# 1 73.8346 40.1402 28.4521 0.0000 0.0000 0.0000
# 2 40.1402 72.0659 19.5580 0.0000 0.0000 0.0000
# 3 28.4521 19.5580 88.5845 0.0000 0.0000 0.0000
# 4 0.0000 0.0000 0.0000 22.0477 0.0000 0.0000
# 5 0.0000 0.0000 0.0000 0.0000 7.7453 0.0000
# 6 0.0000 0.0000 0.0000 0.0000 0.0000 29.8124
#
#
#
# Elastic Compliance Matrix: (Units=1/GPa)
#
#
# Indices 1 2 3 4 5 6 
#
# 1 0.020932 -0.010461 -0.004413 0.000000 0.000000 0.000000
# 2 -0.010461 0.019989 -0.001053 0.000000 0.000000 0.000000
# 3 -0.004413 -0.001053 0.012939 0.000000 0.000000 0.000000
# 4 0.000000 0.000000 0.000000 0.045356 0.000000 0.000000
# 5 0.000000 0.000000 0.000000 0.000000 0.129111 0.000000
# 6 0.000000 0.000000 0.000000 0.000000 0.000000 0.033543
#
#
# Mechanical properties :
#
#
# Convention : Reuss Voigt Hill
#
# Bulk Modulus (GPa) = 45.44659 45.64286 45.54473
# Shear Modulus (GPa) = 16.60804 21.67673 19.14238
#
# Velocity S-wave (km/s) = 2.99270 3.41901 3.21293
# Velocity P-wave (km/s) = 6.03735 6.34035 6.19071
#
# Compressibility (1/GPa) = 0.02200385
#
# Stress axis : x y z
#
# Youngs Moduli (GPa) = 47.77473 50.02818 77.28755
#
# Poissons Ratio (x) = 0.52334 0.34109
# Poissons Ratio (y) = 0.49977 0.08140
# Poissons Ratio (z) = 0.21084 0.05269
#
# Static dielectric constant tensor:
#      x y z
#    x 1.625600 0.000000 0.000000 
#    y 0.000000 1.638430 0.000000 
#    z 0.000000 0.000000 1.623830 
# 
# From -- ./inp_files/21545.got.cif
#   From: 2010.05.17/outbox.cif.g08.bks.cpg/sg55_11_cif.got.tgz:21545.got - 2010.06.03 13:27:54.
