data_PCOD9427180
_publ_section_title
;
Structure prediction by ZEFSAII (Michael W. Deem and Ramdas Pophale) SiO2 
 PCOD9427180
Probable space group: P B A M
;
_chemical_formula_sum "Si O2"
_cell_formula_units_Z 56
_cell_length_a 9.201000
_cell_length_b 19.202191
_cell_length_c 16.897422
_cell_angle_alpha 90.000000
_cell_angle_beta 90.000000
_cell_angle_gamma 90.000000
_cell_volume 2985.425694
_symmetry_space_group_name_H-M "P B A M"
_symmetry_group_IT_number 55
_symmetry_cell_setting 'orthorhombic'
loop_
_space_group_symop_operation_xyz
x,y,z
-x,-y,z
1/2+x,1/2-y,-z
1/2-x,1/2+y,-z
-x,-y,-z
x,y,-z
1/2-x,1/2+y,z
1/2+x,1/2-y,z
loop_
_atom_site_type_symbol
_atom_site_label
_atom_site_fract_x
_atom_site_fract_y
_atom_site_fract_z
Si Si1 0.420987 0.428708 0.678268
Si Si2 0.343132 0.967104 0.771573
Si Si3 0.812615 0.292668 0.908761
Si Si4 0.750317 0.778335 0.687849
Si Si5 0.625817 0.185557 0.167571
Si Si6 0.016707 0.791116 0.409992
Si Si7 0.332984 0.602525 0.797864
O O1 0.500000 0.500000 0.655260
O O2 0.253510 0.443030 0.697026
O O3 0.441774 0.369765 0.613445
O O4 0.505582 0.405245 0.760157
O O5 0.363284 0.897175 0.822443
O O6 0.500000 0.000000 0.754239
O O7 0.242969 0.028148 0.808924
O O8 0.734856 0.218528 0.896619
O O9 0.697594 0.349245 0.873611
O O10 0.960824 0.296270 0.857589
O O11 0.845296 0.306207 0.000000
O O12 0.818807 0.725248 0.752610
O O13 0.597178 0.753896 0.656690
O O14 0.751868 0.853799 0.728499
O O15 0.848891 0.781118 0.610084
O O16 0.051132 0.774552 0.500000
#
# Coordination Sequence:
#
# PCOD9427180 Si02
#       7
#     8   8   8   8   8   8   8
#     4   9  20  37  58  83 113 155 196 238 287 348
#     4  11  20  36  61  93 109 148 201 244 282 335
#     4  11  23  39  58  88 120 153 188 240 293 340
#     4  10  20  36  58  84 112 156 197 239 284 347
#     4  11  22  38  63  85 115 155 201 236 282 351
#     4  11  21  34  55  87 119 150 191 245 295 343
#     4   9  20  37  60  85 117 149 197 238 283 352
#
# _framework density 18.757792999999999
#
# number of rings (size 3 to 8) (size 9 to 14) (size 15 to 20)
#    0.000    1.714    2.857    2.571    4.000    0.286 
#    0.000    2.143    0.000    4.286    0.000    0.000 
#    0.000    0.000    0.000    0.000    0.000    0.000 
#
# Total GULP energy -312172.276384 kJ/mol
# GULP energy per Si atom -5574.504935 kJ/mol
# Density = 1.871510 g / cm^3
# Si number density = 18.757793 Si / 1000 Ang^3
#
#
#
# Elastic Constant Matrix: (Units=GPa)
#
#
# Indices 1 2 3 4 5 6 
#
# 1 63.4926 12.7676 8.9762 0.0000 0.0000 0.0000
# 2 12.7676 88.8715 1.0289 0.0000 0.0000 0.0000
# 3 8.9762 1.0289 63.0742 0.0000 0.0000 0.0000
# 4 0.0000 0.0000 0.0000 12.6801 0.0000 0.0000
# 5 0.0000 0.0000 0.0000 0.0000 48.5209 0.0000
# 6 0.0000 0.0000 0.0000 0.0000 0.0000 29.0829
#
#
#
# Elastic Compliance Matrix: (Units=1/GPa)
#
#
# Indices 1 2 3 4 5 6 
#
# 1 0.016550 -0.002351 -0.002317 0.000000 0.000000 0.000000
# 2 -0.002351 0.011588 0.000146 0.000000 0.000000 0.000000
# 3 -0.002317 0.000146 0.016182 0.000000 0.000000 0.000000
# 4 0.000000 0.000000 0.000000 0.078864 0.000000 0.000000
# 5 0.000000 0.000000 0.000000 0.000000 0.020610 0.000000
# 6 0.000000 0.000000 0.000000 0.000000 0.000000 0.034384
#
#
# Mechanical properties :
#
#
# Convention : Reuss Voigt Hill
#
# Bulk Modulus (GPa) = 28.34821 28.99819 28.67320
# Shear Modulus (GPa) = 25.12804 30.90115 28.01460
#
# Velocity S-wave (km/s) = 3.66403 4.06319 3.86876
# Velocity P-wave (km/s) = 5.74854 6.12418 5.93933
#
# Compressibility (1/GPa) = 0.03527560
#
# Stress axis : x y z
#
# Youngs Moduli (GPa) = 60.42240 86.29433 61.79826
#
# Poissons Ratio (x) = 0.20286 0.14318
# Poissons Ratio (y) = 0.14204 -0.00899
# Poissons Ratio (z) = 0.13999 -0.01256
#
# Static dielectric constant tensor:
#      x y z
#    x 1.684750 0.000000 0.000000 
#    y 0.000000 1.673160 0.000000 
#    z 0.000000 0.000000 1.635090 
# 
# From -- ./inp_files/17606.got.cif
#   From: 2010.05.17/outbox.cif.g08.bks.cpg/sg55_9_cif.got.tgz:17606.got - 2010.06.03 13:27:54.
