data_PCOD9427250
_publ_section_title
;
Structure prediction by ZEFSAII (Michael W. Deem and Ramdas Pophale) SiO2 
 PCOD9427250
Probable space group: P B A M
;
_chemical_formula_sum "Si O2"
_cell_formula_units_Z 64
_cell_length_a 15.880471
_cell_length_b 24.381193
_cell_length_c 8.688679
_cell_angle_alpha 90.000000
_cell_angle_beta 90.000000
_cell_angle_gamma 90.000000
_cell_volume 3364.124687
_symmetry_space_group_name_H-M "P B A M"
_symmetry_group_IT_number 55
_symmetry_cell_setting 'orthorhombic'
loop_
_space_group_symop_operation_xyz
x,y,z
-x,-y,z
1/2+x,1/2-y,-z
1/2-x,1/2+y,-z
-x,-y,-z
x,y,-z
1/2-x,1/2+y,z
1/2+x,1/2-y,z
loop_
_atom_site_type_symbol
_atom_site_label
_atom_site_fract_x
_atom_site_fract_y
_atom_site_fract_z
Si Si1 0.658472 0.368703 0.314676
Si Si2 0.159797 0.369221 0.315992
Si Si3 0.591651 0.249657 0.314279
Si Si4 0.497171 0.936259 0.184383
Si Si5 0.997103 0.936769 0.814073
Si Si6 0.096672 0.746998 0.815655
Si Si7 0.847119 0.368067 0.684456
Si Si8 0.159831 0.867171 0.185496
O O1 0.654636 0.371832 0.500000
O O2 0.640037 0.305327 0.271933
O O3 0.585515 0.406213 0.246200
O O4 0.752842 0.384634 0.266638
O O5 0.159025 0.372378 0.500000
O O6 0.139895 0.306020 0.271175
O O7 0.251221 0.385019 0.253611
O O8 0.085176 0.406532 0.250685
O O9 0.580384 0.249206 0.500000
O O10 0.500561 0.249731 0.235584
O O11 0.579784 0.904912 0.243736
O O12 0.500000 0.000000 0.230255
O O13 0.494684 0.932955 0.000000
O O14 0.080960 0.904268 0.763975
O O15 0.995258 0.935344 0.000000
O O16 0.000000 0.000000 0.764589
O O17 0.137547 0.694497 0.735709
O O18 0.140231 0.804208 0.770539
O O19 0.101377 0.741112 0.000000
O O20 0.852764 0.371155 0.500000
O O21 0.164143 0.869571 0.000000
#
# Coordination Sequence:
#
# PCOD9427250 Si02
#       8
#     8   8   8   8   8   8   8   8
#     4  10  22  39  61  89 122 157 196 243 295 355
#     4  11  23  39  63  92 120 158 199 243 303 362
#     4  10  20  36  59  88 121 156 192 239 298 357
#     4  11  25  44  64  87 118 158 204 253 303 357
#     4  10  22  41  62  84 116 158 203 251 300 348
#     4  11  21  35  60  91 122 159 198 243 298 356
#     4  11  23  40  62  91 125 158 197 246 301 363
#     4  10  22  39  59  89 123 157 199 248 299 355
#
# _framework density 19.024265
#
# number of rings (size 3 to 8) (size 9 to 14) (size 15 to 20)
#    0.000    1.500    2.500    2.250    0.000    6.250 
#    0.000    3.750    0.000    0.000    0.000    0.000 
#    0.000    0.000    0.000    0.000    0.000    0.000 
#
# Total GULP energy -357751.739011 kJ/mol
# GULP energy per Si atom -5589.870922 kJ/mol
# Density = 1.898096 g / cm^3
# Si number density = 19.024265 Si / 1000 Ang^3
#
#
#
# Elastic Constant Matrix: (Units=GPa)
#
#
# Indices 1 2 3 4 5 6 
#
# 1 200.1690 92.1238 36.6693 0.0000 0.0000 0.0000
# 2 92.1238 155.8814 35.2247 0.0000 0.0000 0.0000
# 3 36.6693 35.2247 19.3189 0.0000 0.0000 0.0000
# 4 0.0000 0.0000 0.0000 11.8132 0.0000 0.0000
# 5 0.0000 0.0000 0.0000 0.0000 37.7585 0.0000
# 6 0.0000 0.0000 0.0000 0.0000 0.0000 -3.1404
#
#
#
# Elastic Compliance Matrix: (Units=1/GPa)
#
#
# Indices 1 2 3 4 5 6 
#
# 1 0.008090 -0.002230 -0.011290 0.000000 0.000000 0.000000
# 2 -0.002230 0.011525 -0.016781 0.000000 0.000000 0.000000
# 3 -0.011290 -0.016781 0.103791 0.000000 0.000000 0.000000
# 4 0.000000 0.000000 0.000000 0.084651 0.000000 0.000000
# 5 0.000000 0.000000 0.000000 0.000000 0.026484 0.000000
# 6 0.000000 0.000000 0.000000 0.000000 0.000000 -0.318431
#
#
# Mechanical properties :
#
#
# Convention : Reuss Voigt Hill
#
# Bulk Modulus (GPa) = 15.92283 78.15609 47.03946
# Shear Modulus (GPa) = -2125.37745 23.37636 -1051.00055
#
# Velocity S-wave (km/s) = -33.46070 3.50918 -23.52981
# Velocity P-wave (km/s) = 38.52838 7.58885 26.70998
#
# Compressibility (1/GPa) = 0.06280290
#
# Stress axis : x y z
#
# Youngs Moduli (GPa) = 123.60339 86.76686 9.63478
#
# Poissons Ratio (x) = 0.19349 0.10878
# Poissons Ratio (y) = 0.27564 0.16168
# Poissons Ratio (z) = 1.39552 1.45606
#
# Static dielectric constant tensor:
#      x y z
#    x 1.617320 0.000000 0.000000 
#    y 0.000000 1.649460 0.000000 
#    z 0.000000 0.000000 1.641520 
# 
# From -- ./inp_files/6711.got.cif
#   From: 2010.05.17/outbox.cif.g08.bks.cpg/sg55_4_cif.got.tgz:6711.got - 2010.06.03 13:27:54.
