data_PCOD9427735
_publ_section_title
;
Structure prediction by ZEFSAII (Michael W. Deem and Ramdas Pophale) SiO2 
 PCOD9427735
Probable space group: P B A M
;
_chemical_formula_sum "Si O2"
_cell_formula_units_Z 60
_cell_length_a 5.184068
_cell_length_b 25.348413
_cell_length_c 23.064776
_cell_angle_alpha 90.000000
_cell_angle_beta 90.000000
_cell_angle_gamma 90.000000
_cell_volume 3030.893702
_symmetry_space_group_name_H-M "P B A M"
_symmetry_group_IT_number 55
_symmetry_cell_setting 'orthorhombic'
loop_
_space_group_symop_operation_xyz
x,y,z
-x,-y,z
1/2+x,1/2-y,-z
1/2-x,1/2+y,-z
-x,-y,-z
x,y,-z
1/2-x,1/2+y,z
1/2+x,1/2-y,z
loop_
_atom_site_type_symbol
_atom_site_label
_atom_site_fract_x
_atom_site_fract_y
_atom_site_fract_z
Si Si1 0.335318 0.544728 0.207747
Si Si2 0.469372 0.882816 0.067224
Si Si3 0.014167 0.561456 0.682569
Si Si4 0.634577 0.716830 0.569452
Si Si5 0.498831 0.373235 0.343752
Si Si6 0.488586 0.716014 0.247506
Si Si7 0.000000 0.500000 0.893067
Si Si8 0.521418 0.356087 0.140612
O O1 0.500000 0.500000 0.240071
O O2 0.106220 0.562764 0.249860
O O3 0.494313 0.594264 0.184881
O O4 0.226292 0.516079 0.150872
O O5 0.442848 0.946752 0.071991
O O6 0.222832 0.857874 0.098689
O O7 0.721494 0.865384 0.103028
O O8 0.488325 0.868314 0.000000
O O9 0.245091 0.591738 0.649680
O O10 0.000000 0.500000 0.666205
O O11 0.744889 0.590669 0.672985
O O12 0.627122 0.710380 0.500000
O O13 0.411160 0.758755 0.585743
O O14 0.574051 0.662478 0.601351
O O15 0.551005 0.331682 0.292088
O O16 0.269603 0.759506 0.257152
O O17 0.465894 0.694230 0.182079
#
# Coordination Sequence:
#
# PCOD9427735 Si02
#       8
#     8   8   8   8   8   8   4   8
#     4  11  20  36  56  89 122 166 201 244 299 381
#     4  11  23  40  60  87 119 153 201 251 311 379
#     4  12  25  37  61  91 138 171 219 249 302 379
#     4  10  21  41  70 101 133 172 221 274 328 377
#     4  12  24  41  64  97 133 172 211 263 319 375
#     4  12  25  41  63  91 125 156 201 262 321 381
#     4  10  21  32  58  84 122 156 193 246 302 372
#     4  11  24  39  62  85 118 157 196 246 322 375
#
# _framework density 19.796140999999999
#
# number of rings (size 3 to 8) (size 9 to 14) (size 15 to 20)
#    0.000    0.800    3.333    5.000    3.733    0.000 
#    0.000    2.000    0.000   10.400    0.000    0.000 
#    0.000    0.000    0.000    0.000    0.000    0.000 
#
# Total GULP energy -335607.936905 kJ/mol
# GULP energy per Si atom -5593.465615 kJ/mol
# Density = 1.975108 g / cm^3
# Si number density = 19.796141 Si / 1000 Ang^3
#
#
#
# Elastic Constant Matrix: (Units=GPa)
#
#
# Indices 1 2 3 4 5 6 
#
# 1 61.8853 -2.7419 0.9035 0.0000 0.0000 0.0000
# 2 -2.7419 58.1362 16.7821 0.0000 0.0000 0.0000
# 3 0.9035 16.7821 40.7057 0.0000 0.0000 0.0000
# 4 0.0000 0.0000 0.0000 28.4164 0.0000 0.0000
# 5 0.0000 0.0000 0.0000 0.0000 9.8954 0.0000
# 6 0.0000 0.0000 0.0000 0.0000 0.0000 39.8314
#
#
#
# Elastic Compliance Matrix: (Units=1/GPa)
#
#
# Indices 1 2 3 4 5 6 
#
# 1 0.016214 0.000986 -0.000766 0.000000 0.000000 0.000000
# 2 0.000986 0.019585 -0.008096 0.000000 0.000000 0.000000
# 3 -0.000766 -0.008096 0.027921 0.000000 0.000000 0.000000
# 4 0.000000 0.000000 0.000000 0.035191 0.000000 0.000000
# 5 0.000000 0.000000 0.000000 0.000000 0.101057 0.000000
# 6 0.000000 0.000000 0.000000 0.000000 0.000000 0.025106
#
#
# Mechanical properties :
#
#
# Convention : Reuss Voigt Hill
#
# Bulk Modulus (GPa) = 20.84782 21.17938 21.01360
# Shear Modulus (GPa) = 19.46920 25.34754 22.40837
#
# Velocity S-wave (km/s) = 3.13946 3.58219 3.36811
# Velocity P-wave (km/s) = 4.86782 5.27555 5.07578
#
# Compressibility (1/GPa) = 0.04796664
#
# Stress axis : x y z
#
# Youngs Moduli (GPa) = 61.67588 51.06049 35.81470
#
# Poissons Ratio (x) = -0.05034 0.02745
# Poissons Ratio (y) = -0.06081 0.28996
# Poissons Ratio (z) = 0.04727 0.41340
#
# Static dielectric constant tensor:
#      x y z
#    x 1.708950 0.000000 0.000000 
#    y 0.000000 1.707900 0.000000 
#    z 0.000000 0.000000 1.683280 
# 
# From -- ./inp_files/23347.got.cif
#   From: 2010.05.17/outbox.cif.g08.bks.cpg/sg55_12_cif.got.tgz:23347.got - 2010.06.03 13:27:54.
