data_PCOD9427827
_publ_section_title
;
Structure prediction by ZEFSAII (Michael W. Deem and Ramdas Pophale) SiO2 
 PCOD9427827
Probable space group: P B A M
;
_chemical_formula_sum "Si O2"
_cell_formula_units_Z 40
_cell_length_a 7.837459
_cell_length_b 16.891961
_cell_length_c 13.831818
_cell_angle_alpha 90.000000
_cell_angle_beta 90.000000
_cell_angle_gamma 90.000000
_cell_volume 1831.195101
_symmetry_space_group_name_H-M "P B A M"
_symmetry_group_IT_number 55
_symmetry_cell_setting 'orthorhombic'
loop_
_space_group_symop_operation_xyz
x,y,z
-x,-y,z
1/2+x,1/2-y,-z
1/2-x,1/2+y,-z
-x,-y,-z
x,y,-z
1/2-x,1/2+y,z
1/2+x,1/2-y,z
loop_
_atom_site_type_symbol
_atom_site_label
_atom_site_fract_x
_atom_site_fract_y
_atom_site_fract_z
Si Si1 0.766348 0.290523 0.606722
Si Si2 0.900553 0.124322 0.606098
Si Si3 0.402393 0.125751 0.208915
Si Si4 0.272723 0.457237 0.791094
Si Si5 0.729154 0.547114 0.000000
Si Si6 0.598519 0.873308 0.000000
O O1 0.840394 0.310578 0.500000
O O2 0.763818 0.195682 0.610970
O O3 0.581747 0.331066 0.610686
O O4 0.868762 0.320604 0.699116
O O5 0.885124 0.085481 0.500000
O O6 0.874852 0.069220 0.697572
O O7 0.593400 0.090635 0.209855
O O8 0.369715 0.165992 0.104020
O O9 0.279949 0.048983 0.214965
O O10 0.356531 0.439517 0.895992
O O11 0.797116 0.456333 0.000000
O O12 0.900784 0.599792 0.000000
#
# Coordination Sequence:
#
# PCOD9427827 Si02
#       6
#     8   8   8   8   4   4
#     4  10  21  36  52  70  96 130 166 205 248 292
#     4  10  21  36  52  70  96 130 166 205 248 292
#     4   9  17  31  53  78 102 129 162 199 239 287
#     4   9  17  31  53  78 102 129 162 199 239 287
#     4   7  12  26  48  73 100 129 159 193 236 283
#     4   7  12  26  48  73 100 129 159 193 236 283
#
# _framework density 21.843658999999999
#
# number of rings (size 3 to 8) (size 9 to 14) (size 15 to 20)
#    0.000    3.000    0.000    3.600    0.000    4.000 
#    0.000    6.000    0.000    3.600    0.000    0.000 
#    0.000    0.000    0.000    0.000    0.000    0.000 
#
# Total GULP energy -223177.873601 kJ/mol
# GULP energy per Si atom -5579.446840 kJ/mol
# Density = 2.179394 g / cm^3
# Si number density = 21.843659 Si / 1000 Ang^3
#
#
#
# Elastic Constant Matrix: (Units=GPa)
#
#
# Indices 1 2 3 4 5 6 
#
# 1 53.5783 10.6467 46.6198 0.0000 0.0000 0.0000
# 2 10.6467 27.1296 59.5842 0.0000 0.0000 0.0000
# 3 46.6198 59.5842 265.5381 0.0000 0.0000 0.0000
# 4 0.0000 0.0000 0.0000 55.4280 0.0000 0.0000
# 5 0.0000 0.0000 0.0000 0.0000 -33.8449 0.0000
# 6 0.0000 0.0000 0.0000 0.0000 0.0000 26.9706
#
#
#
# Elastic Compliance Matrix: (Units=1/GPa)
#
#
# Indices 1 2 3 4 5 6 
#
# 1 0.022031 -0.000297 -0.003801 0.000000 0.000000 0.000000
# 2 -0.000297 0.072681 -0.016257 0.000000 0.000000 0.000000
# 3 -0.003801 -0.016257 0.008081 0.000000 0.000000 0.000000
# 4 0.000000 0.000000 0.000000 0.018041 0.000000 0.000000
# 5 0.000000 0.000000 0.000000 0.000000 -0.029547 0.000000
# 6 0.000000 0.000000 0.000000 0.000000 0.000000 0.037077
#
#
# Mechanical properties :
#
#
# Convention : Reuss Voigt Hill
#
# Bulk Modulus (GPa) = 16.10751 64.43858 40.27305
# Shear Modulus (GPa) = 26.34764 25.00375 25.67570
#
# Velocity S-wave (km/s) = 3.47679 3.38697 3.43217
# Velocity P-wave (km/s) = 4.84845 6.69771 5.84666
#
# Compressibility (1/GPa) = 0.06208284
#
# Stress axis : x y z
#
# Youngs Moduli (GPa) = 45.39083 13.75871 123.74450
#
# Poissons Ratio (x) = 0.00409 0.47038
# Poissons Ratio (y) = 0.01349 2.01169
# Poissons Ratio (z) = 0.17254 0.22367
#
# Static dielectric constant tensor:
#      x y z
#    x 1.830320 0.000000 0.000000 
#    y 0.000000 1.754490 0.000000 
#    z 0.000000 0.000000 1.843770 
# 
# From -- ./inp_files/12079.got.cif
#   From: 2010.05.17/outbox.cif.g08.bks.cpg/sg55_7_cif.got.tgz:12079.got - 2010.06.03 13:27:54.
