data_PCOD9427866
_publ_section_title
;
Structure prediction by ZEFSAII (Michael W. Deem and Ramdas Pophale) SiO2 
 PCOD9427866
Probable space group: P B A M
;
_chemical_formula_sum "Si O2"
_cell_formula_units_Z 56
_cell_length_a 5.093543
_cell_length_b 16.647630
_cell_length_c 34.173226
_cell_angle_alpha 90.000000
_cell_angle_beta 90.000000
_cell_angle_gamma 90.000000
_cell_volume 2897.733026
_symmetry_space_group_name_H-M "P B A M"
_symmetry_group_IT_number 55
_symmetry_cell_setting 'orthorhombic'
loop_
_space_group_symop_operation_xyz
x,y,z
-x,-y,z
1/2+x,1/2-y,-z
1/2-x,1/2+y,-z
-x,-y,-z
x,y,-z
1/2-x,1/2+y,z
1/2+x,1/2-y,z
loop_
_atom_site_type_symbol
_atom_site_label
_atom_site_fract_x
_atom_site_fract_y
_atom_site_fract_z
Si Si1 0.741805 0.054763 0.604096
Si Si2 0.347991 0.196082 0.955921
Si Si3 0.002710 0.403972 0.881081
Si Si4 0.999487 0.903116 0.167631
Si Si5 0.608065 0.694242 0.245925
Si Si6 0.243293 0.444588 0.694075
Si Si7 0.859064 0.196968 0.545020
O O1 0.686203 0.079988 0.649092
O O2 0.789425 0.128915 0.575790
O O3 0.500000 0.000000 0.590697
O O4 0.000000 0.000000 0.604317
O O5 0.555077 0.269303 0.952447
O O6 0.418206 0.135862 0.921434
O O7 0.380592 0.162593 0.000000
O O8 0.790293 0.381312 0.847641
O O9 0.000000 0.500000 0.885026
O O10 0.292990 0.382717 0.866503
O O11 0.095624 0.855980 0.205638
O O12 0.000000 0.000000 0.174556
O O13 0.323747 0.735542 0.248344
O O14 0.689246 0.631277 0.279395
O O15 0.500000 0.500000 0.694110
O O16 0.000000 0.500000 0.708066
O O17 0.830586 0.168598 0.500000
O O18 0.652116 0.269470 0.550177
#
# Coordination Sequence:
#
# PCOD9427866 Si02
#       7
#     8   8   8   8   8   8   8
#     4  10  21  37  59  85 110 146 195 238 279 334
#     4  10  21  36  55  80 110 144 178 217 272 327
#     4  10  21  37  58  82 107 142 186 225 266 322
#     4  10  22  39  57  79 111 148 181 220 278 335
#     4  12  25  38  58  89 115 142 189 237 278 330
#     4  10  22  41  61  81 113 154 189 228 287 345
#     4  10  21  36  55  82 117 154 188 230 290 346
#
# _framework density 19.32545
#
# number of rings (size 3 to 8) (size 9 to 14) (size 15 to 20)
#    0.000    1.714    0.000    3.857    0.000    7.143 
#    0.000    0.000    0.000    5.143    0.000    0.000 
#    0.000    0.000    0.000    0.000    0.000    0.000 
#
# Total GULP energy -312823.727615 kJ/mol
# GULP energy per Si atom -5586.137993 kJ/mol
# Density = 1.928146 g / cm^3
# Si number density = 19.325450 Si / 1000 Ang^3
#
#
#
# Elastic Constant Matrix: (Units=GPa)
#
#
# Indices 1 2 3 4 5 6 
#
# 1 69.0279 -3.1290 -13.6387 0.0000 0.0000 0.0000
# 2 -3.1290 44.1542 48.3997 0.0000 0.0000 0.0000
# 3 -13.6387 48.3997 85.0395 0.0000 0.0000 0.0000
# 4 0.0000 0.0000 0.0000 18.3317 0.0000 0.0000
# 5 0.0000 0.0000 0.0000 0.0000 -80.1960 0.0000
# 6 0.0000 0.0000 0.0000 0.0000 0.0000 27.9221
#
#
#
# Elastic Compliance Matrix: (Units=1/GPa)
#
#
# Indices 1 2 3 4 5 6 
#
# 1 0.015256 -0.004256 0.004869 0.000000 0.000000 0.000000
# 2 -0.004256 0.061400 -0.035628 0.000000 0.000000 0.000000
# 3 0.004869 -0.035628 0.032818 0.000000 0.000000 0.000000
# 4 0.000000 0.000000 0.000000 0.054550 0.000000 0.000000
# 5 0.000000 0.000000 0.000000 0.000000 -0.012469 0.000000
# 6 0.000000 0.000000 0.000000 0.000000 0.000000 0.035814
#
#
# Mechanical properties :
#
#
# Convention : Reuss Voigt Hill
#
# Bulk Modulus (GPa) = 25.35274 29.05396 27.20335
# Shear Modulus (GPa) = 18.48111 4.31754 11.39933
#
# Velocity S-wave (km/s) = 3.09578 1.49632 2.43134
# Velocity P-wave (km/s) = 5.09174 4.24876 4.68923
#
# Compressibility (1/GPa) = 0.03944347
#
# Stress axis : x y z
#
# Youngs Moduli (GPa) = 65.54781 16.28664 30.47140
#
# Poissons Ratio (x) = 0.06932 -0.14837
# Poissons Ratio (y) = 0.27899 1.08564
# Poissons Ratio (z) = -0.31917 0.58026
#
# Static dielectric constant tensor:
#      x y z
#    x 1.667680 0.000000 0.000000 
#    y 0.000000 1.647950 0.000000 
#    z 0.000000 0.000000 1.667480 
# 
# From -- ./inp_files/24080.got.cif
#   From: 2010.05.17/outbox.cif.g08.bks.cpg/sg55_13_cif.got.tgz:24080.got - 2010.06.03 13:27:54.
