data_PCOD9427643
_publ_section_title
;
Structure prediction by ZEFSAII (Michael W. Deem and Ramdas Pophale) SiO2 
 PCOD9427643
Probable space group: P B A M
;
_chemical_formula_sum "Si O2"
_cell_formula_units_Z 56
_cell_length_a 9.939406
_cell_length_b 18.009932
_cell_length_c 17.498357
_cell_angle_alpha 90.000000
_cell_angle_beta 90.000000
_cell_angle_gamma 90.000000
_cell_volume 3132.346348
_symmetry_space_group_name_H-M "P B A M"
_symmetry_group_IT_number 55
_symmetry_cell_setting 'orthorhombic'
loop_
_space_group_symop_operation_xyz
x,y,z
-x,-y,z
1/2+x,1/2-y,-z
1/2-x,1/2+y,-z
-x,-y,-z
x,y,-z
1/2-x,1/2+y,z
1/2+x,1/2-y,z
loop_
_atom_site_type_symbol
_atom_site_label
_atom_site_fract_x
_atom_site_fract_y
_atom_site_fract_z
Si Si1 0.951791 0.180332 0.500000
Si Si2 0.954979 0.315630 0.911821
Si Si3 0.129585 0.957284 0.197218
Si Si4 0.387115 0.059099 0.792417
Si Si5 0.112274 0.939930 0.373240
Si Si6 0.723244 0.831326 0.500000
Si Si7 0.769934 0.171374 0.087521
Si Si8 0.870246 0.455456 0.616990
O O1 0.907274 0.131607 0.426100
O O2 0.870254 0.257879 0.500000
O O3 0.115961 0.186854 0.500000
O O4 0.900647 0.372183 0.848651
O O5 0.870700 0.240334 0.905265
O O6 0.114848 0.305367 0.898965
O O7 0.938209 0.342647 0.000000
O O8 0.096480 0.926642 0.282325
O O9 0.184421 0.892158 0.144821
O O10 0.244452 0.019123 0.203334
O O11 0.000000 0.000000 0.166199
O O12 0.407306 0.073068 0.702190
O O13 0.500000 0.000000 0.816609
O O14 0.253460 0.982357 0.382220
O O15 0.000000 0.000000 0.396650
O O16 0.683421 0.885051 0.429539
O O17 0.777285 0.144127 0.000000
O O18 0.000000 0.500000 0.587106
#
# Coordination Sequence:
#
# PCOD9427643 Si02
#       8
#     4   8   8   8   8   4   8   8
#     4  12  26  41  62  87 121 154 197 243 287 346
#     4  10  22  39  60  83 118 161 198 236 291 351
#     4  10  22  37  61  92 117 146 197 247 290 345
#     4  10  20  39  61  90 116 148 195 244 292 340
#     4  10  20  42  65  84 113 159 195 234 294 348
#     4  12  26  42  58  91 121 153 197 239 291 344
#     4  10  22  40  58  84 119 159 197 236 292 352
#     4  10  22  39  65  88 118 152 194 241 289 353
#
# _framework density 17.877972
#
# number of rings (size 3 to 8) (size 9 to 14) (size 15 to 20)
#    0.000    1.714    2.857    0.857    4.000    2.286 
#    0.000    2.857    0.000    0.000    0.000    0.000 
#    0.000    0.000    0.000    0.000    0.000    0.000 
#
# Total GULP energy -312403.874000 kJ/mol
# GULP energy per Si atom -5578.640607 kJ/mol
# Density = 1.783728 g / cm^3
# Si number density = 17.877972 Si / 1000 Ang^3
#
#
#
# Elastic Constant Matrix: (Units=GPa)
#
#
# Indices 1 2 3 4 5 6 
#
# 1 107.6310 37.7983 32.8681 0.0000 0.0000 0.0000
# 2 37.7983 91.0745 61.6665 0.0000 0.0000 0.0000
# 3 32.8681 61.6665 94.1459 0.0000 0.0000 0.0000
# 4 0.0000 0.0000 0.0000 -75.8301 0.0000 0.0000
# 5 0.0000 0.0000 0.0000 0.0000 20.4583 0.0000
# 6 0.0000 0.0000 0.0000 0.0000 0.0000 31.9231
#
#
#
# Elastic Compliance Matrix: (Units=1/GPa)
#
#
# Indices 1 2 3 4 5 6 
#
# 1 0.010997 -0.003530 -0.001527 0.000000 0.000000 0.000000
# 2 -0.003530 0.020864 -0.012434 0.000000 0.000000 0.000000
# 3 -0.001527 -0.012434 0.019299 0.000000 0.000000 0.000000
# 4 0.000000 0.000000 0.000000 -0.013187 0.000000 0.000000
# 5 0.000000 0.000000 0.000000 0.000000 0.048880 0.000000
# 6 0.000000 0.000000 0.000000 0.000000 0.000000 0.031325
#
#
# Mechanical properties :
#
#
# Convention : Reuss Voigt Hill
#
# Bulk Modulus (GPa) = 61.81046 61.94637 61.87841
# Shear Modulus (GPa) = 31.53532 6.01148 18.77340
#
# Velocity S-wave (km/s) = 4.20446 1.83570 3.24402
# Velocity P-wave (km/s) = 7.63011 6.26242 6.97984
#
# Compressibility (1/GPa) = 0.01617849
#
# Stress axis : x y z
#
# Youngs Moduli (GPa) = 90.93354 47.92965 51.81593
#
# Poissons Ratio (x) = 0.16920 0.07912
# Poissons Ratio (y) = 0.32101 0.64426
# Poissons Ratio (z) = 0.13886 0.59594
#
# Static dielectric constant tensor:
#      x y z
#    x 1.612770 0.000000 0.000000 
#    y 0.000000 1.549080 0.000000 
#    z 0.000000 0.000000 1.632920 
# 
# From -- ./inp_files/22652.got.cif
#   From: 2010.05.17/outbox.cif.g08.bks.cpg/sg55_12_cif.got.tgz:22652.got - 2010.06.03 13:27:54.
