data_PCOD9427799
_publ_section_title
;
Structure prediction by ZEFSAII (Michael W. Deem and Ramdas Pophale) SiO2 
 PCOD9427799
Probable space group: P B A M
;
_chemical_formula_sum "Si O2"
_cell_formula_units_Z 40
_cell_length_a 9.636760
_cell_length_b 12.175641
_cell_length_c 13.317905
_cell_angle_alpha 90.000000
_cell_angle_beta 90.000000
_cell_angle_gamma 90.000000
_cell_volume 1562.639472
_symmetry_space_group_name_H-M "P B A M"
_symmetry_group_IT_number 55
_symmetry_cell_setting 'orthorhombic'
loop_
_space_group_symop_operation_xyz
x,y,z
-x,-y,z
1/2+x,1/2-y,-z
1/2-x,1/2+y,-z
-x,-y,-z
x,y,-z
1/2-x,1/2+y,z
1/2+x,1/2-y,z
loop_
_atom_site_type_symbol
_atom_site_label
_atom_site_fract_x
_atom_site_fract_y
_atom_site_fract_z
Si Si1 0.967150 0.242344 0.619369
Si Si2 0.370431 0.564892 0.748000
Si Si3 0.296861 0.890725 0.619755
Si Si4 0.205186 0.732865 0.120253
Si Si5 0.938004 0.615839 0.121636
O O1 0.985232 0.235087 0.500000
O O2 0.051574 0.145156 0.670793
O O3 0.046772 0.354601 0.647649
O O4 0.805768 0.215032 0.637738
O O5 0.500000 0.500000 0.796222
O O6 0.268461 0.489896 0.681409
O O7 0.285727 0.632089 0.829971
O O8 0.291934 0.915054 0.500000
O O9 0.284751 0.843929 0.150887
O O10 0.045291 0.714058 0.147692
O O11 0.213976 0.724746 0.000000
O O12 0.000000 0.500000 0.155836
O O13 0.935181 0.608694 0.000000
#
# Coordination Sequence:
#
# PCOD9427799 Si02
#       5
#     8   8   8   8   8
#     4   9  18  34  56  80 108 142 182 232 289 350
#     4  10  21  35  56  83 113 151 196 240 292 357
#     4   9  18  35  58  84 114 148 189 240 298 358
#     4  10  22  39  60  87 119 156 201 251 303 361
#     4   9  20  40  63  86 116 155 199 252 309 359
#
# _framework density 25.597714
#
# number of rings (size 3 to 8) (size 9 to 14) (size 15 to 20)
#    0.000    2.600    0.000    0.600    0.000    9.200 
#    0.000    5.000    0.000    4.800    0.000    0.000 
#    0.000    2.400    0.000    0.000    0.000    0.000 
#
# Total GULP energy -224058.658571 kJ/mol
# GULP energy per Si atom -5601.466464 kJ/mol
# Density = 2.553945 g / cm^3
# Si number density = 25.597714 Si / 1000 Ang^3
#
#
#
# Elastic Constant Matrix: (Units=GPa)
#
#
# Indices 1 2 3 4 5 6 
#
# 1 92.6025 37.9976 63.8187 0.0000 0.0000 0.0000
# 2 37.9976 95.3906 37.0104 0.0000 0.0000 0.0000
# 3 63.8187 37.0104 100.3010 0.0000 0.0000 0.0000
# 4 0.0000 0.0000 0.0000 33.0425 0.0000 0.0000
# 5 0.0000 0.0000 0.0000 0.0000 44.5758 0.0000
# 6 0.0000 0.0000 0.0000 0.0000 0.0000 41.2203
#
#
#
# Elastic Compliance Matrix: (Units=1/GPa)
#
#
# Indices 1 2 3 4 5 6 
#
# 1 0.020226 -0.003575 -0.011550 0.000000 0.000000 0.000000
# 2 -0.003575 0.012867 -0.002473 0.000000 0.000000 0.000000
# 3 -0.011550 -0.002473 0.018231 0.000000 0.000000 0.000000
# 4 0.000000 0.000000 0.000000 0.030264 0.000000 0.000000
# 5 0.000000 0.000000 0.000000 0.000000 0.022434 0.000000
# 6 0.000000 0.000000 0.000000 0.000000 0.000000 0.024260
#
#
# Mechanical properties :
#
#
# Convention : Reuss Voigt Hill
#
# Bulk Modulus (GPa) = 62.00494 62.88307 62.44400
# Shear Modulus (GPa) = 29.61150 33.73221 31.67185
#
# Velocity S-wave (km/s) = 3.40487 3.63406 3.52133
# Velocity P-wave (km/s) = 6.30341 6.49829 6.40159
#
# Compressibility (1/GPa) = 0.01612775
#
# Stress axis : x y z
#
# Youngs Moduli (GPa) = 49.44210 77.71885 54.85102
#
# Poissons Ratio (x) = 0.27788 0.63351
# Poissons Ratio (y) = 0.17678 0.13564
# Poissons Ratio (z) = 0.57104 0.19218
#
# Static dielectric constant tensor:
#      x y z
#    x 2.039100 0.000000 0.000000 
#    y 0.000000 2.015850 0.000000 
#    z 0.000000 0.000000 2.000450 
# 
# From -- ./inp_files/17085.got.cif
#   From: 2010.05.17/outbox.cif.g08.bks.cpg/sg55_9_cif.got.tgz:17085.got - 2010.06.03 13:27:54.
