data_PCOD9427541
_publ_section_title
;
Structure prediction by ZEFSAII (Michael W. Deem and Ramdas Pophale) SiO2 
 PCOD9427541
Probable space group: P B A M
;
_chemical_formula_sum "Si O2"
_cell_formula_units_Z 64
_cell_length_a 31.161202
_cell_length_b 12.306469
_cell_length_c 8.680138
_cell_angle_alpha 90.000000
_cell_angle_beta 90.000000
_cell_angle_gamma 90.000000
_cell_volume 3328.697221
_symmetry_space_group_name_H-M "P B A M"
_symmetry_group_IT_number 55
_symmetry_cell_setting 'orthorhombic'
loop_
_space_group_symop_operation_xyz
x,y,z
-x,-y,z
1/2+x,1/2-y,-z
1/2-x,1/2+y,-z
-x,-y,-z
x,y,-z
1/2-x,1/2+y,z
1/2+x,1/2-y,z
loop_
_atom_site_type_symbol
_atom_site_label
_atom_site_fract_x
_atom_site_fract_y
_atom_site_fract_z
Si Si1 0.449795 0.004337 0.685666
Si Si2 0.694146 0.995923 0.316313
Si Si3 0.925020 0.735924 0.320097
Si Si4 0.621101 0.839480 0.184455
Si Si5 0.044941 0.047653 0.815030
Si Si6 0.628300 0.588322 0.188011
Si Si7 0.324556 0.756462 0.680340
Si Si8 0.712666 0.454746 0.817634
O O1 0.446130 0.012917 0.500000
O O2 0.430806 0.887558 0.733972
O O3 0.500000 0.000000 0.725808
O O4 0.421925 0.101145 0.756379
O O5 0.689013 0.987551 0.500000
O O6 0.682675 0.119408 0.271790
O O7 0.661506 0.910471 0.241245
O O8 0.743032 0.977484 0.267829
O O9 0.937685 0.738327 0.500000
O O10 0.875116 0.765462 0.308909
O O11 0.950896 0.826969 0.230539
O O12 0.624992 0.714025 0.236651
O O13 0.620624 0.839389 0.000000
O O14 0.086670 0.980286 0.759538
O O15 0.045048 0.039317 0.000000
O O16 0.000000 0.000000 0.756871
O O17 0.672777 0.530416 0.235517
O O18 0.628192 0.586230 0.000000
O O19 0.311766 0.745374 0.500000
O O20 0.300266 0.668990 0.782074
O O21 0.718488 0.471086 0.000000
#
# Coordination Sequence:
#
# PCOD9427541 Si02
#       8
#     8   8   8   8   8   8   8   8
#     4  10  22  41  62  87 122 162 200 245 303 357
#     4  11  24  43  63  88 123 159 201 246 300 360
#     4  10  20  38  61  86 117 151 198 250 293 347
#     4  11  23  40  62  89 122 158 201 248 299 355
#     4  10  21  38  61  87 118 157 197 240 297 355
#     4   9  21  40  57  84 123 156 190 244 299 351
#     4  10  21  40  63  86 117 155 198 251 299 351
#     4  11  23  40  63  90 121 156 200 247 302 361
#
# _framework density 19.226741000000001
#
# number of rings (size 3 to 8) (size 9 to 14) (size 15 to 20)
#    0.000    1.750    2.500    1.125    3.500    2.000 
#    0.000    3.125    0.000    0.000    0.000    0.000 
#    0.000    0.000    0.000    0.000    0.000    0.000 
#
# Total GULP energy -357419.848155 kJ/mol
# GULP energy per Si atom -5584.685127 kJ/mol
# Density = 1.918298 g / cm^3
# Si number density = 19.226741 Si / 1000 Ang^3
#
#
#
# Elastic Constant Matrix: (Units=GPa)
#
#
# Indices 1 2 3 4 5 6 
#
# 1 85.6923 23.9791 15.9274 0.0000 0.0000 0.0000
# 2 23.9791 93.1044 15.9156 0.0000 0.0000 0.0000
# 3 15.9274 15.9156 11.5627 0.0000 0.0000 0.0000
# 4 0.0000 0.0000 0.0000 25.4713 0.0000 0.0000
# 5 0.0000 0.0000 0.0000 0.0000 16.5470 0.0000
# 6 0.0000 0.0000 0.0000 0.0000 0.0000 29.8959
#
#
#
# Elastic Compliance Matrix: (Units=1/GPa)
#
#
# Indices 1 2 3 4 5 6 
#
# 1 0.015700 -0.000453 -0.021003 0.000000 0.000000 0.000000
# 2 -0.000453 0.014059 -0.018727 0.000000 0.000000 0.000000
# 3 -0.021003 -0.018727 0.141192 0.000000 0.000000 0.000000
# 4 0.000000 0.000000 0.000000 0.039260 0.000000 0.000000
# 5 0.000000 0.000000 0.000000 0.000000 0.060434 0.000000
# 6 0.000000 0.000000 0.000000 0.000000 0.000000 0.033449
#
#
# Mechanical properties :
#
#
# Convention : Reuss Voigt Hill
#
# Bulk Modulus (GPa) = 11.03929 33.55597 22.29763
# Shear Modulus (GPa) = 12.05822 23.35199 17.70510
#
# Velocity S-wave (km/s) = 2.50703 3.48883 3.03786
# Velocity P-wave (km/s) = 3.75957 5.80688 4.89154
#
# Compressibility (1/GPa) = 0.09058553
#
# Stress axis : x y z
#
# Youngs Moduli (GPa) = 63.69331 71.13088 7.08254
#
# Poissons Ratio (x) = 0.03224 0.14875
# Poissons Ratio (y) = 0.02887 0.13263
# Poissons Ratio (z) = 1.33774 1.33205
#
# Static dielectric constant tensor:
#      x y z
#    x 1.671890 0.000000 0.000000 
#    y 0.000000 1.657230 0.000000 
#    z 0.000000 0.000000 1.659230 
# 
# From -- ./inp_files/4622.got.cif
#   From: 2010.05.17/outbox.cif.g08.bks.cpg/sg55_3_cif.got.tgz:4622.got - 2010.06.03 13:27:54.
