data_PCOD9427884
_publ_section_title
;
Structure prediction by ZEFSAII (Michael W. Deem and Ramdas Pophale) SiO2 
 PCOD9427884
Probable space group: P B A M
;
_chemical_formula_sum "Si O2"
_cell_formula_units_Z 64
_cell_length_a 11.178785
_cell_length_b 33.453344
_cell_length_c 9.194451
_cell_angle_alpha 90.000000
_cell_angle_beta 90.000000
_cell_angle_gamma 90.000000
_cell_volume 3438.428062
_symmetry_space_group_name_H-M "P B A M"
_symmetry_group_IT_number 55
_symmetry_cell_setting 'orthorhombic'
loop_
_space_group_symop_operation_xyz
x,y,z
-x,-y,z
1/2+x,1/2-y,-z
1/2-x,1/2+y,-z
-x,-y,-z
x,y,-z
1/2-x,1/2+y,z
1/2+x,1/2-y,z
loop_
_atom_site_type_symbol
_atom_site_label
_atom_site_fract_x
_atom_site_fract_y
_atom_site_fract_z
Si Si1 0.470594 0.217942 0.828364
Si Si2 0.490842 0.301507 0.332934
Si Si3 0.391647 0.470508 0.677151
Si Si4 0.767012 0.322858 0.661697
Si Si5 0.888739 0.403553 0.333105
Si Si6 0.350995 0.380845 0.675912
Si Si7 0.362725 0.005628 0.326529
Si Si8 0.102847 0.361819 0.174116
O O1 0.476977 0.260886 0.755008
O O2 0.344460 0.198967 0.782232
O O3 0.567133 0.183905 0.782191
O O4 0.480671 0.222226 0.000000
O O5 0.452346 0.294416 0.500000
O O6 0.630270 0.311822 0.332243
O O7 0.422728 0.341045 0.278954
O O8 0.500000 0.500000 0.725249
O O9 0.390042 0.473193 0.500000
O O10 0.408678 0.423732 0.715451
O O11 0.256548 0.482874 0.727448
O O12 0.814631 0.311800 0.500000
O O13 0.787137 0.370081 0.676574
O O14 0.935919 0.403142 0.500000
O O15 0.839993 0.447395 0.306165
O O16 0.994119 0.389728 0.227380
O O17 0.341671 0.380449 0.500000
O O18 0.221281 0.376614 0.747054
O O19 0.369298 0.996429 0.500000
O O20 0.500000 0.000000 0.270288
O O21 0.114342 0.363060 0.000000
#
# Coordination Sequence:
#
# PCOD9427884 Si02
#       8
#     8   8   8   8   8   8   8   8
#     4  10  22  38  56  79 106 140 182 227 274 322
#     4  10  22  36  54  80 110 142 180 223 270 327
#     4   9  18  31  52  83 117 147 179 226 279 328
#     4   9  19  35  54  78 108 140 177 221 269 321
#     4   9  17  31  55  81 109 143 179 221 271 319
#     4  10  21  36  56  82 112 146 183 221 270 328
#     4   9  16  26  47  80 112 140 177 223 269 319
#     4  10  21  37  56  80 111 145 183 226 271 323
#
# _framework density 18.613157000000001
#
# number of rings (size 3 to 8) (size 9 to 14) (size 15 to 20)
#    0.000    2.500    0.000    1.500    3.500    4.500 
#    0.000    0.000    0.000    3.750    0.000    0.000 
#    0.000    0.000    0.000    0.000    0.000    0.000 
#
# Total GULP energy -356632.342259 kJ/mol
# GULP energy per Si atom -5572.380348 kJ/mol
# Density = 1.857079 g / cm^3
# Si number density = 18.613157 Si / 1000 Ang^3
#
#
#
# Elastic Constant Matrix: (Units=GPa)
#
#
# Indices 1 2 3 4 5 6 
#
# 1 37.0908 23.4235 0.4438 0.0000 0.0000 0.0000
# 2 23.4235 84.9788 21.8168 0.0000 0.0000 0.0000
# 3 0.4438 21.8168 11.3092 0.0000 0.0000 0.0000
# 4 0.0000 0.0000 0.0000 3.2975 0.0000 0.0000
# 5 0.0000 0.0000 0.0000 0.0000 -9.2377 0.0000
# 6 0.0000 0.0000 0.0000 0.0000 0.0000 14.3957
#
#
#
# Elastic Compliance Matrix: (Units=1/GPa)
#
#
# Indices 1 2 3 4 5 6 
#
# 1 0.039683 -0.020879 0.038722 0.000000 0.000000 0.000000
# 2 -0.020879 0.034300 -0.065351 0.000000 0.000000 0.000000
# 3 0.038722 -0.065351 0.212974 0.000000 0.000000 0.000000
# 4 0.000000 0.000000 0.000000 0.303261 0.000000 0.000000
# 5 0.000000 0.000000 0.000000 0.000000 -0.108253 0.000000
# 6 0.000000 0.000000 0.000000 0.000000 0.000000 0.069465
#
#
# Mechanical properties :
#
#
# Convention : Reuss Voigt Hill
#
# Bulk Modulus (GPa) = 5.20993 24.97189 15.09091
# Shear Modulus (GPa) = 7.03802 7.53743 7.28772
#
# Velocity S-wave (km/s) = 1.94664 2.01452 1.98087
# Velocity P-wave (km/s) = 2.80316 4.34240 3.65473
#
# Compressibility (1/GPa) = 0.19194127
#
# Stress axis : x y z
#
# Youngs Moduli (GPa) = 25.19950 29.15411 4.69542
#
# Poissons Ratio (x) = 0.60872 -0.18182
# Poissons Ratio (y) = 0.52615 0.30685
# Poissons Ratio (z) = -0.97577 1.90524
#
# Static dielectric constant tensor:
#      x y z
#    x 1.639020 0.000000 0.000000 
#    y 0.000000 1.659210 0.000000 
#    z 0.000000 0.000000 1.640220 
# 
# From -- ./inp_files/4515.got.cif
#   From: 2010.05.17/outbox.cif.g08.bks.cpg/sg55_3_cif.got.tgz:4515.got - 2010.06.03 13:27:54.
