data_PCOD9427224
_publ_section_title
;
Structure prediction by ZEFSAII (Michael W. Deem and Ramdas Pophale) SiO2 
 PCOD9427224
Probable space group: P B A M
;
_chemical_formula_sum "Si O2"
_cell_formula_units_Z 48
_cell_length_a 10.233501
_cell_length_b 26.534812
_cell_length_c 7.663412
_cell_angle_alpha 90.000000
_cell_angle_beta 90.000000
_cell_angle_gamma 90.000000
_cell_volume 2080.953741
_symmetry_space_group_name_H-M "P B A M"
_symmetry_group_IT_number 55
_symmetry_cell_setting 'orthorhombic'
loop_
_space_group_symop_operation_xyz
x,y,z
-x,-y,z
1/2+x,1/2-y,-z
1/2-x,1/2+y,-z
-x,-y,-z
x,y,-z
1/2-x,1/2+y,z
1/2+x,1/2-y,z
loop_
_atom_site_type_symbol
_atom_site_label
_atom_site_fract_x
_atom_site_fract_y
_atom_site_fract_z
Si Si1 0.189268 0.131598 0.200971
Si Si2 0.129372 0.347953 0.297878
Si Si3 0.894849 0.541414 0.210817
Si Si4 0.587123 0.671945 0.299830
Si Si5 0.111258 0.714500 0.799739
Si Si6 0.142153 0.018679 0.213665
O O1 0.288130 0.173218 0.277690
O O2 0.180059 0.075023 0.274535
O O3 0.043597 0.154336 0.205200
O O4 0.233961 0.125543 0.000000
O O5 0.137823 0.332041 0.500000
O O6 0.074670 0.404085 0.284961
O O7 0.276838 0.349282 0.226312
O O8 0.031672 0.310229 0.204720
O O9 0.753090 0.521000 0.264056
O O10 0.000000 0.500000 0.263280
O O11 0.898092 0.545454 0.000000
O O12 0.572775 0.654995 0.500000
O O13 0.604144 0.732109 0.293685
O O14 0.150645 0.724831 0.000000
O O15 0.139376 0.020683 0.000000
O O16 0.000000 0.000000 0.271287
#
# Coordination Sequence:
#
# PCOD9427224 Si02
#       6
#     8   8   8   8   8   8
#     4  10  21  38  61  88 115 148 194 242 290 344
#     4  11  24  40  59  86 121 159 195 234 287 349
#     4  10  20  36  59  85 114 150 194 242 286 332
#     4  11  24  40  58  84 118 154 193 237 290 351
#     4  11  23  39  61  87 114 149 196 245 291 343
#     4   9  17  31  54  83 112 143 182 231 284 334
#
# _framework density 23.066345999999999
#
# number of rings (size 3 to 8) (size 9 to 14) (size 15 to 20)
#    0.000    1.667    0.000    4.500    0.000   11.000 
#    0.000    0.833    0.000    3.000    0.000    0.000 
#    0.000    0.000    0.000    0.000    0.000    0.000 
#
# Total GULP energy -268493.494597 kJ/mol
# GULP energy per Si atom -5593.614471 kJ/mol
# Density = 2.301385 g / cm^3
# Si number density = 23.066346 Si / 1000 Ang^3
#
#
#
# Elastic Constant Matrix: (Units=GPa)
#
#
# Indices 1 2 3 4 5 6 
#
# 1 55.0754 -22.7781 -4.1111 0.0000 0.0000 0.0000
# 2 -22.7781 79.3456 -8.1676 0.0000 0.0000 0.0000
# 3 -4.1111 -8.1676 45.6553 0.0000 0.0000 0.0000
# 4 0.0000 0.0000 0.0000 47.4575 0.0000 0.0000
# 5 0.0000 0.0000 0.0000 0.0000 5.3176 0.0000
# 6 0.0000 0.0000 0.0000 0.0000 0.0000 42.7901
#
#
#
# Elastic Compliance Matrix: (Units=1/GPa)
#
#
# Indices 1 2 3 4 5 6 
#
# 1 0.021006 0.006342 0.003026 0.000000 0.000000 0.000000
# 2 0.006342 0.014754 0.003211 0.000000 0.000000 0.000000
# 3 0.003026 0.003211 0.022750 0.000000 0.000000 0.000000
# 4 0.000000 0.000000 0.000000 0.021072 0.000000 0.000000
# 5 0.000000 0.000000 0.000000 0.000000 0.188055 0.000000
# 6 0.000000 0.000000 0.000000 0.000000 0.000000 0.023370
#
#
# Mechanical properties :
#
#
# Convention : Reuss Voigt Hill
#
# Bulk Modulus (GPa) = 11.95226 12.21806 12.08516
# Shear Modulus (GPa) = 17.02195 33.45524 25.23859
#
# Velocity S-wave (km/s) = 2.71948 3.81253 3.31142
# Velocity P-wave (km/s) = 3.87991 4.96880 4.45773
#
# Compressibility (1/GPa) = 0.08366618
#
# Stress axis : x y z
#
# Youngs Moduli (GPa) = 47.60632 67.77772 43.95588
#
# Poissons Ratio (x) = -0.42982 -0.13301
# Poissons Ratio (y) = -0.30190 -0.14112
# Poissons Ratio (z) = -0.14406 -0.21760
#
# Static dielectric constant tensor:
#      x y z
#    x 1.855330 0.000000 0.000000 
#    y 0.000000 1.835740 0.000000 
#    z 0.000000 0.000000 1.775940 
# 
# From -- ./inp_files/2881.got.cif
#   From: 2010.05.17/outbox.cif.g08.bks.cpg/sg55_2_cif.got.tgz:2881.got - 2010.06.03 13:27:54.
