data_PCOD9427469
_publ_section_title
;
Structure prediction by ZEFSAII (Michael W. Deem and Ramdas Pophale) SiO2 
 PCOD9427469
Probable space group: P B A M
;
_chemical_formula_sum "Si O2"
_cell_formula_units_Z 48
_cell_length_a 22.410807
_cell_length_b 12.497802
_cell_length_c 8.609188
_cell_angle_alpha 90.000000
_cell_angle_beta 90.000000
_cell_angle_gamma 90.000000
_cell_volume 2411.311554
_symmetry_space_group_name_H-M "P B A M"
_symmetry_group_IT_number 55
_symmetry_cell_setting 'orthorhombic'
loop_
_space_group_symop_operation_xyz
x,y,z
-x,-y,z
1/2+x,1/2-y,-z
1/2-x,1/2+y,-z
-x,-y,-z
x,y,-z
1/2-x,1/2+y,z
1/2+x,1/2-y,z
loop_
_atom_site_type_symbol
_atom_site_label
_atom_site_fract_x
_atom_site_fract_y
_atom_site_fract_z
Si Si1 0.696652 0.578443 0.310184
Si Si2 0.431732 0.015370 0.814810
Si Si3 0.632597 0.360108 0.313802
Si Si4 0.827725 0.629136 0.685848
Si Si5 0.395623 0.243415 0.683428
Si Si6 0.996403 0.872068 0.819729
O O1 0.696696 0.578706 0.500000
O O2 0.662489 0.470868 0.261162
O O3 0.765144 0.580376 0.258298
O O4 0.659961 0.683871 0.261466
O O5 0.405834 0.129938 0.763460
O O6 0.500000 0.000000 0.756183
O O7 0.386125 0.925650 0.755505
O O8 0.433852 0.010620 0.000000
O O9 0.622790 0.367772 0.500000
O O10 0.672513 0.256085 0.284269
O O11 0.569641 0.341280 0.232133
O O12 0.830881 0.614206 0.500000
O O13 0.388593 0.225142 0.500000
O O14 0.454094 0.314635 0.716676
O O15 0.006870 0.843958 0.000000
O O16 0.000000 0.000000 0.802755
#
# Coordination Sequence:
#
# PCOD9427469 Si02
#       6
#     8   8   8   8   8   8
#     4   9  20  37  60  92 123 154 195 252 306 350
#     4  11  25  44  63  87 125 164 202 253 311 367
#     4  10  20  37  62  89 120 155 199 249 296 355
#     4  10  22  39  64  92 119 156 204 249 299 362
#     4  11  22  38  65  92 121 159 206 256 305 362
#     4  11  22  36  56  86 125 161 197 246 302 358
#
# _framework density 19.906179000000002
#
# number of rings (size 3 to 8) (size 9 to 14) (size 15 to 20)
#    0.000    1.667    1.667    2.500    2.333    5.333 
#    0.000    2.500    0.000    0.000    0.000    0.000 
#    0.000    0.000    0.000    0.000    0.000    0.000 
#
# Total GULP energy -268188.512907 kJ/mol
# GULP energy per Si atom -5587.260686 kJ/mol
# Density = 1.986087 g / cm^3
# Si number density = 19.906179 Si / 1000 Ang^3
#
#
#
# Elastic Constant Matrix: (Units=GPa)
#
#
# Indices 1 2 3 4 5 6 
#
# 1 119.7340 40.3666 13.8080 0.0000 0.0000 0.0000
# 2 40.3666 96.5988 21.8342 0.0000 0.0000 0.0000
# 3 13.8080 21.8342 7.8230 0.0000 0.0000 0.0000
# 4 0.0000 0.0000 0.0000 15.0040 0.0000 0.0000
# 5 0.0000 0.0000 0.0000 0.0000 -10.8772 0.0000
# 6 0.0000 0.0000 0.0000 0.0000 0.0000 21.1621
#
#
#
# Elastic Compliance Matrix: (Units=1/GPa)
#
#
# Indices 1 2 3 4 5 6 
#
# 1 0.010497 -0.000538 -0.017025 0.000000 0.000000 0.000000
# 2 -0.000538 0.028071 -0.077396 0.000000 0.000000 0.000000
# 3 -0.017025 -0.077396 0.373891 0.000000 0.000000 0.000000
# 4 0.000000 0.000000 0.000000 0.066649 0.000000 0.000000
# 5 0.000000 0.000000 0.000000 0.000000 -0.091935 0.000000
# 6 0.000000 0.000000 0.000000 0.000000 0.000000 0.047254
#
#
# Mechanical properties :
#
#
# Convention : Reuss Voigt Hill
#
# Bulk Modulus (GPa) = 4.49358 41.79706 23.14532
# Shear Modulus (GPa) = 7.15794 14.93425 11.04609
#
# Velocity S-wave (km/s) = 1.89833 2.74201 2.35820
# Velocity P-wave (km/s) = 2.65841 5.57382 4.36661
#
# Compressibility (1/GPa) = 0.22253991
#
# Stress axis : x y z
#
# Youngs Moduli (GPa) = 95.26843 35.62418 2.67457
#
# Poissons Ratio (x) = 0.01917 0.04553
# Poissons Ratio (y) = 0.05127 0.20700
# Poissons Ratio (z) = 1.62195 2.75717
#
# Static dielectric constant tensor:
#      x y z
#    x 1.685400 0.000000 0.000000 
#    y 0.000000 1.702100 0.000000 
#    z 0.000000 0.000000 1.683280 
# 
# From -- ./inp_files/9426.got.cif
#   From: 2010.05.17/outbox.cif.g08.bks.cpg/sg55_5_cif.got.tgz:9426.got - 2010.06.03 13:27:54.
