data_PCOD9427389
_publ_section_title
;
Structure prediction by ZEFSAII (Michael W. Deem and Ramdas Pophale) SiO2 
 PCOD9427389
Probable space group: P B A M
;
_chemical_formula_sum "Si O2"
_cell_formula_units_Z 48
_cell_length_a 29.194484
_cell_length_b 9.648861
_cell_length_c 8.690120
_cell_angle_alpha 90.000000
_cell_angle_beta 90.000000
_cell_angle_gamma 90.000000
_cell_volume 2447.950475
_symmetry_space_group_name_H-M "P B A M"
_symmetry_group_IT_number 55
_symmetry_cell_setting 'orthorhombic'
loop_
_space_group_symop_operation_xyz
x,y,z
-x,-y,z
1/2+x,1/2-y,-z
1/2-x,1/2+y,-z
-x,-y,-z
x,y,-z
1/2-x,1/2+y,z
1/2+x,1/2-y,z
loop_
_atom_site_type_symbol
_atom_site_label
_atom_site_fract_x
_atom_site_fract_y
_atom_site_fract_z
Si Si1 0.120903 0.805042 0.685506
Si Si2 0.517468 0.646848 0.315530
Si Si3 0.719877 0.194621 0.815369
Si Si4 0.701282 0.500151 0.315482
Si Si5 0.136409 0.510270 0.815036
Si Si6 0.039953 0.386173 0.178321
O O1 0.120537 0.798865 0.500000
O O2 0.068432 0.815748 0.742357
O O3 0.151544 0.937760 0.729058
O O4 0.142770 0.662546 0.745768
O O5 0.500000 0.500000 0.255778
O O6 0.521091 0.639180 0.500000
O O7 0.479736 0.758987 0.272277
O O8 0.762602 0.115913 0.739599
O O9 0.712621 0.351256 0.757508
O O10 0.675890 0.099109 0.776718
O O11 0.725511 0.196412 0.000000
O O12 0.703193 0.487139 0.500000
O O13 0.087282 0.450568 0.763083
O O14 0.135100 0.524635 0.000000
O O15 0.000000 0.500000 0.182513
O O16 0.046949 0.345272 0.000000
#
# Coordination Sequence:
#
# PCOD9427389 Si02
#       6
#     8   8   8   8   8   8
#     4  10  22  39  59  86 118 155 197 243 294 351
#     4  10  22  38  57  84 119 156 198 243 292 347
#     4  11  24  42  64  91 121 155 197 245 299 357
#     4  11  24  42  64  90 122 156 197 245 299 357
#     4  10  22  39  60  87 119 154 195 244 294 350
#     4  10  20  37  59  85 117 154 198 242 289 345
#
# _framework density 19.608239999999999
#
# number of rings (size 3 to 8) (size 9 to 14) (size 15 to 20)
#    0.000    1.667    1.667    2.000    2.333    6.667 
#    0.000    0.000    0.000    0.000    0.000    0.000 
#    0.000    0.000    0.000    0.000    0.000    0.000 
#
# Total GULP energy -268141.903659 kJ/mol
# GULP energy per Si atom -5586.289660 kJ/mol
# Density = 1.956361 g / cm^3
# Si number density = 19.608240 Si / 1000 Ang^3
#
#
#
# Elastic Constant Matrix: (Units=GPa)
#
#
# Indices 1 2 3 4 5 6 
#
# 1 52.4830 16.0443 12.9468 0.0000 0.0000 0.0000
# 2 16.0443 127.8852 20.6832 0.0000 0.0000 0.0000
# 3 12.9468 20.6832 16.6214 0.0000 0.0000 0.0000
# 4 0.0000 0.0000 0.0000 29.7255 0.0000 0.0000
# 5 0.0000 0.0000 0.0000 0.0000 23.2214 0.0000
# 6 0.0000 0.0000 0.0000 0.0000 0.0000 32.5620
#
#
#
# Elastic Compliance Matrix: (Units=1/GPa)
#
#
# Indices 1 2 3 4 5 6 
#
# 1 0.023586 0.000015 -0.018391 0.000000 0.000000 0.000000
# 2 0.000015 0.009790 -0.012194 0.000000 0.000000 0.000000
# 3 -0.018391 -0.012194 0.089662 0.000000 0.000000 0.000000
# 4 0.000000 0.000000 0.000000 0.033641 0.000000 0.000000
# 5 0.000000 0.000000 0.000000 0.000000 0.043064 0.000000
# 6 0.000000 0.000000 0.000000 0.000000 0.000000 0.030711
#
#
# Mechanical properties :
#
#
# Convention : Reuss Voigt Hill
#
# Bulk Modulus (GPa) = 16.15530 32.92647 24.54088
# Shear Modulus (GPa) = 16.01410 26.92280 21.46845
#
# Velocity S-wave (km/s) = 2.86090 3.70947 3.31247
# Velocity P-wave (km/s) = 4.37835 5.93089 5.21275
#
# Compressibility (1/GPa) = 0.06189918
#
# Stress axis : x y z
#
# Youngs Moduli (GPa) = 42.39842 102.14746 11.15298
#
# Poissons Ratio (x) = -0.00156 0.20511
# Poissons Ratio (y) = -0.00065 0.13600
# Poissons Ratio (z) = 0.77973 1.24559
#
# Static dielectric constant tensor:
#      x y z
#    x 1.706200 0.000000 0.000000 
#    y 0.000000 1.681540 0.000000 
#    z 0.000000 0.000000 1.672830 
# 
# From -- ./inp_files/2758.got.cif
#   From: 2010.05.17/outbox.cif.g08.bks.cpg/sg55_2_cif.got.tgz:2758.got - 2010.06.03 13:27:54.
