data_PCOD9427420
_publ_section_title
;
Structure prediction by ZEFSAII (Michael W. Deem and Ramdas Pophale) SiO2 
 PCOD9427420
Probable space group: P B A M
;
_chemical_formula_sum "Si O2"
_cell_formula_units_Z 56
_cell_length_a 21.809745
_cell_length_b 14.716570
_cell_length_c 7.521750
_cell_angle_alpha 90.000000
_cell_angle_beta 90.000000
_cell_angle_gamma 90.000000
_cell_volume 2414.215773
_symmetry_space_group_name_H-M "P B A M"
_symmetry_group_IT_number 55
_symmetry_cell_setting 'orthorhombic'
loop_
_space_group_symop_operation_xyz
x,y,z
-x,-y,z
1/2+x,1/2-y,-z
1/2-x,1/2+y,-z
-x,-y,-z
x,y,-z
1/2-x,1/2+y,z
1/2+x,1/2-y,z
loop_
_atom_site_type_symbol
_atom_site_label
_atom_site_fract_x
_atom_site_fract_y
_atom_site_fract_z
Si Si1 0.704608 0.800879 0.211586
Si Si2 0.677080 0.404708 0.205041
Si Si3 0.231605 0.901397 0.712071
Si Si4 0.458389 0.579364 0.207060
Si Si5 0.871817 0.605580 0.717273
Si Si6 0.017885 0.275946 0.284434
Si Si7 0.084780 0.587616 0.294983
O O1 0.769539 0.840279 0.282183
O O2 0.699095 0.693939 0.247592
O O3 0.648510 0.857813 0.289537
O O4 0.702999 0.816068 0.000000
O O5 0.701631 0.508069 0.210480
O O6 0.609299 0.405682 0.287367
O O7 0.670531 0.375114 0.000000
O O8 0.232466 0.914104 0.500000
O O9 0.301748 0.891246 0.776698
O O10 0.500000 0.500000 0.286395
O O11 0.492813 0.674955 0.217623
O O12 0.447862 0.554588 0.000000
O O13 0.870564 0.603814 0.500000
O O14 0.914878 0.688775 0.769563
O O15 0.902926 0.511966 0.780686
O O16 0.015197 0.273171 0.500000
O O17 0.967967 0.348425 0.218684
O O18 0.066770 0.571973 0.500000
#
# Coordination Sequence:
#
# PCOD9427420 Si02
#       7
#     8   8   8   8   8   8   8
#     4  11  23  38  58  85 121 159 198 242 293 351
#     4  10  22  41  61  85 117 158 198 240 294 348
#     4  11  22  36  61  90 118 153 195 243 294 349
#     4  10  23  42  61  82 115 157 198 242 295 352
#     4   9  18  36  60  89 121 153 188 235 295 350
#     4  10  21  37  61  89 117 153 195 243 293 348
#     4  10  20  37  60  88 120 152 194 241 293 351
#
# _framework density 23.195937000000001
#
# number of rings (size 3 to 8) (size 9 to 14) (size 15 to 20)
#    0.000    1.857    1.429    2.143    2.000    3.714 
#    0.000    1.429    0.000    1.714    0.000    0.000 
#    0.000    0.000    0.000    0.000    0.000    0.000 
#
# Total GULP energy -313150.416410 kJ/mol
# GULP energy per Si atom -5591.971722 kJ/mol
# Density = 2.314314 g / cm^3
# Si number density = 23.195937 Si / 1000 Ang^3
#
#
#
# Elastic Constant Matrix: (Units=GPa)
#
#
# Indices 1 2 3 4 5 6 
#
# 1 63.5892 0.2604 0.8167 0.0000 0.0000 0.0000
# 2 0.2604 109.8150 -16.7342 0.0000 0.0000 0.0000
# 3 0.8167 -16.7342 67.7989 0.0000 0.0000 0.0000
# 4 0.0000 0.0000 0.0000 2.1588 0.0000 0.0000
# 5 0.0000 0.0000 0.0000 0.0000 1.9436 0.0000
# 6 0.0000 0.0000 0.0000 0.0000 0.0000 34.1725
#
#
#
# Elastic Compliance Matrix: (Units=1/GPa)
#
#
# Indices 1 2 3 4 5 6 
#
# 1 0.015729 -0.000069 -0.000206 0.000000 0.000000 0.000000
# 2 -0.000069 0.009462 0.002336 0.000000 0.000000 0.000000
# 3 -0.000206 0.002336 0.015329 0.000000 0.000000 0.000000
# 4 0.000000 0.000000 0.000000 0.463219 0.000000 0.000000
# 5 0.000000 0.000000 0.000000 0.000000 0.514516 0.000000
# 6 0.000000 0.000000 0.000000 0.000000 0.000000 0.029263
#
#
# Mechanical properties :
#
#
# Convention : Reuss Voigt Hill
#
# Bulk Modulus (GPa) = 22.40030 23.32098 22.86064
# Shear Modulus (GPa) = 4.72466 24.77899 14.75183
#
# Velocity S-wave (km/s) = 1.42873 3.27195 2.52457
# Velocity P-wave (km/s) = 3.52131 4.93457 4.28658
#
# Compressibility (1/GPa) = 0.04464225
#
# Stress axis : x y z
#
# Youngs Moduli (GPa) = 63.57739 105.68127 65.23736
#
# Poissons Ratio (x) = 0.00727 0.01347
# Poissons Ratio (y) = 0.00437 -0.15242
# Poissons Ratio (z) = 0.01312 -0.24691
#
# Static dielectric constant tensor:
#      x y z
#    x 1.871340 0.000000 0.000000 
#    y 0.000000 1.811520 0.000000 
#    z 0.000000 0.000000 1.905400 
# 
# From -- ./inp_files/6115.got.cif
#   From: 2010.05.17/outbox.cif.g08.bks.cpg/sg55_4_cif.got.tgz:6115.got - 2010.06.03 13:27:54.
