data_PCOD9427680
_publ_section_title
;
Structure prediction by ZEFSAII (Michael W. Deem and Ramdas Pophale) SiO2 
 PCOD9427680
Probable space group: P B A M
;
_chemical_formula_sum "Si O2"
_cell_formula_units_Z 64
_cell_length_a 17.602079
_cell_length_b 14.311967
_cell_length_c 13.629948
_cell_angle_alpha 90.000000
_cell_angle_beta 90.000000
_cell_angle_gamma 90.000000
_cell_volume 3433.661595
_symmetry_space_group_name_H-M "P B A M"
_symmetry_group_IT_number 55
_symmetry_cell_setting 'orthorhombic'
loop_
_space_group_symop_operation_xyz
x,y,z
-x,-y,z
1/2+x,1/2-y,-z
1/2-x,1/2+y,-z
-x,-y,-z
x,y,-z
1/2-x,1/2+y,z
1/2+x,1/2-y,z
loop_
_atom_site_type_symbol
_atom_site_label
_atom_site_fract_x
_atom_site_fract_y
_atom_site_fract_z
Si Si1 0.578462 0.455634 0.787828
Si Si2 0.759969 0.989792 0.116378
Si Si3 0.086350 0.261530 0.737905
Si Si4 0.443169 0.212942 0.388688
Si Si5 0.632852 0.582567 0.387187
Si Si6 0.751055 0.663434 0.754486
Si Si7 0.003746 0.392575 0.886657
Si Si8 0.148858 0.663124 0.204090
O O1 0.500000 0.500000 0.826210
O O2 0.651233 0.476816 0.855963
O O3 0.572841 0.345133 0.770208
O O4 0.595049 0.506481 0.683685
O O5 0.711268 0.912816 0.175010
O O6 0.733972 0.088937 0.160079
O O7 0.748139 0.981922 0.000000
O O8 0.174544 0.281525 0.720338
O O9 0.060660 0.330495 0.824506
O O10 0.029527 0.286021 0.649240
O O11 0.435708 0.179865 0.500000
O O12 0.414759 0.320752 0.384744
O O13 0.391182 0.156349 0.311195
O O14 0.639376 0.552533 0.500000
O O15 0.712707 0.608918 0.336293
O O16 0.689636 0.736998 0.795135
O O17 0.000000 0.500000 0.851362
O O18 0.920694 0.347885 0.870853
O O19 0.025293 0.394133 0.000000
#
# Coordination Sequence:
#
# PCOD9427680 Si02
#       8
#     8   8   8   8   8   8   8   8
#     4  11  22  39  58  88 131 161 199 249 306 366
#     4  11  24  40  62  86 117 164 208 252 308 365
#     4  11  21  37  61  91 124 160 197 252 303 363
#     4   9  19  36  62  91 119 157 199 243 300 359
#     4   9  19  37  60  83 117 160 197 241 296 361
#     4  10  22  39  58  86 123 152 201 255 304 360
#     4  10  22  39  61  86 113 155 209 260 308 361
#     4  10  20  40  61  84 121 158 198 257 305 356
#
# _framework density 18.638994
#
# number of rings (size 3 to 8) (size 9 to 14) (size 15 to 20)
#    0.000    1.875    2.500    1.125    1.750    4.500 
#    0.000    2.500    0.000   12.750    0.000    0.000 
#    0.000    0.000    0.000    0.000    0.000    0.000 
#
# Total GULP energy -357155.525534 kJ/mol
# GULP energy per Si atom -5580.555086 kJ/mol
# Density = 1.859657 g / cm^3
# Si number density = 18.638994 Si / 1000 Ang^3
#
#
#
# Elastic Constant Matrix: (Units=GPa)
#
#
# Indices 1 2 3 4 5 6 
#
# 1 71.3088 19.1448 8.0826 0.0000 0.0000 0.0000
# 2 19.1448 58.9615 33.8980 0.0000 0.0000 0.0000
# 3 8.0826 33.8980 89.7514 0.0000 0.0000 0.0000
# 4 0.0000 0.0000 0.0000 16.7260 0.0000 0.0000
# 5 0.0000 0.0000 0.0000 0.0000 3.5466 0.0000
# 6 0.0000 0.0000 0.0000 0.0000 0.0000 32.2846
#
#
#
# Elastic Compliance Matrix: (Units=1/GPa)
#
#
# Indices 1 2 3 4 5 6 
#
# 1 0.015392 -0.005366 0.000641 0.000000 0.000000 0.000000
# 2 -0.005366 0.023535 -0.008406 0.000000 0.000000 0.000000
# 3 0.000641 -0.008406 0.014259 0.000000 0.000000 0.000000
# 4 0.000000 0.000000 0.000000 0.059787 0.000000 0.000000
# 5 0.000000 0.000000 0.000000 0.000000 0.281962 0.000000
# 6 0.000000 0.000000 0.000000 0.000000 0.000000 0.030975
#
#
# Mechanical properties :
#
#
# Convention : Reuss Voigt Hill
#
# Bulk Modulus (GPa) = 37.14230 38.03029 37.58629
# Shear Modulus (GPa) = 10.84256 21.10452 15.97354
#
# Velocity S-wave (km/s) = 2.41449 3.36858 2.93062
# Velocity P-wave (km/s) = 5.26721 5.96471 5.62678
#
# Compressibility (1/GPa) = 0.02692348
#
# Stress axis : x y z
#
# Youngs Moduli (GPa) = 64.97081 42.48972 70.13148
#
# Poissons Ratio (x) = 0.22799 -0.04492
# Poissons Ratio (y) = 0.34862 0.58950
# Poissons Ratio (z) = -0.04162 0.35716
#
# Static dielectric constant tensor:
#      x y z
#    x 1.668110 0.000000 0.000000 
#    y 0.000000 1.633590 0.000000 
#    z 0.000000 0.000000 1.624620 
# 
# From -- ./inp_files/19583.got.cif
#   From: 2010.05.17/outbox.cif.g08.bks.cpg/sg55_10_cif.got.tgz:19583.got - 2010.06.03 13:27:54.
