data_PCOD9427407
_publ_section_title
;
Structure prediction by ZEFSAII (Michael W. Deem and Ramdas Pophale) SiO2 
 PCOD9427407
Probable space group: P B A M
;
_chemical_formula_sum "Si O2"
_cell_formula_units_Z 64
_cell_length_a 31.263870
_cell_length_b 11.122437
_cell_length_c 9.539937
_cell_angle_alpha 90.000000
_cell_angle_beta 90.000000
_cell_angle_gamma 90.000000
_cell_volume 3317.326342
_symmetry_space_group_name_H-M "P B A M"
_symmetry_group_IT_number 55
_symmetry_cell_setting 'orthorhombic'
loop_
_space_group_symop_operation_xyz
x,y,z
-x,-y,z
1/2+x,1/2-y,-z
1/2-x,1/2+y,-z
-x,-y,-z
x,y,-z
1/2-x,1/2+y,z
1/2+x,1/2-y,z
loop_
_atom_site_type_symbol
_atom_site_label
_atom_site_fract_x
_atom_site_fract_y
_atom_site_fract_z
Si Si1 0.376606 0.176167 0.655528
Si Si2 0.501802 0.356863 0.342076
Si Si3 0.550488 0.024071 0.338936
Si Si4 0.779119 0.342099 0.663575
Si Si5 0.421385 0.753177 0.167618
Si Si6 0.141047 0.057461 0.161238
Si Si7 0.079416 0.844209 0.842597
Si Si8 0.217684 0.939538 0.329327
O O1 0.377551 0.236120 0.500000
O O2 0.329263 0.122915 0.669110
O O3 0.382168 0.265158 0.784288
O O4 0.416908 0.087519 0.661009
O O5 0.500000 0.500000 0.350049
O O6 0.502628 0.308268 0.500000
O O7 0.541913 0.317109 0.251771
O O8 0.459301 0.320945 0.261001
O O9 0.551423 0.070344 0.500000
O O10 0.571298 0.114667 0.228177
O O11 0.500000 0.000000 0.307046
O O12 0.766872 0.332605 0.500000
O O13 0.752076 0.457335 0.716515
O O14 0.774739 0.201592 0.715878
O O15 0.375656 0.690606 0.199039
O O16 0.427392 0.747389 0.000000
O O17 0.174089 0.993916 0.264480
O O18 0.097498 0.978652 0.160774
O O19 0.157154 0.056335 0.000000
O O20 0.066879 0.813667 0.000000
O O21 0.215401 0.936925 0.500000
#
# Coordination Sequence:
#
# PCOD9427407 Si02
#       8
#     8   8   8   8   8   8   8   8
#     4  10  20  37  60  85 116 153 199 248 295 353
#     4  11  22  34  53  82 114 150 194 240 289 345
#     4  10  22  39  58  84 120 159 202 252 300 354
#     4   9  19  35  59  90 117 150 196 250 305 361
#     4  11  23  39  58  82 119 157 197 246 297 357
#     4  10  22  38  56  84 119 153 190 241 298 351
#     4  11  21  35  57  83 116 152 192 238 290 349
#     4  10  20  37  61  87 118 154 200 251 306 372
#
# _framework density 19.292646000000001
#
# number of rings (size 3 to 8) (size 9 to 14) (size 15 to 20)
#    0.000    1.750    2.500    1.875    0.000    4.750 
#    0.000    3.750    0.000    0.000    0.000    0.000 
#    0.000    0.000    0.000    0.000    0.000    0.000 
#
# Total GULP energy -356395.270150 kJ/mol
# GULP energy per Si atom -5568.676096 kJ/mol
# Density = 1.924873 g / cm^3
# Si number density = 19.292646 Si / 1000 Ang^3
#
#
#
# Elastic Constant Matrix: (Units=GPa)
#
#
# Indices 1 2 3 4 5 6 
#
# 1 83.2954 43.3688 26.8204 0.0000 0.0000 0.0000
# 2 43.3688 86.8525 36.3903 0.0000 0.0000 0.0000
# 3 26.8204 36.3903 67.4176 0.0000 0.0000 0.0000
# 4 0.0000 0.0000 0.0000 20.5560 0.0000 0.0000
# 5 0.0000 0.0000 0.0000 0.0000 8.6225 0.0000
# 6 0.0000 0.0000 0.0000 0.0000 0.0000 35.4155
#
#
#
# Elastic Compliance Matrix: (Units=1/GPa)
#
#
# Indices 1 2 3 4 5 6 
#
# 1 0.016610 -0.007140 -0.002754 0.000000 0.000000 0.000000
# 2 -0.007140 0.017948 -0.006847 0.000000 0.000000 0.000000
# 3 -0.002754 -0.006847 0.019624 0.000000 0.000000 0.000000
# 4 0.000000 0.000000 0.000000 0.048648 0.000000 0.000000
# 5 0.000000 0.000000 0.000000 0.000000 0.115975 0.000000
# 6 0.000000 0.000000 0.000000 0.000000 0.000000 0.028236
#
#
# Mechanical properties :
#
#
# Convention : Reuss Voigt Hill
#
# Bulk Modulus (GPa) = 48.30957 50.08051 49.19504
# Shear Modulus (GPa) = 17.39593 21.65122 19.52357
#
# Velocity S-wave (km/s) = 3.00607 3.35364 3.18460
# Velocity P-wave (km/s) = 6.09454 6.40395 6.25116
#
# Compressibility (1/GPa) = 0.02069983
#
# Stress axis : x y z
#
# Youngs Moduli (GPa) = 60.20573 55.71614 50.95679
#
# Poissons Ratio (x) = 0.39782 0.14032
# Poissons Ratio (y) = 0.42988 0.34892
# Poissons Ratio (z) = 0.16579 0.38151
#
# Static dielectric constant tensor:
#      x y z
#    x 1.672130 0.000000 0.000000 
#    y 0.000000 1.778650 0.000000 
#    z 0.000000 0.000000 1.658170 
# 
# From -- ./inp_files/10741.got.cif
#   From: 2010.05.17/outbox.cif.g08.bks.cpg/sg55_6_cif.got.tgz:10741.got - 2010.06.03 13:27:54.
