data_PCOD9427670
_publ_section_title
;
Structure prediction by ZEFSAII (Michael W. Deem and Ramdas Pophale) SiO2 
 PCOD9427670
Probable space group: P B A M
;
_chemical_formula_sum "Si O2"
_cell_formula_units_Z 48
_cell_length_a 25.860434
_cell_length_b 9.878594
_cell_length_c 8.722097
_cell_angle_alpha 90.000000
_cell_angle_beta 90.000000
_cell_angle_gamma 90.000000
_cell_volume 2228.188139
_symmetry_space_group_name_H-M "P B A M"
_symmetry_group_IT_number 55
_symmetry_cell_setting 'orthorhombic'
loop_
_space_group_symop_operation_xyz
x,y,z
-x,-y,z
1/2+x,1/2-y,-z
1/2-x,1/2+y,-z
-x,-y,-z
x,y,-z
1/2-x,1/2+y,z
1/2+x,1/2-y,z
loop_
_atom_site_type_symbol
_atom_site_label
_atom_site_fract_x
_atom_site_fract_y
_atom_site_fract_z
Si Si1 0.237116 0.165819 0.180168
Si Si2 0.367570 0.542972 0.684646
Si Si3 0.463434 0.738899 0.318652
Si Si4 0.080766 0.766980 0.317451
Si Si5 0.094367 0.472486 0.179715
Si Si6 0.202587 0.432477 0.320737
O O1 0.235458 0.321835 0.229030
O O2 0.181921 0.102379 0.229822
O O3 0.279653 0.081174 0.271819
O O4 0.245361 0.151657 0.000000
O O5 0.358633 0.550431 0.500000
O O6 0.418716 0.631473 0.718960
O O7 0.380682 0.387919 0.724970
O O8 0.459102 0.769972 0.500000
O O9 0.521401 0.686494 0.293241
O O10 0.453024 0.876243 0.225876
O O11 0.087056 0.740573 0.500000
O O12 0.087667 0.627466 0.228401
O O13 0.143176 0.415798 0.274114
O O14 0.104973 0.461913 0.000000
O O15 0.209615 0.410584 0.500000
#
# Coordination Sequence:
#
# PCOD9427670 Si02
#       6
#     8   8   8   8   8   8
#     4  12  26  45  69 100 134 166 207 268 330 382
#     4  10  21  40  66  95 129 170 217 263 316 384
#     4  10  20  39  66  93 126 170 220 269 318 380
#     4  10  22  39  63  95 129 171 222 268 313 379
#     4  12  25  41  62  93 132 171 213 268 327 381
#     4  12  26  47  72  96 126 171 219 262 316 392
#
# _framework density 21.542166000000002
#
# number of rings (size 3 to 8) (size 9 to 14) (size 15 to 20)
#    0.000    1.000    1.667    5.500    2.333    5.333 
#    0.000    0.000    0.000    3.000    0.000    0.000 
#    0.000    0.000    0.000    0.000    0.000    0.000 
#
# Total GULP energy -268726.248004 kJ/mol
# GULP energy per Si atom -5598.463500 kJ/mol
# Density = 2.149314 g / cm^3
# Si number density = 21.542166 Si / 1000 Ang^3
#
#
#
# Elastic Constant Matrix: (Units=GPa)
#
#
# Indices 1 2 3 4 5 6 
#
# 1 29.5394 -18.7088 1.5280 0.0000 0.0000 0.0000
# 2 -18.7088 66.1227 -0.0824 0.0000 0.0000 0.0000
# 3 1.5280 -0.0824 43.0416 0.0000 0.0000 0.0000
# 4 0.0000 0.0000 0.0000 12.6072 0.0000 0.0000
# 5 0.0000 0.0000 0.0000 0.0000 88.8163 0.0000
# 6 0.0000 0.0000 0.0000 0.0000 0.0000 38.2995
#
#
#
# Elastic Compliance Matrix: (Units=1/GPa)
#
#
# Indices 1 2 3 4 5 6 
#
# 1 0.041334 0.011693 -0.001445 0.000000 0.000000 0.000000
# 2 0.011693 0.018431 -0.000380 0.000000 0.000000 0.000000
# 3 -0.001445 -0.000380 0.023284 0.000000 0.000000 0.000000
# 4 0.000000 0.000000 0.000000 0.079320 0.000000 0.000000
# 5 0.000000 0.000000 0.000000 0.000000 0.011259 0.000000
# 6 0.000000 0.000000 0.000000 0.000000 0.000000 0.026110
#
#
# Mechanical properties :
#
#
# Convention : Reuss Voigt Hill
#
# Bulk Modulus (GPa) = 9.72896 11.57525 10.65210
# Shear Modulus (GPa) = 23.33579 38.34239 30.83909
#
# Velocity S-wave (km/s) = 3.29486 4.22343 3.78771
# Velocity P-wave (km/s) = 4.35900 5.40076 4.90760
#
# Compressibility (1/GPa) = 0.10278594
#
# Stress axis : x y z
#
# Youngs Moduli (GPa) = 24.19331 54.25517 42.94817
#
# Poissons Ratio (x) = -0.63442 0.06206
# Poissons Ratio (y) = -0.28290 0.01631
# Poissons Ratio (z) = 0.03496 0.02061
#
# Static dielectric constant tensor:
#      x y z
#    x 1.784310 0.000000 0.000000 
#    y 0.000000 1.777170 0.000000 
#    z 0.000000 0.000000 1.719380 
# 
# From -- ./inp_files/10505.got.cif
#   From: 2010.05.17/outbox.cif.g08.bks.cpg/sg55_6_cif.got.tgz:10505.got - 2010.06.03 13:27:54.
