data_PCOD9427691
_publ_section_title
;
Structure prediction by ZEFSAII (Michael W. Deem and Ramdas Pophale) SiO2 
 PCOD9427691
Probable space group: P B A M
;
_chemical_formula_sum "Si O2"
_cell_formula_units_Z 48
_cell_length_a 17.227131
_cell_length_b 5.319005
_cell_length_c 24.219272
_cell_angle_alpha 90.000000
_cell_angle_beta 90.000000
_cell_angle_gamma 90.000000
_cell_volume 2219.240858
_symmetry_space_group_name_H-M "P B A M"
_symmetry_group_IT_number 55
_symmetry_cell_setting 'orthorhombic'
loop_
_space_group_symop_operation_xyz
x,y,z
-x,-y,z
1/2+x,1/2-y,-z
1/2-x,1/2+y,-z
-x,-y,-z
x,y,-z
1/2-x,1/2+y,z
1/2+x,1/2-y,z
loop_
_atom_site_type_symbol
_atom_site_label
_atom_site_fract_x
_atom_site_fract_y
_atom_site_fract_z
Si Si1 0.829124 0.799918 0.063780
Si Si2 0.553219 0.748299 0.560285
Si Si3 0.654703 0.800824 0.891631
Si Si4 0.412837 0.108587 0.323584
Si Si5 0.410704 0.452267 0.214300
Si Si6 0.197937 0.305191 0.739354
O O1 0.875942 0.567732 0.088469
O O2 0.747866 0.824098 0.097607
O O3 0.870212 0.065880 0.070882
O O4 0.809848 0.749084 0.000000
O O5 0.500000 0.500000 0.564538
O O6 0.593105 0.738028 0.500000
O O7 0.601147 0.769192 0.616727
O O8 0.500000 0.000000 0.559718
O O9 0.631663 0.719666 0.830626
O O10 0.406268 0.310208 0.273711
O O11 0.500000 0.000000 0.321096
O O12 0.354041 0.877672 0.313647
O O13 0.500000 0.500000 0.200932
O O14 0.367664 0.722111 0.216952
O O15 0.249558 0.555408 0.743042
#
# Coordination Sequence:
#
# PCOD9427691 Si02
#       6
#     8   8   8   8   8   8
#     4  10  20  40  65  91 121 164 220 274 325 390
#     4   9  19  35  62 100 132 168 232 296 337 393
#     4  10  22  33  61  90 122 157 213 266 321 386
#     4  11  23  42  71  95 139 186 228 278 358 417
#     4  12  26  42  64  98 144 184 221 273 352 422
#     4  12  27  42  65  95 133 176 233 282 331 407
#
# _framework density 21.629017999999999
#
# number of rings (size 3 to 8) (size 9 to 14) (size 15 to 20)
#    0.000    1.333    3.333    3.000    9.333    0.000 
#    0.000    0.000    0.000    6.500    0.000    0.000 
#    0.000    0.000    0.000    0.000    0.000    0.000 
#
# Total GULP energy -267704.342348 kJ/mol
# GULP energy per Si atom -5577.173799 kJ/mol
# Density = 2.157979 g / cm^3
# Si number density = 21.629018 Si / 1000 Ang^3
#
#
#
# Elastic Constant Matrix: (Units=GPa)
#
#
# Indices 1 2 3 4 5 6 
#
# 1 78.3943 26.8534 30.6544 0.0000 0.0000 0.0000
# 2 26.8534 151.0414 17.8457 0.0000 0.0000 0.0000
# 3 30.6544 17.8457 145.5230 0.0000 0.0000 0.0000
# 4 0.0000 0.0000 0.0000 824.1566 0.0000 0.0000
# 5 0.0000 0.0000 0.0000 0.0000 6.2141 0.0000
# 6 0.0000 0.0000 0.0000 0.0000 0.0000 22.9990
#
#
#
# Elastic Compliance Matrix: (Units=1/GPa)
#
#
# Indices 1 2 3 4 5 6 
#
# 1 0.014630 -0.002270 -0.002803 0.000000 0.000000 0.000000
# 2 -0.002270 0.007070 -0.000389 0.000000 0.000000 0.000000
# 3 -0.002803 -0.000389 0.007510 0.000000 0.000000 0.000000
# 4 0.000000 0.000000 0.000000 0.001213 0.000000 0.000000
# 5 0.000000 0.000000 0.000000 0.000000 0.160925 0.000000
# 6 0.000000 0.000000 0.000000 0.000000 0.000000 0.043480
#
#
# Mechanical properties :
#
#
# Convention : Reuss Voigt Hill
#
# Bulk Modulus (GPa) = 54.68738 58.40732 56.54735
# Shear Modulus (GPa) = 19.85324 190.64760 105.25042
#
# Velocity S-wave (km/s) = 3.03297 9.39871 6.98336
# Velocity P-wave (km/s) = 6.13224 12.03510 9.55113
#
# Compressibility (1/GPa) = 0.01828575
#
# Stress axis : x y z
#
# Youngs Moduli (GPa) = 68.35393 141.43888 133.15583
#
# Poissons Ratio (x) = 0.32103 0.37329
# Poissons Ratio (y) = 0.15515 0.05178
# Poissons Ratio (z) = 0.19162 0.05501
#
# Static dielectric constant tensor:
#      x y z
#    x 1.831260 0.000000 0.000000 
#    y 0.000000 1.887920 0.000000 
#    z 0.000000 0.000000 1.845850 
# 
# From -- ./inp_files/23647.got.cif
#   From: 2010.05.17/outbox.cif.g08.bks.cpg/sg55_12_cif.got.tgz:23647.got - 2010.06.03 13:27:54.
