data_PCOD9427367
_publ_section_title
;
Structure prediction by ZEFSAII (Michael W. Deem and Ramdas Pophale) SiO2 
 PCOD9427367
Probable space group: P B A M
;
_chemical_formula_sum "Si O2"
_cell_formula_units_Z 40
_cell_length_a 8.927735
_cell_length_b 10.891537
_cell_length_c 21.117459
_cell_angle_alpha 90.000000
_cell_angle_beta 90.000000
_cell_angle_gamma 90.000000
_cell_volume 2053.393210
_symmetry_space_group_name_H-M "P B A M"
_symmetry_group_IT_number 55
_symmetry_cell_setting 'orthorhombic'
loop_
_space_group_symop_operation_xyz
x,y,z
-x,-y,z
1/2+x,1/2-y,-z
1/2-x,1/2+y,-z
-x,-y,-z
x,y,-z
1/2-x,1/2+y,z
1/2+x,1/2-y,z
loop_
_atom_site_type_symbol
_atom_site_label
_atom_site_fract_x
_atom_site_fract_y
_atom_site_fract_z
Si Si1 0.199420 0.090070 0.425007
Si Si2 0.204505 0.251005 0.153550
Si Si3 0.448619 0.362273 0.763891
Si Si4 0.949186 0.361015 0.929319
Si Si5 0.128974 0.829767 0.377698
O O1 0.208581 0.069222 0.500000
O O2 0.305850 0.203767 0.405872
O O3 0.033379 0.137725 0.406675
O O4 0.221971 0.956252 0.391770
O O5 0.316775 0.350380 0.184233
O O6 0.315770 0.154133 0.120937
O O7 0.094580 0.205180 0.208602
O O8 0.093236 0.292346 0.098400
O O9 0.500000 0.500000 0.752402
O O10 0.391034 0.311272 0.697346
O O11 0.000000 0.500000 0.933094
O O12 0.907652 0.317102 0.000000
#
# Coordination Sequence:
#
# PCOD9427367 Si02
#       5
#     8   8   8   8   8
#     4  11  22  41  63  89 121 156 199 245 301 358
#     4  10  22  36  58  86 116 156 193 241 296 346
#     4  11  21  38  58  83 120 152 199 243 293 356
#     4  10  20  37  58  85 117 152 195 240 289 347
#     4  11  23  40  62  90 120 160 197 250 299 357
#
# _framework density 19.479952999999998
#
# number of rings (size 3 to 8) (size 9 to 14) (size 15 to 20)
#    0.000    1.400    2.000    5.400    0.000    0.800 
#    0.000    2.000    0.000    9.600    0.000    0.000 
#    0.000    0.000    0.000    0.000    0.000    0.000 
#
# Total GULP energy -223127.188332 kJ/mol
# GULP energy per Si atom -5578.179708 kJ/mol
# Density = 1.943562 g / cm^3
# Si number density = 19.479953 Si / 1000 Ang^3
#
#
#
# Elastic Constant Matrix: (Units=GPa)
#
#
# Indices 1 2 3 4 5 6 
#
# 1 66.5468 18.6021 24.2632 0.0000 0.0000 0.0000
# 2 18.6021 37.2564 25.6736 0.0000 0.0000 0.0000
# 3 24.2632 25.6736 122.0730 0.0000 0.0000 0.0000
# 4 0.0000 0.0000 0.0000 43.7912 0.0000 0.0000
# 5 0.0000 0.0000 0.0000 0.0000 36.1525 0.0000
# 6 0.0000 0.0000 0.0000 0.0000 0.0000 24.4847
#
#
#
# Elastic Compliance Matrix: (Units=1/GPa)
#
#
# Indices 1 2 3 4 5 6 
#
# 1 0.017856 -0.007566 -0.001958 0.000000 0.000000 0.000000
# 2 -0.007566 0.034597 -0.005772 0.000000 0.000000 0.000000
# 3 -0.001958 -0.005772 0.009795 0.000000 0.000000 0.000000
# 4 0.000000 0.000000 0.000000 0.022836 0.000000 0.000000
# 5 0.000000 0.000000 0.000000 0.000000 0.027661 0.000000
# 6 0.000000 0.000000 0.000000 0.000000 0.000000 0.040842
#
#
# Mechanical properties :
#
#
# Convention : Reuss Voigt Hill
#
# Bulk Modulus (GPa) = 31.59084 40.32822 35.95953
# Shear Modulus (GPa) = 25.67662 31.37483 28.52573
#
# Velocity S-wave (km/s) = 3.63451 4.01761 3.83085
# Velocity P-wave (km/s) = 5.81938 6.50146 6.16985
#
# Compressibility (1/GPa) = 0.03165474
#
# Stress axis : x y z
#
# Youngs Moduli (GPa) = 56.00400 28.90457 102.09377
#
# Poissons Ratio (x) = 0.21870 0.19987
# Poissons Ratio (y) = 0.42375 0.58931
# Poissons Ratio (z) = 0.10964 0.16684
#
# Static dielectric constant tensor:
#      x y z
#    x 1.676280 0.000000 0.000000 
#    y 0.000000 1.699980 0.000000 
#    z 0.000000 0.000000 1.688700 
# 
# From -- ./inp_files/20602.got.cif
#   From: 2010.05.17/outbox.cif.g08.bks.cpg/sg55_11_cif.got.tgz:20602.got - 2010.06.03 13:27:54.
