data_PCOD9427941
_publ_section_title
;
Structure prediction by ZEFSAII (Michael W. Deem and Ramdas Pophale) SiO2 
 PCOD9427941
Probable space group: P B A M
;
_chemical_formula_sum "Si O2"
_cell_formula_units_Z 28
_cell_length_a 6.440226
_cell_length_b 24.121257
_cell_length_c 8.132749
_cell_angle_alpha 90.000000
_cell_angle_beta 90.000000
_cell_angle_gamma 90.000000
_cell_volume 1263.392844
_symmetry_space_group_name_H-M "P B A M"
_symmetry_group_IT_number 55
_symmetry_cell_setting 'orthorhombic'
loop_
_space_group_symop_operation_xyz
x,y,z
-x,-y,z
1/2+x,1/2-y,-z
1/2-x,1/2+y,-z
-x,-y,-z
x,y,-z
1/2-x,1/2+y,z
1/2+x,1/2-y,z
loop_
_atom_site_type_symbol
_atom_site_label
_atom_site_fract_x
_atom_site_fract_y
_atom_site_fract_z
Si Si1 0.272048 0.452756 0.811222
Si Si2 0.295736 0.572784 0.313440
Si Si3 0.515910 0.845974 0.814329
Si Si4 0.071279 0.273069 0.500000
O O1 0.458625 0.436192 0.692436
O O2 0.215218 0.515964 0.769535
O O3 0.105791 0.404347 0.799478
O O4 0.346930 0.452095 0.000000
O O5 0.218012 0.576493 0.500000
O O6 0.245325 0.630244 0.222450
O O7 0.439315 0.806494 0.671133
O O8 0.495294 0.824528 0.000000
O O9 0.320731 0.251186 0.500000
#
# Coordination Sequence:
#
# PCOD9427941 Si02
#       4
#     8   8   8   4
#     4  10  21  36  60  99 146 192 236 283 347 434
#     4  11  21  34  62 102 147 192 234 284 348 430
#     4  11  25  44  72 101 139 188 239 296 367 439
#     4  12  32  56  81 108 141 180 246 324 380 434
#
# _framework density 22.162545999999999
#
# number of rings (size 3 to 8) (size 9 to 14) (size 15 to 20)
#    0.000    1.143    1.429    6.000    8.000    4.571 
#    0.000    0.000    0.000    0.000    0.000    0.000 
#    0.000    0.000    0.000    0.000    0.000    0.000 
#
# Total GULP energy -155902.983846 kJ/mol
# GULP energy per Si atom -5567.963709 kJ/mol
# Density = 2.211210 g / cm^3
# Si number density = 22.162546 Si / 1000 Ang^3
#
#
#
# Elastic Constant Matrix: (Units=GPa)
#
#
# Indices 1 2 3 4 5 6 
#
# 1 66.6020 18.0304 5.4532 0.0000 0.0000 0.0000
# 2 18.0304 39.2836 42.3704 0.0000 0.0000 0.0000
# 3 5.4532 42.3704 174.8272 0.0000 0.0000 0.0000
# 4 0.0000 0.0000 0.0000 79.4282 0.0000 0.0000
# 5 0.0000 0.0000 0.0000 0.0000 78.2067 0.0000
# 6 0.0000 0.0000 0.0000 0.0000 0.0000 24.7068
#
#
#
# Elastic Compliance Matrix: (Units=1/GPa)
#
#
# Indices 1 2 3 4 5 6 
#
# 1 0.017603 -0.010137 0.001908 0.000000 0.000000 0.000000
# 2 -0.010137 0.040303 -0.009451 0.000000 0.000000 0.000000
# 3 0.001908 -0.009451 0.007951 0.000000 0.000000 0.000000
# 4 0.000000 0.000000 0.000000 0.012590 0.000000 0.000000
# 5 0.000000 0.000000 0.000000 0.000000 0.012787 0.000000
# 6 0.000000 0.000000 0.000000 0.000000 0.000000 0.040475
#
#
# Mechanical properties :
#
#
# Convention : Reuss Voigt Hill
#
# Bulk Modulus (GPa) = 32.79214 45.82453 39.30834
# Shear Modulus (GPa) = 28.21136 50.79226 39.50181
#
# Velocity S-wave (km/s) = 3.57168 4.79247 4.22639
# Velocity P-wave (km/s) = 5.64248 7.16556 6.44914
#
# Compressibility (1/GPa) = 0.03049511
#
# Stress axis : x y z
#
# Youngs Moduli (GPa) = 56.80977 24.81234 125.76997
#
# Poissons Ratio (x) = 0.25152 -0.23993
# Poissons Ratio (y) = 0.57587 1.18870
# Poissons Ratio (z) = -0.10837 0.23451
#
# Static dielectric constant tensor:
#      x y z
#    x 2.070290 0.000000 0.000000 
#    y 0.000000 1.796250 0.000000 
#    z 0.000000 0.000000 1.763550 
# 
# From -- ./inp_files/1253.got.cif
#   From: 2010.05.17/outbox.cif.g08.bks.cpg/sg55_1_cif.got.tgz:1253.got - 2010.06.03 13:27:54.
