data_PCOD9427488
_publ_section_title
;
Structure prediction by ZEFSAII (Michael W. Deem and Ramdas Pophale) SiO2 
 PCOD9427488
Probable space group: P B A M
;
_chemical_formula_sum "Si O2"
_cell_formula_units_Z 48
_cell_length_a 9.964359
_cell_length_b 26.583284
_cell_length_c 7.698210
_cell_angle_alpha 90.000000
_cell_angle_beta 90.000000
_cell_angle_gamma 90.000000
_cell_volume 2039.143321
_symmetry_space_group_name_H-M "P B A M"
_symmetry_group_IT_number 55
_symmetry_cell_setting 'orthorhombic'
loop_
_space_group_symop_operation_xyz
x,y,z
-x,-y,z
1/2+x,1/2-y,-z
1/2-x,1/2+y,-z
-x,-y,-z
x,y,-z
1/2-x,1/2+y,z
1/2+x,1/2-y,z
loop_
_atom_site_type_symbol
_atom_site_label
_atom_site_fract_x
_atom_site_fract_y
_atom_site_fract_z
Si Si1 0.161709 0.234831 0.798650
Si Si2 0.955585 0.869924 0.701102
Si Si3 0.937028 0.305913 0.786772
Si Si4 0.282256 0.422737 0.799849
Si Si5 0.477007 0.079969 0.789642
Si Si6 0.795339 0.966992 0.297329
O O1 0.307034 0.223764 0.722117
O O2 0.080208 0.182342 0.791339
O O3 0.071072 0.278871 0.723091
O O4 0.183866 0.248138 0.000000
O O5 0.917475 0.863533 0.500000
O O6 0.110362 0.886238 0.713092
O O7 0.870458 0.917409 0.773307
O O8 0.929464 0.364101 0.740715
O O9 0.936648 0.304520 0.000000
O O10 0.332213 0.480261 0.788368
O O11 0.130594 0.423915 0.728525
O O12 0.273320 0.406750 0.000000
O O13 0.364102 0.042273 0.722181
O O14 0.477771 0.074438 0.000000
O O15 0.830732 0.971300 0.500000
#
# Coordination Sequence:
#
# PCOD9427488 Si02
#       6
#     8   8   8   8   8   8
#     4  10  20  37  63  89 116 153 194 243 296 349
#     4  11  24  41  59  85 122 160 199 245 295 354
#     4   9  19  35  61  91 117 147 191 243 294 346
#     4  11  24  38  61  91 120 155 202 250 297 354
#     4  10  21  39  61  89 121 154 196 247 296 353
#     4  11  23  40  61  85 120 160 201 245 298 358
#
# _framework density 23.539296
#
# number of rings (size 3 to 8) (size 9 to 14) (size 15 to 20)
#    0.000    1.667    1.667    2.500    2.333    7.333 
#    0.000    1.667    0.000    0.000    0.000    0.000 
#    0.000    0.000    0.000    0.000    0.000    0.000 
#
# Total GULP energy -268500.619482 kJ/mol
# GULP energy per Si atom -5593.762906 kJ/mol
# Density = 2.348572 g / cm^3
# Si number density = 23.539296 Si / 1000 Ang^3
#
#
#
# Elastic Constant Matrix: (Units=GPa)
#
#
# Indices 1 2 3 4 5 6 
#
# 1 77.0373 -5.0750 -5.4350 0.0000 0.0000 0.0000
# 2 -5.0750 19.3534 -11.3097 0.0000 0.0000 0.0000
# 3 -5.4350 -11.3097 44.6556 0.0000 0.0000 0.0000
# 4 0.0000 0.0000 0.0000 -30.5821 0.0000 0.0000
# 5 0.0000 0.0000 0.0000 0.0000 -13.5802 0.0000
# 6 0.0000 0.0000 0.0000 0.0000 0.0000 45.8306
#
#
#
# Elastic Compliance Matrix: (Units=1/GPa)
#
#
# Indices 1 2 3 4 5 6 
#
# 1 0.013541 0.005298 0.002990 0.000000 0.000000 0.000000
# 2 0.005298 0.062719 0.016529 0.000000 0.000000 0.000000
# 3 0.002990 0.016529 0.026944 0.000000 0.000000 0.000000
# 4 0.000000 0.000000 0.000000 -0.032699 0.000000 0.000000
# 5 0.000000 0.000000 0.000000 0.000000 -0.073637 0.000000
# 6 0.000000 0.000000 0.000000 0.000000 0.000000 0.021819
#
#
# Mechanical properties :
#
#
# Convention : Reuss Voigt Hill
#
# Bulk Modulus (GPa) = 6.54290 10.82300 8.68295
# Shear Modulus (GPa) = 250.00910 11.19140 130.60025
#
# Velocity S-wave (km/s) = 10.31697 2.18281 7.45669
# Velocity P-wave (km/s) = 12.02935 3.31070 8.82230
#
# Compressibility (1/GPa) = 0.15283747
#
# Stress axis : x y z
#
# Youngs Moduli (GPa) = 73.85167 15.94413 37.11428
#
# Poissons Ratio (x) = -0.08447 -0.11096
# Poissons Ratio (y) = -0.39126 -0.61347
# Poissons Ratio (z) = -0.22080 -0.26355
#
# Static dielectric constant tensor:
#      x y z
#    x 1.910190 0.000000 0.000000 
#    y 0.000000 1.845200 0.000000 
#    z 0.000000 0.000000 1.860060 
# 
# From -- ./inp_files/2838.got.cif
#   From: 2010.05.17/outbox.cif.g08.bks.cpg/sg55_2_cif.got.tgz:2838.got - 2010.06.03 13:27:54.
