data_PCOD9427425
_publ_section_title
;
Structure prediction by ZEFSAII (Michael W. Deem and Ramdas Pophale) SiO2 
 PCOD9427425
Probable space group: P B A M
;
_chemical_formula_sum "Si O2"
_cell_formula_units_Z 48
_cell_length_a 27.943109
_cell_length_b 9.862726
_cell_length_c 7.485906
_cell_angle_alpha 90.000000
_cell_angle_beta 90.000000
_cell_angle_gamma 90.000000
_cell_volume 2063.079968
_symmetry_space_group_name_H-M "P B A M"
_symmetry_group_IT_number 55
_symmetry_cell_setting 'orthorhombic'
loop_
_space_group_symop_operation_xyz
x,y,z
-x,-y,z
1/2+x,1/2-y,-z
1/2-x,1/2+y,-z
-x,-y,-z
x,y,-z
1/2-x,1/2+y,z
1/2+x,1/2-y,z
loop_
_atom_site_type_symbol
_atom_site_label
_atom_site_fract_x
_atom_site_fract_y
_atom_site_fract_z
Si Si1 0.200486 0.678868 0.780614
Si Si2 0.285916 0.871017 0.209426
Si Si3 0.045950 0.073948 0.297265
Si Si4 0.608630 0.182801 0.283975
Si Si5 0.603801 0.674818 0.794653
Si Si6 0.549425 0.931217 0.715710
O O1 0.208263 0.524120 0.717825
O O2 0.243456 0.776837 0.720421
O O3 0.150381 0.746624 0.723982
O O4 0.199426 0.674510 0.000000
O O5 0.336960 0.797288 0.227998
O O6 0.275435 0.887515 0.000000
O O7 0.030954 0.111813 0.500000
O O8 0.070443 0.206846 0.217343
O O9 0.087236 0.960467 0.301860
O O10 0.000000 0.000000 0.212711
O O11 0.607345 0.187878 0.500000
O O12 0.591257 0.034035 0.227617
O O13 0.560694 0.782947 0.785368
O O14 0.612996 0.637701 0.000000
O O15 0.548832 0.922882 0.500000
O O16 0.500000 0.000000 0.771626
#
# Coordination Sequence:
#
# PCOD9427425 Si02
#       6
#     8   8   8   8   8   8
#     4   9  20  36  58  85 112 149 190 231 284 349
#     4  10  20  38  60  82 113 152 192 232 285 348
#     4  10  22  41  61  82 115 159 199 233 281 346
#     4  10  21  37  58  86 115 146 194 244 285 334
#     4  11  22  37  58  89 120 146 190 243 290 336
#     4  10  20  37  61  84 111 154 195 229 283 351
#
# _framework density 23.266183000000002
#
# number of rings (size 3 to 8) (size 9 to 14) (size 15 to 20)
#    0.000    2.000    1.667    1.500    2.333    4.000 
#    0.000    4.167    0.000    0.000    0.000    0.000 
#    0.000    0.000    0.000    0.000    0.000    0.000 
#
# Total GULP energy -268304.390563 kJ/mol
# GULP energy per Si atom -5589.674803 kJ/mol
# Density = 2.321323 g / cm^3
# Si number density = 23.266183 Si / 1000 Ang^3
#
#
#
# Elastic Constant Matrix: (Units=GPa)
#
#
# Indices 1 2 3 4 5 6 
#
# 1 94.2271 13.2209 -6.3595 0.0000 0.0000 0.0000
# 2 13.2209 97.4506 -1.7645 0.0000 0.0000 0.0000
# 3 -6.3595 -1.7645 65.5037 0.0000 0.0000 0.0000
# 4 0.0000 0.0000 0.0000 12.4211 0.0000 0.0000
# 5 0.0000 0.0000 0.0000 0.0000 -9.0926 0.0000
# 6 0.0000 0.0000 0.0000 0.0000 0.0000 44.6499
#
#
#
# Elastic Compliance Matrix: (Units=1/GPa)
#
#
# Indices 1 2 3 4 5 6 
#
# 1 0.010886 -0.001458 0.001018 0.000000 0.000000 0.000000
# 2 -0.001458 0.010462 0.000140 0.000000 0.000000 0.000000
# 3 0.001018 0.000140 0.015369 0.000000 0.000000 0.000000
# 4 0.000000 0.000000 0.000000 0.080508 0.000000 0.000000
# 5 0.000000 0.000000 0.000000 0.000000 -0.109980 0.000000
# 6 0.000000 0.000000 0.000000 0.000000 0.000000 0.022396
#
#
# Mechanical properties :
#
#
# Convention : Reuss Voigt Hill
#
# Bulk Modulus (GPa) = 27.68887 29.70836 28.69861
# Shear Modulus (GPa) = 118.25370 26.40130 72.32750
#
# Velocity S-wave (km/s) = 7.13700 3.37226 5.58162
# Velocity P-wave (km/s) = 8.93546 5.28767 7.34173
#
# Compressibility (1/GPa) = 0.03611560
#
# Stress axis : x y z
#
# Youngs Moduli (GPa) = 91.86135 95.58387 65.06649
#
# Poissons Ratio (x) = 0.13940 -0.06621
# Poissons Ratio (y) = 0.13398 -0.00912
# Poissons Ratio (z) = -0.09348 -0.01340
#
# Static dielectric constant tensor:
#      x y z
#    x 1.864420 0.000000 0.000000 
#    y 0.000000 1.828630 0.000000 
#    z 0.000000 0.000000 1.908740 
# 
# From -- ./inp_files/2814.got.cif
#   From: 2010.05.17/outbox.cif.g08.bks.cpg/sg55_2_cif.got.tgz:2814.got - 2010.06.03 13:27:54.
