data_PCOD9427814
_publ_section_title
;
Structure prediction by ZEFSAII (Michael W. Deem and Ramdas Pophale) SiO2 
 PCOD9427814
Probable space group: P B A M
;
_chemical_formula_sum "Si O2"
_cell_formula_units_Z 48
_cell_length_a 24.470559
_cell_length_b 11.978526
_cell_length_c 7.509819
_cell_angle_alpha 90.000000
_cell_angle_beta 90.000000
_cell_angle_gamma 90.000000
_cell_volume 2201.287361
_symmetry_space_group_name_H-M "P B A M"
_symmetry_group_IT_number 55
_symmetry_cell_setting 'orthorhombic'
loop_
_space_group_symop_operation_xyz
x,y,z
-x,-y,z
1/2+x,1/2-y,-z
1/2-x,1/2+y,-z
-x,-y,-z
x,y,-z
1/2-x,1/2+y,z
1/2+x,1/2-y,z
loop_
_atom_site_type_symbol
_atom_site_label
_atom_site_fract_x
_atom_site_fract_y
_atom_site_fract_z
Si Si1 0.618459 0.235664 0.716415
Si Si2 0.276359 0.628351 0.707382
Si Si3 0.342756 0.156255 0.703865
Si Si4 0.337149 0.407434 0.200835
Si Si5 0.936591 0.503723 0.717769
Si Si6 0.058540 0.043809 0.715711
O O1 0.621876 0.232272 0.500000
O O2 0.676937 0.286684 0.779555
O O3 0.596476 0.115386 0.773325
O O4 0.573659 0.329620 0.763228
O O5 0.270519 0.660593 0.500000
O O6 0.216008 0.628674 0.788909
O O7 0.298939 0.502480 0.715932
O O8 0.340149 0.114454 0.500000
O O9 0.343580 0.289670 0.705092
O O10 0.397923 0.099574 0.775688
O O11 0.395794 0.465361 0.203248
O O12 0.318346 0.386696 0.000000
O O13 0.939668 0.504479 0.500000
O O14 0.000000 0.500000 0.778104
O O15 0.062935 0.035887 0.500000
O O16 0.000000 0.000000 0.769420
#
# Coordination Sequence:
#
# PCOD9427814 Si02
#       6
#     8   8   8   8   8   8
#     4   8  15  29  49  78 110 135 169 227 287 331
#     4   9  19  36  59  83 107 140 191 245 286 331
#     4  10  21  35  59  85 109 144 190 240 283 335
#     4  11  23  37  54  80 118 151 184 228 285 356
#     4   9  18  30  50  83 115 141 176 229 290 340
#     4   9  18  33  58  84 108 142 188 239 284 329
#
# _framework density 21.805422
#
# number of rings (size 3 to 8) (size 9 to 14) (size 15 to 20)
#    0.000    2.667    0.000    2.500    4.667    1.000 
#    0.000    0.000    0.000    1.500    0.000    0.000 
#    0.000    0.000    0.000    0.000    0.000    0.000 
#
# Total GULP energy -267656.472501 kJ/mol
# GULP energy per Si atom -5576.176510 kJ/mol
# Density = 2.175579 g / cm^3
# Si number density = 21.805422 Si / 1000 Ang^3
#
#
#
# Elastic Constant Matrix: (Units=GPa)
#
#
# Indices 1 2 3 4 5 6 
#
# 1 126.3843 88.0870 2.9215 0.0000 0.0000 0.0000
# 2 88.0870 133.9819 -9.0938 0.0000 0.0000 0.0000
# 3 2.9215 -9.0938 52.6312 0.0000 0.0000 0.0000
# 4 0.0000 0.0000 0.0000 -90.6524 0.0000 0.0000
# 5 0.0000 0.0000 0.0000 0.0000 -5.8397 0.0000
# 6 0.0000 0.0000 0.0000 0.0000 0.0000 6.7441
#
#
#
# Elastic Compliance Matrix: (Units=1/GPa)
#
#
# Indices 1 2 3 4 5 6 
#
# 1 0.014937 -0.009994 -0.002556 0.000000 0.000000 0.000000
# 2 -0.009994 0.014239 0.003015 0.000000 0.000000 0.000000
# 3 -0.002556 0.003015 0.019663 0.000000 0.000000 0.000000
# 4 0.000000 0.000000 0.000000 -0.011031 0.000000 0.000000
# 5 0.000000 0.000000 0.000000 0.000000 -0.171241 0.000000
# 6 0.000000 0.000000 0.000000 0.000000 0.000000 0.148278
#
#
# Mechanical properties :
#
#
# Convention : Reuss Voigt Hill
#
# Bulk Modulus (GPa) = 33.59180 52.98077 43.28629
# Shear Modulus (GPa) = 114.05786 -2.54409 55.75689
#
# Velocity S-wave (km/s) = 7.24021 -1.08132 5.06218
# Velocity P-wave (km/s) = 9.23758 4.77397 7.35268
#
# Compressibility (1/GPa) = 0.02976917
#
# Stress axis : x y z
#
# Youngs Moduli (GPa) = 66.94814 70.23054 50.85712
#
# Poissons Ratio (x) = 0.70187 0.12998
# Poissons Ratio (y) = 0.66907 -0.15333
# Poissons Ratio (z) = 0.17111 -0.21174
#
# Static dielectric constant tensor:
#      x y z
#    x 1.815040 0.000000 0.000000 
#    y 0.000000 1.784030 0.000000 
#    z 0.000000 0.000000 1.830310 
# 
# From -- ./inp_files/9424.got.cif
#   From: 2010.05.17/outbox.cif.g08.bks.cpg/sg55_5_cif.got.tgz:9424.got - 2010.06.03 13:27:54.
