data_PCOD9427275
_publ_section_title
;
Structure prediction by ZEFSAII (Michael W. Deem and Ramdas Pophale) SiO2 
 PCOD9427275
Probable space group: P B A M
;
_chemical_formula_sum "Si O2"
_cell_formula_units_Z 64
_cell_length_a 12.433016
_cell_length_b 29.606123
_cell_length_c 9.257995
_cell_angle_alpha 90.000000
_cell_angle_beta 90.000000
_cell_angle_gamma 90.000000
_cell_volume 3407.806866
_symmetry_space_group_name_H-M "P B A M"
_symmetry_group_IT_number 55
_symmetry_cell_setting 'orthorhombic'
loop_
_space_group_symop_operation_xyz
x,y,z
-x,-y,z
1/2+x,1/2-y,-z
1/2-x,1/2+y,-z
-x,-y,-z
x,y,-z
1/2-x,1/2+y,z
1/2+x,1/2-y,z
loop_
_atom_site_type_symbol
_atom_site_label
_atom_site_fract_x
_atom_site_fract_y
_atom_site_fract_z
Si Si1 0.809363 0.818921 0.163994
Si Si2 0.625463 0.495891 0.327412
Si Si3 0.735206 0.674336 0.832146
Si Si4 0.264847 0.080959 0.174106
Si Si5 0.773805 0.583319 0.672254
Si Si6 0.594269 0.759285 0.842285
Si Si7 0.899880 0.738847 0.332301
Si Si8 0.006876 0.445764 0.828405
O O1 0.780563 0.869483 0.209345
O O2 0.698603 0.790706 0.156537
O O3 0.880794 0.789213 0.270651
O O4 0.854127 0.819824 0.000000
O O5 0.500000 0.500000 0.283417
O O6 0.626945 0.487338 0.500000
O O7 0.689744 0.456398 0.246919
O O8 0.692756 0.541696 0.301022
O O9 0.726561 0.627947 0.746720
O O10 0.632941 0.707633 0.828738
O O11 0.826867 0.704182 0.756331
O O12 0.761159 0.665970 0.000000
O O13 0.390647 0.074576 0.215339
O O14 0.261618 0.075762 0.000000
O O15 0.784459 0.589401 0.500000
O O16 0.890778 0.572801 0.741296
O O17 0.520995 0.772644 0.709573
O O18 0.539694 0.764978 0.000000
O O19 0.875902 0.736238 0.500000
O O20 0.000000 0.500000 0.809105
O O21 0.022643 0.436902 0.000000
#
# Coordination Sequence:
#
# PCOD9427275 Si02
#       8
#     8   8   8   8   8   8   8   8
#     4   9  20  38  58  83 115 151 194 237 283 341
#     4  10  23  42  60  82 119 161 195 236 294 353
#     4  10  22  40  61  83 113 153 196 240 288 344
#     4  10  21  38  61  90 116 149 199 246 287 343
#     4  11  23  38  59  89 121 154 197 244 296 355
#     4   9  19  37  59  82 112 154 195 235 287 344
#     4  11  22  36  57  86 118 151 190 238 290 344
#     4  10  20  36  60  88 121 156 193 242 297 349
#
# _framework density 18.780407
#
# number of rings (size 3 to 8) (size 9 to 14) (size 15 to 20)
#    0.000    2.000    1.250    2.625    1.750    5.500 
#    0.000    2.500    0.000    0.000    0.000    0.000 
#    0.000    0.000    0.000    0.000    0.000    0.000 
#
# Total GULP energy -357170.205193 kJ/mol
# GULP energy per Si atom -5580.784456 kJ/mol
# Density = 1.873766 g / cm^3
# Si number density = 18.780407 Si / 1000 Ang^3
#
#
#
# Elastic Constant Matrix: (Units=GPa)
#
#
# Indices 1 2 3 4 5 6 
#
# 1 72.5023 16.1918 28.9342 0.0000 0.0000 0.0000
# 2 16.1918 105.7201 41.0577 0.0000 0.0000 0.0000
# 3 28.9342 41.0577 69.9467 0.0000 0.0000 0.0000
# 4 0.0000 0.0000 0.0000 22.1323 0.0000 0.0000
# 5 0.0000 0.0000 0.0000 0.0000 5.3219 0.0000
# 6 0.0000 0.0000 0.0000 0.0000 0.0000 8.8131
#
#
#
# Elastic Compliance Matrix: (Units=1/GPa)
#
#
# Indices 1 2 3 4 5 6 
#
# 1 0.016522 0.000160 -0.006929 0.000000 0.000000 0.000000
# 2 0.000160 0.012253 -0.007259 0.000000 0.000000 0.000000
# 3 -0.006929 -0.007259 0.021424 0.000000 0.000000 0.000000
# 4 0.000000 0.000000 0.000000 0.045183 0.000000 0.000000
# 5 0.000000 0.000000 0.000000 0.000000 0.187905 0.000000
# 6 0.000000 0.000000 0.000000 0.000000 0.000000 0.113468
#
#
# Mechanical properties :
#
#
# Convention : Reuss Voigt Hill
#
# Bulk Modulus (GPa) = 45.15773 46.72629 45.94201
# Shear Modulus (GPa) = 11.56899 18.05247 14.81073
#
# Velocity S-wave (km/s) = 2.48465 3.10375 2.81130
# Velocity P-wave (km/s) = 5.68583 6.14644 5.92062
#
# Compressibility (1/GPa) = 0.02214460
#
# Stress axis : x y z
#
# Youngs Moduli (GPa) = 60.52564 81.60941 46.67752
#
# Poissons Ratio (x) = -0.01309 0.32341
# Poissons Ratio (y) = -0.00971 0.33883
# Poissons Ratio (z) = 0.41936 0.59240
#
# Static dielectric constant tensor:
#      x y z
#    x 1.670550 0.000000 0.000000 
#    y 0.000000 1.637310 0.000000 
#    z 0.000000 0.000000 1.642880 
# 
# From -- ./inp_files/4710.got.cif
#   From: 2010.05.17/outbox.cif.g08.bks.cpg/sg55_3_cif.got.tgz:4710.got - 2010.06.03 13:27:54.
