data_PCOD9427548
_publ_section_title
;
Structure prediction by ZEFSAII (Michael W. Deem and Ramdas Pophale) SiO2 
 PCOD9427548
Probable space group: P B A M
;
_chemical_formula_sum "Si O2"
_cell_formula_units_Z 58
_cell_length_a 26.565439
_cell_length_b 12.822119
_cell_length_c 8.037260
_cell_angle_alpha 90.000000
_cell_angle_beta 90.000000
_cell_angle_gamma 90.000000
_cell_volume 2737.693457
_symmetry_space_group_name_H-M "P B A M"
_symmetry_group_IT_number 55
_symmetry_cell_setting 'orthorhombic'
loop_
_space_group_symop_operation_xyz
x,y,z
-x,-y,z
1/2+x,1/2-y,-z
1/2-x,1/2+y,-z
-x,-y,-z
x,y,-z
1/2-x,1/2+y,z
1/2+x,1/2-y,z
loop_
_atom_site_type_symbol
_atom_site_label
_atom_site_fract_x
_atom_site_fract_y
_atom_site_fract_z
Si Si1 0.178415 0.492600 0.689954
Si Si2 0.884208 0.047543 0.198539
Si Si3 0.287094 0.563441 0.302614
Si Si4 0.931220 0.468410 0.191003
Si Si5 0.931777 0.831369 0.307253
Si Si6 0.163239 0.275641 0.813029
Si Si7 0.000000 0.500000 0.500000
Si Si8 0.458360 0.274394 0.803313
O O1 0.172152 0.529153 0.500000
O O2 0.231367 0.534981 0.756476
O O3 0.128648 0.522409 0.789779
O O4 0.180408 0.367346 0.693996
O O5 0.828967 0.025279 0.270062
O O6 0.912976 0.151366 0.255792
O O7 0.918580 0.947454 0.244307
O O8 0.879194 0.051313 0.000000
O O9 0.285022 0.580251 0.500000
O O10 0.308153 0.667855 0.219371
O O11 0.945970 0.346934 0.215322
O O12 0.958202 0.523719 0.348225
O O13 0.944404 0.500707 0.000000
O O14 0.917190 0.826404 0.500000
O O15 0.895542 0.751594 0.211341
O O16 0.989819 0.803992 0.285031
O O17 0.172204 0.311506 0.000000
O O18 0.465651 0.295219 0.000000
#
# Coordination Sequence:
#
# PCOD9427548 Si02
#       8
#     8   8   8   8   8   8   2   8
#     4  11  24  44  66  93 128 166 210 263 320 378
#     4  10  20  38  61  88 124 164 208 258 314 374
#     4  10  22  41  64  92 125 163 208 260 318 377
#     4  11  26  45  67  97 130 169 217 263 318 387
#     4  11  22  35  58  89 123 163 209 258 311 375
#     4  11  23  39  63  91 121 163 211 261 317 380
#     4  12  26  48  68  94 130 176 210 272 318 378
#     4  10  23  40  59  88 125 166 208 258 318 377
#
# _framework density 21.185715999999999
#
# number of rings (size 3 to 8) (size 9 to 14) (size 15 to 20)
#    0.000    1.379    0.690    6.000    2.897    6.069 
#    0.000    2.759    0.000    0.000    0.000    0.000 
#    0.000    0.000    0.000    0.000    0.000    0.000 
#
# Total GULP energy -323732.823045 kJ/mol
# GULP energy per Si atom -5581.600397 kJ/mol
# Density = 2.113750 g / cm^3
# Si number density = 21.185716 Si / 1000 Ang^3
#
#
#
# Elastic Constant Matrix: (Units=GPa)
#
#
# Indices 1 2 3 4 5 6 
#
# 1 150.5461 20.6730 28.2878 0.0000 0.0000 0.0000
# 2 20.6730 31.6465 8.8977 0.0000 0.0000 0.0000
# 3 28.2878 8.8977 94.2214 0.0000 0.0000 0.0000
# 4 0.0000 0.0000 0.0000 12.2639 0.0000 0.0000
# 5 0.0000 0.0000 0.0000 0.0000 35.9805 0.0000
# 6 0.0000 0.0000 0.0000 0.0000 0.0000 -5.8462
#
#
#
# Elastic Compliance Matrix: (Units=1/GPa)
#
#
# Indices 1 2 3 4 5 6 
#
# 1 0.007603 -0.004443 -0.001863 0.000000 0.000000 0.000000
# 2 -0.004443 0.035057 -0.001977 0.000000 0.000000 0.000000
# 3 -0.001863 -0.001977 0.011359 0.000000 0.000000 0.000000
# 4 0.000000 0.000000 0.000000 0.081540 0.000000 0.000000
# 5 0.000000 0.000000 0.000000 0.000000 0.027793 0.000000
# 6 0.000000 0.000000 0.000000 0.000000 0.000000 -0.171051
#
#
# Mechanical properties :
#
#
# Convention : Reuss Voigt Hill
#
# Bulk Modulus (GPa) = 26.69931 43.57014 35.13472
# Shear Modulus (GPa) = 234.19529 23.05001 128.62265
#
# Velocity S-wave (km/s) = 10.52539 3.30206 7.80024
# Velocity P-wave (km/s) = 12.66261 5.92862 9.88662
#
# Compressibility (1/GPa) = 0.03745416
#
# Stress axis : x y z
#
# Youngs Moduli (GPa) = 131.53403 28.52498 88.03367
#
# Poissons Ratio (x) = 0.12672 0.16400
# Poissons Ratio (y) = 0.58435 0.17402
# Poissons Ratio (z) = 0.24504 0.05639
#
# Static dielectric constant tensor:
#      x y z
#    x 1.756240 0.000000 0.000000 
#    y 0.000000 1.756110 0.000000 
#    z 0.000000 0.000000 3.152110 
# 
# From -- ./inp_files/10182.got.cif
#   From: 2010.05.17/outbox.cif.g08.bks.cpg/sg55_6_cif.got.tgz:10182.got - 2010.06.03 13:27:54.
