data_PCOD9427021
_publ_section_title
;
Structure prediction by ZEFSAII (Michael W. Deem and Ramdas Pophale) SiO2 
 PCOD9427021
Probable space group: P B A M
;
_chemical_formula_sum "Si O2"
_cell_formula_units_Z 32
_cell_length_a 14.607085
_cell_length_b 12.243195
_cell_length_c 9.269100
_cell_angle_alpha 90.000000
_cell_angle_beta 90.000000
_cell_angle_gamma 90.000000
_cell_volume 1657.661652
_symmetry_space_group_name_H-M "P B A M"
_symmetry_group_IT_number 55
_symmetry_cell_setting 'orthorhombic'
loop_
_space_group_symop_operation_xyz
x,y,z
-x,-y,z
1/2+x,1/2-y,-z
1/2-x,1/2+y,-z
-x,-y,-z
x,y,-z
1/2-x,1/2+y,z
1/2+x,1/2-y,z
loop_
_atom_site_type_symbol
_atom_site_label
_atom_site_fract_x
_atom_site_fract_y
_atom_site_fract_z
Si Si1 0.103807 0.525515 0.330984
Si Si2 0.719599 0.544096 0.827265
Si Si3 0.561760 0.389237 0.835437
Si Si4 0.906914 0.217236 0.331883
O O1 0.114239 0.494717 0.500000
O O2 0.179701 0.466208 0.236257
O O3 0.115674 0.655719 0.318939
O O4 0.000000 0.500000 0.287433
O O5 0.661195 0.433847 0.791616
O O6 0.664637 0.643866 0.756246
O O7 0.718659 0.554860 0.000000
O O8 0.500000 0.500000 0.836930
O O9 0.507863 0.307782 0.732070
O O10 0.564709 0.347632 0.000000
O O11 0.904995 0.185792 0.500000
#
# Coordination Sequence:
#
# PCOD9427021 Si02
#       4
#     8   8   8   8
#     4  10  23  41  57  79 113 149 188 232 276 328
#     4  10  21  37  58  84 113 147 188 231 276 332
#     4   8  16  32  53  79 110 140 177 226 272 322
#     4  10  20  35  58  84 111 146 185 230 282 330
#
# _framework density 19.304302
#
# number of rings (size 3 to 8) (size 9 to 14) (size 15 to 20)
#    0.000    2.500    0.000    3.000    0.000   10.000 
#    0.000    7.500    0.000    0.000    0.000    0.000 
#    0.000    0.000    0.000    0.000    0.000    0.000 
#
# Total GULP energy -178604.389484 kJ/mol
# GULP energy per Si atom -5581.387171 kJ/mol
# Density = 1.926036 g / cm^3
# Si number density = 19.304302 Si / 1000 Ang^3
#
#
#
# Elastic Constant Matrix: (Units=GPa)
#
#
# Indices 1 2 3 4 5 6 
#
# 1 142.2885 29.7312 65.5709 0.0000 0.0000 0.0000
# 2 29.7312 29.3467 33.3450 0.0000 0.0000 0.0000
# 3 65.5709 33.3450 81.2995 0.0000 0.0000 0.0000
# 4 0.0000 0.0000 0.0000 -28.5115 0.0000 0.0000
# 5 0.0000 0.0000 0.0000 0.0000 34.9846 0.0000
# 6 0.0000 0.0000 0.0000 0.0000 0.0000 19.3323
#
#
#
# Elastic Compliance Matrix: (Units=1/GPa)
#
#
# Indices 1 2 3 4 5 6 
#
# 1 0.011250 -0.002037 -0.008238 0.000000 0.000000 0.000000
# 2 -0.002037 0.064184 -0.024682 0.000000 0.000000 0.000000
# 3 -0.008238 -0.024682 0.029068 0.000000 0.000000 0.000000
# 4 0.000000 0.000000 0.000000 -0.035074 0.000000 0.000000
# 5 0.000000 0.000000 0.000000 0.000000 0.028584 0.000000
# 6 0.000000 0.000000 0.000000 0.000000 0.000000 0.051727
#
#
# Mechanical properties :
#
#
# Convention : Reuss Voigt Hill
#
# Bulk Modulus (GPa) = 28.91221 56.69211 42.80216
# Shear Modulus (GPa) = 21.62791 13.44694 17.53743
#
# Velocity S-wave (km/s) = 3.35082 2.64214 3.01736
# Velocity P-wave (km/s) = 5.47542 6.22408 5.86172
#
# Compressibility (1/GPa) = 0.03458746
#
# Stress axis : x y z
#
# Youngs Moduli (GPa) = 88.88957 15.58018 34.40216
#
# Poissons Ratio (x) = 0.03174 0.28341
# Poissons Ratio (y) = 0.18106 0.84913
# Poissons Ratio (z) = 0.73227 0.38456
#
# Static dielectric constant tensor:
#      x y z
#    x 1.688370 0.000000 0.000000 
#    y 0.000000 1.674060 0.000000 
#    z 0.000000 0.000000 1.649690 
# 
# From -- ./inp_files/3314.got.cif
#   From: 2010.05.17/outbox.cif.g08.bks.cpg/sg55_2_cif.got.tgz:3314.got - 2010.06.03 13:27:54.
