data_PCOD9427551
_publ_section_title
;
Structure prediction by ZEFSAII (Michael W. Deem and Ramdas Pophale) SiO2 
 PCOD9427551
Probable space group: P B A M
;
_chemical_formula_sum "Si O2"
_cell_formula_units_Z 48
_cell_length_a 19.137345
_cell_length_b 15.373440
_cell_length_c 8.510223
_cell_angle_alpha 90.000000
_cell_angle_beta 90.000000
_cell_angle_gamma 90.000000
_cell_volume 2503.765690
_symmetry_space_group_name_H-M "P B A M"
_symmetry_group_IT_number 55
_symmetry_cell_setting 'orthorhombic'
loop_
_space_group_symop_operation_xyz
x,y,z
-x,-y,z
1/2+x,1/2-y,-z
1/2-x,1/2+y,-z
-x,-y,-z
x,y,-z
1/2-x,1/2+y,z
1/2+x,1/2-y,z
loop_
_atom_site_type_symbol
_atom_site_label
_atom_site_fract_x
_atom_site_fract_y
_atom_site_fract_z
Si Si1 0.712422 0.993201 0.310006
Si Si2 0.981616 0.097852 0.812401
Si Si3 0.671911 0.636650 0.689955
Si Si4 0.935895 0.560593 0.811871
Si Si5 0.416586 0.747031 0.311805
Si Si6 0.260072 0.697645 0.691392
O O1 0.707583 0.993166 0.500000
O O2 0.736688 0.897801 0.256753
O O3 0.771598 0.063136 0.266949
O O4 0.637653 0.021239 0.244674
O O5 0.902444 0.118709 0.765483
O O6 0.032537 0.169495 0.738481
O O7 0.989588 0.101100 0.000000
O O8 0.000000 0.000000 0.758401
O O9 0.664436 0.635614 0.500000
O O10 0.704614 0.729023 0.737527
O O11 0.940517 0.659624 0.752405
O O12 0.000000 0.500000 0.756034
O O13 0.937076 0.561698 0.000000
O O14 0.415060 0.752758 0.500000
O O15 0.337717 0.724828 0.256432
O O16 0.261968 0.696538 0.500000
#
# Coordination Sequence:
#
# PCOD9427551 Si02
#       6
#     8   8   8   8   8   8
#     4  10  20  38  64  90 119 154 202 256 303 362
#     4  11  25  42  60  89 130 168 203 248 306 371
#     4  10  20  38  61  90 122 155 203 255 303 359
#     4  11  25  42  59  87 128 167 206 253 309 377
#     4  11  22  42  69  93 121 162 209 259 310 360
#     4   9  19  36  61  92 118 147 196 257 308 353
#
# _framework density 19.171123000000001
#
# number of rings (size 3 to 8) (size 9 to 14) (size 15 to 20)
#    0.000    1.667    1.667    2.500    2.333    4.667 
#    0.000    1.667    0.000    0.000    0.000    0.000 
#    0.000    0.000    0.000    0.000    0.000    0.000 
#
# Total GULP energy -268282.725784 kJ/mol
# GULP energy per Si atom -5589.223454 kJ/mol
# Density = 1.912749 g / cm^3
# Si number density = 19.171123 Si / 1000 Ang^3
#
#
#
# Elastic Constant Matrix: (Units=GPa)
#
#
# Indices 1 2 3 4 5 6 
#
# 1 110.7101 50.1329 12.7853 0.0000 0.0000 0.0000
# 2 50.1329 162.7690 18.1217 0.0000 0.0000 0.0000
# 3 12.7853 18.1217 19.6687 0.0000 0.0000 0.0000
# 4 0.0000 0.0000 0.0000 18.6416 0.0000 0.0000
# 5 0.0000 0.0000 0.0000 0.0000 -144.0802 0.0000
# 6 0.0000 0.0000 0.0000 0.0000 0.0000 38.0573
#
#
#
# Elastic Compliance Matrix: (Units=1/GPa)
#
#
# Indices 1 2 3 4 5 6 
#
# 1 0.010831 -0.002844 -0.004420 0.000000 0.000000 0.000000
# 2 -0.002844 0.007593 -0.005147 0.000000 0.000000 0.000000
# 3 -0.004420 -0.005147 0.058458 0.000000 0.000000 0.000000
# 4 0.000000 0.000000 0.000000 0.053643 0.000000 0.000000
# 5 0.000000 0.000000 0.000000 0.000000 -0.006941 0.000000
# 6 0.000000 0.000000 0.000000 0.000000 0.000000 0.026276
#
#
# Mechanical properties :
#
#
# Convention : Reuss Voigt Hill
#
# Bulk Modulus (GPa) = 19.20889 50.58084 34.89486
# Shear Modulus (GPa) = 26.03691 -3.33573 11.35059
#
# Velocity S-wave (km/s) = 3.68928 -1.32051 2.43588
# Velocity P-wave (km/s) = 5.30935 4.91082 5.11397
#
# Compressibility (1/GPa) = 0.05205923
#
# Stress axis : x y z
#
# Youngs Moduli (GPa) = 92.32915 131.70767 17.10638
#
# Poissons Ratio (x) = 0.37454 0.07562
# Poissons Ratio (y) = 0.26256 0.08804
# Poissons Ratio (z) = 0.40813 0.67788
#
# Static dielectric constant tensor:
#      x y z
#    x 1.626530 0.000000 0.000000 
#    y 0.000000 1.644810 0.000000 
#    z 0.000000 0.000000 1.659350 
# 
# From -- ./inp_files/5651.got.cif
#   From: 2010.05.17/outbox.cif.g08.bks.cpg/sg55_3_cif.got.tgz:5651.got - 2010.06.03 13:27:54.
