data_PCOD9427335
_publ_section_title
;
Structure prediction by ZEFSAII (Michael W. Deem and Ramdas Pophale) SiO2 
 PCOD9427335
Probable space group: P B A M
;
_chemical_formula_sum "Si O2"
_cell_formula_units_Z 38
_cell_length_a 15.058380
_cell_length_b 9.639057
_cell_length_c 10.409014
_cell_angle_alpha 90.000000
_cell_angle_beta 90.000000
_cell_angle_gamma 90.000000
_cell_volume 1510.853634
_symmetry_space_group_name_H-M "P B A M"
_symmetry_group_IT_number 55
_symmetry_cell_setting 'orthorhombic'
loop_
_space_group_symop_operation_xyz
x,y,z
-x,-y,z
1/2+x,1/2-y,-z
1/2-x,1/2+y,-z
-x,-y,-z
x,y,-z
1/2-x,1/2+y,z
1/2+x,1/2-y,z
loop_
_atom_site_type_symbol
_atom_site_label
_atom_site_fract_x
_atom_site_fract_y
_atom_site_fract_z
Si Si1 0.897889 0.829587 0.000000
Si Si2 0.200268 0.911144 0.000000
Si Si3 0.000000 0.500000 0.500000
Si Si4 0.559736 0.817381 0.281293
Si Si5 0.579940 0.832211 0.000000
Si Si6 0.359431 0.717337 0.710663
Si Si7 0.287398 0.418937 0.714641
O O1 0.854605 0.782300 0.866779
O O2 0.996083 0.771588 0.000000
O O3 0.888820 0.994470 0.000000
O O4 0.240994 0.947972 0.136489
O O5 0.170986 0.752550 0.000000
O O6 0.064593 0.567699 0.611194
O O7 0.463394 0.747004 0.311141
O O8 0.632211 0.693831 0.284290
O O9 0.570329 0.892165 0.142307
O O10 0.324451 0.566115 0.666083
O O11 0.295318 0.836121 0.656389
#
# Coordination Sequence:
#
# PCOD9427335 Si02
#       7
#     4   4   2   8   4   8   8
#     4   8  14  27  51  93 136 172 207 264 322 383
#     4   8  14  27  51  93 136 172 207 264 322 383
#     4  12  28  46  70  92 136 172 222 280 344 378
#     4  10  23  43  67  95 134 175 219 271 329 391
#     4   8  15  33  62  94 122 170 220 262 318 392
#     4  10  20  36  64  97 135 174 221 267 326 389
#     4  10  20  36  64  97 135 174 221 267 326 389
#
# _framework density 25.151344000000002
#
# number of rings (size 3 to 8) (size 9 to 14) (size 15 to 20)
#    0.000    2.526    0.000    1.579    2.947    5.474 
#    0.000    3.158    0.000    0.000    0.000    0.000 
#    0.000    0.000    0.000    0.000    0.000    0.000 
#
# Total GULP energy -211536.473616 kJ/mol
# GULP energy per Si atom -5566.749306 kJ/mol
# Density = 2.509410 g / cm^3
# Si number density = 25.151344 Si / 1000 Ang^3
#
#
#
# Elastic Constant Matrix: (Units=GPa)
#
#
# Indices 1 2 3 4 5 6 
#
# 1 154.8217 71.3784 4.6361 0.0000 0.0000 0.0000
# 2 71.3784 102.4084 30.6669 0.0000 0.0000 0.0000
# 3 4.6361 30.6669 133.2047 0.0000 0.0000 0.0000
# 4 0.0000 0.0000 0.0000 -8.8531 0.0000 0.0000
# 5 0.0000 0.0000 0.0000 0.0000 -16.4066 0.0000
# 6 0.0000 0.0000 0.0000 0.0000 0.0000 63.8627
#
#
#
# Elastic Compliance Matrix: (Units=1/GPa)
#
#
# Indices 1 2 3 4 5 6 
#
# 1 0.009726 -0.007172 0.001313 0.000000 0.000000 0.000000
# 2 -0.007172 0.015777 -0.003383 0.000000 0.000000 0.000000
# 3 0.001313 -0.003383 0.008240 0.000000 0.000000 0.000000
# 4 0.000000 0.000000 0.000000 -0.112955 0.000000 0.000000
# 5 0.000000 0.000000 0.000000 0.000000 -0.060951 0.000000
# 6 0.000000 0.000000 0.000000 0.000000 0.000000 0.015659
#
#
# Mechanical properties :
#
#
# Convention : Reuss Voigt Hill
#
# Bulk Modulus (GPa) = 65.53449 67.08863 66.31156
# Shear Modulus (GPa) = -49.53786 26.63750 -11.45018
#
# Velocity S-wave (km/s) = -4.44282 3.25789 -2.13598
# Velocity P-wave (km/s) = 0.45343 6.39404 4.50988
#
# Compressibility (1/GPa) = 0.01525914
#
# Stress axis : x y z
#
# Youngs Moduli (GPa) = 102.81201 63.38362 121.35477
#
# Poissons Ratio (x) = 0.45462 -0.15931
# Poissons Ratio (y) = 0.73741 0.41049
# Poissons Ratio (z) = -0.13497 0.21440
#
# Static dielectric constant tensor:
#      x y z
#    x 2.029710 0.000000 0.000000 
#    y 0.000000 1.989230 0.000000 
#    z 0.000000 0.000000 2.017540 
# 
# From -- ./inp_files/11941.got.cif
#   From: 2010.05.17/outbox.cif.g08.bks.cpg/sg55_6_cif.got.tgz:11941.got - 2010.06.03 13:27:54.
