data_PCOD9427384
_publ_section_title
;
Structure prediction by ZEFSAII (Michael W. Deem and Ramdas Pophale) SiO2 
 PCOD9427384
Probable space group: P B A M
;
_chemical_formula_sum "Si O2"
_cell_formula_units_Z 58
_cell_length_a 13.239217
_cell_length_b 25.686789
_cell_length_c 9.037731
_cell_angle_alpha 90.000000
_cell_angle_beta 90.000000
_cell_angle_gamma 90.000000
_cell_volume 3073.488056
_symmetry_space_group_name_H-M "P B A M"
_symmetry_group_IT_number 55
_symmetry_cell_setting 'orthorhombic'
loop_
_space_group_symop_operation_xyz
x,y,z
-x,-y,z
1/2+x,1/2-y,-z
1/2-x,1/2+y,-z
-x,-y,-z
x,y,-z
1/2-x,1/2+y,z
1/2+x,1/2-y,z
loop_
_atom_site_type_symbol
_atom_site_label
_atom_site_fract_x
_atom_site_fract_y
_atom_site_fract_z
Si Si1 0.426979 0.931711 0.322492
Si Si2 0.630496 0.958204 0.178858
Si Si3 0.159182 0.333585 0.829070
Si Si4 0.000000 0.000000 0.000000
Si Si5 0.766394 0.256998 0.330077
Si Si6 0.065800 0.173421 0.329658
Si Si7 0.856713 0.923051 0.837220
Si Si8 0.542103 0.763722 0.169284
O O1 0.433385 0.935769 0.500000
O O2 0.538954 0.925472 0.250952
O O3 0.357630 0.884041 0.270773
O O4 0.384039 0.984747 0.250455
O O5 0.743105 0.937475 0.209805
O O6 0.618096 0.960546 0.000000
O O7 0.242024 0.293890 0.766826
O O8 0.054831 0.300861 0.821942
O O9 0.178334 0.347665 0.000000
O O10 0.074781 0.026802 0.873618
O O11 0.778093 0.241565 0.500000
O O12 0.672349 0.295981 0.319880
O O13 0.866932 0.283344 0.269555
O O14 0.032585 0.174227 0.500000
O O15 0.086586 0.116015 0.270772
O O16 0.990658 0.207276 0.229937
O O17 0.847461 0.895921 0.000000
O O18 0.574896 0.760845 0.000000
#
# Coordination Sequence:
#
# PCOD9427384 Si02
#       8
#     8   8   8   2   8   8   8   8
#     4  11  22  36  56  85 121 154 185 242 304 357
#     4  10  20  37  59  85 112 149 196 245 289 354
#     4  10  21  38  57  82 115 154 197 234 284 349
#     4   8  20  44  62  86 112 148 194 248 292 336
#     4  10  21  37  56  85 119 152 190 237 293 351
#     4  10  21  37  59  87 119 152 192 243 296 350
#     4   9  20  39  63  84 111 148 196 242 291 344
#     4  10  21  37  58  84 115 155 198 242 284 346
#
# _framework density 18.871068000000001
#
# number of rings (size 3 to 8) (size 9 to 14) (size 15 to 20)
#    0.414    1.655    0.000    4.138    1.931    4.414 
#    2.483    0.345    0.000    0.000    0.000    0.000 
#    0.000    0.000    0.000    0.000    0.000    0.000 
#
# Total GULP energy -323017.118050 kJ/mol
# GULP energy per Si atom -5569.260656 kJ/mol
# Density = 1.882812 g / cm^3
# Si number density = 18.871068 Si / 1000 Ang^3
#
#
#
# Elastic Constant Matrix: (Units=GPa)
#
#
# Indices 1 2 3 4 5 6 
#
# 1 22.7651 -10.5295 9.2288 0.0000 0.0000 0.0000
# 2 -10.5295 33.3910 10.6335 0.0000 0.0000 0.0000
# 3 9.2288 10.6335 85.8328 0.0000 0.0000 0.0000
# 4 0.0000 0.0000 0.0000 26.6133 0.0000 0.0000
# 5 0.0000 0.0000 0.0000 0.0000 20.7654 0.0000
# 6 0.0000 0.0000 0.0000 0.0000 0.0000 8.1076
#
#
#
# Elastic Compliance Matrix: (Units=1/GPa)
#
#
# Indices 1 2 3 4 5 6 
#
# 1 0.057063 0.020767 -0.008708 0.000000 0.000000 0.000000
# 2 0.020767 0.038736 -0.007032 0.000000 0.000000 0.000000
# 3 -0.008708 -0.007032 0.013458 0.000000 0.000000 0.000000
# 4 0.000000 0.000000 0.000000 0.037575 0.000000 0.000000
# 5 0.000000 0.000000 0.000000 0.000000 0.048157 0.000000
# 6 0.000000 0.000000 0.000000 0.000000 0.000000 0.123340
#
#
# Mechanical properties :
#
#
# Convention : Reuss Voigt Hill
#
# Bulk Modulus (GPa) = 8.38141 17.85049 13.11595
# Shear Modulus (GPa) = 14.36594 19.94101 17.15347
#
# Velocity S-wave (km/s) = 2.76210 3.25421 3.01820
# Velocity P-wave (km/s) = 3.82405 4.85794 4.37167
#
# Compressibility (1/GPa) = 0.11931164
#
# Stress axis : x y z
#
# Youngs Moduli (GPa) = 17.52457 25.81562 74.30515
#
# Poissons Ratio (x) = -0.53612 0.64706
# Poissons Ratio (y) = -0.36394 0.52250
# Poissons Ratio (z) = 0.15261 0.18153
#
# Static dielectric constant tensor:
#      x y z
#    x 1.663150 0.000000 0.000000 
#    y 0.000000 1.651940 0.000000 
#    z 0.000000 0.000000 1.640950 
# 
# From -- ./inp_files/6831.got.cif
#   From: 2010.05.17/outbox.cif.g08.bks.cpg/sg55_4_cif.got.tgz:6831.got - 2010.06.03 13:27:54.
