data_PCOD9427730
_publ_section_title
;
Structure prediction by ZEFSAII (Michael W. Deem and Ramdas Pophale) SiO2 
 PCOD9427730
Probable space group: P B A M
;
_chemical_formula_sum "Si O2"
_cell_formula_units_Z 32
_cell_length_a 18.241994
_cell_length_b 4.911510
_cell_length_c 14.566444
_cell_angle_alpha 90.000000
_cell_angle_beta 90.000000
_cell_angle_gamma 90.000000
_cell_volume 1305.091270
_symmetry_space_group_name_H-M "P B A M"
_symmetry_group_IT_number 55
_symmetry_cell_setting 'orthorhombic'
loop_
_space_group_symop_operation_xyz
x,y,z
-x,-y,z
1/2+x,1/2-y,-z
1/2-x,1/2+y,-z
-x,-y,-z
x,y,-z
1/2-x,1/2+y,z
1/2+x,1/2-y,z
loop_
_atom_site_type_symbol
_atom_site_label
_atom_site_fract_x
_atom_site_fract_y
_atom_site_fract_z
Si Si1 0.000000 0.500000 0.000000
Si Si2 0.571896 0.680226 0.831319
Si Si3 0.698632 0.084483 0.500000
Si Si4 0.705598 0.313456 0.110351
Si Si5 0.422374 0.140833 0.369910
Si Si6 0.500000 0.500000 0.500000
O O1 0.053087 0.634936 0.919355
O O2 0.500000 0.500000 0.815624
O O3 0.635562 0.462369 0.849993
O O4 0.585043 0.842885 0.738343
O O5 0.768386 0.883725 0.500000
O O6 0.646402 0.008493 0.414540
O O7 0.725196 0.006158 0.135474
O O8 0.697453 0.321989 0.000000
O O9 0.437789 0.427450 0.419774
O O10 0.500000 0.000000 0.396993
#
# Coordination Sequence:
#
# PCOD9427730 Si02
#       6
#     2   8   4   8   8   2
#     4  12  26  44  68 108 156 188 252 326 366 416
#     4  12  26  43  74 108 147 194 255 315 372 441
#     4  11  28  47  76 112 154 191 242 321 387 449
#     4  10  24  42  65  94 139 195 240 292 365 435
#     4  11  25  44  77 106 144 195 249 298 378 461
#     4  10  20  44  68  96 132 178 228 300 346 446
#
# _framework density 24.519359000000001
#
# number of rings (size 3 to 8) (size 9 to 14) (size 15 to 20)
#    0.000    1.000    3.750    1.875   10.500    2.000 
#    0.000    0.000    0.000    0.000    0.000    0.000 
#    0.000    0.000    0.000    0.000    0.000    0.000 
#
# Total GULP energy -178260.362123 kJ/mol
# GULP energy per Si atom -5570.636316 kJ/mol
# Density = 2.446355 g / cm^3
# Si number density = 24.519359 Si / 1000 Ang^3
#
#
#
# Elastic Constant Matrix: (Units=GPa)
#
#
# Indices 1 2 3 4 5 6 
#
# 1 102.5906 8.7487 19.3210 0.0000 0.0000 0.0000
# 2 8.7487 61.1369 12.6156 0.0000 0.0000 0.0000
# 3 19.3210 12.6156 201.9590 0.0000 0.0000 0.0000
# 4 0.0000 0.0000 0.0000 -62.5809 0.0000 0.0000
# 5 0.0000 0.0000 0.0000 0.0000 12.8901 0.0000
# 6 0.0000 0.0000 0.0000 0.0000 0.0000 53.8064
#
#
#
# Elastic Compliance Matrix: (Units=1/GPa)
#
#
# Indices 1 2 3 4 5 6 
#
# 1 0.010020 -0.001252 -0.000880 0.000000 0.000000 0.000000
# 2 -0.001252 0.016727 -0.000925 0.000000 0.000000 0.000000
# 3 -0.000880 -0.000925 0.005094 0.000000 0.000000 0.000000
# 4 0.000000 0.000000 0.000000 -0.015979 0.000000 0.000000
# 5 0.000000 0.000000 0.000000 0.000000 0.077579 0.000000
# 6 0.000000 0.000000 0.000000 0.000000 0.000000 0.018585
#
#
# Mechanical properties :
#
#
# Convention : Reuss Voigt Hill
#
# Bulk Modulus (GPa) = 38.87254 49.67301 44.27278
# Shear Modulus (GPa) = 39.45841 22.48986 30.97413
#
# Velocity S-wave (km/s) = 4.01593 3.03186 3.55808
# Velocity P-wave (km/s) = 6.11489 5.70604 5.91400
#
# Compressibility (1/GPa) = 0.02572510
#
# Stress axis : x y z
#
# Youngs Moduli (GPa) = 99.79973 59.78423 196.32829
#
# Poissons Ratio (x) = 0.07486 0.17284
# Poissons Ratio (y) = 0.12497 0.18162
# Poissons Ratio (z) = 0.08786 0.05530
#
# Static dielectric constant tensor:
#      x y z
#    x 1.964530 0.000000 0.000000 
#    y 0.000000 2.140540 0.000000 
#    z 0.000000 0.000000 1.865400 
# 
# From -- ./inp_files/16458.got.cif
#   From: 2010.05.17/outbox.cif.g08.bks.cpg/sg55_9_cif.got.tgz:16458.got - 2010.06.03 13:27:54.
