data_PCOD9427216
_publ_section_title
;
Structure prediction by ZEFSAII (Michael W. Deem and Ramdas Pophale) SiO2 
 PCOD9427216
Probable space group: P B A M
;
_chemical_formula_sum "Si O2"
_cell_formula_units_Z 64
_cell_length_a 20.466760
_cell_length_b 19.616312
_cell_length_c 8.172452
_cell_angle_alpha 90.000000
_cell_angle_beta 90.000000
_cell_angle_gamma 90.000000
_cell_volume 3281.095232
_symmetry_space_group_name_H-M "P B A M"
_symmetry_group_IT_number 55
_symmetry_cell_setting 'orthorhombic'
loop_
_space_group_symop_operation_xyz
x,y,z
-x,-y,z
1/2+x,1/2-y,-z
1/2-x,1/2+y,-z
-x,-y,-z
x,y,-z
1/2-x,1/2+y,z
1/2+x,1/2-y,z
loop_
_atom_site_type_symbol
_atom_site_label
_atom_site_fract_x
_atom_site_fract_y
_atom_site_fract_z
Si Si1 0.063039 0.458577 0.308077
Si Si2 0.272414 0.748857 0.803372
Si Si3 0.009023 0.793045 0.691748
Si Si4 0.313836 0.595626 0.801286
Si Si5 0.042418 0.063053 0.195589
Si Si6 0.097170 0.311359 0.808386
Si Si7 0.134896 0.710551 0.692951
Si Si8 0.171289 0.560229 0.193913
O O1 0.053202 0.443816 0.500000
O O2 0.072384 0.387346 0.218319
O O3 0.125444 0.506614 0.283092
O O4 0.000000 0.500000 0.247352
O O5 0.304049 0.675333 0.760958
O O6 0.327111 0.803726 0.757590
O O7 0.202064 0.751596 0.720608
O O8 0.262100 0.750314 0.000000
O O9 0.019186 0.806059 0.500000
O O10 0.073159 0.753443 0.755632
O O11 0.992607 0.864880 0.773652
O O12 0.948513 0.741924 0.715804
O O13 0.383100 0.568188 0.739609
O O14 0.246779 0.559331 0.748461
O O15 0.314593 0.592269 0.000000
O O16 0.047983 0.053895 0.000000
O O17 0.000000 0.000000 0.261287
O O18 0.094227 0.292725 0.000000
O O19 0.125185 0.697526 0.500000
O O20 0.144986 0.637130 0.777076
O O21 0.169602 0.546232 0.000000
#
# Coordination Sequence:
#
# PCOD9427216 Si02
#       8
#     8   8   8   8   8   8   8   8
#     4  11  24  40  56  81 119 156 193 238 290 347
#     4   9  18  35  58  82 109 142 186 238 282 330
#     4  11  23  38  57  85 120 153 185 231 288 345
#     4   8  15  33  57  82 111 140 182 235 279 325
#     4  10  20  37  61  85 111 148 192 238 286 340
#     4  11  22  38  62  87 113 148 195 244 286 339
#     4  10  21  36  56  84 119 153 189 233 283 341
#     4  10  20  36  59  84 115 153 196 242 284 335
#
# _framework density 19.505680999999999
#
# number of rings (size 3 to 8) (size 9 to 14) (size 15 to 20)
#    0.000    2.000    1.250    3.375    0.000    7.250 
#    2.250    0.625    0.000    0.000    0.000    0.000 
#    0.000    0.000    0.000    0.000    0.000    0.000 
#
# Total GULP energy -357320.969355 kJ/mol
# GULP energy per Si atom -5583.140146 kJ/mol
# Density = 1.946129 g / cm^3
# Si number density = 19.505681 Si / 1000 Ang^3
#
#
#
# Elastic Constant Matrix: (Units=GPa)
#
#
# Indices 1 2 3 4 5 6 
#
# 1 98.6026 31.6907 -5.8515 0.0000 0.0000 0.0000
# 2 31.6907 67.4972 -12.0425 0.0000 0.0000 0.0000
# 3 -5.8515 -12.0425 10.0891 0.0000 0.0000 0.0000
# 4 0.0000 0.0000 0.0000 53.7202 0.0000 0.0000
# 5 0.0000 0.0000 0.0000 0.0000 11.7310 0.0000
# 6 0.0000 0.0000 0.0000 0.0000 0.0000 27.2076
#
#
#
# Elastic Compliance Matrix: (Units=1/GPa)
#
#
# Indices 1 2 3 4 5 6 
#
# 1 0.011945 -0.005555 0.000297 0.000000 0.000000 0.000000
# 2 -0.005555 0.021408 0.022331 0.000000 0.000000 0.000000
# 3 0.000297 0.022331 0.125943 0.000000 0.000000 0.000000
# 4 0.000000 0.000000 0.000000 0.018615 0.000000 0.000000
# 5 0.000000 0.000000 0.000000 0.000000 0.085245 0.000000
# 6 0.000000 0.000000 0.000000 0.000000 0.000000 0.036754
#
#
# Mechanical properties :
#
#
# Convention : Reuss Voigt Hill
#
# Bulk Modulus (GPa) = 5.16954 22.64247 13.90601
# Shear Modulus (GPa) = 15.14027 29.35790 22.24909
#
# Velocity S-wave (km/s) = 2.78906 3.88376 3.38101
# Velocity P-wave (km/s) = 3.60941 5.63426 4.73142
#
# Compressibility (1/GPa) = 0.19344069
#
# Stress axis : x y z
#
# Youngs Moduli (GPa) = 83.71846 46.71195 7.94009
#
# Poissons Ratio (x) = 0.25950 -0.00236
# Poissons Ratio (y) = 0.46508 -0.17731
# Poissons Ratio (z) = -0.02487 -1.04311
#
# Static dielectric constant tensor:
#      x y z
#    x 1.702180 0.000000 0.000000 
#    y 0.000000 1.644170 0.000000 
#    z 0.000000 0.000000 1.694200 
# 
# From -- ./inp_files/9061.got.cif
#   From: 2010.05.17/outbox.cif.g08.bks.cpg/sg55_5_cif.got.tgz:9061.got - 2010.06.03 13:27:54.
