data_PCOD9427333
_publ_section_title
;
Structure prediction by ZEFSAII (Michael W. Deem and Ramdas Pophale) SiO2 
 PCOD9427333
Probable space group: P B A M
;
_chemical_formula_sum "Si O2"
_cell_formula_units_Z 48
_cell_length_a 19.329508
_cell_length_b 15.394311
_cell_length_c 9.076383
_cell_angle_alpha 90.000000
_cell_angle_beta 90.000000
_cell_angle_gamma 90.000000
_cell_volume 2700.808985
_symmetry_space_group_name_H-M "P B A M"
_symmetry_group_IT_number 55
_symmetry_cell_setting 'orthorhombic'
loop_
_space_group_symop_operation_xyz
x,y,z
-x,-y,z
1/2+x,1/2-y,-z
1/2-x,1/2+y,-z
-x,-y,-z
x,y,-z
1/2-x,1/2+y,z
1/2+x,1/2-y,z
loop_
_atom_site_type_symbol
_atom_site_label
_atom_site_fract_x
_atom_site_fract_y
_atom_site_fract_z
Si Si1 0.428976 0.275451 0.676736
Si Si2 0.923343 0.535288 0.323286
Si Si3 0.672986 0.378641 0.823842
Si Si4 0.920452 0.023858 0.323982
Si Si5 0.572881 0.219524 0.823660
Si Si6 0.322271 0.123911 0.676715
O O1 0.440938 0.269338 0.500000
O O2 0.409742 0.374761 0.710691
O O3 0.499481 0.249400 0.757323
O O4 0.368760 0.207712 0.714768
O O5 0.922556 0.549179 0.500000
O O6 0.909964 0.625614 0.242687
O O7 0.867462 0.461415 0.287243
O O8 0.000000 0.500000 0.285319
O O9 0.630904 0.460321 0.760055
O O10 0.629864 0.291914 0.784121
O O11 0.749258 0.375801 0.756740
O O12 0.676145 0.384239 0.000000
O O13 0.911538 0.011829 0.500000
O O14 0.000000 0.000000 0.288400
O O15 0.568214 0.214702 0.000000
O O16 0.311663 0.124521 0.500000
#
# Coordination Sequence:
#
# PCOD9427333 Si02
#       6
#     8   8   8   8   8   8
#     4  10  20  38  63  90 117 151 199 250 295 346
#     4  10  20  38  64  90 116 150 197 249 297 346
#     4  11  25  41  57  84 126 163 194 239 297 356
#     4  10  20  36  64  93 116 150 200 251 295 346
#     4  11  23  37  58  89 122 159 198 237 292 357
#     4  10  22  40  62  87 118 154 196 245 299 352
#
# _framework density 17.772452999999999
#
# number of rings (size 3 to 8) (size 9 to 14) (size 15 to 20)
#    0.000    1.667    3.333    1.000    0.000    6.000 
#    0.000    5.000    0.000    0.000    0.000    0.000 
#    0.000    0.000    0.000    0.000    0.000    0.000 
#
# Total GULP energy -268189.747876 kJ/mol
# GULP energy per Si atom -5587.286414 kJ/mol
# Density = 1.773200 g / cm^3
# Si number density = 17.772453 Si / 1000 Ang^3
#
#
#
# Elastic Constant Matrix: (Units=GPa)
#
#
# Indices 1 2 3 4 5 6 
#
# 1 183.3399 116.4937 73.2536 0.0000 0.0000 0.0000
# 2 116.4937 200.9064 75.1830 0.0000 0.0000 0.0000
# 3 73.2536 75.1830 43.0150 0.0000 0.0000 0.0000
# 4 0.0000 0.0000 0.0000 25.9781 0.0000 0.0000
# 5 0.0000 0.0000 0.0000 0.0000 -0.8764 0.0000
# 6 0.0000 0.0000 0.0000 0.0000 0.0000 27.2407
#
#
#
# Elastic Compliance Matrix: (Units=1/GPa)
#
#
# Indices 1 2 3 4 5 6 
#
# 1 0.017645 0.002930 -0.035170 0.000000 0.000000 0.000000
# 2 0.002930 0.014875 -0.030989 0.000000 0.000000 0.000000
# 3 -0.035170 -0.030989 0.137306 0.000000 0.000000 0.000000
# 4 0.000000 0.000000 0.000000 0.038494 0.000000 0.000000
# 5 0.000000 0.000000 0.000000 0.000000 -1.141001 0.000000
# 6 0.000000 0.000000 0.000000 0.000000 0.000000 0.036710
#
#
# Mechanical properties :
#
#
# Convention : Reuss Voigt Hill
#
# Bulk Modulus (GPa) = 23.05892 106.34689 64.70291
# Shear Modulus (GPa) = -6.62202 21.29053 7.33426
#
# Velocity S-wave (km/s) = -1.93238 3.46490 2.03365
# Velocity P-wave (km/s) = 2.83265 8.71638 6.48071
#
# Compressibility (1/GPa) = 0.04336717
#
# Stress axis : x y z
#
# Youngs Moduli (GPa) = 56.67407 67.22565 7.28301
#
# Poissons Ratio (x) = -0.19698 0.25614
# Poissons Ratio (y) = -0.16606 0.22570
# Poissons Ratio (z) = 1.99323 2.08329
#
# Static dielectric constant tensor:
#      x y z
#    x 1.568970 0.000000 0.000000 
#    y 0.000000 1.595460 0.000000 
#    z 0.000000 0.000000 1.590210 
# 
# From -- ./inp_files/5545.got.cif
#   From: 2010.05.17/outbox.cif.g08.bks.cpg/sg55_3_cif.got.tgz:5545.got - 2010.06.03 13:27:54.
