data_PCOD9427741
_publ_section_title
;
Structure prediction by ZEFSAII (Michael W. Deem and Ramdas Pophale) SiO2 
 PCOD9427741
Probable space group: P B A M
;
_chemical_formula_sum "Si O2"
_cell_formula_units_Z 40
_cell_length_a 9.151816
_cell_length_b 14.682958
_cell_length_c 11.979101
_cell_angle_alpha 90.000000
_cell_angle_beta 90.000000
_cell_angle_gamma 90.000000
_cell_volume 1609.700441
_symmetry_space_group_name_H-M "P B A M"
_symmetry_group_IT_number 55
_symmetry_cell_setting 'orthorhombic'
loop_
_space_group_symop_operation_xyz
x,y,z
-x,-y,z
1/2+x,1/2-y,-z
1/2-x,1/2+y,-z
-x,-y,-z
x,y,-z
1/2-x,1/2+y,z
1/2+x,1/2-y,z
loop_
_atom_site_type_symbol
_atom_site_label
_atom_site_fract_x
_atom_site_fract_y
_atom_site_fract_z
Si Si1 0.000000 0.500000 0.296439
Si Si2 0.745574 0.123363 0.304167
Si Si3 0.500000 0.500000 0.687053
Si Si4 0.682760 0.873644 0.870558
Si Si5 0.918795 0.746983 0.129335
Si Si6 0.618332 0.742840 0.500000
Si Si7 0.852496 0.875111 0.500000
O O1 0.116566 0.437228 0.359420
O O2 0.105136 0.558723 0.214191
O O3 0.875814 0.060720 0.256395
O O4 0.660752 0.176542 0.209151
O O5 0.818858 0.191498 0.391520
O O6 0.406122 0.566213 0.604815
O O7 0.588206 0.779520 0.861322
O O8 0.849057 0.845249 0.843953
O O9 0.672031 0.904675 0.000000
O O10 0.880580 0.731563 0.000000
O O11 0.684865 0.843829 0.500000
O O12 0.447122 0.719042 0.500000
#
# Coordination Sequence:
#
# PCOD9427741 Si02
#       7
#     4   8   4   8   8   4   4
#     4  10  21  33  52  80 108 140 175 219 266 308
#     4  10  22  37  54  80 109 140 178 218 264 314
#     4   9  20  38  55  76 110 144 173 215 268 314
#     4   9  18  34  54  77 106 140 178 218 262 312
#     4   9  19  35  54  77 106 139 178 219 260 314
#     4  10  22  37  56  81 106 138 180 218 260 317
#     4   9  20  38  58  79 106 142 178 217 264 312
#
# _framework density 24.849343999999999
#
# number of rings (size 3 to 8) (size 9 to 14) (size 15 to 20)
#    0.000    2.600    0.000    0.900    0.000   12.400 
#    0.000    0.500    0.000    0.000    0.000    0.000 
#    0.000    0.000    0.000    0.000    0.000    0.000 
#
# Total GULP energy -223599.709994 kJ/mol
# GULP energy per Si atom -5589.992750 kJ/mol
# Density = 2.479279 g / cm^3
# Si number density = 24.849344 Si / 1000 Ang^3
#
#
#
# Elastic Constant Matrix: (Units=GPa)
#
#
# Indices 1 2 3 4 5 6 
#
# 1 91.1032 7.8901 16.0544 0.0000 0.0000 0.0000
# 2 7.8901 42.9708 4.0162 0.0000 0.0000 0.0000
# 3 16.0544 4.0162 54.3996 0.0000 0.0000 0.0000
# 4 0.0000 0.0000 0.0000 -6.0149 0.0000 0.0000
# 5 0.0000 0.0000 0.0000 0.0000 -81.7630 0.0000
# 6 0.0000 0.0000 0.0000 0.0000 0.0000 55.3988
#
#
#
# Elastic Compliance Matrix: (Units=1/GPa)
#
#
# Indices 1 2 3 4 5 6 
#
# 1 0.011722 -0.001842 -0.003323 0.000000 0.000000 0.000000
# 2 -0.001842 0.023723 -0.001208 0.000000 0.000000 0.000000
# 3 -0.003323 -0.001208 0.019452 0.000000 0.000000 0.000000
# 4 0.000000 0.000000 0.000000 -0.166253 0.000000 0.000000
# 5 0.000000 0.000000 0.000000 0.000000 -0.012230 0.000000
# 6 0.000000 0.000000 0.000000 0.000000 0.000000 0.018051
#
#
# Mechanical properties :
#
#
# Convention : Reuss Voigt Hill
#
# Bulk Modulus (GPa) = 23.72421 27.15500 25.43961
# Shear Modulus (GPa) = -63.50031 4.22503 -29.63764
#
# Velocity S-wave (km/s) = -5.06059 1.30535 -3.45729
# Velocity P-wave (km/s) = 4.95764 3.63641 2.38272
#
# Compressibility (1/GPa) = 0.04215103
#
# Stress axis : x y z
#
# Youngs Moduli (GPa) = 85.31185 42.15380 51.40743
#
# Poissons Ratio (x) = 0.07763 0.17084
# Poissons Ratio (y) = 0.15712 0.06209
# Poissons Ratio (z) = 0.28352 0.05092
#
# Static dielectric constant tensor:
#      x y z
#    x 1.983970 0.000000 0.000000 
#    y 0.000000 2.055260 0.000000 
#    z 0.000000 0.000000 1.931450 
# 
# From -- ./inp_files/17149.got.cif
#   From: 2010.05.17/outbox.cif.g08.bks.cpg/sg55_9_cif.got.tgz:17149.got - 2010.06.03 13:27:54.
