data_PCOD9427278
_publ_section_title
;
Structure prediction by ZEFSAII (Michael W. Deem and Ramdas Pophale) SiO2 
 PCOD9427278
Probable space group: P B A M
;
_chemical_formula_sum "Si O2"
_cell_formula_units_Z 58
_cell_length_a 29.382562
_cell_length_b 12.246888
_cell_length_c 7.846330
_cell_angle_alpha 90.000000
_cell_angle_beta 90.000000
_cell_angle_gamma 90.000000
_cell_volume 2823.462195
_symmetry_space_group_name_H-M "P B A M"
_symmetry_group_IT_number 55
_symmetry_cell_setting 'orthorhombic'
loop_
_space_group_symop_operation_xyz
x,y,z
-x,-y,z
1/2+x,1/2-y,-z
1/2-x,1/2+y,-z
-x,-y,-z
x,y,-z
1/2-x,1/2+y,z
1/2+x,1/2-y,z
loop_
_atom_site_type_symbol
_atom_site_label
_atom_site_fract_x
_atom_site_fract_y
_atom_site_fract_z
Si Si1 0.020655 0.353574 0.184912
Si Si2 0.658205 0.692800 0.207883
Si Si3 0.274684 0.114739 0.792179
Si Si4 0.645560 0.040217 0.797450
Si Si5 0.824980 0.945216 0.204653
Si Si6 0.500000 0.000000 0.500000
Si Si7 0.102562 0.234053 0.305306
Si Si8 0.921629 0.344782 0.302672
O O1 0.026932 0.431719 0.346610
O O2 0.055992 0.255068 0.204115
O O3 0.967566 0.323557 0.199853
O O4 0.030106 0.404537 0.000000
O O5 0.699581 0.773836 0.256349
O O6 0.667007 0.569247 0.262006
O O7 0.612685 0.743773 0.287881
O O8 0.653761 0.697664 0.000000
O O9 0.306998 0.013854 0.738817
O O10 0.223321 0.101149 0.730993
O O11 0.274408 0.113759 0.000000
O O12 0.608099 0.946465 0.762583
O O13 0.631367 0.153925 0.715607
O O14 0.648326 0.058597 0.000000
O O15 0.866108 0.865312 0.247658
O O16 0.821370 0.949941 0.000000
O O17 0.090182 0.217307 0.500000
O O18 0.936866 0.367234 0.500000
#
# Coordination Sequence:
#
# PCOD9427278 Si02
#       8
#     8   8   8   8   8   2   8   8
#     4  12  24  41  64  91 131 174 213 262 324 385
#     4   9  19  37  61  90 121 161 217 267 314 381
#     4   8  17  34  61  91 118 153 208 270 315 376
#     4  10  20  36  60  90 120 159 208 255 315 378
#     4  10  21  38  63  89 119 165 217 266 319 379
#     4  12  22  40  60 102 130 164 218 256 316 380
#     4  12  25  41  56  88 132 169 210 267 319 386
#     4  11  21  38  61  91 127 163 208 264 312 379
#
# _framework density 20.542155999999999
#
# number of rings (size 3 to 8) (size 9 to 14) (size 15 to 20)
#    0.000    1.655    1.379    4.759    1.931    0.552 
#    0.000    4.138    0.000    4.138    0.000    0.000 
#    0.000    0.000    0.000    0.000    0.000    0.000 
#
# Total GULP energy -323683.967968 kJ/mol
# GULP energy per Si atom -5580.758068 kJ/mol
# Density = 2.049540 g / cm^3
# Si number density = 20.542156 Si / 1000 Ang^3
#
#
#
# Elastic Constant Matrix: (Units=GPa)
#
#
# Indices 1 2 3 4 5 6 
#
# 1 99.3613 43.2634 19.8254 0.0000 0.0000 0.0000
# 2 43.2634 111.9968 10.4016 0.0000 0.0000 0.0000
# 3 19.8254 10.4016 90.1563 0.0000 0.0000 0.0000
# 4 0.0000 0.0000 0.0000 21.4408 0.0000 0.0000
# 5 0.0000 0.0000 0.0000 0.0000 202.5792 0.0000
# 6 0.0000 0.0000 0.0000 0.0000 0.0000 25.4070
#
#
#
# Elastic Compliance Matrix: (Units=1/GPa)
#
#
# Indices 1 2 3 4 5 6 
#
# 1 0.012524 -0.004632 -0.002220 0.000000 0.000000 0.000000
# 2 -0.004632 0.010738 -0.000220 0.000000 0.000000 0.000000
# 3 -0.002220 -0.000220 0.011605 0.000000 0.000000 0.000000
# 4 0.000000 0.000000 0.000000 0.046640 0.000000 0.000000
# 5 0.000000 0.000000 0.000000 0.000000 0.004936 0.000000
# 6 0.000000 0.000000 0.000000 0.000000 0.000000 0.039359
#
#
# Mechanical properties :
#
#
# Convention : Reuss Voigt Hill
#
# Bulk Modulus (GPa) = 48.25271 49.83278 49.04275
# Shear Modulus (GPa) = 34.04722 65.08702 49.56712
#
# Velocity S-wave (km/s) = 4.07557 5.63502 4.91750
# Velocity P-wave (km/s) = 6.75927 8.16390 7.49456
#
# Compressibility (1/GPa) = 0.02072422
#
# Stress axis : x y z
#
# Youngs Moduli (GPa) = 79.84748 93.12295 86.16695
#
# Poissons Ratio (x) = 0.43132 0.19126
# Poissons Ratio (y) = 0.36983 0.01899
# Poissons Ratio (z) = 0.17723 0.02053
#
# Static dielectric constant tensor:
#      x y z
#    x 1.685670 0.000000 0.000000 
#    y 0.000000 1.645620 0.000000 
#    z 0.000000 0.000000 1.763400 
# 
# From -- ./inp_files/10654.got.cif
#   From: 2010.05.17/outbox.cif.g08.bks.cpg/sg55_6_cif.got.tgz:10654.got - 2010.06.03 13:27:54.
