data_PCOD9427631
_publ_section_title
;
Structure prediction by ZEFSAII (Michael W. Deem and Ramdas Pophale) SiO2 
 PCOD9427631
Probable space group: P B A M
;
_chemical_formula_sum "Si O2"
_cell_formula_units_Z 56
_cell_length_a 9.637076
_cell_length_b 19.841120
_cell_length_c 15.941193
_cell_angle_alpha 90.000000
_cell_angle_beta 90.000000
_cell_angle_gamma 90.000000
_cell_volume 3048.121593
_symmetry_space_group_name_H-M "P B A M"
_symmetry_group_IT_number 55
_symmetry_cell_setting 'orthorhombic'
loop_
_space_group_symop_operation_xyz
x,y,z
-x,-y,z
1/2+x,1/2-y,-z
1/2-x,1/2+y,-z
-x,-y,-z
x,y,-z
1/2-x,1/2+y,z
1/2+x,1/2-y,z
loop_
_atom_site_type_symbol
_atom_site_label
_atom_site_fract_x
_atom_site_fract_y
_atom_site_fract_z
Si Si1 0.508384 0.300284 0.902106
Si Si2 0.667725 0.999396 0.593149
Si Si3 0.151734 0.466163 0.911093
Si Si4 0.112037 0.056638 0.146461
Si Si5 0.250327 0.258034 0.213301
Si Si6 0.807406 0.383453 0.710410
Si Si7 0.636377 0.103945 0.737148
O O1 0.536459 0.380262 0.896007
O O2 0.638841 0.265468 0.856222
O O3 0.381470 0.280274 0.842099
O O4 0.491658 0.281027 0.000000
O O5 0.721423 0.015083 0.500000
O O6 0.696945 0.054665 0.665547
O O7 0.500000 0.000000 0.588430
O O8 0.711765 0.924927 0.624354
O O9 0.269439 0.522891 0.909966
O O10 0.176045 0.422352 0.829144
O O11 0.000000 0.500000 0.904416
O O12 0.157587 0.428370 0.000000
O O13 0.198548 0.083167 0.225812
O O14 0.000000 0.000000 0.168300
O O15 0.284903 0.195914 0.275448
O O16 0.191355 0.320309 0.266585
O O17 0.968500 0.397751 0.733601
#
# Coordination Sequence:
#
# PCOD9427631 Si02
#       7
#     8   8   8   8   8   8   8
#     4  11  24  39  56  81 119 161 212 252 288 346
#     4   9  18  35  67  95 113 144 195 249 301 353
#     4  11  21  34  56  86 116 157 202 248 298 343
#     4  11  22  37  56  84 117 157 197 251 301 347
#     4  11  23  39  59  84 115 169 197 239 306 345
#     4  10  20  39  57  86 121 151 194 241 299 352
#     4  11  19  38  61  86 120 151 200 248 287 355
#
# _framework density 18.371970000000001
#
# number of rings (size 3 to 8) (size 9 to 14) (size 15 to 20)
#    0.000    1.429    4.286    2.143    0.000    3.429 
#    0.000    0.714    0.000    0.429    0.000    0.000 
#    0.000    0.000    0.000    0.000    0.000    0.000 
#
# Total GULP energy -312338.304984 kJ/mol
# GULP energy per Si atom -5577.469732 kJ/mol
# Density = 1.833015 g / cm^3
# Si number density = 18.371970 Si / 1000 Ang^3
#
#
#
# Elastic Constant Matrix: (Units=GPa)
#
#
# Indices 1 2 3 4 5 6 
#
# 1 87.2483 36.9986 12.5293 0.0000 0.0000 0.0000
# 2 36.9986 123.3328 60.4261 0.0000 0.0000 0.0000
# 3 12.5293 60.4261 124.5287 0.0000 0.0000 0.0000
# 4 0.0000 0.0000 0.0000 8.2301 0.0000 0.0000
# 5 0.0000 0.0000 0.0000 0.0000 4.0266 0.0000
# 6 0.0000 0.0000 0.0000 0.0000 0.0000 23.2889
#
#
#
# Elastic Compliance Matrix: (Units=1/GPa)
#
#
# Indices 1 2 3 4 5 6 
#
# 1 0.013189 -0.004338 0.000778 0.000000 0.000000 0.000000
# 2 -0.004338 0.012064 -0.005417 0.000000 0.000000 0.000000
# 3 0.000778 -0.005417 0.010581 0.000000 0.000000 0.000000
# 4 0.000000 0.000000 0.000000 0.121506 0.000000 0.000000
# 5 0.000000 0.000000 0.000000 0.000000 0.248347 0.000000
# 6 0.000000 0.000000 0.000000 0.000000 0.000000 0.042939
#
#
# Mechanical properties :
#
#
# Convention : Reuss Voigt Hill
#
# Bulk Modulus (GPa) = 55.93101 61.66865 58.79983
# Shear Modulus (GPa) = 10.58112 22.11950 16.35031
#
# Velocity S-wave (km/s) = 2.40247 3.47361 2.98646
# Velocity P-wave (km/s) = 6.18107 7.05177 6.63073
#
# Compressibility (1/GPa) = 0.01787917
#
# Stress axis : x y z
#
# Youngs Moduli (GPa) = 75.81896 82.89405 94.51182
#
# Poissons Ratio (x) = 0.35957 -0.07351
# Poissons Ratio (y) = 0.32888 0.51200
# Poissons Ratio (z) = -0.05897 0.44906
#
# Static dielectric constant tensor:
#      x y z
#    x 1.632630 0.000000 0.000000 
#    y 0.000000 1.662260 0.000000 
#    z 0.000000 0.000000 1.639800 
# 
# From -- ./inp_files/17660.got.cif
#   From: 2010.05.17/outbox.cif.g08.bks.cpg/sg55_9_cif.got.tgz:17660.got - 2010.06.03 13:27:54.
