data_PCOD9427456
_publ_section_title
;
Structure prediction by ZEFSAII (Michael W. Deem and Ramdas Pophale) SiO2 
 PCOD9427456
Probable space group: P B A M
;
_chemical_formula_sum "Si O2"
_cell_formula_units_Z 56
_cell_length_a 13.272525
_cell_length_b 14.999892
_cell_length_c 14.052259
_cell_angle_alpha 90.000000
_cell_angle_beta 90.000000
_cell_angle_gamma 90.000000
_cell_volume 2797.614240
_symmetry_space_group_name_H-M "P B A M"
_symmetry_group_IT_number 55
_symmetry_cell_setting 'orthorhombic'
loop_
_space_group_symop_operation_xyz
x,y,z
-x,-y,z
1/2+x,1/2-y,-z
1/2-x,1/2+y,-z
-x,-y,-z
x,y,-z
1/2-x,1/2+y,z
1/2+x,1/2-y,z
loop_
_atom_site_type_symbol
_atom_site_label
_atom_site_fract_x
_atom_site_fract_y
_atom_site_fract_z
Si Si1 0.269562 0.128052 0.388310
Si Si2 0.429091 0.913748 0.893199
Si Si3 0.645132 0.694158 0.294223
Si Si4 0.763789 0.525095 0.252136
Si Si5 0.100955 0.059773 0.109796
Si Si6 0.965861 0.226209 0.110421
Si Si7 0.030016 0.098958 0.611259
O O1 0.296351 0.123131 0.500000
O O2 0.305251 0.220851 0.343133
O O3 0.148411 0.116603 0.380965
O O4 0.310161 0.046648 0.324518
O O5 0.345114 0.928586 0.814860
O O6 0.495406 0.826156 0.875662
O O7 0.500000 0.000000 0.892366
O O8 0.385292 0.904877 0.000000
O O9 0.708185 0.604027 0.308616
O O10 0.625196 0.707105 0.181965
O O11 0.535314 0.673220 0.336768
O O12 0.684065 0.474548 0.183092
O O13 0.058959 0.158792 0.129006
O O14 0.137160 0.054807 0.000000
O O15 0.000000 0.000000 0.116759
O O16 0.936823 0.212741 0.000000
O O17 0.002285 0.100595 0.500000
O O18 0.000000 0.000000 0.647830
#
# Coordination Sequence:
#
# PCOD9427456 Si02
#       7
#     8   8   8   8   8   8   8
#     4  11  26  44  64  97 128 161 216 274 330 386
#     4  10  23  44  63  88 131 176 215 254 309 384
#     4  12  24  39  69  95 130 166 213 264 325 387
#     4  12  24  38  67  95 123 172 214 263 317 389
#     4  10  20  37  61  97 136 161 202 264 316 371
#     4  10  22  40  65  95 133 173 213 263 314 380
#     4  10  21  42  69  93 123 163 212 269 327 381
#
# _framework density 20.017054999999999
#
# number of rings (size 3 to 8) (size 9 to 14) (size 15 to 20)
#    0.000    1.286    2.857    2.571    4.000    1.143 
#    0.000    0.714    0.000    1.286    0.000    0.000 
#    0.000    0.000    0.000    0.000    0.000    0.000 
#
# Total GULP energy -313095.593831 kJ/mol
# GULP energy per Si atom -5590.992747 kJ/mol
# Density = 1.997150 g / cm^3
# Si number density = 20.017055 Si / 1000 Ang^3
#
#
#
# Elastic Constant Matrix: (Units=GPa)
#
#
# Indices 1 2 3 4 5 6 
#
# 1 16.5302 0.2955 11.0044 0.0000 0.0000 0.0000
# 2 0.2955 121.2504 24.1808 0.0000 0.0000 0.0000
# 3 11.0044 24.1808 88.5158 0.0000 0.0000 0.0000
# 4 0.0000 0.0000 0.0000 3.7875 0.0000 0.0000
# 5 0.0000 0.0000 0.0000 0.0000 22.3379 0.0000
# 6 0.0000 0.0000 0.0000 0.0000 0.0000 28.5190
#
#
#
# Elastic Compliance Matrix: (Units=1/GPa)
#
#
# Indices 1 2 3 4 5 6 
#
# 1 0.066234 0.001566 -0.008662 0.000000 0.000000 0.000000
# 2 0.001566 0.008760 -0.002588 0.000000 0.000000 0.000000
# 3 -0.008662 -0.002588 0.013081 0.000000 0.000000 0.000000
# 4 0.000000 0.000000 0.000000 0.264029 0.000000 0.000000
# 5 0.000000 0.000000 0.000000 0.000000 0.044767 0.000000
# 6 0.000000 0.000000 0.000000 0.000000 0.000000 0.035064
#
#
# Mechanical properties :
#
#
# Convention : Reuss Voigt Hill
#
# Bulk Modulus (GPa) = 14.55452 33.02864 23.79158
# Shear Modulus (GPa) = 10.54397 23.64991 17.09694
#
# Velocity S-wave (km/s) = 2.29759 3.44101 2.92570
# Velocity P-wave (km/s) = 3.78489 5.68537 4.82954
#
# Compressibility (1/GPa) = 0.06870717
#
# Stress axis : x y z
#
# Youngs Moduli (GPa) = 15.09805 114.16005 76.44561
#
# Poissons Ratio (x) = -0.17878 0.66218
# Poissons Ratio (y) = -0.02364 0.19781
# Poissons Ratio (z) = 0.13078 0.29541
#
# Static dielectric constant tensor:
#      x y z
#    x 1.697890 0.000000 0.000000 
#    y 0.000000 1.706750 0.000000 
#    z 0.000000 0.000000 1.741050 
# 
# From -- ./inp_files/18417.got.cif
#   From: 2010.05.17/outbox.cif.g08.bks.cpg/sg55_10_cif.got.tgz:18417.got - 2010.06.03 13:27:54.
