data_PCOD9427415
_publ_section_title
;
Structure prediction by ZEFSAII (Michael W. Deem and Ramdas Pophale) SiO2 
 PCOD9427415
Probable space group: P B A M
;
_chemical_formula_sum "Si O2"
_cell_formula_units_Z 56
_cell_length_a 21.331280
_cell_length_b 14.412575
_cell_length_c 9.119441
_cell_angle_alpha 90.000000
_cell_angle_beta 90.000000
_cell_angle_gamma 90.000000
_cell_volume 2803.668838
_symmetry_space_group_name_H-M "P B A M"
_symmetry_group_IT_number 55
_symmetry_cell_setting 'orthorhombic'
loop_
_space_group_symop_operation_xyz
x,y,z
-x,-y,z
1/2+x,1/2-y,-z
1/2-x,1/2+y,-z
-x,-y,-z
x,y,-z
1/2-x,1/2+y,z
1/2+x,1/2-y,z
loop_
_atom_site_type_symbol
_atom_site_label
_atom_site_fract_x
_atom_site_fract_y
_atom_site_fract_z
Si Si1 0.425633 0.999188 0.825309
Si Si2 0.400499 0.528574 0.328222
Si Si3 0.396204 0.208855 0.823284
Si Si4 0.729636 0.478235 0.169135
Si Si5 0.487657 0.345694 0.329115
Si Si6 0.241510 0.738808 0.829457
Si Si7 0.175982 0.383954 0.326141
O O1 0.399813 0.100656 0.779830
O O2 0.500000 0.000000 0.800684
O O3 0.389544 0.917498 0.742497
O O4 0.414344 0.988991 0.000000
O O5 0.382988 0.540786 0.500000
O O6 0.340798 0.516571 0.227151
O O7 0.442703 0.436026 0.320111
O O8 0.444295 0.615640 0.283690
O O9 0.455163 0.264941 0.761984
O O10 0.330071 0.255017 0.776212
O O11 0.397012 0.210836 0.000000
O O12 0.749656 0.371307 0.175519
O O13 0.774189 0.539537 0.270178
O O14 0.734802 0.508824 0.000000
O O15 0.491347 0.318622 0.500000
O O16 0.294717 0.789603 0.737287
O O17 0.246197 0.767744 0.000000
O O18 0.171984 0.380550 0.500000
#
# Coordination Sequence:
#
# PCOD9427415 Si02
#       7
#     8   8   8   8   8   8   8
#     4  10  22  43  67  88 119 162 207 256 309 365
#     4   9  19  36  55  82 119 157 196 240 301 359
#     4  10  20  37  60  87 115 153 205 252 300 364
#     4  11  22  39  62  87 118 155 199 249 300 355
#     4   9  19  35  55  80 117 159 194 239 297 360
#     4  10  22  40  62  86 118 158 204 252 301 364
#     4  12  25  40  62  92 126 160 202 255 313 375
#
# _framework density 19.973828000000001
#
# number of rings (size 3 to 8) (size 9 to 14) (size 15 to 20)
#    0.000    1.857    1.429    3.429    0.000    7.143 
#    0.000    5.714    0.000    0.000    0.000    0.000 
#    0.000    0.000    0.000    0.000    0.000    0.000 
#
# Total GULP energy -312889.968128 kJ/mol
# GULP energy per Si atom -5587.320859 kJ/mol
# Density = 1.992837 g / cm^3
# Si number density = 19.973828 Si / 1000 Ang^3
#
#
#
# Elastic Constant Matrix: (Units=GPa)
#
#
# Indices 1 2 3 4 5 6 
#
# 1 66.3235 -11.9082 27.3805 0.0000 0.0000 0.0000
# 2 -11.9082 25.2784 4.6391 0.0000 0.0000 0.0000
# 3 27.3805 4.6391 52.6470 0.0000 0.0000 0.0000
# 4 0.0000 0.0000 0.0000 44.7972 0.0000 0.0000
# 5 0.0000 0.0000 0.0000 0.0000 31.5595 0.0000
# 6 0.0000 0.0000 0.0000 0.0000 0.0000 31.6508
#
#
#
# Elastic Compliance Matrix: (Units=1/GPa)
#
#
# Indices 1 2 3 4 5 6 
#
# 1 0.022812 0.013136 -0.013021 0.000000 0.000000 0.000000
# 2 0.013136 0.047774 -0.011041 0.000000 0.000000 0.000000
# 3 -0.013021 -0.011041 0.026739 0.000000 0.000000 0.000000
# 4 0.000000 0.000000 0.000000 0.022323 0.000000 0.000000
# 5 0.000000 0.000000 0.000000 0.000000 0.031686 0.000000
# 6 0.000000 0.000000 0.000000 0.000000 0.000000 0.031595
#
#
# Mechanical properties :
#
#
# Convention : Reuss Voigt Hill
#
# Bulk Modulus (GPa) = 13.25004 20.49686 16.87345
# Shear Modulus (GPa) = 21.74481 29.87732 25.81106
#
# Velocity S-wave (km/s) = 3.30307 3.87178 3.59868
# Velocity P-wave (km/s) = 4.60382 5.50198 5.07281
#
# Compressibility (1/GPa) = 0.07547150
#
# Stress axis : x y z
#
# Youngs Moduli (GPa) = 43.83697 20.93191 37.39788
#
# Poissons Ratio (x) = -0.27496 0.48697
# Poissons Ratio (y) = -0.57584 0.41292
# Poissons Ratio (z) = 0.57082 0.23112
#
# Static dielectric constant tensor:
#      x y z
#    x 1.719450 0.000000 0.000000 
#    y 0.000000 1.713830 0.000000 
#    z 0.000000 0.000000 1.665520 
# 
# From -- ./inp_files/6147.got.cif
#   From: 2010.05.17/outbox.cif.g08.bks.cpg/sg55_4_cif.got.tgz:6147.got - 2010.06.03 13:27:54.
