data_PCOD9427813
_publ_section_title
;
Structure prediction by ZEFSAII (Michael W. Deem and Ramdas Pophale) SiO2 
 PCOD9427813
Probable space group: P B A M
;
_chemical_formula_sum "Si O2"
_cell_formula_units_Z 56
_cell_length_a 17.347086
_cell_length_b 10.099737
_cell_length_c 13.561861
_cell_angle_alpha 90.000000
_cell_angle_beta 90.000000
_cell_angle_gamma 90.000000
_cell_volume 2376.051695
_symmetry_space_group_name_H-M "P B A M"
_symmetry_group_IT_number 55
_symmetry_cell_setting 'orthorhombic'
loop_
_space_group_symop_operation_xyz
x,y,z
-x,-y,z
1/2+x,1/2-y,-z
1/2-x,1/2+y,-z
-x,-y,-z
x,y,-z
1/2-x,1/2+y,z
1/2+x,1/2-y,z
loop_
_atom_site_type_symbol
_atom_site_label
_atom_site_fract_x
_atom_site_fract_y
_atom_site_fract_z
Si Si1 0.927117 0.587621 0.884030
Si Si2 0.923328 0.089819 0.108700
Si Si3 0.949945 0.872408 0.382586
Si Si4 0.808529 0.034693 0.386178
Si Si5 0.671990 0.329281 0.115072
Si Si6 0.917264 0.255034 0.305399
Si Si7 0.302718 0.055795 0.229382
O O1 0.899774 0.735960 0.852247
O O2 0.848165 0.510692 0.860027
O O3 0.000000 0.500000 0.844995
O O4 0.941556 0.600271 0.000000
O O5 0.918573 0.193829 0.195608
O O6 0.855864 0.981765 0.117377
O O7 0.921507 0.152883 0.000000
O O8 0.000000 0.000000 0.114044
O O9 0.955914 0.871683 0.500000
O O10 0.995292 0.746889 0.342392
O O11 0.861732 0.905805 0.361274
O O12 0.000000 0.000000 0.345499
O O13 0.782402 0.026553 0.500000
O O14 0.866862 0.157213 0.374253
O O15 0.745411 0.038727 0.301471
O O16 0.747164 0.331217 0.183654
O O17 0.689174 0.296408 0.000000
O O18 0.869768 0.387303 0.298589
#
# Coordination Sequence:
#
# PCOD9427813 Si02
#       7
#     8   8   8   8   8   8   8
#     4  10  24  45  64  86 125 174 213 246 303 382
#     4  10  21  35  58  91 121 150 194 253 313 363
#     4   8  16  33  58  82 109 145 187 240 302 359
#     4  10  21  39  59  86 122 154 194 251 314 368
#     4  10  22  40  61  85 121 159 204 257 304 366
#     4  11  21  35  59  87 121 152 197 252 306 366
#     4  12  24  37  60  91 121 161 205 255 304 366
#
# _framework density 23.56851
#
# number of rings (size 3 to 8) (size 9 to 14) (size 15 to 20)
#    0.000    1.857    1.429    3.857    2.000    2.286 
#    0.000    0.000    0.000    0.429    0.000    0.000 
#    0.000    0.000    0.000    0.000    0.000    0.000 
#
# Total GULP energy -312735.584944 kJ/mol
# GULP energy per Si atom -5584.564017 kJ/mol
# Density = 2.351487 g / cm^3
# Si number density = 23.568510 Si / 1000 Ang^3
#
#
#
# Elastic Constant Matrix: (Units=GPa)
#
#
# Indices 1 2 3 4 5 6 
#
# 1 63.7431 4.7944 23.6619 0.0000 0.0000 0.0000
# 2 4.7944 29.1633 2.2962 0.0000 0.0000 0.0000
# 3 23.6619 2.2962 68.8058 0.0000 0.0000 0.0000
# 4 0.0000 0.0000 0.0000 8.3132 0.0000 0.0000
# 5 0.0000 0.0000 0.0000 0.0000 29.9265 0.0000
# 6 0.0000 0.0000 0.0000 0.0000 0.0000 30.1956
#
#
#
# Elastic Compliance Matrix: (Units=1/GPa)
#
#
# Indices 1 2 3 4 5 6 
#
# 1 0.018164 -0.002501 -0.006163 0.000000 0.000000 0.000000
# 2 -0.002501 0.034724 -0.000299 0.000000 0.000000 0.000000
# 3 -0.006163 -0.000299 0.016663 0.000000 0.000000 0.000000
# 4 0.000000 0.000000 0.000000 0.120290 0.000000 0.000000
# 5 0.000000 0.000000 0.000000 0.000000 0.033415 0.000000
# 6 0.000000 0.000000 0.000000 0.000000 0.000000 0.033117
#
#
# Mechanical properties :
#
#
# Convention : Reuss Voigt Hill
#
# Bulk Modulus (GPa) = 19.37011 24.80191 22.08601
# Shear Modulus (GPa) = 17.15218 22.41770 19.78494
#
# Velocity S-wave (km/s) = 2.70063 3.08745 2.90050
# Velocity P-wave (km/s) = 4.23804 4.82245 4.53966
#
# Compressibility (1/GPa) = 0.05162593
#
# Stress axis : x y z
#
# Youngs Moduli (GPa) = 55.05450 28.79829 60.01307
#
# Poissons Ratio (x) = 0.07202 0.36986
# Poissons Ratio (y) = 0.13768 0.01793
# Poissons Ratio (z) = 0.33930 0.00860
#
# Static dielectric constant tensor:
#      x y z
#    x 1.945020 0.000000 0.000000 
#    y 0.000000 1.976270 0.000000 
#    z 0.000000 0.000000 1.879990 
# 
# From -- ./inp_files/18939.got.cif
#   From: 2010.05.17/outbox.cif.g08.bks.cpg/sg55_10_cif.got.tgz:18939.got - 2010.06.03 13:27:54.
