data_PCOD9427391
_publ_section_title
;
Structure prediction by ZEFSAII (Michael W. Deem and Ramdas Pophale) SiO2 
 PCOD9427391
Probable space group: P B A M
;
_chemical_formula_sum "Si O2"
_cell_formula_units_Z 48
_cell_length_a 13.745662
_cell_length_b 14.780120
_cell_length_c 11.926981
_cell_angle_alpha 90.000000
_cell_angle_beta 90.000000
_cell_angle_gamma 90.000000
_cell_volume 2423.115681
_symmetry_space_group_name_H-M "P B A M"
_symmetry_group_IT_number 55
_symmetry_cell_setting 'orthorhombic'
loop_
_space_group_symop_operation_xyz
x,y,z
-x,-y,z
1/2+x,1/2-y,-z
1/2-x,1/2+y,-z
-x,-y,-z
x,y,-z
1/2-x,1/2+y,z
1/2+x,1/2-y,z
loop_
_atom_site_type_symbol
_atom_site_label
_atom_site_fract_x
_atom_site_fract_y
_atom_site_fract_z
Si Si1 0.601048 0.845033 0.242052
Si Si2 0.556070 0.222455 0.375527
Si Si3 0.419141 0.577048 0.369953
Si Si4 0.541701 0.862035 0.000000
Si Si5 0.282855 0.311060 0.628309
Si Si6 0.838341 0.549393 0.000000
Si Si7 0.749905 0.505109 0.236406
O O1 0.492913 0.847411 0.292383
O O2 0.657010 0.765288 0.306676
O O3 0.657481 0.939385 0.257880
O O4 0.583993 0.819335 0.112898
O O5 0.522567 0.198626 0.500000
O O6 0.530355 0.326341 0.350785
O O7 0.671645 0.222138 0.373684
O O8 0.500000 0.500000 0.366168
O O9 0.379123 0.578829 0.500000
O O10 0.340415 0.559001 0.272722
O O11 0.423688 0.873593 0.000000
O O12 0.594207 0.959953 0.000000
O O13 0.317522 0.320919 0.500000
O O14 0.272937 0.408240 0.686799
O O15 0.771120 0.542614 0.889001
#
# Coordination Sequence:
#
# PCOD9427391 Si02
#       7
#     8   8   8   4   8   4   8
#     4  11  22  40  62  88 125 168 215 264 321 388
#     4  10  21  36  56  86 123 158 203 266 318 378
#     4  10  20  37  59  86 123 169 213 255 321 391
#     4   9  20  39  63  89 123 169 210 254 323 374
#     4  11  23  37  58  92 124 159 214 267 321 391
#     4   9  20  39  62  93 124 159 215 265 307 392
#     4  11  22  39  64  88 125 172 212 266 332 380
#
# _framework density 19.809207000000001
#
# number of rings (size 3 to 8) (size 9 to 14) (size 15 to 20)
#    0.000    1.667    1.667    3.000    0.000    6.000 
#    0.000    3.750    0.000    0.000    0.000    0.000 
#    0.000    0.000    0.000    0.000    0.000    0.000 
#
# Total GULP energy -267552.735907 kJ/mol
# GULP energy per Si atom -5574.015331 kJ/mol
# Density = 1.976412 g / cm^3
# Si number density = 19.809207 Si / 1000 Ang^3
#
#
#
# Elastic Constant Matrix: (Units=GPa)
#
#
# Indices 1 2 3 4 5 6 
#
# 1 61.9588 2.7118 42.9225 0.0000 0.0000 0.0000
# 2 2.7118 66.8369 38.8833 0.0000 0.0000 0.0000
# 3 42.9225 38.8833 143.4253 0.0000 0.0000 0.0000
# 4 0.0000 0.0000 0.0000 27.2630 0.0000 0.0000
# 5 0.0000 0.0000 0.0000 0.0000 27.4639 0.0000
# 6 0.0000 0.0000 0.0000 0.0000 0.0000 35.8696
#
#
#
# Elastic Compliance Matrix: (Units=1/GPa)
#
#
# Indices 1 2 3 4 5 6 
#
# 1 0.020965 0.003324 -0.007175 0.000000 0.000000 0.000000
# 2 0.003324 0.018290 -0.005953 0.000000 0.000000 0.000000
# 3 -0.007175 -0.005953 0.010734 0.000000 0.000000 0.000000
# 4 0.000000 0.000000 0.000000 0.036680 0.000000 0.000000
# 5 0.000000 0.000000 0.000000 0.000000 0.036411 0.000000
# 6 0.000000 0.000000 0.000000 0.000000 0.000000 0.027879
#
#
# Mechanical properties :
#
#
# Convention : Reuss Voigt Hill
#
# Bulk Modulus (GPa) = 32.91720 49.02848 40.97284
# Shear Modulus (GPa) = 27.67097 30.63286 29.15191
#
# Velocity S-wave (km/s) = 3.74153 3.93669 3.84035
# Velocity P-wave (km/s) = 5.94295 6.74296 6.35555
#
# Compressibility (1/GPa) = 0.03037926
#
# Stress axis : x y z
#
# Youngs Moduli (GPa) = 47.69862 54.67360 93.16593
#
# Poissons Ratio (x) = -0.18172 0.66848
# Poissons Ratio (y) = -0.15853 0.55464
# Poissons Ratio (z) = 0.34225 0.32549
#
# Static dielectric constant tensor:
#      x y z
#    x 1.730600 0.000000 0.000000 
#    y 0.000000 1.733740 0.000000 
#    z 0.000000 0.000000 1.710430 
# 
# From -- ./inp_files/14176.got.cif
#   From: 2010.05.17/outbox.cif.g08.bks.cpg/sg55_8_cif.got.tgz:14176.got - 2010.06.03 13:27:54.
