data_PCOD9427393
_publ_section_title
;
Structure prediction by ZEFSAII (Michael W. Deem and Ramdas Pophale) SiO2 
 PCOD9427393
Probable space group: P B A M
;
_chemical_formula_sum "Si O2"
_cell_formula_units_Z 48
_cell_length_a 27.934400
_cell_length_b 9.652170
_cell_length_c 8.154275
_cell_angle_alpha 90.000000
_cell_angle_beta 90.000000
_cell_angle_gamma 90.000000
_cell_volume 2198.617416
_symmetry_space_group_name_H-M "P B A M"
_symmetry_group_IT_number 55
_symmetry_cell_setting 'orthorhombic'
loop_
_space_group_symop_operation_xyz
x,y,z
-x,-y,z
1/2+x,1/2-y,-z
1/2-x,1/2+y,-z
-x,-y,-z
x,y,-z
1/2-x,1/2+y,z
1/2+x,1/2-y,z
loop_
_atom_site_type_symbol
_atom_site_label
_atom_site_fract_x
_atom_site_fract_y
_atom_site_fract_z
Si Si1 0.304558 0.021929 0.310597
Si Si2 0.988149 0.653084 0.801755
Si Si3 0.547456 0.592943 0.194211
Si Si4 0.620181 0.186123 0.698031
Si Si5 0.146841 0.015306 0.691283
Si Si6 0.727901 0.681602 0.813625
O O1 0.311835 0.060379 0.500000
O O2 0.353507 0.953615 0.242979
O O3 0.267082 0.895256 0.297465
O O4 0.284127 0.159051 0.225726
O O5 0.934997 0.694238 0.747979
O O6 0.000000 0.500000 0.743664
O O7 0.029525 0.757610 0.747713
O O8 0.988349 0.656710 0.000000
O O9 0.500000 0.500000 0.209786
O O10 0.592261 0.534666 0.291066
O O11 0.560058 0.595959 0.000000
O O12 0.622742 0.185993 0.500000
O O13 0.647138 0.326189 0.753532
O O14 0.161327 0.013607 0.500000
O O15 0.180347 0.910344 0.788283
O O16 0.744758 0.670577 0.000000
#
# Coordination Sequence:
#
# PCOD9427393 Si02
#       6
#     8   8   8   8   8   8
#     4  11  24  45  69  95 129 167 209 260 319 381
#     4  10  22  38  58  86 123 166 208 257 314 369
#     4  10  20  37  59  87 123 165 211 260 313 372
#     4  10  23  41  63  91 123 164 210 257 311 373
#     4  11  23  40  64  93 127 168 212 262 318 378
#     4  12  26  44  68  99 129 165 210 261 318 383
#
# _framework density 21.831901999999999
#
# number of rings (size 3 to 8) (size 9 to 14) (size 15 to 20)
#    0.000    1.333    1.667    3.500    2.333    4.667 
#    0.000    0.000    0.000    0.000    0.000    0.000 
#    0.000    0.000    0.000    0.000    0.000    0.000 
#
# Total GULP energy -268387.095681 kJ/mol
# GULP energy per Si atom -5591.397827 kJ/mol
# Density = 2.178221 g / cm^3
# Si number density = 21.831902 Si / 1000 Ang^3
#
#
#
# Elastic Constant Matrix: (Units=GPa)
#
#
# Indices 1 2 3 4 5 6 
#
# 1 46.8355 -0.6076 -13.8693 0.0000 0.0000 0.0000
# 2 -0.6076 118.1438 -0.6698 0.0000 0.0000 0.0000
# 3 -13.8693 -0.6698 26.7409 0.0000 0.0000 0.0000
# 4 0.0000 0.0000 0.0000 -284.2164 0.0000 0.0000
# 5 0.0000 0.0000 0.0000 0.0000 27.6766 0.0000
# 6 0.0000 0.0000 0.0000 0.0000 0.0000 37.8080
#
#
#
# Elastic Compliance Matrix: (Units=1/GPa)
#
#
# Indices 1 2 3 4 5 6 
#
# 1 0.025231 0.000204 0.013091 0.000000 0.000000 0.000000
# 2 0.000204 0.008467 0.000318 0.000000 0.000000 0.000000
# 3 0.013091 0.000318 0.044194 0.000000 0.000000 0.000000
# 4 0.000000 0.000000 0.000000 -0.003518 0.000000 0.000000
# 5 0.000000 0.000000 0.000000 0.000000 0.036132 0.000000
# 6 0.000000 0.000000 0.000000 0.000000 0.000000 0.026449
#
#
# Mechanical properties :
#
#
# Convention : Reuss Voigt Hill
#
# Bulk Modulus (GPa) = 9.51322 17.93633 13.72477
# Shear Modulus (GPa) = 34.53826 -29.95524 2.29151
#
# Velocity S-wave (km/s) = 3.98176 -3.70819 1.02562
# Velocity P-wave (km/s) = 5.05036 3.17816 2.77538
#
# Compressibility (1/GPa) = 0.10511693
#
# Stress axis : x y z
#
# Youngs Moduli (GPa) = 39.63445 118.10407 22.62776
#
# Poissons Ratio (x) = -0.02409 -0.29622
# Poissons Ratio (y) = -0.00808 -0.00719
# Poissons Ratio (z) = -0.51886 -0.03754
#
# Static dielectric constant tensor:
#      x y z
#    x 1.779280 0.000000 0.000000 
#    y 0.000000 1.815720 0.000000 
#    z 0.000000 0.000000 1.770590 
# 
# From -- ./inp_files/10511.got.cif
#   From: 2010.05.17/outbox.cif.g08.bks.cpg/sg55_6_cif.got.tgz:10511.got - 2010.06.03 13:27:54.
