data_PCOD9427282
_publ_section_title
;
Structure prediction by ZEFSAII (Michael W. Deem and Ramdas Pophale) SiO2 
 PCOD9427282
Probable space group: P B A M
;
_chemical_formula_sum "Si O2"
_cell_formula_units_Z 64
_cell_length_a 15.214303
_cell_length_b 13.827259
_cell_length_c 15.563131
_cell_angle_alpha 90.000000
_cell_angle_beta 90.000000
_cell_angle_gamma 90.000000
_cell_volume 3274.048677
_symmetry_space_group_name_H-M "P B A M"
_symmetry_group_IT_number 55
_symmetry_cell_setting 'orthorhombic'
loop_
_space_group_symop_operation_xyz
x,y,z
-x,-y,z
1/2+x,1/2-y,-z
1/2-x,1/2+y,-z
-x,-y,-z
x,y,-z
1/2-x,1/2+y,z
1/2+x,1/2-y,z
loop_
_atom_site_type_symbol
_atom_site_label
_atom_site_fract_x
_atom_site_fract_y
_atom_site_fract_z
Si Si1 0.198813 0.848767 0.101314
Si Si2 0.902842 0.539581 0.603395
Si Si3 0.825710 0.940211 0.173664
Si Si4 0.185794 0.628558 0.698002
Si Si5 0.454828 0.592041 0.669680
Si Si6 0.171066 0.250762 0.400101
Si Si7 0.614045 0.241261 0.900007
Si Si8 0.449094 0.253209 0.782363
O O1 0.297958 0.817003 0.124132
O O2 0.127283 0.788473 0.153761
O O3 0.183795 0.960402 0.124050
O O4 0.187886 0.831878 0.000000
O O5 0.902855 0.541053 0.500000
O O6 0.831218 0.462701 0.636920
O O7 0.872986 0.648199 0.630658
O O8 0.000000 0.500000 0.629016
O O9 0.734634 0.906868 0.216203
O O10 0.890132 0.948352 0.255827
O O11 0.862785 0.854163 0.114903
O O12 0.246263 0.711821 0.654865
O O13 0.092487 0.671903 0.723195
O O14 0.500000 0.500000 0.626598
O O15 0.399809 0.664756 0.610828
O O16 0.522906 0.658430 0.721601
O O17 0.195696 0.261557 0.500000
O O18 0.533042 0.220367 0.837372
O O19 0.593315 0.223562 0.000000
#
# Coordination Sequence:
#
# PCOD9427282 Si02
#       8
#     8   8   8   8   8   8   8   8
#     4  11  22  38  61  86 119 161 202 254 312 368
#     4  10  22  41  62  89 126 169 212 256 318 392
#     4  10  21  36  58  88 120 156 205 248 308 376
#     4  11  23  37  63  89 122 163 205 264 313 368
#     4  10  20  36  60  91 126 159 203 262 309 370
#     4  10  23  41  63  93 128 166 211 261 317 383
#     4  10  22  40  60  87 123 160 205 259 312 372
#     4  11  22  39  60  91 118 160 209 253 308 372
#
# _framework density 19.547663
#
# number of rings (size 3 to 8) (size 9 to 14) (size 15 to 20)
#    0.000    1.625    2.500    1.875    1.750    1.250 
#    0.000    2.500    0.000    1.500    0.000    0.000 
#    0.000    0.000    0.000    0.000    0.000    0.000 
#
# Total GULP energy -357380.634707 kJ/mol
# GULP energy per Si atom -5584.072417 kJ/mol
# Density = 1.950317 g / cm^3
# Si number density = 19.547663 Si / 1000 Ang^3
#
#
#
# Elastic Constant Matrix: (Units=GPa)
#
#
# Indices 1 2 3 4 5 6 
#
# 1 76.6002 37.6725 23.3696 0.0000 0.0000 0.0000
# 2 37.6725 84.8035 16.9423 0.0000 0.0000 0.0000
# 3 23.3696 16.9423 42.3574 0.0000 0.0000 0.0000
# 4 0.0000 0.0000 0.0000 28.9690 0.0000 0.0000
# 5 0.0000 0.0000 0.0000 0.0000 15.0506 0.0000
# 6 0.0000 0.0000 0.0000 0.0000 0.0000 28.1256
#
#
#
# Elastic Compliance Matrix: (Units=1/GPa)
#
#
# Indices 1 2 3 4 5 6 
#
# 1 0.018718 -0.006795 -0.007609 0.000000 0.000000 0.000000
# 2 -0.006795 0.015283 -0.002364 0.000000 0.000000 0.000000
# 3 -0.007609 -0.002364 0.028752 0.000000 0.000000 0.000000
# 4 0.000000 0.000000 0.000000 0.034520 0.000000 0.000000
# 5 0.000000 0.000000 0.000000 0.000000 0.066443 0.000000
# 6 0.000000 0.000000 0.000000 0.000000 0.000000 0.035555
#
#
# Mechanical properties :
#
#
# Convention : Reuss Voigt Hill
#
# Bulk Modulus (GPa) = 34.22688 39.96999 37.09844
# Shear Modulus (GPa) = 20.61465 22.81413 21.71439
#
# Velocity S-wave (km/s) = 3.25096 3.42000 3.33655
# Velocity P-wave (km/s) = 5.62487 6.00725 5.81920
#
# Compressibility (1/GPa) = 0.02921680
#
# Stress axis : x y z
#
# Youngs Moduli (GPa) = 53.42420 65.43302 34.77974
#
# Poissons Ratio (x) = 0.44462 0.26465
# Poissons Ratio (y) = 0.36302 0.08222
# Poissons Ratio (z) = 0.40652 0.15468
#
# Static dielectric constant tensor:
#      x y z
#    x 1.702000 0.000000 0.000000 
#    y 0.000000 1.675580 0.000000 
#    z 0.000000 0.000000 1.654140 
# 
# From -- ./inp_files/21662.got.cif
#   From: 2010.05.17/outbox.cif.g08.bks.cpg/sg55_11_cif.got.tgz:21662.got - 2010.06.03 13:27:54.
