data_PCOD9427983
_publ_section_title
;
Structure prediction by ZEFSAII (Michael W. Deem and Ramdas Pophale) SiO2 
 PCOD9427983
Probable space group: P B A M
;
_chemical_formula_sum "Si O2"
_cell_formula_units_Z 48
_cell_length_a 9.076969
_cell_length_b 32.019022
_cell_length_c 7.946664
_cell_angle_alpha 90.000000
_cell_angle_beta 90.000000
_cell_angle_gamma 90.000000
_cell_volume 2309.584017
_symmetry_space_group_name_H-M "P B A M"
_symmetry_group_IT_number 55
_symmetry_cell_setting 'orthorhombic'
loop_
_space_group_symop_operation_xyz
x,y,z
-x,-y,z
1/2+x,1/2-y,-z
1/2-x,1/2+y,-z
-x,-y,-z
x,y,-z
1/2-x,1/2+y,z
1/2+x,1/2-y,z
loop_
_atom_site_type_symbol
_atom_site_label
_atom_site_fract_x
_atom_site_fract_y
_atom_site_fract_z
Si Si1 0.576113 0.126856 0.298319
Si Si2 0.100480 0.206070 0.803392
Si Si3 0.077009 0.542331 0.702591
Si Si4 0.567743 0.787439 0.303280
Si Si5 0.918649 0.958078 0.796613
Si Si6 0.582759 0.625860 0.796157
O O1 0.555519 0.126749 0.500000
O O2 0.501390 0.084391 0.232224
O O3 0.498940 0.169134 0.234972
O O4 0.748955 0.127465 0.261068
O O5 0.256688 0.211705 0.714520
O O6 0.002416 0.247396 0.784999
O O7 0.009123 0.166233 0.738451
O O8 0.132491 0.198928 0.000000
O O9 0.061342 0.542283 0.500000
O O10 0.249131 0.542543 0.743855
O O11 0.000000 0.500000 0.766855
O O12 0.528220 0.783978 0.500000
O O13 0.003729 0.916615 0.738498
O O14 0.923354 0.958158 0.000000
O O15 0.000000 0.000000 0.736517
O O16 0.582992 0.626264 0.000000
#
# Coordination Sequence:
#
# PCOD9427983 Si02
#       6
#     8   8   8   8   8   8
#     4  10  22  38  57  83 113 146 185 229 276 329
#     4  11  23  39  59  84 114 148 188 232 280 333
#     4  10  21  37  57  83 113 145 184 227 273 327
#     4  11  23  39  59  84 114 148 188 232 280 333
#     4  10  21  37  57  83 113 145 184 227 273 327
#     4  10  22  38  57  83 113 146 185 229 276 329
#
# _framework density 20.782964
#
# number of rings (size 3 to 8) (size 9 to 14) (size 15 to 20)
#    0.000    1.667    0.000    4.000    0.000    7.333 
#    0.000    0.000    0.000    0.000    0.000    0.000 
#    0.000    0.000    0.000    0.000    0.000    0.000 
#
# Total GULP energy -268418.175492 kJ/mol
# GULP energy per Si atom -5592.045323 kJ/mol
# Density = 2.073566 g / cm^3
# Si number density = 20.782964 Si / 1000 Ang^3
#
#
#
# Elastic Constant Matrix: (Units=GPa)
#
#
# Indices 1 2 3 4 5 6 
#
# 1 152.4675 95.6045 -20.7547 0.0000 0.0000 0.0000
# 2 95.6045 211.8739 2.4397 0.0000 0.0000 0.0000
# 3 -20.7547 2.4397 15.3667 0.0000 0.0000 0.0000
# 4 0.0000 0.0000 0.0000 13.9965 0.0000 0.0000
# 5 0.0000 0.0000 0.0000 0.0000 40.5311 0.0000
# 6 0.0000 0.0000 0.0000 0.0000 0.0000 48.0457
#
#
#
# Elastic Compliance Matrix: (Units=1/GPa)
#
#
# Indices 1 2 3 4 5 6 
#
# 1 0.012790 -0.005981 0.018224 0.000000 0.000000 0.000000
# 2 -0.005981 0.007525 -0.009273 0.000000 0.000000 0.000000
# 3 0.018224 -0.009273 0.091162 0.000000 0.000000 0.000000
# 4 0.000000 0.000000 0.000000 0.071446 0.000000 0.000000
# 5 0.000000 0.000000 0.000000 0.000000 0.024672 0.000000
# 6 0.000000 0.000000 0.000000 0.000000 0.000000 0.020814
#
#
# Mechanical properties :
#
#
# Convention : Reuss Voigt Hill
#
# Bulk Modulus (GPa) = 8.51665 59.36523 33.94094
# Shear Modulus (GPa) = 19.11252 40.67590 29.89421
#
# Velocity S-wave (km/s) = 3.03582 4.42880 3.79674
# Velocity P-wave (km/s) = 4.04908 7.40126 5.96547
#
# Compressibility (1/GPa) = 0.11741712
#
# Stress axis : x y z
#
# Youngs Moduli (GPa) = 78.18627 132.88273 10.96951
#
# Poissons Ratio (x) = 0.79478 -0.19991
# Poissons Ratio (y) = 0.46764 0.10172
# Poissons Ratio (z) = -1.42487 1.23222
#
# Static dielectric constant tensor:
#      x y z
#    x 1.608540 0.000000 0.000000 
#    y 0.000000 1.742920 0.000000 
#    z 0.000000 0.000000 1.755950 
# 
# From -- ./inp_files/2797.got.cif
#   From: 2010.05.17/outbox.cif.g08.bks.cpg/sg55_2_cif.got.tgz:2797.got - 2010.06.03 13:27:54.
