data_PCOD9427218
_publ_section_title
;
Structure prediction by ZEFSAII (Michael W. Deem and Ramdas Pophale) SiO2 
 PCOD9427218
Probable space group: P B A M
;
_chemical_formula_sum "Si O2"
_cell_formula_units_Z 48
_cell_length_a 9.477919
_cell_length_b 31.712523
_cell_length_c 8.464224
_cell_angle_alpha 90.000000
_cell_angle_beta 90.000000
_cell_angle_gamma 90.000000
_cell_volume 2544.081010
_symmetry_space_group_name_H-M "P B A M"
_symmetry_group_IT_number 55
_symmetry_cell_setting 'orthorhombic'
loop_
_space_group_symop_operation_xyz
x,y,z
-x,-y,z
1/2+x,1/2-y,-z
1/2-x,1/2+y,-z
-x,-y,-z
x,y,-z
1/2-x,1/2+y,z
1/2+x,1/2-y,z
loop_
_atom_site_type_symbol
_atom_site_label
_atom_site_fract_x
_atom_site_fract_y
_atom_site_fract_z
Si Si1 0.087582 0.285436 0.187044
Si Si2 0.090297 0.380234 0.807997
Si Si3 0.912004 0.958896 0.310764
Si Si4 0.416500 0.379160 0.810600
Si Si5 0.899217 0.211266 0.685086
Si Si6 0.406612 0.040445 0.191401
O O1 0.047258 0.332939 0.240008
O O2 0.254332 0.282140 0.219257
O O3 0.004880 0.248963 0.275904
O O4 0.060737 0.281647 0.000000
O O5 0.253380 0.387496 0.760565
O O6 0.987128 0.417204 0.754594
O O7 0.089716 0.380600 0.000000
O O8 0.917816 0.957003 0.500000
O O9 0.750713 0.962220 0.256523
O O10 0.984797 0.917139 0.242285
O O11 0.000000 0.000000 0.257542
O O12 0.458580 0.334198 0.737482
O O13 0.418676 0.375470 0.000000
O O14 0.866478 0.210253 0.500000
O O15 0.500000 0.000000 0.236960
O O16 0.399178 0.041168 0.000000
#
# Coordination Sequence:
#
# PCOD9427218 Si02
#       6
#     8   8   8   8   8   8
#     4  10  20  37  58  81 113 155 198 235 280 343
#     4   8  17  34  57  83 108 138 183 236 280 323
#     4  11  24  39  55  81 117 152 186 228 280 336
#     4  10  20  38  62  84 109 146 190 233 282 341
#     4  11  22  37  57  85 118 150 189 240 295 342
#     4  10  20  36  59  85 111 143 188 236 279 330
#
# _framework density 18.867322999999999
#
# number of rings (size 3 to 8) (size 9 to 14) (size 15 to 20)
#    0.000    2.000    0.000    5.000    0.000    4.333 
#    0.000   10.000    0.000    0.000    0.000    0.000 
#    0.000    0.000    0.000    0.000    0.000    0.000 
#
# Total GULP energy -268110.247037 kJ/mol
# GULP energy per Si atom -5585.630147 kJ/mol
# Density = 1.882438 g / cm^3
# Si number density = 18.867323 Si / 1000 Ang^3
#
#
#
# Elastic Constant Matrix: (Units=GPa)
#
#
# Indices 1 2 3 4 5 6 
#
# 1 95.8936 86.1853 11.3211 0.0000 0.0000 0.0000
# 2 86.1853 160.6723 20.5154 0.0000 0.0000 0.0000
# 3 11.3211 20.5154 37.0549 0.0000 0.0000 0.0000
# 4 0.0000 0.0000 0.0000 19.6019 0.0000 0.0000
# 5 0.0000 0.0000 0.0000 0.0000 10.4677 0.0000
# 6 0.0000 0.0000 0.0000 0.0000 0.0000 40.1036
#
#
#
# Elastic Compliance Matrix: (Units=1/GPa)
#
#
# Indices 1 2 3 4 5 6 
#
# 1 0.020137 -0.010778 -0.000185 0.000000 0.000000 0.000000
# 2 -0.010778 0.012466 -0.003609 0.000000 0.000000 0.000000
# 3 -0.000185 -0.003609 0.029042 0.000000 0.000000 0.000000
# 4 0.000000 0.000000 0.000000 0.051015 0.000000 0.000000
# 5 0.000000 0.000000 0.000000 0.000000 0.095532 0.000000
# 6 0.000000 0.000000 0.000000 0.000000 0.000000 0.024935
#
#
# Mechanical properties :
#
#
# Convention : Reuss Voigt Hill
#
# Bulk Modulus (GPa) = 30.76862 58.85161 44.81012
# Shear Modulus (GPa) = 18.30804 25.74125 22.02464
#
# Velocity S-wave (km/s) = 3.11844 3.69769 3.42035
# Velocity P-wave (km/s) = 5.41382 7.03496 6.27695
#
# Compressibility (1/GPa) = 0.03250064
#
# Stress axis : x y z
#
# Youngs Moduli (GPa) = 49.66055 80.21888 34.43338
#
# Poissons Ratio (x) = 0.86458 0.00637
# Poissons Ratio (y) = 0.53523 0.12427
# Poissons Ratio (z) = 0.00919 0.28950
#
# Static dielectric constant tensor:
#      x y z
#    x 1.616210 0.000000 0.000000 
#    y 0.000000 1.647090 0.000000 
#    z 0.000000 0.000000 1.636210 
# 
# From -- ./inp_files/2827.got.cif
#   From: 2010.05.17/outbox.cif.g08.bks.cpg/sg55_2_cif.got.tgz:2827.got - 2010.06.03 13:27:54.
