data_PCOD9427537
_publ_section_title
;
Structure prediction by ZEFSAII (Michael W. Deem and Ramdas Pophale) SiO2 
 PCOD9427537
Probable space group: P B A M
;
_chemical_formula_sum "Si O2"
_cell_formula_units_Z 64
_cell_length_a 23.532508
_cell_length_b 15.098090
_cell_length_c 9.265809
_cell_angle_alpha 90.000000
_cell_angle_beta 90.000000
_cell_angle_gamma 90.000000
_cell_volume 3292.104168
_symmetry_space_group_name_H-M "P B A M"
_symmetry_group_IT_number 55
_symmetry_cell_setting 'orthorhombic'
loop_
_space_group_symop_operation_xyz
x,y,z
-x,-y,z
1/2+x,1/2-y,-z
1/2-x,1/2+y,-z
-x,-y,-z
x,y,-z
1/2-x,1/2+y,z
1/2+x,1/2-y,z
loop_
_atom_site_type_symbol
_atom_site_label
_atom_site_fract_x
_atom_site_fract_y
_atom_site_fract_z
Si Si1 0.693900 0.803374 0.327791
Si Si2 0.791237 0.510602 0.328770
Si Si3 0.176725 0.994550 0.167227
Si Si4 0.551666 0.562006 0.824803
Si Si5 0.379190 0.835120 0.333988
Si Si6 0.918761 0.256261 0.172399
Si Si7 0.492316 0.101553 0.667382
Si Si8 0.192161 0.205896 0.834680
O O1 0.690202 0.792622 0.500000
O O2 0.691909 0.909175 0.292580
O O3 0.642750 0.754959 0.247152
O O4 0.754357 0.772387 0.266605
O O5 0.781160 0.512182 0.500000
O O6 0.732699 0.536756 0.250915
O O7 0.842097 0.577961 0.296530
O O8 0.180300 0.101271 0.171745
O O9 0.114793 0.966967 0.224359
O O10 0.180612 0.965813 0.000000
O O11 0.500000 0.500000 0.772275
O O12 0.547024 0.666186 0.791018
O O13 0.552139 0.553867 0.000000
O O14 0.364983 0.810784 0.500000
O O15 0.445335 0.856282 0.328271
O O16 0.361151 0.758791 0.225704
O O17 0.950830 0.341257 0.235143
O O18 0.912702 0.260824 0.000000
O O19 0.471623 0.101540 0.500000
O O20 0.500000 0.000000 0.712481
O O21 0.204872 0.229243 0.000000
#
# Coordination Sequence:
#
# PCOD9427537 Si02
#       8
#     8   8   8   8   8   8   8   8
#     4  10  20  38  61  83 117 157 193 234 292 354
#     4   9  19  36  58  84 112 149 189 232 285 347
#     4   9  19  36  58  82 110 149 191 232 286 346
#     4   9  20  38  59  81 113 156 195 237 294 356
#     4  10  21  36  57  84 114 150 193 235 286 353
#     4  11  23  37  61  93 122 151 198 252 297 350
#     4  10  22  42  64  85 117 161 203 241 293 360
#     4  10  21  35  56  86 117 148 190 241 292 347
#
# _framework density 19.440455
#
# number of rings (size 3 to 8) (size 9 to 14) (size 15 to 20)
#    0.000    2.250    0.000    1.875    3.500    4.250 
#    0.000    1.875    0.000    1.875    0.000    0.000 
#    0.000    0.000    0.000    0.000    0.000    0.000 
#
# Total GULP energy -357377.582914 kJ/mol
# GULP energy per Si atom -5584.024733 kJ/mol
# Density = 1.939621 g / cm^3
# Si number density = 19.440455 Si / 1000 Ang^3
#
#
#
# Elastic Constant Matrix: (Units=GPa)
#
#
# Indices 1 2 3 4 5 6 
#
# 1 65.5544 14.8506 21.7644 0.0000 0.0000 0.0000
# 2 14.8506 44.2923 29.2824 0.0000 0.0000 0.0000
# 3 21.7644 29.2824 44.3832 0.0000 0.0000 0.0000
# 4 0.0000 0.0000 0.0000 11.3821 0.0000 0.0000
# 5 0.0000 0.0000 0.0000 0.0000 29.8926 0.0000
# 6 0.0000 0.0000 0.0000 0.0000 0.0000 29.9313
#
#
#
# Elastic Compliance Matrix: (Units=1/GPa)
#
#
# Indices 1 2 3 4 5 6 
#
# 1 0.018224 -0.000358 -0.008700 0.000000 0.000000 0.000000
# 2 -0.000358 0.040051 -0.026248 0.000000 0.000000 0.000000
# 3 -0.008700 -0.026248 0.044115 0.000000 0.000000 0.000000
# 4 0.000000 0.000000 0.000000 0.087857 0.000000 0.000000
# 5 0.000000 0.000000 0.000000 0.000000 0.033453 0.000000
# 6 0.000000 0.000000 0.000000 0.000000 0.000000 0.033410
#
#
# Mechanical properties :
#
#
# Convention : Reuss Voigt Hill
#
# Bulk Modulus (GPa) = 31.47012 31.78053 31.62532
# Shear Modulus (GPa) = 14.77911 20.13002 17.45457
#
# Velocity S-wave (km/s) = 2.76021 3.22136 2.99966
# Velocity P-wave (km/s) = 5.13629 5.49721 5.31981
#
# Compressibility (1/GPa) = 0.03177617
#
# Stress axis : x y z
#
# Youngs Moduli (GPa) = 54.87195 24.96848 22.66803
#
# Poissons Ratio (x) = 0.00895 0.19722
# Poissons Ratio (y) = 0.01967 0.59499
# Poissons Ratio (z) = 0.47740 0.65537
#
# Static dielectric constant tensor:
#      x y z
#    x 1.663520 0.000000 0.000000 
#    y 0.000000 1.699140 0.000000 
#    z 0.000000 0.000000 1.657030 
# 
# From -- ./inp_files/9741.got.cif
#   From: 2010.05.17/outbox.cif.g08.bks.cpg/sg55_5_cif.got.tgz:9741.got - 2010.06.03 13:27:54.
