data_PCOD9427946
_publ_section_title
;
Structure prediction by ZEFSAII (Michael W. Deem and Ramdas Pophale) SiO2 
 PCOD9427946
Probable space group: P B A M
;
_chemical_formula_sum "Si O2"
_cell_formula_units_Z 32
_cell_length_a 11.500521
_cell_length_b 10.049736
_cell_length_c 12.154199
_cell_angle_alpha 90.000000
_cell_angle_beta 90.000000
_cell_angle_gamma 90.000000
_cell_volume 1404.748288
_symmetry_space_group_name_H-M "P B A M"
_symmetry_group_IT_number 55
_symmetry_cell_setting 'orthorhombic'
loop_
_space_group_symop_operation_xyz
x,y,z
-x,-y,z
1/2+x,1/2-y,-z
1/2-x,1/2+y,-z
-x,-y,-z
x,y,-z
1/2-x,1/2+y,z
1/2+x,1/2-y,z
loop_
_atom_site_type_symbol
_atom_site_label
_atom_site_fract_x
_atom_site_fract_y
_atom_site_fract_z
Si Si1 0.598856 0.857681 0.500000
Si Si2 0.823748 0.026210 0.274418
Si Si3 0.876959 0.573832 0.124199
Si Si4 0.984934 0.782272 0.714813
Si Si5 0.221417 0.369002 0.500000
O O1 0.532660 0.798754 0.391039
O O2 0.729205 0.786468 0.500000
O O3 0.616430 0.017576 0.500000
O O4 0.723385 0.993047 0.187686
O O5 0.772357 0.088702 0.383665
O O6 0.907663 0.141984 0.227142
O O7 0.899773 0.902789 0.315297
O O8 0.909066 0.695830 0.202648
O O9 0.000000 0.500000 0.118805
O O10 0.841050 0.607878 0.000000
#
# Coordination Sequence:
#
# PCOD9427946 Si02
#       5
#     4   8   8   8   4
#     4  10  21  40  67 106 143 183 228 272 344 419
#     4  10  23  43  68  97 134 178 220 274 346 415
#     4  11  26  43  65  96 130 172 232 290 335 395
#     4  10  23  43  67  97 136 176 220 276 343 412
#     4  10  21  36  69 102 138 178 218 275 338 412
#
# _framework density 22.779881
#
# number of rings (size 3 to 8) (size 9 to 14) (size 15 to 20)
#    0.000    1.750    0.000    2.250   10.500    6.000 
#    0.000    5.000    0.000    0.000    0.000    0.000 
#    0.000    0.000    0.000    0.000    0.000    0.000 
#
# Total GULP energy -178325.768190 kJ/mol
# GULP energy per Si atom -5572.680256 kJ/mol
# Density = 2.272803 g / cm^3
# Si number density = 22.779881 Si / 1000 Ang^3
#
#
#
# Elastic Constant Matrix: (Units=GPa)
#
#
# Indices 1 2 3 4 5 6 
#
# 1 106.8487 30.8649 36.9934 0.0000 0.0000 0.0000
# 2 30.8649 67.9790 14.5089 0.0000 0.0000 0.0000
# 3 36.9934 14.5089 96.5004 0.0000 0.0000 0.0000
# 4 0.0000 0.0000 0.0000 14.6956 0.0000 0.0000
# 5 0.0000 0.0000 0.0000 0.0000 -28.3407 0.0000
# 6 0.0000 0.0000 0.0000 0.0000 0.0000 -2.8099
#
#
#
# Elastic Compliance Matrix: (Units=1/GPa)
#
#
# Indices 1 2 3 4 5 6 
#
# 1 0.012057 -0.004637 -0.003925 0.000000 0.000000 0.000000
# 2 -0.004637 0.016981 -0.000776 0.000000 0.000000 0.000000
# 3 -0.003925 -0.000776 0.011984 0.000000 0.000000 0.000000
# 4 0.000000 0.000000 0.000000 0.068047 0.000000 0.000000
# 5 0.000000 0.000000 0.000000 0.000000 -0.035285 0.000000
# 6 0.000000 0.000000 0.000000 0.000000 0.000000 -0.355886
#
#
# Mechanical properties :
#
#
# Convention : Reuss Voigt Hill
#
# Bulk Modulus (GPa) = 44.74744 48.45140 46.59942
# Shear Modulus (GPa) = -19.53302 9.30640 -5.11331
#
# Velocity S-wave (km/s) = -2.93143 2.02342 -1.49984
# Velocity P-wave (km/s) = 2.86850 5.17441 4.18347
#
# Compressibility (1/GPa) = 0.02234764
#
# Stress axis : x y z
#
# Youngs Moduli (GPa) = 82.93685 58.88857 83.44501
#
# Poissons Ratio (x) = 0.27305 0.32753
# Poissons Ratio (y) = 0.38456 0.06472
# Poissons Ratio (z) = 0.32553 0.04568
#
# Static dielectric constant tensor:
#      x y z
#    x 2.057440 0.000000 0.000000 
#    y 0.000000 1.946270 0.000000 
#    z 0.000000 0.000000 1.778340 
# 
# From -- ./inp_files/12787.got.cif
#   From: 2010.05.17/outbox.cif.g08.bks.cpg/sg55_7_cif.got.tgz:12787.got - 2010.06.03 13:27:54.
