data_PCOD9427908
_publ_section_title
;
Structure prediction by ZEFSAII (Michael W. Deem and Ramdas Pophale) SiO2 
 PCOD9427908
Probable space group: P B A M
;
_chemical_formula_sum "Si O2"
_cell_formula_units_Z 64
_cell_length_a 17.065409
_cell_length_b 21.064728
_cell_length_c 8.608701
_cell_angle_alpha 90.000000
_cell_angle_beta 90.000000
_cell_angle_gamma 90.000000
_cell_volume 3094.640329
_symmetry_space_group_name_H-M "P B A M"
_symmetry_group_IT_number 55
_symmetry_cell_setting 'orthorhombic'
loop_
_space_group_symop_operation_xyz
x,y,z
-x,-y,z
1/2+x,1/2-y,-z
1/2-x,1/2+y,-z
-x,-y,-z
x,y,-z
1/2-x,1/2+y,z
1/2+x,1/2-y,z
loop_
_atom_site_type_symbol
_atom_site_label
_atom_site_fract_x
_atom_site_fract_y
_atom_site_fract_z
Si Si1 0.227684 0.884925 0.183331
Si Si2 0.034367 0.107745 0.679068
Si Si3 0.340420 0.512325 0.685684
Si Si4 0.614385 0.149492 0.685740
Si Si5 0.174159 0.210960 0.321653
Si Si6 0.944869 0.336667 0.813894
Si Si7 0.099994 0.801770 0.686599
Si Si8 0.781126 0.388644 0.182635
O O1 0.316511 0.892423 0.242689
O O2 0.185946 0.824682 0.264236
O O3 0.179446 0.946653 0.234193
O O4 0.226605 0.876438 0.000000
O O5 0.014043 0.091833 0.500000
O O6 0.079655 0.046465 0.743796
O O7 0.101538 0.161864 0.676916
O O8 0.959426 0.143274 0.747679
O O9 0.346277 0.504047 0.500000
O O10 0.269246 0.560454 0.722745
O O11 0.614387 0.144139 0.500000
O O12 0.640097 0.221593 0.727255
O O13 0.527515 0.139525 0.749176
O O14 0.203461 0.215521 0.500000
O O15 0.239755 0.179151 0.215390
O O16 0.926165 0.266155 0.750561
O O17 0.871372 0.381167 0.770642
O O18 0.948031 0.333509 0.000000
O O19 0.094137 0.799588 0.500000
O O20 0.775847 0.403690 0.000000
#
# Coordination Sequence:
#
# PCOD9427908 Si02
#       8
#     8   8   8   8   8   8   8   8
#     4  12  26  42  58  85 122 158 198 249 308 359
#     4   8  16  33  58  87 116 150 192 243 288 333
#     4  10  21  41  64  85 113 155 208 251 291 348
#     4  11  22  39  62  86 115 156 203 246 297 358
#     4   9  17  33  56  84 114 149 193 238 289 345
#     4  11  23  38  58  91 129 159 191 243 308 360
#     4  11  21  38  62  90 124 161 203 246 293 355
#     4  10  21  36  57  86 119 155 192 238 297 353
#
# _framework density 20.680917999999998
#
# number of rings (size 3 to 8) (size 9 to 14) (size 15 to 20)
#    0.000    1.750    1.250    4.500    0.000    5.500 
#    0.000    5.000    0.000    3.750    0.000    0.000 
#    0.000    0.000    0.000    0.000    0.000    0.000 
#
# Total GULP energy -357621.287423 kJ/mol
# GULP energy per Si atom -5587.832616 kJ/mol
# Density = 2.063385 g / cm^3
# Si number density = 20.680918 Si / 1000 Ang^3
#
#
#
# Elastic Constant Matrix: (Units=GPa)
#
#
# Indices 1 2 3 4 5 6 
#
# 1 93.7883 6.2973 13.0046 0.0000 0.0000 0.0000
# 2 6.2973 43.0381 4.4377 0.0000 0.0000 0.0000
# 3 13.0046 4.4377 43.0833 0.0000 0.0000 0.0000
# 4 0.0000 0.0000 0.0000 21.8824 0.0000 0.0000
# 5 0.0000 0.0000 0.0000 0.0000 40.8051 0.0000
# 6 0.0000 0.0000 0.0000 0.0000 0.0000 29.5746
#
#
#
# Elastic Compliance Matrix: (Units=1/GPa)
#
#
# Indices 1 2 3 4 5 6 
#
# 1 0.011200 -0.001304 -0.003246 0.000000 0.000000 0.000000
# 2 -0.001304 0.023636 -0.002041 0.000000 0.000000 0.000000
# 3 -0.003246 -0.002041 0.024401 0.000000 0.000000 0.000000
# 4 0.000000 0.000000 0.000000 0.045699 0.000000 0.000000
# 5 0.000000 0.000000 0.000000 0.000000 0.024507 0.000000
# 6 0.000000 0.000000 0.000000 0.000000 0.000000 0.033813
#
#
# Mechanical properties :
#
#
# Convention : Reuss Voigt Hill
#
# Bulk Modulus (GPa) = 21.71330 25.26540 23.48935
# Shear Modulus (GPa) = 26.07017 28.86377 27.46697
#
# Velocity S-wave (km/s) = 3.55433 3.73992 3.64831
# Velocity P-wave (km/s) = 5.23129 5.55812 5.39717
#
# Compressibility (1/GPa) = 0.04605472
#
# Stress axis : x y z
#
# Youngs Moduli (GPa) = 89.28562 42.30745 40.98196
#
# Poissons Ratio (x) = 0.05517 0.13304
# Poissons Ratio (y) = 0.11643 0.08364
# Poissons Ratio (z) = 0.28985 0.08635
#
# Static dielectric constant tensor:
#      x y z
#    x 1.761830 0.000000 0.000000 
#    y 0.000000 1.756030 0.000000 
#    z 0.000000 0.000000 1.698940 
# 
# From -- ./inp_files/6703.got.cif
#   From: 2010.05.17/outbox.cif.g08.bks.cpg/sg55_4_cif.got.tgz:6703.got - 2010.06.03 13:27:54.
