data_PCOD9427378
_publ_section_title
;
Structure prediction by ZEFSAII (Michael W. Deem and Ramdas Pophale) SiO2 
 PCOD9427378
Probable space group: P B A M
;
_chemical_formula_sum "Si O2"
_cell_formula_units_Z 64
_cell_length_a 9.928161
_cell_length_b 21.344822
_cell_length_c 15.253738
_cell_angle_alpha 90.000000
_cell_angle_beta 90.000000
_cell_angle_gamma 90.000000
_cell_volume 3232.493285
_symmetry_space_group_name_H-M "P B A M"
_symmetry_group_IT_number 55
_symmetry_cell_setting 'orthorhombic'
loop_
_space_group_symop_operation_xyz
x,y,z
-x,-y,z
1/2+x,1/2-y,-z
1/2-x,1/2+y,-z
-x,-y,-z
x,y,-z
1/2-x,1/2+y,z
1/2+x,1/2-y,z
loop_
_atom_site_type_symbol
_atom_site_label
_atom_site_fract_x
_atom_site_fract_y
_atom_site_fract_z
Si Si1 0.401999 0.302040 0.895907
Si Si2 0.732754 0.060119 0.310537
Si Si3 0.905112 0.691108 0.893693
Si Si4 0.140834 0.200474 0.605780
Si Si5 0.210909 0.074722 0.697998
Si Si6 0.960676 0.064779 0.173559
Si Si7 0.518095 0.930250 0.800933
Si Si8 0.666942 0.687404 0.394364
O O1 0.248639 0.299957 0.861751
O O2 0.499870 0.247754 0.861885
O O3 0.461138 0.370833 0.878506
O O4 0.393437 0.292636 0.000000
O O5 0.577514 0.068657 0.285312
O O6 0.788240 0.119033 0.362811
O O7 0.814652 0.058469 0.218384
O O8 0.761600 0.991553 0.350211
O O9 0.965623 0.625739 0.860789
O O10 0.902842 0.691063 0.000000
O O11 0.140417 0.201001 0.500000
O O12 0.205704 0.135903 0.638654
O O13 0.228081 0.259782 0.636146
O O14 0.985145 0.202248 0.635674
O O15 0.068514 0.069989 0.747765
O O16 0.329585 0.079877 0.769707
O O17 0.000000 0.000000 0.125860
O O18 0.500000 0.000000 0.840406
O O19 0.666551 0.687985 0.500000
#
# Coordination Sequence:
#
# PCOD9427378 Si02
#       8
#     8   8   8   8   8   8   8   8
#     4  10  22  39  58  83 114 149 188 231 280 332
#     4  10  20  39  58  82 114 143 186 233 279 327
#     4  10  22  40  59  82 114 149 188 232 278 333
#     4  10  22  39  57  82 114 148 187 229 277 333
#     4  10  22  37  58  86 112 145 186 232 277 331
#     4  10  20  37  59  82 113 145 184 235 278 329
#     4  10  22  39  59  84 114 148 187 231 281 333
#     4  10  22  38  58  83 113 149 187 230 278 330
#
# _framework density 19.798957999999999
#
# number of rings (size 3 to 8) (size 9 to 14) (size 15 to 20)
#    0.000    2.000    2.500    0.000    3.500    3.000 
#    0.000    1.250    0.000    2.250    0.000    0.000 
#    0.000    0.000    0.000    0.000    0.000    0.000 
#
# Total GULP energy -357201.854466 kJ/mol
# GULP energy per Si atom -5581.278976 kJ/mol
# Density = 1.975389 g / cm^3
# Si number density = 19.798958 Si / 1000 Ang^3
#
#
#
# Elastic Constant Matrix: (Units=GPa)
#
#
# Indices 1 2 3 4 5 6 
#
# 1 86.6148 74.6592 13.5018 0.0000 0.0000 0.0000
# 2 74.6592 191.1115 23.4071 0.0000 0.0000 0.0000
# 3 13.5018 23.4071 12.7799 0.0000 0.0000 0.0000
# 4 0.0000 0.0000 0.0000 46.1806 0.0000 0.0000
# 5 0.0000 0.0000 0.0000 0.0000 14.1361 0.0000
# 6 0.0000 0.0000 0.0000 0.0000 0.0000 35.1966
#
#
#
# Elastic Compliance Matrix: (Units=1/GPa)
#
#
# Indices 1 2 3 4 5 6 
#
# 1 0.018007 -0.006065 -0.007916 0.000000 0.000000 0.000000
# 2 -0.006065 0.008789 -0.009689 0.000000 0.000000 0.000000
# 3 -0.007916 -0.009689 0.104357 0.000000 0.000000 0.000000
# 4 0.000000 0.000000 0.000000 0.021654 0.000000 0.000000
# 5 0.000000 0.000000 0.000000 0.000000 0.070741 0.000000
# 6 0.000000 0.000000 0.000000 0.000000 0.000000 0.028412
#
#
# Mechanical properties :
#
#
# Convention : Reuss Voigt Hill
#
# Bulk Modulus (GPa) = 11.93140 57.07140 34.50140
# Shear Modulus (GPa) = 15.27946 31.03185 23.15566
#
# Velocity S-wave (km/s) = 2.78102 3.96327 3.42356
# Velocity P-wave (km/s) = 4.04369 7.05913 5.75251
#
# Compressibility (1/GPa) = 0.08381246
#
# Stress axis : x y z
#
# Youngs Moduli (GPa) = 55.53302 113.78271 9.58253
#
# Poissons Ratio (x) = 0.69011 0.07585
# Poissons Ratio (y) = 0.33682 0.09285
# Poissons Ratio (z) = 0.43958 1.10246
#
# Static dielectric constant tensor:
#      x y z
#    x 1.689640 0.000000 0.000000 
#    y 0.000000 1.706570 0.000000 
#    z 0.000000 0.000000 1.680880 
# 
# From -- ./inp_files/21081.got.cif
#   From: 2010.05.17/outbox.cif.g08.bks.cpg/sg55_11_cif.got.tgz:21081.got - 2010.06.03 13:27:54.
