data_PCOD9427841
_publ_section_title
;
Structure prediction by ZEFSAII (Michael W. Deem and Ramdas Pophale) SiO2 
 PCOD9427841
Probable space group: P B A M
;
_chemical_formula_sum "Si O2"
_cell_formula_units_Z 56
_cell_length_a 24.197521
_cell_length_b 13.573405
_cell_length_c 7.567694
_cell_angle_alpha 90.000000
_cell_angle_beta 90.000000
_cell_angle_gamma 90.000000
_cell_volume 2485.554248
_symmetry_space_group_name_H-M "P B A M"
_symmetry_group_IT_number 55
_symmetry_cell_setting 'orthorhombic'
loop_
_space_group_symop_operation_xyz
x,y,z
-x,-y,z
1/2+x,1/2-y,-z
1/2-x,1/2+y,-z
-x,-y,-z
x,y,-z
1/2-x,1/2+y,z
1/2+x,1/2-y,z
loop_
_atom_site_type_symbol
_atom_site_label
_atom_site_fract_x
_atom_site_fract_y
_atom_site_fract_z
Si Si1 0.030954 0.901775 0.283752
Si Si2 0.035560 0.294237 0.287081
Si Si3 0.158248 0.269389 0.299022
Si Si4 0.929311 0.391544 0.792099
Si Si5 0.265737 0.176171 0.284974
Si Si6 0.331969 0.979068 0.792239
Si Si7 0.364259 0.302677 0.700944
O O1 0.033136 0.903231 0.500000
O O2 0.994995 0.806751 0.233345
O O3 0.093958 0.883498 0.220929
O O4 0.000000 0.000000 0.225808
O O5 0.037107 0.299620 0.500000
O O6 0.097861 0.286368 0.218065
O O7 0.994873 0.382268 0.229522
O O8 0.148504 0.234915 0.500000
O O9 0.203929 0.197111 0.220395
O O10 0.184328 0.378543 0.301005
O O11 0.892957 0.484020 0.730036
O O12 0.902231 0.296388 0.698651
O O13 0.917091 0.381349 0.000000
O O14 0.265792 0.181727 0.500000
O O15 0.291358 0.070951 0.237168
O O16 0.307630 0.261773 0.218630
O O17 0.334084 0.957979 0.000000
O O18 0.352003 0.333307 0.500000
#
# Coordination Sequence:
#
# PCOD9427841 Si02
#       7
#     8   8   8   8   8   8   8
#     4   8  13  24  44  71  98 125 161 204 250 307
#     4   9  18  32  49  73 105 138 170 212 269 320
#     4  10  21  36  53  78 109 140 176 223 272 316
#     4   9  17  30  50  74  99 130 169 211 256 309
#     4   9  18  35  55  76 102 135 177 224 264 309
#     4  10  21  36  55  78 103 139 180 219 267 323
#     4   8  14  27  48  71  95 128 167 206 254 305
#
# _framework density 22.530186
#
# number of rings (size 3 to 8) (size 9 to 14) (size 15 to 20)
#    0.000    3.000    0.000    1.714    0.000    3.429 
#    2.571    2.857    0.000    6.857    0.000    0.000 
#    0.000    0.000    0.000    0.000    0.000    0.000 
#
# Total GULP energy -312228.252385 kJ/mol
# GULP energy per Si atom -5575.504507 kJ/mol
# Density = 2.247891 g / cm^3
# Si number density = 22.530186 Si / 1000 Ang^3
#
#
#
# Elastic Constant Matrix: (Units=GPa)
#
#
# Indices 1 2 3 4 5 6 
#
# 1 113.9445 6.6291 0.8532 0.0000 0.0000 0.0000
# 2 6.6291 43.8719 -6.3757 0.0000 0.0000 0.0000
# 3 0.8532 -6.3757 65.8119 0.0000 0.0000 0.0000
# 4 0.0000 0.0000 0.0000 35.0083 0.0000 0.0000
# 5 0.0000 0.0000 0.0000 0.0000 -17.7180 0.0000
# 6 0.0000 0.0000 0.0000 0.0000 0.0000 30.1801
#
#
#
# Elastic Compliance Matrix: (Units=1/GPa)
#
#
# Indices 1 2 3 4 5 6 
#
# 1 0.008858 -0.001374 -0.000248 0.000000 0.000000 0.000000
# 2 -0.001374 0.023332 0.002278 0.000000 0.000000 0.000000
# 3 -0.000248 0.002278 0.015419 0.000000 0.000000 0.000000
# 4 0.000000 0.000000 0.000000 0.028565 0.000000 0.000000
# 5 0.000000 0.000000 0.000000 0.000000 -0.056440 0.000000
# 6 0.000000 0.000000 0.000000 0.000000 0.000000 0.033134
#
#
# Mechanical properties :
#
#
# Convention : Reuss Voigt Hill
#
# Bulk Modulus (GPa) = 20.44130 25.09351 22.76741
# Shear Modulus (GPa) = 73.67697 24.32886 49.00292
#
# Velocity S-wave (km/s) = 5.72472 3.28965 4.66874
# Velocity P-wave (km/s) = 7.26561 5.05875 6.26020
#
# Compressibility (1/GPa) = 0.04892057
#
# Stress axis : x y z
#
# Youngs Moduli (GPa) = 112.89202 42.85885 64.85612
#
# Poissons Ratio (x) = 0.05891 0.01608
# Poissons Ratio (y) = 0.15517 -0.14775
# Poissons Ratio (z) = 0.02800 -0.09764
#
# Static dielectric constant tensor:
#      x y z
#    x 1.897720 0.000000 0.000000 
#    y 0.000000 1.816740 0.000000 
#    z 0.000000 0.000000 1.837870 
# 
# From -- ./inp_files/8725.got.cif
#   From: 2010.05.17/outbox.cif.g08.bks.cpg/sg55_5_cif.got.tgz:8725.got - 2010.06.03 13:27:54.
