data_PCOD9427336
_publ_section_title
;
Structure prediction by ZEFSAII (Michael W. Deem and Ramdas Pophale) SiO2 
 PCOD9427336
Probable space group: P B A M
;
_chemical_formula_sum "Si O2"
_cell_formula_units_Z 58
_cell_length_a 26.364985
_cell_length_b 11.293800
_cell_length_c 9.667064
_cell_angle_alpha 90.000000
_cell_angle_beta 90.000000
_cell_angle_gamma 90.000000
_cell_volume 2878.473364
_symmetry_space_group_name_H-M "P B A M"
_symmetry_group_IT_number 55
_symmetry_cell_setting 'orthorhombic'
loop_
_space_group_symop_operation_xyz
x,y,z
-x,-y,z
1/2+x,1/2-y,-z
1/2-x,1/2+y,-z
-x,-y,-z
x,y,-z
1/2-x,1/2+y,z
1/2+x,1/2-y,z
loop_
_atom_site_type_symbol
_atom_site_label
_atom_site_fract_x
_atom_site_fract_y
_atom_site_fract_z
Si Si1 0.906364 0.003592 0.781082
Si Si2 0.000000 0.000000 0.000000
Si Si3 0.624021 0.249035 0.333793
Si Si4 0.207366 0.430068 0.665161
Si Si5 0.528356 0.114855 0.336046
Si Si6 0.152819 0.633044 0.160759
Si Si7 0.069344 0.755690 0.344835
Si Si8 0.299217 0.385606 0.149957
O O1 0.891075 0.875601 0.724667
O O2 0.920357 0.105568 0.670532
O O3 0.854436 0.054588 0.846645
O O4 0.954605 0.997131 0.881193
O O5 0.619390 0.255441 0.500000
O O6 0.679168 0.194960 0.304211
O O7 0.582468 0.153801 0.280101
O O8 0.206348 0.449281 0.500000
O O9 0.176180 0.530123 0.746244
O O10 0.263641 0.427674 0.726638
O O11 0.535911 0.090733 0.500000
O O12 0.489319 0.223321 0.323007
O O13 0.500000 0.000000 0.276853
O O14 0.102148 0.683626 0.233475
O O15 0.190724 0.745561 0.161974
O O16 0.144373 0.600189 0.000000
O O17 0.083036 0.715320 0.500000
O O18 0.275059 0.411337 0.000000
#
# Coordination Sequence:
#
# PCOD9427336 Si02
#       8
#     8   2   8   8   8   8   8   8
#     4  11  23  41  67  95 134 176 225 282 337 416
#     4  12  24  44  66  96 134 184 226 268 346 426
#     4  10  22  40  61  98 136 171 221 285 344 390
#     4  11  24  41  67  97 133 174 225 284 337 401
#     4   9  17  32  57  87 127 170 212 265 332 394
#     4  10  22  41  64  92 130 175 223 274 336 408
#     4  10  20  36  65  95 126 176 227 276 338 403
#     4  10  23  44  64  91 128 176 220 271 338 400
#
# _framework density 20.149571000000002
#
# number of rings (size 3 to 8) (size 9 to 14) (size 15 to 20)
#    0.000    1.793    0.690    2.897    2.897    5.517 
#    2.483    2.759    0.000    1.241    0.000    0.000 
#    0.000    0.000    0.000    0.000    0.000    0.000 
#
# Total GULP energy -323090.978994 kJ/mol
# GULP energy per Si atom -5570.534121 kJ/mol
# Density = 2.010371 g / cm^3
# Si number density = 20.149571 Si / 1000 Ang^3
#
#
#
# Elastic Constant Matrix: (Units=GPa)
#
#
# Indices 1 2 3 4 5 6 
#
# 1 104.9952 36.9078 54.9370 0.0000 0.0000 0.0000
# 2 36.9078 90.2683 24.9796 0.0000 0.0000 0.0000
# 3 54.9370 24.9796 105.1988 0.0000 0.0000 0.0000
# 4 0.0000 0.0000 0.0000 3.0823 0.0000 0.0000
# 5 0.0000 0.0000 0.0000 0.0000 27.3294 0.0000
# 6 0.0000 0.0000 0.0000 0.0000 0.0000 15.4874
#
#
#
# Elastic Compliance Matrix: (Units=1/GPa)
#
#
# Indices 1 2 3 4 5 6 
#
# 1 0.014377 -0.004068 -0.006542 0.000000 0.000000 0.000000
# 2 -0.004068 0.013008 -0.000964 0.000000 0.000000 0.000000
# 3 -0.006542 -0.000964 0.013151 0.000000 0.000000 0.000000
# 4 0.000000 0.000000 0.000000 0.324434 0.000000 0.000000
# 5 0.000000 0.000000 0.000000 0.000000 0.036591 0.000000
# 6 0.000000 0.000000 0.000000 0.000000 0.000000 0.064568
#
#
# Mechanical properties :
#
#
# Convention : Reuss Voigt Hill
#
# Bulk Modulus (GPa) = 57.51224 59.34566 58.42895
# Shear Modulus (GPa) = 10.09947 21.42236 15.76091
#
# Velocity S-wave (km/s) = 2.24123 3.26416 2.79981
# Velocity P-wave (km/s) = 5.94156 6.61232 6.28590
#
# Compressibility (1/GPa) = 0.01738760
#
# Stress axis : x y z
#
# Youngs Moduli (GPa) = 69.55395 76.87428 76.03822
#
# Poissons Ratio (x) = 0.31273 0.49746
# Poissons Ratio (y) = 0.28295 0.07333
# Poissons Ratio (z) = 0.45503 0.07414
#
# Static dielectric constant tensor:
#      x y z
#    x 1.719570 0.000000 0.000000 
#    y 0.000000 1.729850 0.000000 
#    z 0.000000 0.000000 1.696910 
# 
# From -- ./inp_files/10188.got.cif
#   From: 2010.05.17/outbox.cif.g08.bks.cpg/sg55_6_cif.got.tgz:10188.got - 2010.06.03 13:27:54.
