data_PCOD9427173
_publ_section_title
;
Structure prediction by ZEFSAII (Michael W. Deem and Ramdas Pophale) SiO2 
 PCOD9427173
Probable space group: P B A M
;
_chemical_formula_sum "Si O2"
_cell_formula_units_Z 48
_cell_length_a 27.661342
_cell_length_b 10.563227
_cell_length_c 7.720985
_cell_angle_alpha 90.000000
_cell_angle_beta 90.000000
_cell_angle_gamma 90.000000
_cell_volume 2256.018038
_symmetry_space_group_name_H-M "P B A M"
_symmetry_group_IT_number 55
_symmetry_cell_setting 'orthorhombic'
loop_
_space_group_symop_operation_xyz
x,y,z
-x,-y,z
1/2+x,1/2-y,-z
1/2-x,1/2+y,-z
-x,-y,-z
x,y,-z
1/2-x,1/2+y,z
1/2+x,1/2-y,z
loop_
_atom_site_type_symbol
_atom_site_label
_atom_site_fract_x
_atom_site_fract_y
_atom_site_fract_z
Si Si1 0.472238 0.625944 0.787664
Si Si2 0.688019 0.599363 0.700179
Si Si3 0.640011 0.866202 0.208499
Si Si4 0.529593 0.876978 0.788226
Si Si5 0.199606 0.389056 0.210567
Si Si6 0.636911 0.346783 0.799648
O O1 0.500000 0.500000 0.730135
O O2 0.502039 0.749818 0.736009
O O3 0.416848 0.634847 0.725897
O O4 0.471531 0.621843 0.000000
O O5 0.679591 0.573105 0.500000
O O6 0.662192 0.730485 0.747343
O O7 0.744957 0.613048 0.733099
O O8 0.665546 0.478615 0.795770
O O9 0.584987 0.878332 0.271145
O O10 0.673172 0.982459 0.269225
O O11 0.638680 0.874926 0.000000
O O12 0.500000 0.000000 0.732126
O O13 0.530314 0.878075 0.000000
O O14 0.169535 0.266797 0.273742
O O15 0.200286 0.387643 0.000000
O O16 0.628980 0.310284 0.000000
#
# Coordination Sequence:
#
# PCOD9427173 Si02
#       6
#     8   8   8   8   8   8
#     4   9  16  27  48  79 110 138 169 208 257 313
#     4  12  25  38  54  78 109 147 189 229 271 321
#     4  10  20  36  59  85 113 144 178 222 275 328
#     4   9  16  28  51  84 114 136 167 216 270 322
#     4  10  21  37  58  83 109 140 181 227 276 328
#     4  10  20  36  58  83 111 143 180 223 271 322
#
# _framework density 21.276425
#
# number of rings (size 3 to 8) (size 9 to 14) (size 15 to 20)
#    0.000    2.000    0.000    4.500    0.000   12.000 
#    0.000    0.000    0.000    5.000    0.000    0.000 
#    0.000    0.000    0.000    0.000    0.000    0.000 
#
# Total GULP energy -268294.412995 kJ/mol
# GULP energy per Si atom -5589.466937 kJ/mol
# Density = 2.122800 g / cm^3
# Si number density = 21.276425 Si / 1000 Ang^3
#
#
#
# Elastic Constant Matrix: (Units=GPa)
#
#
# Indices 1 2 3 4 5 6 
#
# 1 160.7937 47.7637 -6.6890 0.0000 0.0000 0.0000
# 2 47.7637 122.8350 -9.8628 0.0000 0.0000 0.0000
# 3 -6.6890 -9.8628 31.7916 0.0000 0.0000 0.0000
# 4 0.0000 0.0000 0.0000 175.3902 0.0000 0.0000
# 5 0.0000 0.0000 0.0000 0.0000 3.3341 0.0000
# 6 0.0000 0.0000 0.0000 0.0000 0.0000 38.2973
#
#
#
# Elastic Compliance Matrix: (Units=1/GPa)
#
#
# Indices 1 2 3 4 5 6 
#
# 1 0.007044 -0.002687 0.000649 0.000000 0.000000 0.000000
# 2 -0.002687 0.009374 0.002343 0.000000 0.000000 0.000000
# 3 0.000649 0.002343 0.032318 0.000000 0.000000 0.000000
# 4 0.000000 0.000000 0.000000 0.005702 0.000000 0.000000
# 5 0.000000 0.000000 0.000000 0.000000 0.299927 0.000000
# 6 0.000000 0.000000 0.000000 0.000000 0.000000 0.026111
#
#
# Mechanical properties :
#
#
# Convention : Reuss Voigt Hill
#
# Bulk Modulus (GPa) = 20.26558 41.98267 31.12412
# Shear Modulus (GPa) = 12.61620 62.35156 37.48388
#
# Velocity S-wave (km/s) = 2.43773 5.41933 4.20188
# Velocity P-wave (km/s) = 4.17959 7.67682 6.18072
#
# Compressibility (1/GPa) = 0.04934476
#
# Stress axis : x y z
#
# Youngs Moduli (GPa) = 141.95837 106.67849 30.94242
#
# Poissons Ratio (x) = 0.28665 -0.02007
# Poissons Ratio (y) = 0.38145 -0.07249
# Poissons Ratio (z) = -0.09206 -0.24992
#
# Static dielectric constant tensor:
#      x y z
#    x 1.726940 0.000000 0.000000 
#    y 0.000000 1.734280 0.000000 
#    z 0.000000 0.000000 1.805020 
# 
# From -- ./inp_files/10534.got.cif
#   From: 2010.05.17/outbox.cif.g08.bks.cpg/sg55_6_cif.got.tgz:10534.got - 2010.06.03 13:27:54.
