data_PCOD9427577
_publ_section_title
;
Structure prediction by ZEFSAII (Michael W. Deem and Ramdas Pophale) SiO2 
 PCOD9427577
Probable space group: P B A M
;
_chemical_formula_sum "Si O2"
_cell_formula_units_Z 32
_cell_length_a 5.055965
_cell_length_b 23.117842
_cell_length_c 13.016547
_cell_angle_alpha 90.000000
_cell_angle_beta 90.000000
_cell_angle_gamma 90.000000
_cell_volume 1521.413063
_symmetry_space_group_name_H-M "P B A M"
_symmetry_group_IT_number 55
_symmetry_cell_setting 'orthorhombic'
loop_
_space_group_symop_operation_xyz
x,y,z
-x,-y,z
1/2+x,1/2-y,-z
1/2-x,1/2+y,-z
-x,-y,-z
x,y,-z
1/2-x,1/2+y,z
1/2+x,1/2-y,z
loop_
_atom_site_type_symbol
_atom_site_label
_atom_site_fract_x
_atom_site_fract_y
_atom_site_fract_z
Si Si1 0.747042 0.957703 0.000000
Si Si2 0.615149 0.707194 0.500000
Si Si3 0.555495 0.710646 0.112449
Si Si4 0.127122 0.564049 0.228554
Si Si5 0.396713 0.372148 0.298495
O O1 0.716473 0.926261 0.109604
O O2 0.500000 0.000000 0.000000
O O3 0.000000 0.000000 0.000000
O O4 0.367849 0.750786 0.500000
O O5 0.611827 0.665190 0.401490
O O6 0.348362 0.763054 0.117388
O O7 0.508509 0.670034 0.207852
O O8 0.524613 0.682149 0.000000
O O9 0.387134 0.576345 0.296812
O O10 0.000000 0.500000 0.235433
O O11 0.891846 0.605512 0.265790
#
# Coordination Sequence:
#
# PCOD9427577 Si02
#       5
#     4   4   8   8   8
#     4  10  20  38  62  92 132 180 216 262 318 378
#     4  12  26  48  73  98 129 170 230 286 332 400
#     4  10  21  37  58  88 125 159 204 267 333 392
#     4  11  24  41  64  97 138 173 223 269 324 395
#     4  12  24  41  68  95 128 176 226 264 341 388
#
# _framework density 21.033078
#
# number of rings (size 3 to 8) (size 9 to 14) (size 15 to 20)
#    0.000    1.000    0.000    8.250    3.500    0.000 
#    0.000    3.750    0.000    0.000    0.000    0.000 
#    0.000    0.000    0.000    0.000    0.000    0.000 
#
# Total GULP energy -178864.113662 kJ/mol
# GULP energy per Si atom -5589.503552 kJ/mol
# Density = 2.098521 g / cm^3
# Si number density = 21.033078 Si / 1000 Ang^3
#
#
#
# Elastic Constant Matrix: (Units=GPa)
#
#
# Indices 1 2 3 4 5 6 
#
# 1 147.3134 39.8631 49.7616 0.0000 0.0000 0.0000
# 2 39.8631 75.9759 94.7848 0.0000 0.0000 0.0000
# 3 49.7616 94.7848 177.3378 0.0000 0.0000 0.0000
# 4 0.0000 0.0000 0.0000 51.0597 0.0000 0.0000
# 5 0.0000 0.0000 0.0000 0.0000 21.8826 0.0000
# 6 0.0000 0.0000 0.0000 0.0000 0.0000 52.6926
#
#
#
# Elastic Compliance Matrix: (Units=1/GPa)
#
#
# Indices 1 2 3 4 5 6 
#
# 1 0.007912 -0.004146 -0.000004 0.000000 0.000000 0.000000
# 2 -0.004146 0.041676 -0.021112 0.000000 0.000000 0.000000
# 3 -0.000004 -0.021112 0.016924 0.000000 0.000000 0.000000
# 4 0.000000 0.000000 0.000000 0.019585 0.000000 0.000000
# 5 0.000000 0.000000 0.000000 0.000000 0.045698 0.000000
# 6 0.000000 0.000000 0.000000 0.000000 0.000000 0.018978
#
#
# Mechanical properties :
#
#
# Convention : Reuss Voigt Hill
#
# Bulk Modulus (GPa) = 62.54815 85.49401 74.02108
# Shear Modulus (GPa) = 24.19844 39.54150 31.86997
#
# Velocity S-wave (km/s) = 3.39557 4.34056 3.89682
# Velocity P-wave (km/s) = 6.72129 8.11519 7.45091
#
# Compressibility (1/GPa) = 0.01598768
#
# Stress axis : x y z
#
# Youngs Moduli (GPa) = 126.39800 23.99488 59.08775
#
# Poissons Ratio (x) = 0.09948 0.00024
# Poissons Ratio (y) = 0.52405 1.24744
# Poissons Ratio (z) = 0.00051 0.50657
#
# Static dielectric constant tensor:
#      x y z
#    x 1.745340 0.000000 0.000000 
#    y 0.000000 1.778870 0.000000 
#    z 0.000000 0.000000 1.746940 
# 
# From -- ./inp_files/11220.got.cif
#   From: 2010.05.17/outbox.cif.g08.bks.cpg/sg55_6_cif.got.tgz:11220.got - 2010.06.03 13:27:54.
