data_PCOD9427031
_publ_section_title
;
Structure prediction by ZEFSAII (Michael W. Deem and Ramdas Pophale) SiO2 
 PCOD9427031
Probable space group: P B A M
;
_chemical_formula_sum "Si O2"
_cell_formula_units_Z 64
_cell_length_a 8.867182
_cell_length_b 20.345455
_cell_length_c 18.889854
_cell_angle_alpha 90.000000
_cell_angle_beta 90.000000
_cell_angle_gamma 90.000000
_cell_volume 3407.859102
_symmetry_space_group_name_H-M "P B A M"
_symmetry_group_IT_number 55
_symmetry_cell_setting 'orthorhombic'
loop_
_space_group_symop_operation_xyz
x,y,z
-x,-y,z
1/2+x,1/2-y,-z
1/2-x,1/2+y,-z
-x,-y,-z
x,y,-z
1/2-x,1/2+y,z
1/2+x,1/2-y,z
loop_
_atom_site_type_symbol
_atom_site_label
_atom_site_fract_x
_atom_site_fract_y
_atom_site_fract_z
Si Si1 0.389503 0.172847 0.914218
Si Si2 0.617208 0.556917 0.914772
Si Si3 0.670281 0.156955 0.704898
Si Si4 0.544052 0.309226 0.086057
Si Si5 0.034940 0.775379 0.336444
Si Si6 0.988616 0.577362 0.416248
Si Si7 0.420723 0.934377 0.166320
Si Si8 0.749774 0.823301 0.417078
O O1 0.216171 0.180616 0.891652
O O2 0.477689 0.239063 0.892590
O O3 0.466470 0.109867 0.880081
O O4 0.394759 0.167836 0.000000
O O5 0.500000 0.500000 0.894454
O O6 0.555742 0.628486 0.892364
O O7 0.779235 0.545760 0.881627
O O8 0.628374 0.556636 0.000000
O O9 0.557033 0.219563 0.706262
O O10 0.841978 0.182164 0.705084
O O11 0.635785 0.109840 0.769563
O O12 0.628412 0.116803 0.633125
O O13 0.544009 0.308916 0.000000
O O14 0.138719 0.735692 0.392785
O O15 0.904374 0.817434 0.373938
O O16 0.952904 0.585655 0.500000
O O17 0.151317 0.611496 0.403877
O O18 0.000000 0.500000 0.400716
O O19 0.500000 0.000000 0.192945
O O20 0.781797 0.817780 0.500000
#
# Coordination Sequence:
#
# PCOD9427031 Si02
#       8
#     8   8   8   8   8   8   8   8
#     4  10  20  35  58  86 113 144 185 230 277 333
#     4  10  21  39  61  85 114 146 186 235 284 340
#     4  10  22  39  56  81 113 144 185 231 278 339
#     4   9  18  34  56  84 115 146 183 230 281 328
#     4   9  19  35  55  80 110 145 181 226 287 334
#     4   9  18  35  58  81 111 153 191 226 274 328
#     4  12  25  39  57  81 111 150 189 230 283 338
#     4   9  16  29  55  87 113 138 178 231 280 331
#
# _framework density 18.780118999999999
#
# number of rings (size 3 to 8) (size 9 to 14) (size 15 to 20)
#    0.000    2.250    0.000    2.625    0.000    9.500 
#    0.000    8.125    0.000    2.250    0.000    0.000 
#    0.000    0.000    0.000    0.000    0.000    0.000 
#
# Total GULP energy -357361.431223 kJ/mol
# GULP energy per Si atom -5583.772363 kJ/mol
# Density = 1.873737 g / cm^3
# Si number density = 18.780119 Si / 1000 Ang^3
#
#
#
# Elastic Constant Matrix: (Units=GPa)
#
#
# Indices 1 2 3 4 5 6 
#
# 1 100.7177 34.3966 18.7965 0.0000 0.0000 0.0000
# 2 34.3966 101.1757 27.7636 0.0000 0.0000 0.0000
# 3 18.7965 27.7636 31.8875 0.0000 0.0000 0.0000
# 4 0.0000 0.0000 0.0000 24.2475 0.0000 0.0000
# 5 0.0000 0.0000 0.0000 0.0000 -18.5131 0.0000
# 6 0.0000 0.0000 0.0000 0.0000 0.0000 30.2475
#
#
#
# Elastic Compliance Matrix: (Units=1/GPa)
#
#
# Indices 1 2 3 4 5 6 
#
# 1 0.011707 -0.002741 -0.004514 0.000000 0.000000 0.000000
# 2 -0.002741 0.013629 -0.010250 0.000000 0.000000 0.000000
# 3 -0.004514 -0.010250 0.042946 0.000000 0.000000 0.000000
# 4 0.000000 0.000000 0.000000 0.041241 0.000000 0.000000
# 5 0.000000 0.000000 0.000000 0.000000 -0.054016 0.000000
# 6 0.000000 0.000000 0.000000 0.000000 0.000000 0.033061
#
#
# Mechanical properties :
#
#
# Convention : Reuss Voigt Hill
#
# Bulk Modulus (GPa) = 30.05686 43.96605 37.01146
# Shear Modulus (GPa) = 37.12798 17.38464 27.25631
#
# Velocity S-wave (km/s) = 4.45115 3.04582 3.81378
# Velocity P-wave (km/s) = 6.51585 5.98591 6.25650
#
# Compressibility (1/GPa) = 0.03327027
#
# Stress axis : x y z
#
# Youngs Moduli (GPa) = 85.41567 73.37559 23.28525
#
# Poissons Ratio (x) = 0.20115 0.10511
# Poissons Ratio (y) = 0.23416 0.23867
# Poissons Ratio (z) = 0.38558 0.75210
#
# Static dielectric constant tensor:
#      x y z
#    x 1.620700 0.000000 0.000000 
#    y 0.000000 1.639720 0.000000 
#    z 0.000000 0.000000 1.649630 
# 
# From -- ./inp_files/22736.got.cif
#   From: 2010.05.17/outbox.cif.g08.bks.cpg/sg55_12_cif.got.tgz:22736.got - 2010.06.03 13:27:54.
