data_PCOD9427311
_publ_section_title
;
Structure prediction by ZEFSAII (Michael W. Deem and Ramdas Pophale) SiO2 
 PCOD9427311
Probable space group: P B A M
;
_chemical_formula_sum "Si O2"
_cell_formula_units_Z 64
_cell_length_a 12.951763
_cell_length_b 28.537313
_cell_length_c 8.642816
_cell_angle_alpha 90.000000
_cell_angle_beta 90.000000
_cell_angle_gamma 90.000000
_cell_volume 3194.458384
_symmetry_space_group_name_H-M "P B A M"
_symmetry_group_IT_number 55
_symmetry_cell_setting 'orthorhombic'
loop_
_space_group_symop_operation_xyz
x,y,z
-x,-y,z
1/2+x,1/2-y,-z
1/2-x,1/2+y,-z
-x,-y,-z
x,y,-z
1/2-x,1/2+y,z
1/2+x,1/2-y,z
loop_
_atom_site_type_symbol
_atom_site_label
_atom_site_fract_x
_atom_site_fract_y
_atom_site_fract_z
Si Si1 0.821559 0.702783 0.685966
Si Si2 0.027295 0.654251 0.814662
Si Si3 0.246120 0.952292 0.316989
Si Si4 0.530935 0.051692 0.184325
Si Si5 0.264065 0.197051 0.682318
Si Si6 0.596776 0.465770 0.682148
Si Si7 0.377134 0.360848 0.316508
Si Si8 0.592536 0.365301 0.178123
O O1 0.837126 0.703904 0.500000
O O2 0.787445 0.754447 0.739319
O O3 0.722961 0.670045 0.717719
O O4 0.924426 0.681090 0.758721
O O5 0.128789 0.681402 0.758477
O O6 0.023521 0.599633 0.757762
O O7 0.026902 0.652977 0.000000
O O8 0.270363 0.947258 0.500000
O O9 0.348155 0.942753 0.220763
O O10 0.158043 0.913997 0.283362
O O11 0.198862 0.003409 0.290535
O O12 0.500000 0.000000 0.247353
O O13 0.513536 0.050307 0.000000
O O14 0.282947 0.202584 0.500000
O O15 0.179216 0.157762 0.716018
O O16 0.500000 0.500000 0.708070
O O17 0.593085 0.452042 0.500000
O O18 0.592350 0.420494 0.787210
O O19 0.399792 0.357176 0.500000
O O20 0.478845 0.347436 0.223864
O O21 0.615718 0.355546 0.000000
#
# Coordination Sequence:
#
# PCOD9427311 Si02
#       8
#     8   8   8   8   8   8   8   8
#     4  10  23  44  71  95 120 163 215 263 316 378
#     4  11  24  43  67  98 135 168 207 264 325 383
#     4  10  20  36  62  91 119 158 210 260 307 363
#     4  10  23  41  60  87 128 171 206 251 315 381
#     4  11  26  46  68  93 125 170 218 264 316 380
#     4  10  20  38  60  87 124 166 207 252 307 367
#     4  10  20  40  66  93 125 161 208 265 313 375
#     4  12  26  41  61  93 130 170 212 262 327 382
#
# _framework density 20.034694999999999
#
# number of rings (size 3 to 8) (size 9 to 14) (size 15 to 20)
#    0.000    1.500    2.500    1.875    3.500    3.500 
#    0.000    0.000    0.000    0.000    0.000    0.000 
#    0.000    0.000    0.000    0.000    0.000    0.000 
#
# Total GULP energy -357550.176348 kJ/mol
# GULP energy per Si atom -5586.721505 kJ/mol
# Density = 1.998910 g / cm^3
# Si number density = 20.034695 Si / 1000 Ang^3
#
#
#
# Elastic Constant Matrix: (Units=GPa)
#
#
# Indices 1 2 3 4 5 6 
#
# 1 81.6851 47.2382 14.5914 0.0000 0.0000 0.0000
# 2 47.2382 102.6573 26.3911 0.0000 0.0000 0.0000
# 3 14.5914 26.3911 17.2318 0.0000 0.0000 0.0000
# 4 0.0000 0.0000 0.0000 14.5318 0.0000 0.0000
# 5 0.0000 0.0000 0.0000 0.0000 40.4279 0.0000
# 6 0.0000 0.0000 0.0000 0.0000 0.0000 24.6548
#
#
#
# Elastic Compliance Matrix: (Units=1/GPa)
#
#
# Indices 1 2 3 4 5 6 
#
# 1 0.016842 -0.006736 -0.003945 0.000000 0.000000 0.000000
# 2 -0.006736 0.018761 -0.023030 0.000000 0.000000 0.000000
# 3 -0.003945 -0.023030 0.096643 0.000000 0.000000 0.000000
# 4 0.000000 0.000000 0.000000 0.068815 0.000000 0.000000
# 5 0.000000 0.000000 0.000000 0.000000 0.024735 0.000000
# 6 0.000000 0.000000 0.000000 0.000000 0.000000 0.040560
#
#
# Mechanical properties :
#
#
# Convention : Reuss Voigt Hill
#
# Bulk Modulus (GPa) = 15.42609 42.00173 28.71391
# Shear Modulus (GPa) = 14.06920 23.47981 18.77450
#
# Velocity S-wave (km/s) = 2.65286 3.42710 3.06453
# Velocity P-wave (km/s) = 4.13521 6.05558 5.18507
#
# Compressibility (1/GPa) = 0.06482524
#
# Stress axis : x y z
#
# Youngs Moduli (GPa) = 59.37492 53.30207 10.34731
#
# Poissons Ratio (x) = 0.35902 0.04083
# Poissons Ratio (y) = 0.39993 0.23829
# Poissons Ratio (z) = 0.23426 1.22752
#
# Static dielectric constant tensor:
#      x y z
#    x 1.670320 0.000000 0.000000 
#    y 0.000000 1.747260 0.000000 
#    z 0.000000 0.000000 1.691960 
# 
# From -- ./inp_files/4528.got.cif
#   From: 2010.05.17/outbox.cif.g08.bks.cpg/sg55_3_cif.got.tgz:4528.got - 2010.06.03 13:27:54.
