data_PCOD9427737
_publ_section_title
;
Structure prediction by ZEFSAII (Michael W. Deem and Ramdas Pophale) SiO2 
 PCOD9427737
Probable space group: P B A M
;
_chemical_formula_sum "Si O2"
_cell_formula_units_Z 48
_cell_length_a 5.297177
_cell_length_b 26.726254
_cell_length_c 17.947252
_cell_angle_alpha 90.000000
_cell_angle_beta 90.000000
_cell_angle_gamma 90.000000
_cell_volume 2540.858834
_symmetry_space_group_name_H-M "P B A M"
_symmetry_group_IT_number 55
_symmetry_cell_setting 'orthorhombic'
loop_
_space_group_symop_operation_xyz
x,y,z
-x,-y,z
1/2+x,1/2-y,-z
1/2-x,1/2+y,-z
-x,-y,-z
x,y,-z
1/2-x,1/2+y,z
1/2+x,1/2-y,z
loop_
_atom_site_type_symbol
_atom_site_label
_atom_site_fract_x
_atom_site_fract_y
_atom_site_fract_z
Si Si1 0.542824 0.592015 0.826606
Si Si2 0.143885 0.716884 0.415626
Si Si3 0.777489 0.868047 0.699613
Si Si4 0.560542 0.559073 0.585148
Si Si5 0.535401 0.940175 0.088601
Si Si6 0.621984 0.052998 0.288625
O O1 0.464373 0.638120 0.771069
O O2 0.299778 0.576076 0.874034
O O3 0.626622 0.553626 0.761042
O O4 0.790820 0.589420 0.878958
O O5 0.163610 0.694326 0.500000
O O6 0.869322 0.742434 0.411049
O O7 0.187813 0.679428 0.347076
O O8 0.547880 0.900145 0.733421
O O9 0.898439 0.904208 0.636454
O O10 0.500000 0.500000 0.591064
O O11 0.553026 0.574092 0.500000
O O12 0.831594 0.561620 0.624034
O O13 0.500000 0.000000 0.102141
O O14 0.548836 0.932804 0.000000
O O15 0.500000 0.000000 0.277369
#
# Coordination Sequence:
#
# PCOD9427737 Si02
#       6
#     8   8   8   8   8   8
#     4  11  23  36  57  84 118 157 205 243 289 348
#     4  10  24  44  65  87 115 154 203 259 315 366
#     4  11  23  38  60  84 117 155 200 249 306 358
#     4  10  21  33  48  77 115 156 200 241 285 346
#     4  11  23  37  56  83 122 170 211 242 279 338
#     4  11  22  35  53  80 116 162 198 245 296 350
#
# _framework density 18.891248000000001
#
# number of rings (size 3 to 8) (size 9 to 14) (size 15 to 20)
#    0.000    1.333    3.333    2.000    7.000    3.000 
#    0.000    0.000    0.000    0.000    0.000    0.000 
#    0.000   13.333    0.000    0.000    0.000    0.000 
#
# Total GULP energy -267330.325336 kJ/mol
# GULP energy per Si atom -5569.381778 kJ/mol
# Density = 1.884825 g / cm^3
# Si number density = 18.891248 Si / 1000 Ang^3
#
#
#
# Elastic Constant Matrix: (Units=GPa)
#
#
# Indices 1 2 3 4 5 6 
#
# 1 79.6846 3.5830 42.6100 0.0000 0.0000 0.0000
# 2 3.5830 28.8464 15.3819 0.0000 0.0000 0.0000
# 3 42.6100 15.3819 133.4131 0.0000 0.0000 0.0000
# 4 0.0000 0.0000 0.0000 -38.6502 0.0000 0.0000
# 5 0.0000 0.0000 0.0000 0.0000 69.1468 0.0000
# 6 0.0000 0.0000 0.0000 0.0000 0.0000 15.4475
#
#
#
# Elastic Compliance Matrix: (Units=1/GPa)
#
#
# Indices 1 2 3 4 5 6 
#
# 1 0.015149 0.000744 -0.004924 0.000000 0.000000 0.000000
# 2 0.000744 0.036974 -0.004501 0.000000 0.000000 0.000000
# 3 -0.004924 -0.004501 0.009587 0.000000 0.000000 0.000000
# 4 0.000000 0.000000 0.000000 -0.025873 0.000000 0.000000
# 5 0.000000 0.000000 0.000000 0.000000 0.014462 0.000000
# 6 0.000000 0.000000 0.000000 0.000000 0.000000 0.064736
#
#
# Mechanical properties :
#
#
# Convention : Reuss Voigt Hill
#
# Bulk Modulus (GPa) = 22.54854 40.56598 31.55726
# Shear Modulus (GPa) = 33.97230 21.21344 27.59287
#
# Velocity S-wave (km/s) = 4.24525 3.35464 3.82595
# Velocity P-wave (km/s) = 5.99928 6.04358 6.02147
#
# Compressibility (1/GPa) = 0.04434877
#
# Stress axis : x y z
#
# Youngs Moduli (GPa) = 66.01031 27.04616 104.30674
#
# Poissons Ratio (x) = -0.02012 0.51362
# Poissons Ratio (y) = -0.04912 0.46944
# Poissons Ratio (z) = 0.32505 0.12172
#
# Static dielectric constant tensor:
#      x y z
#    x 1.763800 0.000000 0.000000 
#    y 0.000000 1.641420 0.000000 
#    z 0.000000 0.000000 1.702660 
# 
# From -- ./inp_files/20473.got.cif
#   From: 2010.05.17/outbox.cif.g08.bks.cpg/sg55_11_cif.got.tgz:20473.got - 2010.06.03 13:27:54.
