data_PCOD9427722
_publ_section_title
;
Structure prediction by ZEFSAII (Michael W. Deem and Ramdas Pophale) SiO2 
 PCOD9427722
Probable space group: P B A M
;
_chemical_formula_sum "Si O2"
_cell_formula_units_Z 44
_cell_length_a 14.598405
_cell_length_b 9.478957
_cell_length_c 16.141088
_cell_angle_alpha 90.000000
_cell_angle_beta 90.000000
_cell_angle_gamma 90.000000
_cell_volume 2233.565879
_symmetry_space_group_name_H-M "P B A M"
_symmetry_group_IT_number 55
_symmetry_cell_setting 'orthorhombic'
loop_
_space_group_symop_operation_xyz
x,y,z
-x,-y,z
1/2+x,1/2-y,-z
1/2-x,1/2+y,-z
-x,-y,-z
x,y,-z
1/2-x,1/2+y,z
1/2+x,1/2-y,z
loop_
_atom_site_type_symbol
_atom_site_label
_atom_site_fract_x
_atom_site_fract_y
_atom_site_fract_z
Si Si1 0.320890 0.595896 0.681343
Si Si2 0.711589 0.675512 0.219277
Si Si3 0.500000 0.500000 0.635317
Si Si4 0.132045 0.397753 0.906659
Si Si5 0.375022 0.344073 0.500000
Si Si6 0.061953 0.720739 0.904583
Si Si7 0.250673 0.597804 0.500000
O O1 0.258384 0.687384 0.741496
O O2 0.299449 0.435613 0.707039
O O3 0.431118 0.598595 0.686804
O O4 0.296462 0.639008 0.587377
O O5 0.785285 0.618304 0.154777
O O6 0.619462 0.701736 0.166472
O O7 0.436228 0.400873 0.576829
O O8 0.098223 0.559210 0.905524
O O9 0.045983 0.296604 0.886745
O O10 0.161562 0.363420 0.000000
O O11 0.277612 0.430167 0.500000
O O12 0.347018 0.179209 0.500000
O O13 0.073358 0.774729 0.000000
#
# Coordination Sequence:
#
# PCOD9427722 Si02
#       7
#     8   8   4   8   4   8   4
#     4  11  24  37  63  82 125 154 206 245 313 347
#     4  12  22  38  58  96 116 161 198 264 289 365
#     4   9  20  38  56  90 111 164 188 250 305 364
#     4   9  19  38  61  85 121 162 197 245 305 368
#     4   9  18  38  70  79 118 148 207 240 304 364
#     4   9  19  38  61  85 122 164 200 242 307 370
#     4  10  20  42  60  88 110 164 198 244 296 376
#
# _framework density 19.699441
#
# number of rings (size 3 to 8) (size 9 to 14) (size 15 to 20)
#    0.000    2.000    1.818    4.364    2.545    0.000 
#    0.000    0.000    0.000   20.727    0.000    0.000 
#    0.000    0.000    0.000    0.000    0.000    0.000 
#
# Total GULP energy -245005.065254 kJ/mol
# GULP energy per Si atom -5568.296938 kJ/mol
# Density = 1.965460 g / cm^3
# Si number density = 19.699441 Si / 1000 Ang^3
#
#
#
# Elastic Constant Matrix: (Units=GPa)
#
#
# Indices 1 2 3 4 5 6 
#
# 1 84.3878 20.0595 43.3804 0.0000 0.0000 0.0000
# 2 20.0595 49.9621 12.5207 0.0000 0.0000 0.0000
# 3 43.3804 12.5207 80.1271 0.0000 0.0000 0.0000
# 4 0.0000 0.0000 0.0000 9.7785 0.0000 0.0000
# 5 0.0000 0.0000 0.0000 0.0000 -65.0239 0.0000
# 6 0.0000 0.0000 0.0000 0.0000 0.0000 29.7434
#
#
#
# Elastic Compliance Matrix: (Units=1/GPa)
#
#
# Indices 1 2 3 4 5 6 
#
# 1 0.017474 -0.004834 -0.008705 0.000000 0.000000 0.000000
# 2 -0.004834 0.022168 -0.000847 0.000000 0.000000 0.000000
# 3 -0.008705 -0.000847 0.017325 0.000000 0.000000 0.000000
# 4 0.000000 0.000000 0.000000 0.102266 0.000000 0.000000
# 5 0.000000 0.000000 0.000000 0.000000 -0.015379 0.000000
# 6 0.000000 0.000000 0.000000 0.000000 0.000000 0.033621
#
#
# Mechanical properties :
#
#
# Convention : Reuss Voigt Hill
#
# Bulk Modulus (GPa) = 35.46644 40.71090 38.08867
# Shear Modulus (GPa) = 23.18617 4.13400 13.66009
#
# Velocity S-wave (km/s) = 3.43446 1.45020 2.63615
# Velocity P-wave (km/s) = 5.81121 4.84923 5.35188
#
# Compressibility (1/GPa) = 0.02819567
#
# Stress axis : x y z
#
# Youngs Moduli (GPa) = 57.22771 45.10946 57.71901
#
# Poissons Ratio (x) = 0.21807 0.50244
# Poissons Ratio (y) = 0.27665 0.04888
# Poissons Ratio (z) = 0.49816 0.03820
#
# Static dielectric constant tensor:
#      x y z
#    x 1.713510 0.000000 0.000000 
#    y 0.000000 1.708550 0.000000 
#    z 0.000000 0.000000 1.706230 
# 
# From -- ./inp_files/21473.got.cif
#   From: 2010.05.17/outbox.cif.g08.bks.cpg/sg55_11_cif.got.tgz:21473.got - 2010.06.03 13:27:54.
