data_PCOD9427729
_publ_section_title
;
Structure prediction by ZEFSAII (Michael W. Deem and Ramdas Pophale) SiO2 
 PCOD9427729
Probable space group: P B A M
;
_chemical_formula_sum "Si O2"
_cell_formula_units_Z 30
_cell_length_a 5.078002
_cell_length_b 18.553926
_cell_length_c 12.149650
_cell_angle_alpha 90.000000
_cell_angle_beta 90.000000
_cell_angle_gamma 90.000000
_cell_volume 1144.702035
_symmetry_space_group_name_H-M "P B A M"
_symmetry_group_IT_number 55
_symmetry_cell_setting 'orthorhombic'
loop_
_space_group_symop_operation_xyz
x,y,z
-x,-y,z
1/2+x,1/2-y,-z
1/2-x,1/2+y,-z
-x,-y,-z
x,y,-z
1/2-x,1/2+y,z
1/2+x,1/2-y,z
loop_
_atom_site_type_symbol
_atom_site_label
_atom_site_fract_x
_atom_site_fract_y
_atom_site_fract_z
Si Si1 0.780652 0.708107 0.633199
Si Si2 0.549196 0.198869 0.000000
Si Si3 0.000000 0.000000 0.000000
Si Si4 0.359263 0.075665 0.154701
Si Si5 0.603110 0.419096 0.376771
O O1 0.795003 0.710500 0.500000
O O2 0.067657 0.732119 0.671706
O O3 0.633730 0.633611 0.657435
O O4 0.500091 0.144137 0.898312
O O5 0.826408 0.239229 0.000000
O O6 0.080385 0.060254 0.904410
O O7 0.321911 0.081444 0.283794
O O8 0.500000 0.000000 0.123446
O O9 0.500000 0.500000 0.382194
O O10 0.695370 0.398032 0.500000
#
# Coordination Sequence:
#
# PCOD9427729 Si02
#       5
#     8   4   2   8   8
#     4   9  19  37  60  87 129 184 230 276 342 414
#     4  11  28  47  76 112 146 181 250 323 367 429
#     4  10  20  44  66  90 128 178 240 286 346 436
#     4  11  25  43  76 102 142 198 239 295 376 449
#     4  10  22  41  67 106 146 187 242 298 352 433
#
# _framework density 26.207692999999999
#
# number of rings (size 3 to 8) (size 9 to 14) (size 15 to 20)
#    0.000    1.867    1.333    1.600    7.467    4.800 
#    0.000    5.333    0.000    0.000    0.000    0.000 
#    0.000    0.000    0.000    0.000    0.000    0.000 
#
# Total GULP energy -167605.493801 kJ/mol
# GULP energy per Si atom -5586.849793 kJ/mol
# Density = 2.614804 g / cm^3
# Si number density = 26.207693 Si / 1000 Ang^3
#
#
#
# Elastic Constant Matrix: (Units=GPa)
#
#
# Indices 1 2 3 4 5 6 
#
# 1 71.0738 16.2552 18.4117 0.0000 0.0000 0.0000
# 2 16.2552 163.2376 20.9388 0.0000 0.0000 0.0000
# 3 18.4117 20.9388 151.0821 0.0000 0.0000 0.0000
# 4 0.0000 0.0000 0.0000 43.5992 0.0000 0.0000
# 5 0.0000 0.0000 0.0000 0.0000 -49.6689 0.0000
# 6 0.0000 0.0000 0.0000 0.0000 0.0000 61.3311
#
#
#
# Elastic Compliance Matrix: (Units=1/GPa)
#
#
# Indices 1 2 3 4 5 6 
#
# 1 0.014780 -0.001263 -0.001626 0.000000 0.000000 0.000000
# 2 -0.001263 0.006345 -0.000725 0.000000 0.000000 0.000000
# 3 -0.001626 -0.000725 0.006918 0.000000 0.000000 0.000000
# 4 0.000000 0.000000 0.000000 0.022936 0.000000 0.000000
# 5 0.000000 0.000000 0.000000 0.000000 -0.020133 0.000000
# 6 0.000000 0.000000 0.000000 0.000000 0.000000 0.016305
#
#
# Mechanical properties :
#
#
# Convention : Reuss Voigt Hill
#
# Bulk Modulus (GPa) = 48.04668 55.17831 51.61250
# Shear Modulus (GPa) = 81.54279 33.03813 57.29046
#
# Velocity S-wave (km/s) = 5.58405 3.55438 4.68056
# Velocity P-wave (km/s) = 7.74263 6.15994 6.99618
#
# Compressibility (1/GPa) = 0.02081309
#
# Stress axis : x y z
#
# Youngs Moduli (GPa) = 67.65881 157.60737 144.55843
#
# Poissons Ratio (x) = 0.19909 0.23507
# Poissons Ratio (y) = 0.08547 0.10486
# Poissons Ratio (z) = 0.11002 0.11433
#
# Static dielectric constant tensor:
#      x y z
#    x 2.189840 0.000000 0.000000 
#    y 0.000000 2.036100 0.000000 
#    z 0.000000 0.000000 2.211710 
# 
# From -- ./inp_files/11164.got.cif
#   From: 2010.05.17/outbox.cif.g08.bks.cpg/sg55_6_cif.got.tgz:11164.got - 2010.06.03 13:27:54.
