data_PCOD9427812
_publ_section_title
;
Structure prediction by ZEFSAII (Michael W. Deem and Ramdas Pophale) SiO2 
 PCOD9427812
Probable space group: P B A M
;
_chemical_formula_sum "Si O2"
_cell_formula_units_Z 56
_cell_length_a 20.198030
_cell_length_b 9.266386
_cell_length_c 14.246374
_cell_angle_alpha 90.000000
_cell_angle_beta 90.000000
_cell_angle_gamma 90.000000
_cell_volume 2666.390427
_symmetry_space_group_name_H-M "P B A M"
_symmetry_group_IT_number 55
_symmetry_cell_setting 'orthorhombic'
loop_
_space_group_symop_operation_xyz
x,y,z
-x,-y,z
1/2+x,1/2-y,-z
1/2-x,1/2+y,-z
-x,-y,-z
x,y,-z
1/2-x,1/2+y,z
1/2+x,1/2-y,z
loop_
_atom_site_type_symbol
_atom_site_label
_atom_site_fract_x
_atom_site_fract_y
_atom_site_fract_z
Si Si1 0.240721 0.593065 0.732356
Si Si2 0.433758 0.413816 0.607956
Si Si3 0.094897 0.378663 0.888554
Si Si4 0.552358 0.789114 0.110759
Si Si5 0.523944 0.146855 0.391240
Si Si6 0.157690 0.871056 0.221946
Si Si7 0.338599 0.820824 0.701582
O O1 0.288524 0.495485 0.799010
O O2 0.195445 0.717464 0.777403
O O3 0.289952 0.693234 0.672476
O O4 0.195028 0.475434 0.680453
O O5 0.500000 0.500000 0.638143
O O6 0.419275 0.456508 0.500000
O O7 0.461797 0.251827 0.610101
O O8 0.372081 0.416218 0.676938
O O9 0.081222 0.549414 0.871048
O O10 0.149018 0.324636 0.814514
O O11 0.025536 0.298158 0.866606
O O12 0.109436 0.361154 0.000000
O O13 0.593234 0.662999 0.160407
O O14 0.557600 0.768005 0.000000
O O15 0.541510 0.120971 0.500000
O O16 0.590018 0.200953 0.342966
O O17 0.500000 0.000000 0.344441
#
# Coordination Sequence:
#
# PCOD9427812 Si02
#       7
#     8   8   8   8   8   8   8
#     4  10  24  36  55  80 110 154 203 218 260 345
#     4  10  21  37  60  88 113 140 180 233 291 340
#     4   9  18  33  58  88 110 138 184 232 288 342
#     4   9  18  33  58  88 111 138 183 235 287 340
#     4  10  21  35  58  88 109 135 181 230 283 338
#     4  11  20  40  56  80 116 154 186 236 279 328
#     4  11  20  39  56  77 114 149 182 233 274 321
#
# _framework density 21.002175000000001
#
# number of rings (size 3 to 8) (size 9 to 14) (size 15 to 20)
#    0.000    2.000    1.429    3.429    2.000    0.000 
#    0.000    9.286    0.000    2.143    0.000    0.000 
#    0.000    0.000    0.000    0.000    0.000    0.000 
#
# Total GULP energy -312268.568974 kJ/mol
# GULP energy per Si atom -5576.224446 kJ/mol
# Density = 2.095437 g / cm^3
# Si number density = 21.002175 Si / 1000 Ang^3
#
#
#
# Elastic Constant Matrix: (Units=GPa)
#
#
# Indices 1 2 3 4 5 6 
#
# 1 77.2563 13.6246 33.1739 0.0000 0.0000 0.0000
# 2 13.6246 74.5284 6.4531 0.0000 0.0000 0.0000
# 3 33.1739 6.4531 57.5161 0.0000 0.0000 0.0000
# 4 0.0000 0.0000 0.0000 7.8950 0.0000 0.0000
# 5 0.0000 0.0000 0.0000 0.0000 -1.8604 0.0000
# 6 0.0000 0.0000 0.0000 0.0000 0.0000 49.2866
#
#
#
# Elastic Compliance Matrix: (Units=1/GPa)
#
#
# Indices 1 2 3 4 5 6 
#
# 1 0.017608 -0.002362 -0.009891 0.000000 0.000000 0.000000
# 2 -0.002362 0.013866 -0.000193 0.000000 0.000000 0.000000
# 3 -0.009891 -0.000193 0.023113 0.000000 0.000000 0.000000
# 4 0.000000 0.000000 0.000000 0.126662 0.000000 0.000000
# 5 0.000000 0.000000 0.000000 0.000000 -0.537523 0.000000
# 6 0.000000 0.000000 0.000000 0.000000 0.000000 0.020289
#
#
# Mechanical properties :
#
#
# Convention : Reuss Voigt Hill
#
# Bulk Modulus (GPa) = 33.67650 35.08932 34.38291
# Shear Modulus (GPa) = -16.60058 21.46753 2.43348
#
# Velocity S-wave (km/s) = -2.81449 3.20059 1.07759
# Velocity P-wave (km/s) = 2.34686 5.51381 4.23732
#
# Compressibility (1/GPa) = 0.02969430
#
# Stress axis : x y z
#
# Youngs Moduli (GPa) = 56.79371 72.11724 43.26616
#
# Poissons Ratio (x) = 0.17037 0.42793
# Poissons Ratio (y) = 0.13417 0.00836
# Poissons Ratio (z) = 0.56172 0.01393
#
# Static dielectric constant tensor:
#      x y z
#    x 1.822700 0.000000 0.000000 
#    y 0.000000 1.817830 0.000000 
#    z 0.000000 0.000000 1.761340 
# 
# From -- ./inp_files/19763.got.cif
#   From: 2010.05.17/outbox.cif.g08.bks.cpg/sg55_10_cif.got.tgz:19763.got - 2010.06.03 13:27:54.
