data_PCOD9427997
_publ_section_title
;
Structure prediction by ZEFSAII (Michael W. Deem and Ramdas Pophale) SiO2 
 PCOD9427997
Probable space group: P B A M
;
_chemical_formula_sum "Si O2"
_cell_formula_units_Z 40
_cell_length_a 14.285697
_cell_length_b 14.534576
_cell_length_c 7.522699
_cell_angle_alpha 90.000000
_cell_angle_beta 90.000000
_cell_angle_gamma 90.000000
_cell_volume 1561.987258
_symmetry_space_group_name_H-M "P B A M"
_symmetry_group_IT_number 55
_symmetry_cell_setting 'orthorhombic'
loop_
_space_group_symop_operation_xyz
x,y,z
-x,-y,z
1/2+x,1/2-y,-z
1/2-x,1/2+y,-z
-x,-y,-z
x,y,-z
1/2-x,1/2+y,z
1/2+x,1/2-y,z
loop_
_atom_site_type_symbol
_atom_site_label
_atom_site_fract_x
_atom_site_fract_y
_atom_site_fract_z
Si Si1 0.457972 0.907271 0.293390
Si Si2 0.928770 0.789320 0.710392
Si Si3 0.889720 0.116435 0.213890
Si Si4 0.725360 0.998470 0.784076
Si Si5 0.712883 0.798961 0.794330
O O1 0.486054 0.905894 0.500000
O O2 0.475749 0.805856 0.219323
O O3 0.347051 0.924499 0.277789
O O4 0.500000 0.000000 0.209161
O O5 0.915345 0.778900 0.500000
O O6 0.825833 0.796660 0.789892
O O7 0.001933 0.870941 0.741277
O O8 0.828856 0.029130 0.274451
O O9 0.835502 0.208247 0.282432
O O10 0.883948 0.115025 0.000000
O O11 0.691447 0.899379 0.715387
O O12 0.723744 0.995624 0.000000
O O13 0.684283 0.800982 0.000000
#
# Coordination Sequence:
#
# PCOD9427997 Si02
#       5
#     8   8   8   8   8
#     4  10  21  37  57  85 118 151 191 240 292 344
#     4  11  23  37  58  86 117 156 195 235 290 350
#     4  10  21  38  59  84 116 152 192 242 293 342
#     4  10  21  37  60  87 112 149 196 240 290 342
#     4  10  21  39  61  85 116 152 194 243 291 343
#
# _framework density 25.608405000000001
#
# number of rings (size 3 to 8) (size 9 to 14) (size 15 to 20)
#    0.000    1.800    2.000    1.800    0.000    4.400 
#    0.000    4.000    0.000    0.000    0.000    0.000 
#    0.000    0.000    0.000    0.000    0.000    0.000 
#
# Total GULP energy -223681.296749 kJ/mol
# GULP energy per Si atom -5592.032419 kJ/mol
# Density = 2.555012 g / cm^3
# Si number density = 25.608405 Si / 1000 Ang^3
#
#
#
# Elastic Constant Matrix: (Units=GPa)
#
#
# Indices 1 2 3 4 5 6 
#
# 1 95.8438 -3.9324 -7.7918 0.0000 0.0000 0.0000
# 2 -3.9324 50.3945 9.2752 0.0000 0.0000 0.0000
# 3 -7.7918 9.2752 83.1945 0.0000 0.0000 0.0000
# 4 0.0000 0.0000 0.0000 1.6053 0.0000 0.0000
# 5 0.0000 0.0000 0.0000 0.0000 34.7323 0.0000
# 6 0.0000 0.0000 0.0000 0.0000 0.0000 49.8358
#
#
#
# Elastic Compliance Matrix: (Units=1/GPa)
#
#
# Indices 1 2 3 4 5 6 
#
# 1 0.010535 0.000654 0.000914 0.000000 0.000000 0.000000
# 2 0.000654 0.020300 -0.002202 0.000000 0.000000 0.000000
# 3 0.000914 -0.002202 0.012351 0.000000 0.000000 0.000000
# 4 0.000000 0.000000 0.000000 0.622945 0.000000 0.000000
# 5 0.000000 0.000000 0.000000 0.000000 0.028792 0.000000
# 6 0.000000 0.000000 0.000000 0.000000 0.000000 0.020066
#
#
# Mechanical properties :
#
#
# Convention : Reuss Voigt Hill
#
# Bulk Modulus (GPa) = 23.85667 24.94830 24.40249
# Shear Modulus (GPa) = 6.84717 32.69346 19.77031
#
# Velocity S-wave (km/s) = 1.63695 3.57693 2.78155
# Velocity P-wave (km/s) = 3.59291 5.17905 4.45710
#
# Compressibility (1/GPa) = 0.04191699
#
# Stress axis : x y z
#
# Youngs Moduli (GPa) = 94.92389 49.26171 80.96449
#
# Poissons Ratio (x) = -0.03221 -0.07398
# Poissons Ratio (y) = -0.06207 0.17828
# Poissons Ratio (z) = -0.08674 0.10847
#
# Static dielectric constant tensor:
#      x y z
#    x 2.047630 0.000000 0.000000 
#    y 0.000000 2.053850 0.000000 
#    z 0.000000 0.000000 1.966750 
# 
# From -- ./inp_files/3621.got.cif
#   From: 2010.05.17/outbox.cif.g08.bks.cpg/sg55_2_cif.got.tgz:3621.got - 2010.06.03 13:27:54.
