data_PCOD9427659
_publ_section_title
;
Structure prediction by ZEFSAII (Michael W. Deem and Ramdas Pophale) SiO2 
 PCOD9427659
Probable space group: P B A M
;
_chemical_formula_sum "Si O2"
_cell_formula_units_Z 64
_cell_length_a 14.344893
_cell_length_b 24.884905
_cell_length_c 8.504840
_cell_angle_alpha 90.000000
_cell_angle_beta 90.000000
_cell_angle_gamma 90.000000
_cell_volume 3035.983787
_symmetry_space_group_name_H-M "P B A M"
_symmetry_group_IT_number 55
_symmetry_cell_setting 'orthorhombic'
loop_
_space_group_symop_operation_xyz
x,y,z
-x,-y,z
1/2+x,1/2-y,-z
1/2-x,1/2+y,-z
-x,-y,-z
x,y,-z
1/2-x,1/2+y,z
1/2+x,1/2-y,z
loop_
_atom_site_type_symbol
_atom_site_label
_atom_site_fract_x
_atom_site_fract_y
_atom_site_fract_z
Si Si1 0.466232 0.304185 0.313804
Si Si2 0.635056 0.511090 0.817700
Si Si3 0.304170 0.121371 0.317069
Si Si4 0.398671 0.604837 0.187083
Si Si5 0.641777 0.987110 0.181295
Si Si6 0.811842 0.123868 0.810066
Si Si7 0.537342 0.811609 0.814197
Si Si8 0.894227 0.600931 0.687101
O O1 0.458373 0.299334 0.500000
O O2 0.540152 0.350155 0.269153
O O3 0.368562 0.324087 0.240525
O O4 0.493489 0.247170 0.240615
O O5 0.589036 0.456855 0.752160
O O6 0.746868 0.500385 0.815176
O O7 0.628702 0.571342 0.754010
O O8 0.606610 0.513746 0.000000
O O9 0.279670 0.121409 0.500000
O O10 0.209955 0.118241 0.216449
O O11 0.366994 0.171792 0.271436
O O12 0.364314 0.067765 0.278200
O O13 0.417933 0.605305 0.000000
O O14 0.593281 0.040162 0.248822
O O15 0.615432 0.978019 0.000000
O O16 0.710623 0.118684 0.733829
O O17 0.803098 0.121050 0.000000
O O18 0.462628 0.856449 0.765664
O O19 0.551524 0.812779 0.000000
O O20 0.905639 0.601194 0.500000
#
# Coordination Sequence:
#
# PCOD9427659 Si02
#       8
#     8   8   8   8   8   8   8   8
#     4  12  26  43  60  87 121 156 203 260 305 348
#     4   7  14  30  57  88 119 151 193 238 281 340
#     4  11  22  39  63  94 126 157 194 249 307 354
#     4  10  20  39  64  91 122 162 202 242 295 362
#     4   9  17  34  59  90 124 161 199 238 288 360
#     4  10  20  39  64  91 122 162 202 242 295 362
#     4  12  26  45  64  85 114 158 209 252 297 364
#     4  11  22  39  63  94 126 157 194 249 307 354
#
# _framework density 21.080480000000001
#
# number of rings (size 3 to 8) (size 9 to 14) (size 15 to 20)
#    0.000    1.750    0.000    7.125    0.000    2.000 
#    0.000   11.875    0.000    0.000    0.000    0.000 
#    0.000    0.000    0.000    0.000    0.000    0.000 
#
# Total GULP energy -357816.614855 kJ/mol
# GULP energy per Si atom -5590.884607 kJ/mol
# Density = 2.103250 g / cm^3
# Si number density = 21.080480 Si / 1000 Ang^3
#
#
#
# Elastic Constant Matrix: (Units=GPa)
#
#
# Indices 1 2 3 4 5 6 
#
# 1 44.0012 17.0227 -21.8529 0.0000 0.0000 0.0000
# 2 17.0227 97.9295 10.1517 0.0000 0.0000 0.0000
# 3 -21.8529 10.1517 67.8829 0.0000 0.0000 0.0000
# 4 0.0000 0.0000 0.0000 23.7008 0.0000 0.0000
# 5 0.0000 0.0000 0.0000 0.0000 27.4321 0.0000
# 6 0.0000 0.0000 0.0000 0.0000 0.0000 30.7636
#
#
#
# Elastic Compliance Matrix: (Units=1/GPa)
#
#
# Indices 1 2 3 4 5 6 
#
# 1 0.030585 -0.006437 0.010808 0.000000 0.000000 0.000000
# 2 -0.006437 0.011727 -0.003826 0.000000 0.000000 0.000000
# 3 0.010808 -0.003826 0.018783 0.000000 0.000000 0.000000
# 4 0.000000 0.000000 0.000000 0.042193 0.000000 0.000000
# 5 0.000000 0.000000 0.000000 0.000000 0.036454 0.000000
# 6 0.000000 0.000000 0.000000 0.000000 0.000000 0.032506
#
#
# Mechanical properties :
#
#
# Convention : Reuss Voigt Hill
#
# Bulk Modulus (GPa) = 16.08078 24.49518 20.28798
# Shear Modulus (GPa) = 26.05738 30.01210 28.03474
#
# Velocity S-wave (km/s) = 3.51962 3.77728 3.65072
# Velocity P-wave (km/s) = 4.91547 5.53794 5.23596
#
# Compressibility (1/GPa) = 0.06218605
#
# Stress axis : x y z
#
# Youngs Moduli (GPa) = 32.69595 85.27377 53.24002
#
# Poissons Ratio (x) = 0.54890 -0.57544
# Poissons Ratio (y) = 0.21046 0.20369
# Poissons Ratio (z) = -0.35339 0.32625
#
# Static dielectric constant tensor:
#      x y z
#    x 1.802120 0.000000 0.000000 
#    y 0.000000 1.772130 0.000000 
#    z 0.000000 0.000000 1.699050 
# 
# From -- ./inp_files/6681.got.cif
#   From: 2010.05.17/outbox.cif.g08.bks.cpg/sg55_4_cif.got.tgz:6681.got - 2010.06.03 13:27:54.
