data_PCOD9427314
_publ_section_title
;
Structure prediction by ZEFSAII (Michael W. Deem and Ramdas Pophale) SiO2 
 PCOD9427314
Probable space group: P B A M
;
_chemical_formula_sum "Si O2"
_cell_formula_units_Z 58
_cell_length_a 20.220870
_cell_length_b 17.899095
_cell_length_c 8.606680
_cell_angle_alpha 90.000000
_cell_angle_beta 90.000000
_cell_angle_gamma 90.000000
_cell_volume 3115.061076
_symmetry_space_group_name_H-M "P B A M"
_symmetry_group_IT_number 55
_symmetry_cell_setting 'orthorhombic'
loop_
_space_group_symop_operation_xyz
x,y,z
-x,-y,z
1/2+x,1/2-y,-z
1/2-x,1/2+y,-z
-x,-y,-z
x,y,-z
1/2-x,1/2+y,z
1/2+x,1/2-y,z
loop_
_atom_site_type_symbol
_atom_site_label
_atom_site_fract_x
_atom_site_fract_y
_atom_site_fract_z
Si Si1 0.142536 0.788392 0.186386
Si Si2 0.863678 0.472954 0.810886
Si Si3 0.958134 0.340283 0.189362
Si Si4 0.217379 0.079870 0.814969
Si Si5 0.369761 0.451735 0.329014
Si Si6 0.609068 0.142897 0.188605
Si Si7 0.215371 0.240434 0.684201
Si Si8 0.000000 0.000000 0.500000
O O1 0.085651 0.730535 0.238393
O O2 0.131033 0.870633 0.252649
O O3 0.213577 0.758595 0.241027
O O4 0.142232 0.790676 0.000000
O O5 0.920774 0.415841 0.759796
O O6 0.791949 0.441882 0.765251
O O7 0.874633 0.558112 0.761711
O O8 0.864921 0.473398 0.000000
O O9 0.034235 0.337944 0.237972
O O10 0.958074 0.341136 0.000000
O O11 0.196509 0.156414 0.733097
O O12 0.169498 0.012130 0.770984
O O13 0.217934 0.091696 0.000000
O O14 0.336374 0.446401 0.500000
O O15 0.443803 0.478746 0.367256
O O16 0.661739 0.200861 0.254252
O O17 0.612013 0.145396 0.000000
O O18 0.220505 0.245756 0.500000
#
# Coordination Sequence:
#
# PCOD9427314 Si02
#       8
#     8   8   8   8   8   8   8   2
#     4  11  21  39  65  92 123 163 221 269 308 377
#     4   9  17  33  60  92 124 153 194 250 310 365
#     4   9  18  34  59  93 126 159 199 252 311 369
#     4  11  21  38  65  93 122 161 215 272 313 371
#     4  10  22  42  63  89 122 168 208 255 328 388
#     4  10  20  36  62  93 123 159 201 253 310 380
#     4  12  25  40  58  89 128 169 208 263 329 379
#     4   8  24  44  62  80 132 172 194 268 324 404
#
# _framework density 18.619219000000001
#
# number of rings (size 3 to 8) (size 9 to 14) (size 15 to 20)
#    0.414    1.379    1.379    3.724    0.000    3.862 
#    0.000    4.138    0.000    0.828    0.000    0.000 
#    0.000    0.000    0.000    0.000    0.000    0.000 
#
# Total GULP energy -323270.655878 kJ/mol
# GULP energy per Si atom -5573.631998 kJ/mol
# Density = 1.857684 g / cm^3
# Si number density = 18.619219 Si / 1000 Ang^3
#
#
#
# Elastic Constant Matrix: (Units=GPa)
#
#
# Indices 1 2 3 4 5 6 
#
# 1 60.8975 29.5711 3.5994 0.0000 0.0000 0.0000
# 2 29.5711 95.9251 0.9781 0.0000 0.0000 0.0000
# 3 3.5994 0.9781 26.5867 0.0000 0.0000 0.0000
# 4 0.0000 0.0000 0.0000 -16.6509 0.0000 0.0000
# 5 0.0000 0.0000 0.0000 0.0000 15.3933 0.0000
# 6 0.0000 0.0000 0.0000 0.0000 0.0000 20.3855
#
#
#
# Elastic Compliance Matrix: (Units=1/GPa)
#
#
# Indices 1 2 3 4 5 6 
#
# 1 0.019466 -0.005976 -0.002416 0.000000 0.000000 0.000000
# 2 -0.005976 0.012263 0.000358 0.000000 0.000000 0.000000
# 3 -0.002416 0.000358 0.037927 0.000000 0.000000 0.000000
# 4 0.000000 0.000000 0.000000 -0.060057 0.000000 0.000000
# 5 0.000000 0.000000 0.000000 0.000000 0.064963 0.000000
# 6 0.000000 0.000000 0.000000 0.000000 0.000000 0.049055
#
#
# Mechanical properties :
#
#
# Convention : Reuss Voigt Hill
#
# Bulk Modulus (GPa) = 18.66074 27.96737 23.31406
# Shear Modulus (GPa) = 31.73646 13.77627 22.75636
#
# Velocity S-wave (km/s) = 4.13304 2.72305 3.49979
# Velocity P-wave (km/s) = 5.72888 4.99400 5.37401
#
# Compressibility (1/GPa) = 0.05358844
#
# Stress axis : x y z
#
# Youngs Moduli (GPa) = 51.37229 81.54327 26.36666
#
# Poissons Ratio (x) = 0.48731 0.06369
# Poissons Ratio (y) = 0.30701 -0.00944
# Poissons Ratio (z) = 0.12409 -0.02919
#
# Static dielectric constant tensor:
#      x y z
#    x 1.619960 0.000000 0.000000 
#    y 0.000000 1.624140 0.000000 
#    z 0.000000 0.000000 1.636600 
# 
# From -- ./inp_files/7691.got.cif
#   From: 2010.05.17/outbox.cif.g08.bks.cpg/sg55_4_cif.got.tgz:7691.got - 2010.06.03 13:27:54.
