data_PCOD9427379
_publ_section_title
;
Structure prediction by ZEFSAII (Michael W. Deem and Ramdas Pophale) SiO2 
 PCOD9427379
Probable space group: P B A M
;
_chemical_formula_sum "Si O2"
_cell_formula_units_Z 64
_cell_length_a 10.270234
_cell_length_b 19.382071
_cell_length_c 16.430436
_cell_angle_alpha 90.000000
_cell_angle_beta 90.000000
_cell_angle_gamma 90.000000
_cell_volume 3270.616377
_symmetry_space_group_name_H-M "P B A M"
_symmetry_group_IT_number 55
_symmetry_cell_setting 'orthorhombic'
loop_
_space_group_symop_operation_xyz
x,y,z
-x,-y,z
1/2+x,1/2-y,-z
1/2-x,1/2+y,-z
-x,-y,-z
x,y,-z
1/2-x,1/2+y,z
1/2+x,1/2-y,z
loop_
_atom_site_type_symbol
_atom_site_label
_atom_site_fract_x
_atom_site_fract_y
_atom_site_fract_z
Si Si1 0.801077 0.685756 0.846215
Si Si2 0.614761 0.445272 0.902195
Si Si3 0.506064 0.700729 0.903347
Si Si4 0.372779 0.798484 0.342413
Si Si5 0.379277 0.956125 0.641244
Si Si6 0.641582 0.027494 0.836653
Si Si7 0.897682 0.210432 0.404084
Si Si8 0.598012 0.553355 0.405102
O O1 0.651314 0.705619 0.865771
O O2 0.908562 0.735519 0.887265
O O3 0.827842 0.694524 0.750374
O O4 0.824924 0.604895 0.867683
O O5 0.500000 0.500000 0.885489
O O6 0.566143 0.369689 0.874882
O O7 0.746071 0.474325 0.862356
O O8 0.634268 0.442831 0.000000
O O9 0.526196 0.694143 0.000000
O O10 0.399971 0.875332 0.374821
O O11 0.251167 0.767232 0.391196
O O12 0.501073 0.754324 0.353436
O O13 0.364268 0.966868 0.738426
O O14 0.242697 0.975436 0.601959
O O15 0.500000 0.000000 0.611684
O O16 0.500000 0.000000 0.864119
O O17 0.929151 0.214051 0.500000
O O18 0.903618 0.131174 0.372974
O O19 0.500000 0.500000 0.364632
O O20 0.563525 0.560711 0.500000
#
# Coordination Sequence:
#
# PCOD9427379 Si02
#       8
#     8   8   8   8   8   8   8   8
#     4  11  23  41  61  86 125 159 197 253 302 362
#     4  10  21  40  62  86 115 152 199 246 292 355
#     4  11  24  41  62  88 119 159 203 246 304 365
#     4  10  21  38  58  84 117 151 196 239 288 347
#     4   9  20  38  56  82 114 150 190 234 287 346
#     4  10  22  40  61  88 119 155 199 247 299 354
#     4  10  20  37  59  83 115 153 193 238 285 342
#     4   9  19  36  56  83 115 147 189 238 286 340
#
# _framework density 19.568176999999999
#
# number of rings (size 3 to 8) (size 9 to 14) (size 15 to 20)
#    0.000    2.000    1.250    1.500    1.750    3.000 
#    6.750    1.250    0.000    0.000    0.000    0.000 
#    0.000    0.000    0.000    0.000    0.000    0.000 
#
# Total GULP energy -357233.245135 kJ/mol
# GULP energy per Si atom -5581.769455 kJ/mol
# Density = 1.952364 g / cm^3
# Si number density = 19.568177 Si / 1000 Ang^3
#
#
#
# Elastic Constant Matrix: (Units=GPa)
#
#
# Indices 1 2 3 4 5 6 
#
# 1 142.4546 64.3713 17.1770 0.0000 0.0000 0.0000
# 2 64.3713 75.4546 13.9881 0.0000 0.0000 0.0000
# 3 17.1770 13.9881 24.7010 0.0000 0.0000 0.0000
# 4 0.0000 0.0000 0.0000 19.4194 0.0000 0.0000
# 5 0.0000 0.0000 0.0000 0.0000 29.1833 0.0000
# 6 0.0000 0.0000 0.0000 0.0000 0.0000 40.9364
#
#
#
# Elastic Compliance Matrix: (Units=1/GPa)
#
#
# Indices 1 2 3 4 5 6 
#
# 1 0.011588 -0.009376 -0.002748 0.000000 0.000000 0.000000
# 2 -0.009376 0.022394 -0.006162 0.000000 0.000000 0.000000
# 3 -0.002748 -0.006162 0.045885 0.000000 0.000000 0.000000
# 4 0.000000 0.000000 0.000000 0.051495 0.000000 0.000000
# 5 0.000000 0.000000 0.000000 0.000000 0.034266 0.000000
# 6 0.000000 0.000000 0.000000 0.000000 0.000000 0.024428
#
#
# Mechanical properties :
#
#
# Convention : Reuss Voigt Hill
#
# Bulk Modulus (GPa) = 23.09771 48.18699 35.64235
# Shear Modulus (GPa) = 20.74164 27.71274 24.22719
#
# Velocity S-wave (km/s) = 3.25925 3.76735 3.52247
# Velocity P-wave (km/s) = 5.09832 6.60322 5.89896
#
# Compressibility (1/GPa) = 0.04329434
#
# Stress axis : x y z
#
# Youngs Moduli (GPa) = 86.29496 44.65389 21.79372
#
# Poissons Ratio (x) = 0.41870 0.05990
# Poissons Ratio (y) = 0.80914 0.13428
# Poissons Ratio (z) = 0.23718 0.27514
#
# Static dielectric constant tensor:
#      x y z
#    x 1.661210 0.000000 0.000000 
#    y 0.000000 1.695410 0.000000 
#    z 0.000000 0.000000 1.698800 
# 
# From -- ./inp_files/21114.got.cif
#   From: 2010.05.17/outbox.cif.g08.bks.cpg/sg55_11_cif.got.tgz:21114.got - 2010.06.03 13:27:54.
