data_PCOD9427276
_publ_section_title
;
Structure prediction by ZEFSAII (Michael W. Deem and Ramdas Pophale) SiO2 
 PCOD9427276
Probable space group: P B A M
;
_chemical_formula_sum "Si O2"
_cell_formula_units_Z 58
_cell_length_a 5.027445
_cell_length_b 18.365889
_cell_length_c 27.908219
_cell_angle_alpha 90.000000
_cell_angle_beta 90.000000
_cell_angle_gamma 90.000000
_cell_volume 2576.863450
_symmetry_space_group_name_H-M "P B A M"
_symmetry_group_IT_number 55
_symmetry_cell_setting 'orthorhombic'
loop_
_space_group_symop_operation_xyz
x,y,z
-x,-y,z
1/2+x,1/2-y,-z
1/2-x,1/2+y,-z
-x,-y,-z
x,y,-z
1/2-x,1/2+y,z
1/2+x,1/2-y,z
loop_
_atom_site_type_symbol
_atom_site_label
_atom_site_fract_x
_atom_site_fract_y
_atom_site_fract_z
Si Si1 0.770542 0.291209 0.813777
Si Si2 0.359198 0.923169 0.816841
Si Si3 0.000000 0.000000 0.000000
Si Si4 0.781499 0.200664 0.551806
Si Si5 0.765365 0.049677 0.716661
Si Si6 0.308364 0.803346 0.657716
Si Si7 0.337156 0.924221 0.076067
Si Si8 0.707288 0.791010 0.929673
O O1 0.975860 0.228091 0.797372
O O2 0.915591 0.365672 0.801356
O O3 0.772638 0.290460 0.871686
O O4 0.166917 0.932339 0.772201
O O5 0.248760 0.903934 0.869619
O O6 0.500000 0.000000 0.824221
O O7 0.903440 0.058028 0.958411
O O8 0.734612 0.163601 0.500000
O O9 0.583427 0.270532 0.552233
O O10 0.717313 0.166265 0.602972
O O11 0.720973 0.126696 0.691121
O O12 0.500000 0.000000 0.716182
O O13 0.000000 0.000000 0.695774
O O14 0.579039 0.757689 0.664161
O O15 0.546433 0.863828 0.058415
O O16 0.500000 0.000000 0.075286
O O17 0.005015 0.773201 0.945276
#
# Coordination Sequence:
#
# PCOD9427276 Si02
#       8
#     8   8   2   8   8   8   8   8
#     4   9  18  33  54  84 114 143 179 228 279 327
#     4   9  21  40  61  86 114 157 195 238 287 364
#     4  12  26  40  68  90 116 148 188 246 296 338
#     4   8  14  26  48  80 115 153 203 261 311 355
#     4  11  24  40  58  85 123 162 201 249 313 369
#     4  10  20  36  60  89 122 163 213 263 309 363
#     4  10  23  43  65  92 123 153 194 242 292 351
#     4   9  19  37  62  89 119 152 184 221 272 333
#
# _framework density 22.507984
#
# number of rings (size 3 to 8) (size 9 to 14) (size 15 to 20)
#    0.000    2.483    0.000    1.034    2.897    3.310 
#    4.966    0.690    0.000    0.828    0.000    0.000 
#    0.000    0.000    0.000    0.000    0.000    0.000 
#
# Total GULP energy -323433.293530 kJ/mol
# GULP energy per Si atom -5576.436095 kJ/mol
# Density = 2.245675 g / cm^3
# Si number density = 22.507984 Si / 1000 Ang^3
#
#
#
# Elastic Constant Matrix: (Units=GPa)
#
#
# Indices 1 2 3 4 5 6 
#
# 1 100.6863 18.5082 5.1027 0.0000 0.0000 0.0000
# 2 18.5082 104.6054 25.6751 0.0000 0.0000 0.0000
# 3 5.1027 25.6751 123.8469 0.0000 0.0000 0.0000
# 4 0.0000 0.0000 0.0000 14.4363 0.0000 0.0000
# 5 0.0000 0.0000 0.0000 0.0000 10.6600 0.0000
# 6 0.0000 0.0000 0.0000 0.0000 0.0000 38.7534
#
#
#
# Elastic Compliance Matrix: (Units=1/GPa)
#
#
# Indices 1 2 3 4 5 6 
#
# 1 0.010266 -0.001804 -0.000049 0.000000 0.000000 0.000000
# 2 -0.001804 0.010389 -0.002080 0.000000 0.000000 0.000000
# 3 -0.000049 -0.002080 0.008508 0.000000 0.000000 0.000000
# 4 0.000000 0.000000 0.000000 0.069270 0.000000 0.000000
# 5 0.000000 0.000000 0.000000 0.000000 0.093808 0.000000
# 6 0.000000 0.000000 0.000000 0.000000 0.000000 0.025804
#
#
# Mechanical properties :
#
#
# Convention : Reuss Voigt Hill
#
# Bulk Modulus (GPa) = 46.95411 47.52340 47.23875
# Shear Modulus (GPa) = 21.45826 31.42677 26.44251
#
# Velocity S-wave (km/s) = 3.09101 3.74070 3.43126
# Velocity P-wave (km/s) = 5.80047 6.31007 6.06063
#
# Compressibility (1/GPa) = 0.02129739
#
# Stress axis : x y z
#
# Youngs Moduli (GPa) = 97.40890 96.25187 117.54173
#
# Poissons Ratio (x) = 0.17368 0.00575
# Poissons Ratio (y) = 0.17576 0.24443
# Poissons Ratio (z) = 0.00476 0.20016
#
# Static dielectric constant tensor:
#      x y z
#    x 1.853000 0.000000 0.000000 
#    y 0.000000 1.849020 0.000000 
#    z 0.000000 0.000000 1.912410 
# 
# From -- ./inp_files/23856.got.cif
#   From: 2010.05.17/outbox.cif.g08.bks.cpg/sg55_12_cif.got.tgz:23856.got - 2010.06.03 13:27:54.
