data_PCOD9427843
_publ_section_title
;
Structure prediction by ZEFSAII (Michael W. Deem and Ramdas Pophale) SiO2 
 PCOD9427843
Probable space group: P B A M
;
_chemical_formula_sum "Si O2"
_cell_formula_units_Z 56
_cell_length_a 16.236846
_cell_length_b 19.906127
_cell_length_c 7.545764
_cell_angle_alpha 90.000000
_cell_angle_beta 90.000000
_cell_angle_gamma 90.000000
_cell_volume 2438.886896
_symmetry_space_group_name_H-M "P B A M"
_symmetry_group_IT_number 55
_symmetry_cell_setting 'orthorhombic'
loop_
_space_group_symop_operation_xyz
x,y,z
-x,-y,z
1/2+x,1/2-y,-z
1/2-x,1/2+y,-z
-x,-y,-z
x,y,-z
1/2-x,1/2+y,z
1/2+x,1/2-y,z
loop_
_atom_site_type_symbol
_atom_site_label
_atom_site_fract_x
_atom_site_fract_y
_atom_site_fract_z
Si Si1 0.336676 0.407674 0.211376
Si Si2 0.822730 0.817752 0.295257
Si Si3 0.988052 0.179921 0.785087
Si Si4 0.082503 0.530394 0.296036
Si Si5 0.175791 0.334536 0.795571
Si Si6 0.260132 0.541688 0.713987
Si Si7 0.989258 0.332612 0.785115
O O1 0.419020 0.371825 0.277932
O O2 0.253361 0.373146 0.285173
O O3 0.328729 0.486839 0.241996
O O4 0.336717 0.395728 0.000000
O O5 0.798925 0.809806 0.500000
O O6 0.808129 0.745542 0.208287
O O7 0.778469 0.883483 0.219663
O O8 0.920349 0.832329 0.284422
O O9 0.965464 0.256710 0.737189
O O10 0.993793 0.177458 0.000000
O O11 0.084499 0.506732 0.500000
O O12 0.171699 0.515716 0.217500
O O13 0.069148 0.610293 0.289907
O O14 0.000000 0.500000 0.211507
O O15 0.083684 0.344866 0.721302
O O16 0.169694 0.355631 0.000000
O O17 0.255303 0.545932 0.500000
O O18 0.988124 0.336863 0.000000
#
# Coordination Sequence:
#
# PCOD9427843 Si02
#       7
#     8   8   8   8   8   8   8
#     4  10  21  37  59  84 109 144 188 230 282 339
#     4  10  21  37  56  80 111 149 190 228 276 334
#     4   9  20  38  57  82 112 140 182 237 283 327
#     4  10  21  36  54  77 110 148 182 221 272 329
#     4   9  19  36  58  83 113 143 180 232 281 329
#     4  10  23  39  53  79 116 148 185 232 276 330
#     4   9  18  33  54  81 109 137 175 225 273 323
#
# _framework density 22.961295
#
# number of rings (size 3 to 8) (size 9 to 14) (size 15 to 20)
#    0.000    2.429    0.000    2.143    2.000    6.000 
#    0.000    2.857    0.000    0.000    0.000    0.000 
#    0.000    0.000    0.000    0.000    0.000    0.000 
#
# Total GULP energy -312862.729432 kJ/mol
# GULP energy per Si atom -5586.834454 kJ/mol
# Density = 2.290903 g / cm^3
# Si number density = 22.961295 Si / 1000 Ang^3
#
#
#
# Elastic Constant Matrix: (Units=GPa)
#
#
# Indices 1 2 3 4 5 6 
#
# 1 35.5908 22.4847 -4.7335 0.0000 0.0000 0.0000
# 2 22.4847 68.3407 -7.8151 0.0000 0.0000 0.0000
# 3 -4.7335 -7.8151 60.0861 0.0000 0.0000 0.0000
# 4 0.0000 0.0000 0.0000 25.5065 0.0000 0.0000
# 5 0.0000 0.0000 0.0000 0.0000 9.3880 0.0000
# 6 0.0000 0.0000 0.0000 0.0000 0.0000 37.4019
#
#
#
# Elastic Compliance Matrix: (Units=1/GPa)
#
#
# Indices 1 2 3 4 5 6 
#
# 1 0.035569 -0.011554 0.001299 0.000000 0.000000 0.000000
# 2 -0.011554 0.018607 0.001510 0.000000 0.000000 0.000000
# 3 0.001299 0.001510 0.016942 0.000000 0.000000 0.000000
# 4 0.000000 0.000000 0.000000 0.039206 0.000000 0.000000
# 5 0.000000 0.000000 0.000000 0.000000 0.106519 0.000000
# 6 0.000000 0.000000 0.000000 0.000000 0.000000 0.026737
#
#
# Mechanical properties :
#
#
# Convention : Reuss Voigt Hill
#
# Bulk Modulus (GPa) = 18.64708 20.43221 19.53965
# Shear Modulus (GPa) = 17.92471 24.73137 21.32804
#
# Velocity S-wave (km/s) = 2.79704 3.28546 3.05104
# Velocity P-wave (km/s) = 4.30929 4.82807 4.57604
#
# Compressibility (1/GPa) = 0.05362771
#
# Stress axis : x y z
#
# Youngs Moduli (GPa) = 28.11409 53.74432 59.02659
#
# Poissons Ratio (x) = 0.62097 -0.07669
# Poissons Ratio (y) = 0.32483 -0.08912
# Poissons Ratio (z) = -0.03653 -0.08115
#
# Static dielectric constant tensor:
#      x y z
#    x 1.862280 0.000000 0.000000 
#    y 0.000000 1.839350 0.000000 
#    z 0.000000 0.000000 1.932190 
# 
# From -- ./inp_files/6130.got.cif
#   From: 2010.05.17/outbox.cif.g08.bks.cpg/sg55_4_cif.got.tgz:6130.got - 2010.06.03 13:27:54.
