data_PCOD9427931
_publ_section_title
;
Structure prediction by ZEFSAII (Michael W. Deem and Ramdas Pophale) SiO2 
 PCOD9427931
Probable space group: P B A M
;
_chemical_formula_sum "Si O2"
_cell_formula_units_Z 40
_cell_length_a 21.175921
_cell_length_b 10.775521
_cell_length_c 7.441649
_cell_angle_alpha 90.000000
_cell_angle_beta 90.000000
_cell_angle_gamma 90.000000
_cell_volume 1698.047237
_symmetry_space_group_name_H-M "P B A M"
_symmetry_group_IT_number 55
_symmetry_cell_setting 'orthorhombic'
loop_
_space_group_symop_operation_xyz
x,y,z
-x,-y,z
1/2+x,1/2-y,-z
1/2-x,1/2+y,-z
-x,-y,-z
x,y,-z
1/2-x,1/2+y,z
1/2+x,1/2-y,z
loop_
_atom_site_type_symbol
_atom_site_label
_atom_site_fract_x
_atom_site_fract_y
_atom_site_fract_z
Si Si1 0.294828 0.480483 0.205590
Si Si2 0.432147 0.539922 0.293148
Si Si3 0.589142 0.910481 0.781772
Si Si4 0.780016 0.287574 0.779269
Si Si5 0.950973 0.678696 0.782519
O O1 0.370568 0.480977 0.205539
O O2 0.270531 0.352197 0.286636
O O3 0.269815 0.609606 0.282614
O O4 0.271882 0.481689 0.000000
O O5 0.500000 0.500000 0.215526
O O6 0.431122 0.499353 0.500000
O O7 0.427849 0.688808 0.283228
O O8 0.651248 0.838298 0.725373
O O9 0.523686 0.845613 0.726916
O O10 0.586671 0.055023 0.726336
O O11 0.588641 0.911085 0.000000
O O12 0.778917 0.280131 0.000000
O O13 0.948975 0.683360 0.000000
#
# Coordination Sequence:
#
# PCOD9427931 Si02
#       5
#     8   8   8   8   8
#     4  10  21  36  59  87 112 146 186 227 276 333
#     4  11  24  39  54  76 111 150 189 235 283 328
#     4   8  15  29  52  85 119 143 173 225 279 329
#     4   9  18  32  54  85 117 143 177 225 277 328
#     4   9  17  31  57  86 109 142 185 228 276 328
#
# _framework density 23.556470999999998
#
# number of rings (size 3 to 8) (size 9 to 14) (size 15 to 20)
#    0.000    2.600    0.000    3.000    2.800    3.200 
#    0.000    3.000    0.000    2.400    0.000    0.000 
#    0.000    0.000    0.000    0.000    0.000    0.000 
#
# Total GULP energy -223545.950078 kJ/mol
# GULP energy per Si atom -5588.648752 kJ/mol
# Density = 2.350285 g / cm^3
# Si number density = 23.556471 Si / 1000 Ang^3
#
#
#
# Elastic Constant Matrix: (Units=GPa)
#
#
# Indices 1 2 3 4 5 6 
#
# 1 62.4555 55.9189 -4.0866 0.0000 0.0000 0.0000
# 2 55.9189 168.4466 1.2777 0.0000 0.0000 0.0000
# 3 -4.0866 1.2777 70.9105 0.0000 0.0000 0.0000
# 4 0.0000 0.0000 0.0000 8.3531 0.0000 0.0000
# 5 0.0000 0.0000 0.0000 0.0000 -23.7707 0.0000
# 6 0.0000 0.0000 0.0000 0.0000 0.0000 31.2445
#
#
#
# Elastic Compliance Matrix: (Units=1/GPa)
#
#
# Indices 1 2 3 4 5 6 
#
# 1 0.022933 -0.007624 0.001459 0.000000 0.000000 0.000000
# 2 -0.007624 0.008472 -0.000592 0.000000 0.000000 0.000000
# 3 0.001459 -0.000592 0.014197 0.000000 0.000000 0.000000
# 4 0.000000 0.000000 0.000000 0.119716 0.000000 0.000000
# 5 0.000000 0.000000 0.000000 0.000000 -0.042069 0.000000
# 6 0.000000 0.000000 0.000000 0.000000 0.000000 0.032006
#
#
# Mechanical properties :
#
#
# Convention : Reuss Voigt Hill
#
# Bulk Modulus (GPa) = 31.16441 45.33695 38.25068
# Shear Modulus (GPa) = 27.86048 19.74554 23.80301
#
# Velocity S-wave (km/s) = 3.44279 2.89835 3.18223
# Velocity P-wave (km/s) = 5.39093 5.52163 5.45667
#
# Compressibility (1/GPa) = 0.03208788
#
# Stress axis : x y z
#
# Youngs Moduli (GPa) = 43.60524 118.03518 70.43723
#
# Poissons Ratio (x) = 0.89991 -0.10277
# Poissons Ratio (y) = 0.33245 0.04170
# Poissons Ratio (z) = -0.06362 0.06988
#
# Static dielectric constant tensor:
#      x y z
#    x 1.856530 0.000000 0.000000 
#    y 0.000000 1.882640 0.000000 
#    z 0.000000 0.000000 1.896520 
# 
# From -- ./inp_files/9301.got.cif
#   From: 2010.05.17/outbox.cif.g08.bks.cpg/sg55_5_cif.got.tgz:9301.got - 2010.06.03 13:27:54.
