data_PCOD9427947
_publ_section_title
;
Structure prediction by ZEFSAII (Michael W. Deem and Ramdas Pophale) SiO2 
 PCOD9427947
Probable space group: P B A M
;
_chemical_formula_sum "Si O2"
_cell_formula_units_Z 64
_cell_length_a 17.691536
_cell_length_b 21.940839
_cell_length_c 7.617770
_cell_angle_alpha 90.000000
_cell_angle_beta 90.000000
_cell_angle_gamma 90.000000
_cell_volume 2956.968017
_symmetry_space_group_name_H-M "P B A M"
_symmetry_group_IT_number 55
_symmetry_cell_setting 'orthorhombic'
loop_
_space_group_symop_operation_xyz
x,y,z
-x,-y,z
1/2+x,1/2-y,-z
1/2-x,1/2+y,-z
-x,-y,-z
x,y,-z
1/2-x,1/2+y,z
1/2+x,1/2-y,z
loop_
_atom_site_type_symbol
_atom_site_label
_atom_site_fract_x
_atom_site_fract_y
_atom_site_fract_z
Si Si1 0.835936 0.465926 0.286826
Si Si2 0.789034 0.160194 0.702415
Si Si3 0.647117 0.784264 0.202900
Si Si4 0.218839 0.134145 0.795522
Si Si5 0.569873 0.419853 0.785519
Si Si6 0.638138 0.105554 0.284729
Si Si7 0.596714 0.559483 0.787757
Si Si8 0.530409 0.878023 0.703520
O O1 0.833015 0.463002 0.500000
O O2 0.762693 0.430372 0.217785
O O3 0.842905 0.535994 0.234917
O O4 0.909582 0.427533 0.225542
O O5 0.782374 0.177927 0.500000
O O6 0.838824 0.212818 0.788333
O O7 0.705234 0.149729 0.776819
O O8 0.833155 0.096535 0.715363
O O9 0.721695 0.817539 0.280955
O O10 0.572814 0.813285 0.287045
O O11 0.641554 0.802790 0.000000
O O12 0.135129 0.125260 0.720845
O O13 0.209296 0.150401 0.000000
O O14 0.592034 0.488905 0.734509
O O15 0.483197 0.410187 0.732970
O O16 0.570722 0.418891 0.000000
O O17 0.640125 0.107814 0.500000
O O18 0.553895 0.121518 0.222465
O O19 0.600751 0.561031 0.000000
O O20 0.521141 0.895260 0.500000
#
# Coordination Sequence:
#
# PCOD9427947 Si02
#       8
#     8   8   8   8   8   8   8   8
#     4   9  16  28  51  81 109 136 165 200 251 308
#     4  11  22  36  52  72 103 139 173 213 259 302
#     4  10  21  37  53  70  98 135 176 218 257 301
#     4   9  17  31  51  74 101 133 170 211 253 297
#     4   8  15  30  53  79 104 133 167 206 254 309
#     4   9  18  32  52  79 107 135 167 206 251 309
#     4   9  17  32  54  77 104 135 168 206 255 309
#     4   9  17  33  56  78 103 135 170 208 253 305
#
# _framework density 21.643791
#
# number of rings (size 3 to 8) (size 9 to 14) (size 15 to 20)
#    0.000    2.750    0.000    2.625    0.000    2.000 
#    2.250    4.375    0.000    3.000    0.000    0.000 
#    0.000    0.000    0.000    0.000    0.000    0.000 
#
# Total GULP energy -357092.669269 kJ/mol
# GULP energy per Si atom -5579.572957 kJ/mol
# Density = 2.159453 g / cm^3
# Si number density = 21.643791 Si / 1000 Ang^3
#
#
#
# Elastic Constant Matrix: (Units=GPa)
#
#
# Indices 1 2 3 4 5 6 
#
# 1 94.7154 2.5341 -6.9315 0.0000 0.0000 0.0000
# 2 2.5341 39.0047 -3.6350 0.0000 0.0000 0.0000
# 3 -6.9315 -3.6350 42.5433 0.0000 0.0000 0.0000
# 4 0.0000 0.0000 0.0000 13.8256 0.0000 0.0000
# 5 0.0000 0.0000 0.0000 0.0000 3.6517 0.0000
# 6 0.0000 0.0000 0.0000 0.0000 0.0000 12.1301
#
#
#
# Elastic Compliance Matrix: (Units=1/GPa)
#
#
# Indices 1 2 3 4 5 6 
#
# 1 0.010696 -0.000537 0.001697 0.000000 0.000000 0.000000
# 2 -0.000537 0.025871 0.002123 0.000000 0.000000 0.000000
# 3 0.001697 0.002123 0.023963 0.000000 0.000000 0.000000
# 4 0.000000 0.000000 0.000000 0.072330 0.000000 0.000000
# 5 0.000000 0.000000 0.000000 0.000000 0.273842 0.000000
# 6 0.000000 0.000000 0.000000 0.000000 0.000000 0.082440
#
#
# Mechanical properties :
#
#
# Convention : Reuss Voigt Hill
#
# Bulk Modulus (GPa) = 14.90386 17.79982 16.35184
# Shear Modulus (GPa) = 9.90214 18.20786 14.05500
#
# Velocity S-wave (km/s) = 2.14126 2.90358 2.55105
# Velocity P-wave (km/s) = 3.60752 4.41394 4.03095
#
# Compressibility (1/GPa) = 0.06709673
#
# Stress axis : x y z
#
# Youngs Moduli (GPa) = 93.48861 38.65381 41.73040
#
# Poissons Ratio (x) = 0.02075 -0.07081
# Poissons Ratio (y) = 0.05018 -0.08859
# Poissons Ratio (z) = -0.15864 -0.08206
#
# Static dielectric constant tensor:
#      x y z
#    x 1.805000 0.000000 0.000000 
#    y 0.000000 1.755770 0.000000 
#    z 0.000000 0.000000 1.819480 
# 
# From -- ./inp_files/7995.got.cif
#   From: 2010.05.17/outbox.cif.g08.bks.cpg/sg55_4_cif.got.tgz:7995.got - 2010.06.03 13:27:54.
