data_PCOD9427724
_publ_section_title
;
Structure prediction by ZEFSAII (Michael W. Deem and Ramdas Pophale) SiO2 
 PCOD9427724
Probable space group: P B A M
;
_chemical_formula_sum "Si O2"
_cell_formula_units_Z 44
_cell_length_a 14.596605
_cell_length_b 9.575893
_cell_length_c 15.728117
_cell_angle_alpha 90.000000
_cell_angle_beta 90.000000
_cell_angle_gamma 90.000000
_cell_volume 2198.405853
_symmetry_space_group_name_H-M "P B A M"
_symmetry_group_IT_number 55
_symmetry_cell_setting 'orthorhombic'
loop_
_space_group_symop_operation_xyz
x,y,z
-x,-y,z
1/2+x,1/2-y,-z
1/2-x,1/2+y,-z
-x,-y,-z
x,y,-z
1/2-x,1/2+y,z
1/2+x,1/2-y,z
loop_
_atom_site_type_symbol
_atom_site_label
_atom_site_fract_x
_atom_site_fract_y
_atom_site_fract_z
Si Si1 0.129678 0.385246 0.000000
Si Si2 0.908250 0.586504 0.401544
Si Si3 0.000000 0.500000 0.854094
Si Si4 0.765274 0.044294 0.722070
Si Si5 0.838609 0.317140 0.815227
Si Si6 0.092268 0.087352 0.405299
Si Si7 0.719769 0.826286 0.000000
O O1 0.067991 0.415367 0.082909
O O2 0.178981 0.237136 0.000000
O O3 0.206784 0.506714 0.000000
O O4 0.881767 0.553293 0.500000
O O5 0.824393 0.564105 0.337147
O O6 0.930235 0.750207 0.397451
O O7 0.000000 0.500000 0.382717
O O8 0.938333 0.388239 0.803650
O O9 0.732693 0.942608 0.797273
O O10 0.838453 0.963406 0.665461
O O11 0.808925 0.188057 0.756402
O O12 0.829567 0.275957 0.913893
O O13 0.132305 0.064671 0.500000
O O14 0.000000 0.000000 0.399145
#
# Coordination Sequence:
#
# PCOD9427724 Si02
#       7
#     4   8   4   8   8   8   4
#     4   9  18  38  70  85 124 160 228 275 338 397
#     4  10  23  43  69  98 131 175 223 269 331 406
#     4   9  20  38  62  98 119 176 220 278 337 410
#     4  12  24  42  64 101 131 180 215 287 327 402
#     4  11  24  40  69  90 136 175 228 278 346 392
#     4  10  23  43  65  93 133 173 216 272 335 399
#     4  10  20  42  62  90 120 176 218 272 330 412
#
# _framework density 20.014502
#
# number of rings (size 3 to 8) (size 9 to 14) (size 15 to 20)
#    0.000    1.636    1.818    3.273    3.818    0.000 
#    3.273    0.000    0.000    8.727    0.000    0.000 
#    0.000    0.000    0.000    0.000    0.000    0.000 
#
# Total GULP energy -245725.749602 kJ/mol
# GULP energy per Si atom -5584.676127 kJ/mol
# Density = 1.996895 g / cm^3
# Si number density = 20.014502 Si / 1000 Ang^3
#
#
#
# Elastic Constant Matrix: (Units=GPa)
#
#
# Indices 1 2 3 4 5 6 
#
# 1 108.3267 73.6563 56.9967 0.0000 0.0000 0.0000
# 2 73.6563 102.1641 47.7216 0.0000 0.0000 0.0000
# 3 56.9967 47.7216 115.0200 0.0000 0.0000 0.0000
# 4 0.0000 0.0000 0.0000 24.2577 0.0000 0.0000
# 5 0.0000 0.0000 0.0000 0.0000 39.8628 0.0000
# 6 0.0000 0.0000 0.0000 0.0000 0.0000 47.3175
#
#
#
# Elastic Compliance Matrix: (Units=1/GPa)
#
#
# Indices 1 2 3 4 5 6 
#
# 1 0.020113 -0.012212 -0.004900 0.000000 0.000000 0.000000
# 2 -0.012212 0.019556 -0.002062 0.000000 0.000000 0.000000
# 3 -0.004900 -0.002062 0.011978 0.000000 0.000000 0.000000
# 4 0.000000 0.000000 0.000000 0.041224 0.000000 0.000000
# 5 0.000000 0.000000 0.000000 0.000000 0.025086 0.000000
# 6 0.000000 0.000000 0.000000 0.000000 0.000000 0.021134
#
#
# Mechanical properties :
#
#
# Convention : Reuss Voigt Hill
#
# Bulk Modulus (GPa) = 75.19710 75.80668 75.50189
# Shear Modulus (GPa) = 27.49200 32.09668 29.79434
#
# Velocity S-wave (km/s) = 3.71024 4.00893 3.86247
# Velocity P-wave (km/s) = 7.48381 7.70628 7.59586
#
# Compressibility (1/GPa) = 0.01329838
#
# Stress axis : x y z
#
# Youngs Moduli (GPa) = 49.71949 51.13617 83.48701
#
# Poissons Ratio (x) = 0.62446 0.40909
# Poissons Ratio (y) = 0.60716 0.17217
# Poissons Ratio (z) = 0.24363 0.10545
#
# Static dielectric constant tensor:
#      x y z
#    x 1.694440 0.000000 0.000000 
#    y 0.000000 1.656000 0.000000 
#    z 0.000000 0.000000 1.758560 
# 
# From -- ./inp_files/20736.got.cif
#   From: 2010.05.17/outbox.cif.g08.bks.cpg/sg55_11_cif.got.tgz:20736.got - 2010.06.03 13:27:54.
