data_PCOD9427716
_publ_section_title
;
Structure prediction by ZEFSAII (Michael W. Deem and Ramdas Pophale) SiO2 
 PCOD9427716
Probable space group: P B A M
;
_chemical_formula_sum "Si O2"
_cell_formula_units_Z 48
_cell_length_a 9.091551
_cell_length_b 17.498525
_cell_length_c 15.043983
_cell_angle_alpha 90.000000
_cell_angle_beta 90.000000
_cell_angle_gamma 90.000000
_cell_volume 2393.328187
_symmetry_space_group_name_H-M "P B A M"
_symmetry_group_IT_number 55
_symmetry_cell_setting 'orthorhombic'
loop_
_space_group_symop_operation_xyz
x,y,z
-x,-y,z
1/2+x,1/2-y,-z
1/2-x,1/2+y,-z
-x,-y,-z
x,y,-z
1/2-x,1/2+y,z
1/2+x,1/2-y,z
loop_
_atom_site_type_symbol
_atom_site_label
_atom_site_fract_x
_atom_site_fract_y
_atom_site_fract_z
Si Si1 0.122133 0.894817 0.651901
Si Si2 0.288652 0.569687 0.346733
Si Si3 0.712962 0.195999 0.500000
Si Si4 0.135782 0.658783 0.000000
Si Si5 0.355730 0.043667 0.840045
Si Si6 0.625431 0.852364 0.500000
Si Si7 0.386898 0.430571 0.151931
Si Si8 0.515230 0.323173 0.000000
O O1 0.210587 0.840608 0.586855
O O2 0.152131 0.887279 0.757079
O O3 0.945732 0.888440 0.640564
O O4 0.173585 0.981500 0.632559
O O5 0.231046 0.575624 0.245614
O O6 0.164485 0.598968 0.413000
O O7 0.539945 0.178742 0.500000
O O8 0.757741 0.283721 0.500000
O O9 0.107629 0.607414 0.087362
O O10 0.309172 0.677501 0.000000
O O11 0.046738 0.737566 0.000000
O O12 0.500000 0.000000 0.807382
O O13 0.252733 0.977800 0.883095
O O14 0.500000 0.500000 0.173887
O O15 0.457611 0.372190 0.083692
#
# Coordination Sequence:
#
# PCOD9427716 Si02
#       8
#     8   8   4   4   8   4   8   4
#     4  10  20  41  68  96 123 161 213 262 318 369
#     4  10  21  41  67  96 125 162 209 266 313 374
#     4  12  27  42  63  91 130 173 208 258 321 386
#     4  12  26  44  60  99 133 175 211 267 321 386
#     4  11  24  41  70  97 132 164 222 268 316 374
#     4  12  27  42  61  91 131 172 209 257 325 382
#     4  11  20  44  70  95 122 176 214 265 318 381
#     4  12  26  41  66  93 137 170 217 259 327 384
#
# _framework density 20.055752999999999
#
# number of rings (size 3 to 8) (size 9 to 14) (size 15 to 20)
#    0.000    1.000    5.000    3.000    7.000    3.333 
#    0.000    3.333    0.000    0.000    0.000    0.000 
#    0.000    0.000    0.000    0.000    0.000    0.000 
#
# Total GULP energy -268245.654498 kJ/mol
# GULP energy per Si atom -5588.451135 kJ/mol
# Density = 2.001011 g / cm^3
# Si number density = 20.055753 Si / 1000 Ang^3
#
#
#
# Elastic Constant Matrix: (Units=GPa)
#
#
# Indices 1 2 3 4 5 6 
#
# 1 105.1342 24.3216 32.7020 0.0000 0.0000 0.0000
# 2 24.3216 56.4818 48.0837 0.0000 0.0000 0.0000
# 3 32.7020 48.0837 117.7637 0.0000 0.0000 0.0000
# 4 0.0000 0.0000 0.0000 32.7974 0.0000 0.0000
# 5 0.0000 0.0000 0.0000 0.0000 30.1206 0.0000
# 6 0.0000 0.0000 0.0000 0.0000 0.0000 37.0709
#
#
#
# Elastic Compliance Matrix: (Units=1/GPa)
#
#
# Indices 1 2 3 4 5 6 
#
# 1 0.010777 -0.003208 -0.001683 0.000000 0.000000 0.000000
# 2 -0.003208 0.028093 -0.010580 0.000000 0.000000 0.000000
# 3 -0.001683 -0.010580 0.013279 0.000000 0.000000 0.000000
# 4 0.000000 0.000000 0.000000 0.030490 0.000000 0.000000
# 5 0.000000 0.000000 0.000000 0.000000 0.033200 0.000000
# 6 0.000000 0.000000 0.000000 0.000000 0.000000 0.026975
#
#
# Mechanical properties :
#
#
# Convention : Reuss Voigt Hill
#
# Bulk Modulus (GPa) = 47.15313 54.39935 50.77624
# Shear Modulus (GPa) = 27.65110 31.61593 29.63352
#
# Velocity S-wave (km/s) = 3.71713 3.97470 3.84807
# Velocity P-wave (km/s) = 6.47957 6.94603 6.71685
#
# Compressibility (1/GPa) = 0.02120750
#
# Stress axis : x y z
#
# Youngs Moduli (GPa) = 92.78783 35.59621 75.30905
#
# Poissons Ratio (x) = 0.11420 0.12673
# Poissons Ratio (y) = 0.29768 0.79674
# Poissons Ratio (z) = 0.15615 0.37659
#
# Static dielectric constant tensor:
#      x y z
#    x 1.733150 0.000000 0.000000 
#    y 0.000000 1.681720 0.000000 
#    z 0.000000 0.000000 1.711400 
# 
# From -- ./inp_files/17445.got.cif
#   From: 2010.05.17/outbox.cif.g08.bks.cpg/sg55_9_cif.got.tgz:17445.got - 2010.06.03 13:27:54.
