data_PCOD9427343
_publ_section_title
;
Structure prediction by ZEFSAII (Michael W. Deem and Ramdas Pophale) SiO2 
 PCOD9427343
Probable space group: P B A M
;
_chemical_formula_sum "Si O2"
_cell_formula_units_Z 64
_cell_length_a 23.271530
_cell_length_b 9.343228
_cell_length_c 14.527835
_cell_angle_alpha 90.000000
_cell_angle_beta 90.000000
_cell_angle_gamma 90.000000
_cell_volume 3158.804753
_symmetry_space_group_name_H-M "P B A M"
_symmetry_group_IT_number 55
_symmetry_cell_setting 'orthorhombic'
loop_
_space_group_symop_operation_xyz
x,y,z
-x,-y,z
1/2+x,1/2-y,-z
1/2-x,1/2+y,-z
-x,-y,-z
x,y,-z
1/2-x,1/2+y,z
1/2+x,1/2-y,z
loop_
_atom_site_type_symbol
_atom_site_label
_atom_site_fract_x
_atom_site_fract_y
_atom_site_fract_z
Si Si1 0.217734 0.845793 0.889344
Si Si2 0.371577 0.294460 0.245959
Si Si3 0.285076 0.256727 0.390522
Si Si4 0.562902 0.170781 0.893676
Si Si5 0.324910 0.931809 0.609606
Si Si6 0.543526 0.629957 0.100702
Si Si7 0.175690 0.161556 0.110643
Si Si8 0.065826 0.509192 0.715897
O O1 0.173544 0.745759 0.833291
O O2 0.281048 0.790451 0.864451
O O3 0.201209 0.007794 0.859028
O O4 0.212190 0.834282 0.000000
O O5 0.331630 0.343169 0.329920
O O6 0.414239 0.389644 0.185538
O O7 0.411486 0.170240 0.285492
O O8 0.292754 0.279817 0.500000
O O9 0.221710 0.311457 0.365472
O O10 0.296819 0.088813 0.371000
O O11 0.498817 0.235251 0.888369
O O12 0.610887 0.290145 0.867704
O O13 0.568196 0.046380 0.820336
O O14 0.573269 0.128797 0.000000
O O15 0.333930 0.925488 0.500000
O O16 0.386161 0.922184 0.659229
O O17 0.500000 0.500000 0.096407
O O18 0.573326 0.638203 0.000000
O O19 0.176641 0.150353 0.000000
O O20 0.000000 0.500000 0.683222
#
# Coordination Sequence:
#
# PCOD9427343 Si02
#       8
#     8   8   8   8   8   8   8   8
#     4  10  21  35  53  80 115 149 191 242 297 356
#     4  11  22  35  57  84 111 151 193 243 293 345
#     4   9  20  40  63  88 116 147 187 234 296 363
#     4  10  21  36  55  77 114 158 197 245 289 338
#     4   9  20  41  67  90 117 152 190 242 303 362
#     4  10  20  37  57  78 109 157 206 243 286 343
#     4   9  20  36  52  76 110 151 192 237 293 348
#     4  11  23  39  56  87 120 151 204 247 291 357
#
# _framework density 20.260829000000001
#
# number of rings (size 3 to 8) (size 9 to 14) (size 15 to 20)
#    0.000    2.125    1.250    1.125    3.500    4.500 
#    2.250    0.000    0.000    0.375    0.000    0.000 
#    0.000    0.000    0.000    0.000    0.000    0.000 
#
# Total GULP energy -356926.744346 kJ/mol
# GULP energy per Si atom -5576.980380 kJ/mol
# Density = 2.021471 g / cm^3
# Si number density = 20.260829 Si / 1000 Ang^3
#
#
#
# Elastic Constant Matrix: (Units=GPa)
#
#
# Indices 1 2 3 4 5 6 
#
# 1 138.4794 37.2994 43.1364 0.0000 0.0000 0.0000
# 2 37.2994 35.9986 13.3437 0.0000 0.0000 0.0000
# 3 43.1364 13.3437 62.9482 0.0000 0.0000 0.0000
# 4 0.0000 0.0000 0.0000 15.8576 0.0000 0.0000
# 5 0.0000 0.0000 0.0000 0.0000 36.3158 0.0000
# 6 0.0000 0.0000 0.0000 0.0000 0.0000 33.4746
#
#
#
# Elastic Compliance Matrix: (Units=1/GPa)
#
#
# Indices 1 2 3 4 5 6 
#
# 1 0.011762 -0.009984 -0.005944 0.000000 0.000000 0.000000
# 2 -0.009984 0.038622 -0.001346 0.000000 0.000000 0.000000
# 3 -0.005944 -0.001346 0.020244 0.000000 0.000000 0.000000
# 4 0.000000 0.000000 0.000000 0.063061 0.000000 0.000000
# 5 0.000000 0.000000 0.000000 0.000000 0.027536 0.000000
# 6 0.000000 0.000000 0.000000 0.000000 0.000000 0.029873
#
#
# Mechanical properties :
#
#
# Convention : Reuss Voigt Hill
#
# Bulk Modulus (GPa) = 27.71435 47.22057 37.46746
# Shear Modulus (GPa) = 21.03735 26.70605 23.87170
#
# Velocity S-wave (km/s) = 3.22580 3.63452 3.43624
# Velocity P-wave (km/s) = 5.25194 6.40078 5.85461
#
# Compressibility (1/GPa) = 0.03608238
#
# Stress axis : x y z
#
# Youngs Moduli (GPa) = 85.02052 25.89190 49.39649
#
# Poissons Ratio (x) = 0.25850 0.29360
# Poissons Ratio (y) = 0.84882 0.06647
# Poissons Ratio (z) = 0.50534 0.03484
#
# Static dielectric constant tensor:
#      x y z
#    x 1.750950 0.000000 0.000000 
#    y 0.000000 1.785040 0.000000 
#    z 0.000000 0.000000 1.707630 
# 
# From -- ./inp_files/19970.got.cif
#   From: 2010.05.17/outbox.cif.g08.bks.cpg/sg55_10_cif.got.tgz:19970.got - 2010.06.03 13:27:54.
