data_PCOD9427261
_publ_section_title
;
Structure prediction by ZEFSAII (Michael W. Deem and Ramdas Pophale) SiO2 
 PCOD9427261
Probable space group: P B A M
;
_chemical_formula_sum "Si O2"
_cell_formula_units_Z 64
_cell_length_a 15.785187
_cell_length_b 23.446760
_cell_length_c 9.660353
_cell_angle_alpha 90.000000
_cell_angle_beta 90.000000
_cell_angle_gamma 90.000000
_cell_volume 3575.407654
_symmetry_space_group_name_H-M "P B A M"
_symmetry_group_IT_number 55
_symmetry_cell_setting 'orthorhombic'
loop_
_space_group_symop_operation_xyz
x,y,z
-x,-y,z
1/2+x,1/2-y,-z
1/2-x,1/2+y,-z
-x,-y,-z
x,y,-z
1/2-x,1/2+y,z
1/2+x,1/2-y,z
loop_
_atom_site_type_symbol
_atom_site_label
_atom_site_fract_x
_atom_site_fract_y
_atom_site_fract_z
Si Si1 0.060309 0.256156 0.154755
Si Si2 0.482369 0.336249 0.340077
Si Si3 0.241939 0.069310 0.167655
Si Si4 0.427018 0.547000 0.332555
Si Si5 0.903861 0.504557 0.166518
Si Si6 0.350213 0.866545 0.836737
Si Si7 0.794375 0.192585 0.661490
Si Si8 0.749271 0.795843 0.841565
O O1 0.071933 0.322884 0.184500
O O2 0.154689 0.228675 0.158732
O O3 0.006873 0.220241 0.259972
O O4 0.026582 0.249130 0.000000
O O5 0.504697 0.328616 0.500000
O O6 0.532321 0.391976 0.291805
O O7 0.381836 0.341757 0.329106
O O8 0.161154 0.043063 0.248806
O O9 0.248199 0.137354 0.195331
O O10 0.329842 0.038830 0.211307
O O11 0.230943 0.062468 0.000000
O O12 0.500000 0.500000 0.303395
O O13 0.412282 0.545803 0.500000
O O14 0.872819 0.568726 0.191813
O O15 0.000000 0.500000 0.221393
O O16 0.909215 0.496511 0.000000
O O17 0.276127 0.843616 0.740505
O O18 0.326937 0.860741 0.000000
O O19 0.773576 0.201071 0.500000
O O20 0.799646 0.253879 0.737892
O O21 0.717384 0.790669 0.000000
#
# Coordination Sequence:
#
# PCOD9427261 Si02
#       8
#     8   8   8   8   8   8   8   8
#     4   9  17  31  52  76 105 138 173 220 270 318
#     4  10  21  35  51  78 111 142 182 222 265 328
#     4  10  20  36  60  86 112 145 189 237 276 325
#     4  10  22  38  56  79 113 155 190 224 278 341
#     4   9  19  36  58  84 112 144 184 230 281 333
#     4   9  19  36  56  80 109 142 182 223 273 328
#     4  10  21  34  52  79 110 144 180 221 271 330
#     4   9  18  34  53  78 108 137 178 225 274 325
#
# _framework density 17.900055999999999
#
# number of rings (size 3 to 8) (size 9 to 14) (size 15 to 20)
#    0.000    2.500    1.250    1.125    1.750    4.750 
#    0.000    2.500    0.000    1.500    0.000    0.000 
#    0.000    0.000    0.000    0.000    0.000    0.000 
#
# Total GULP energy -356628.885233 kJ/mol
# GULP energy per Si atom -5572.326332 kJ/mol
# Density = 1.785931 g / cm^3
# Si number density = 17.900056 Si / 1000 Ang^3
#
#
#
# Elastic Constant Matrix: (Units=GPa)
#
#
# Indices 1 2 3 4 5 6 
#
# 1 84.6547 42.7227 43.4877 0.0000 0.0000 0.0000
# 2 42.7227 55.1617 30.4627 0.0000 0.0000 0.0000
# 3 43.4877 30.4627 42.0125 0.0000 0.0000 0.0000
# 4 0.0000 0.0000 0.0000 14.4421 0.0000 0.0000
# 5 0.0000 0.0000 0.0000 0.0000 27.0108 0.0000
# 6 0.0000 0.0000 0.0000 0.0000 0.0000 13.4284
#
#
#
# Elastic Compliance Matrix: (Units=1/GPa)
#
#
# Indices 1 2 3 4 5 6 
#
# 1 0.027891 -0.009437 -0.022028 0.000000 0.000000 0.000000
# 2 -0.009437 0.033429 -0.014470 0.000000 0.000000 0.000000
# 3 -0.022028 -0.014470 0.057096 0.000000 0.000000 0.000000
# 4 0.000000 0.000000 0.000000 0.069242 0.000000 0.000000
# 5 0.000000 0.000000 0.000000 0.000000 0.037022 0.000000
# 6 0.000000 0.000000 0.000000 0.000000 0.000000 0.074469
#
#
# Mechanical properties :
#
#
# Convention : Reuss Voigt Hill
#
# Bulk Modulus (GPa) = 37.67129 46.13056 41.90092
# Shear Modulus (GPa) = 12.50414 15.31997 13.91206
#
# Velocity S-wave (km/s) = 2.64588 2.92869 2.79087
# Velocity P-wave (km/s) = 5.51591 6.10437 5.81759
#
# Compressibility (1/GPa) = 0.02654542
#
# Stress axis : x y z
#
# Youngs Moduli (GPa) = 35.85387 29.91458 17.51438
#
# Poissons Ratio (x) = 0.28230 0.38580
# Poissons Ratio (y) = 0.33835 0.25344
# Poissons Ratio (z) = 0.78978 0.43288
#
# Static dielectric constant tensor:
#      x y z
#    x 1.622010 0.000000 0.000000 
#    y 0.000000 1.607710 0.000000 
#    z 0.000000 0.000000 1.606540 
# 
# From -- ./inp_files/6641.got.cif
#   From: 2010.05.17/outbox.cif.g08.bks.cpg/sg55_4_cif.got.tgz:6641.got - 2010.06.03 13:27:54.
