data_PCOD9427919
_publ_section_title
;
Structure prediction by ZEFSAII (Michael W. Deem and Ramdas Pophale) SiO2 
 PCOD9427919
Probable space group: P B A M
;
_chemical_formula_sum "Si O2"
_cell_formula_units_Z 48
_cell_length_a 22.479223
_cell_length_b 12.282021
_cell_length_c 7.738747
_cell_angle_alpha 90.000000
_cell_angle_beta 90.000000
_cell_angle_gamma 90.000000
_cell_volume 2136.592895
_symmetry_space_group_name_H-M "P B A M"
_symmetry_group_IT_number 55
_symmetry_cell_setting 'orthorhombic'
loop_
_space_group_symop_operation_xyz
x,y,z
-x,-y,z
1/2+x,1/2-y,-z
1/2-x,1/2+y,-z
-x,-y,-z
x,y,-z
1/2-x,1/2+y,z
1/2+x,1/2-y,z
loop_
_atom_site_type_symbol
_atom_site_label
_atom_site_fract_x
_atom_site_fract_y
_atom_site_fract_z
Si Si1 0.955091 0.086179 0.802817
Si Si2 0.833853 0.949930 0.802703
Si Si3 0.763356 0.149872 0.694093
Si Si4 0.881470 0.282162 0.790161
Si Si5 0.639847 0.216413 0.804357
Si Si6 0.431257 0.987994 0.788389
O O1 0.935261 0.202536 0.728463
O O2 0.893062 0.022047 0.812501
O O3 0.977600 0.106485 0.000000
O O4 0.000000 0.000000 0.718685
O O5 0.851794 0.834970 0.722233
O O6 0.786481 0.026531 0.711125
O O7 0.812313 0.930749 0.000000
O O8 0.743830 0.171350 0.500000
O O9 0.818632 0.229860 0.735882
O O10 0.706240 0.168461 0.810511
O O11 0.894051 0.405299 0.734847
O O12 0.882630 0.277833 0.000000
O O13 0.597589 0.124656 0.726119
O O14 0.617325 0.237327 0.000000
O O15 0.500000 0.000000 0.738930
O O16 0.428983 0.985923 0.000000
#
# Coordination Sequence:
#
# PCOD9427919 Si02
#       6
#     8   8   8   8   8   8
#     4   8  14  25  48  79 106 136 174 219 267 316
#     4   9  19  35  55  81 110 141 182 229 280 332
#     4  11  23  38  57  81 111 147 192 238 284 335
#     4   9  18  34  56  83 116 149 183 227 280 337
#     4  10  21  36  58  85 115 147 183 232 286 342
#     4   9  19  34  57  91 121 146 184 234 288 344
#
# _framework density 22.465674
#
# number of rings (size 3 to 8) (size 9 to 14) (size 15 to 20)
#    0.000    2.667    0.000    2.500    4.667    0.667 
#    0.000    0.000    0.000   10.000    0.000    0.000 
#    0.000    0.000    0.000    0.000    0.000    0.000 
#
# Total GULP energy -267769.816257 kJ/mol
# GULP energy per Si atom -5578.537839 kJ/mol
# Density = 2.241454 g / cm^3
# Si number density = 22.465674 Si / 1000 Ang^3
#
#
#
# Elastic Constant Matrix: (Units=GPa)
#
#
# Indices 1 2 3 4 5 6 
#
# 1 53.0191 23.7038 -2.0384 0.0000 0.0000 0.0000
# 2 23.7038 158.7867 4.7061 0.0000 0.0000 0.0000
# 3 -2.0384 4.7061 50.8109 0.0000 0.0000 0.0000
# 4 0.0000 0.0000 0.0000 -24.8661 0.0000 0.0000
# 5 0.0000 0.0000 0.0000 0.0000 -54.1644 0.0000
# 6 0.0000 0.0000 0.0000 0.0000 0.0000 18.7377
#
#
#
# Elastic Compliance Matrix: (Units=1/GPa)
#
#
# Indices 1 2 3 4 5 6 
#
# 1 0.020271 -0.003059 0.001096 0.000000 0.000000 0.000000
# 2 -0.003059 0.006777 -0.000750 0.000000 0.000000 0.000000
# 3 0.001096 -0.000750 0.019794 0.000000 0.000000 0.000000
# 4 0.000000 0.000000 0.000000 -0.040215 0.000000 0.000000
# 5 0.000000 0.000000 0.000000 0.000000 -0.018462 0.000000
# 6 0.000000 0.000000 0.000000 0.000000 0.000000 0.053368
#
#
# Mechanical properties :
#
#
# Convention : Reuss Voigt Hill
#
# Bulk Modulus (GPa) = 24.14480 35.03997 29.59238
# Shear Modulus (GPa) = 82.28765 3.69113 42.98939
#
# Velocity S-wave (km/s) = 6.05869 1.28319 4.37917
# Velocity P-wave (km/s) = 7.72750 4.22213 6.22659
#
# Compressibility (1/GPa) = 0.04141679
#
# Stress axis : x y z
#
# Youngs Moduli (GPa) = 49.33231 147.56718 50.51959
#
# Poissons Ratio (x) = 0.45134 -0.05539
# Poissons Ratio (y) = 0.15088 0.03791
# Poissons Ratio (z) = -0.05409 0.11073
#
# Static dielectric constant tensor:
#      x y z
#    x 1.787170 0.000000 0.000000 
#    y 0.000000 1.859990 0.000000 
#    z 0.000000 0.000000 1.842200 
# 
# From -- ./inp_files/4100.got.cif
#   From: 2010.05.17/outbox.cif.g08.bks.cpg/sg55_3_cif.got.tgz:4100.got - 2010.06.03 13:27:54.
