data_PCOD9427037
_publ_section_title
;
Structure prediction by ZEFSAII (Michael W. Deem and Ramdas Pophale) SiO2 
 PCOD9427037
Probable space group: P B A M
;
_chemical_formula_sum "Si O2"
_cell_formula_units_Z 48
_cell_length_a 18.987010
_cell_length_b 15.330308
_cell_length_c 7.513861
_cell_angle_alpha 90.000000
_cell_angle_beta 90.000000
_cell_angle_gamma 90.000000
_cell_volume 2187.109949
_symmetry_space_group_name_H-M "P B A M"
_symmetry_group_IT_number 55
_symmetry_cell_setting 'orthorhombic'
loop_
_space_group_symop_operation_xyz
x,y,z
-x,-y,z
1/2+x,1/2-y,-z
1/2-x,1/2+y,-z
-x,-y,-z
x,y,-z
1/2-x,1/2+y,z
1/2+x,1/2-y,z
loop_
_atom_site_type_symbol
_atom_site_label
_atom_site_fract_x
_atom_site_fract_y
_atom_site_fract_z
Si Si1 0.739959 0.300192 0.715289
Si Si2 0.993738 0.096824 0.793923
Si Si3 0.582711 0.242414 0.792492
Si Si4 0.224301 0.504667 0.717852
Si Si5 0.664594 0.643043 0.284187
Si Si6 0.069447 0.455323 0.294240
O O1 0.738354 0.299965 0.500000
O O2 0.665416 0.262040 0.775672
O O3 0.752463 0.399008 0.774056
O O4 0.802295 0.235326 0.770497
O O5 0.912904 0.125410 0.786089
O O6 0.041135 0.174299 0.715495
O O7 0.017298 0.088616 0.000000
O O8 0.000000 0.000000 0.713576
O O9 0.564678 0.149239 0.709602
O O10 0.563894 0.234306 0.000000
O O11 0.223661 0.502535 0.500000
O O12 0.280922 0.432251 0.772490
O O13 0.145633 0.481818 0.781485
O O14 0.660655 0.641528 0.500000
O O15 0.072044 0.484814 0.500000
O O16 0.000000 0.500000 0.214171
#
# Coordination Sequence:
#
# PCOD9427037 Si02
#       6
#     8   8   8   8   8   8
#     4  10  20  36  60  85 114 147 187 238 285 341
#     4  10  23  41  58  80 116 156 194 235 283 344
#     4  11  23  39  59  85 119 156 193 237 289 343
#     4   9  18  35  57  86 115 142 184 238 287 335
#     4  10  20  35  58  87 114 142 186 239 286 333
#     4  10  21  38  62  86 114 155 197 239 292 347
#
# _framework density 21.946771999999999
#
# number of rings (size 3 to 8) (size 9 to 14) (size 15 to 20)
#    0.000    2.000    1.667    1.500    2.333    2.667 
#    0.000    0.833    0.000    0.000    0.000    0.000 
#    0.000    0.000    0.000    0.000    0.000    0.000 
#
# Total GULP energy -268273.578389 kJ/mol
# GULP energy per Si atom -5589.032883 kJ/mol
# Density = 2.189682 g / cm^3
# Si number density = 21.946772 Si / 1000 Ang^3
#
#
#
# Elastic Constant Matrix: (Units=GPa)
#
#
# Indices 1 2 3 4 5 6 
#
# 1 84.4149 12.3654 -14.2671 0.0000 0.0000 0.0000
# 2 12.3654 103.8435 -9.6666 0.0000 0.0000 0.0000
# 3 -14.2671 -9.6666 54.1103 0.0000 0.0000 0.0000
# 4 0.0000 0.0000 0.0000 4.2003 0.0000 0.0000
# 5 0.0000 0.0000 0.0000 0.0000 22.6814 0.0000
# 6 0.0000 0.0000 0.0000 0.0000 0.0000 45.9500
#
#
#
# Elastic Compliance Matrix: (Units=1/GPa)
#
#
# Indices 1 2 3 4 5 6 
#
# 1 0.012546 -0.001206 0.003092 0.000000 0.000000 0.000000
# 2 -0.001206 0.009909 0.001452 0.000000 0.000000 0.000000
# 3 0.003092 0.001452 0.019556 0.000000 0.000000 0.000000
# 4 0.000000 0.000000 0.000000 0.238076 0.000000 0.000000
# 5 0.000000 0.000000 0.000000 0.000000 0.044089 0.000000
# 6 0.000000 0.000000 0.000000 0.000000 0.000000 0.021763
#
#
# Mechanical properties :
#
#
# Convention : Reuss Voigt Hill
#
# Bulk Modulus (GPa) = 20.53943 24.35911 22.44927
# Shear Modulus (GPa) = 14.06513 31.49550 22.78031
#
# Velocity S-wave (km/s) = 2.53430 3.79236 3.22527
# Velocity P-wave (km/s) = 4.23587 5.50448 4.91131
#
# Compressibility (1/GPa) = 0.04868685
#
# Stress axis : x y z
#
# Youngs Moduli (GPa) = 79.70946 100.92174 51.13640
#
# Poissons Ratio (x) = 0.12171 -0.15813
# Poissons Ratio (y) = 0.09613 -0.07426
# Poissons Ratio (z) = -0.24649 -0.14655
#
# Static dielectric constant tensor:
#      x y z
#    x 1.749310 0.000000 0.000000 
#    y 0.000000 1.771460 0.000000 
#    z 0.000000 0.000000 1.852770 
# 
# From -- ./inp_files/5601.got.cif
#   From: 2010.05.17/outbox.cif.g08.bks.cpg/sg55_3_cif.got.tgz:5601.got - 2010.06.03 13:27:54.
