data_PCOD9427138
_publ_section_title
;
Structure prediction by ZEFSAII (Michael W. Deem and Ramdas Pophale) SiO2 
 PCOD9427138
Probable space group: P B A M
;
_chemical_formula_sum "Si O2"
_cell_formula_units_Z 64
_cell_length_a 33.670383
_cell_length_b 11.856029
_cell_length_c 8.614580
_cell_angle_alpha 90.000000
_cell_angle_beta 90.000000
_cell_angle_gamma 90.000000
_cell_volume 3438.914813
_symmetry_space_group_name_H-M "P B A M"
_symmetry_group_IT_number 55
_symmetry_cell_setting 'orthorhombic'
loop_
_space_group_symop_operation_xyz
x,y,z
-x,-y,z
1/2+x,1/2-y,-z
1/2-x,1/2+y,-z
-x,-y,-z
x,y,-z
1/2-x,1/2+y,z
1/2+x,1/2-y,z
loop_
_atom_site_type_symbol
_atom_site_label
_atom_site_fract_x
_atom_site_fract_y
_atom_site_fract_z
Si Si1 0.444269 0.428181 0.183589
Si Si2 0.787097 0.600234 0.312623
Si Si3 0.698445 0.547386 0.313085
Si Si4 0.088889 0.317516 0.185757
Si Si5 0.366970 0.028500 0.312446
Si Si6 0.330868 0.688097 0.814572
Si Si7 0.370828 0.288353 0.312613
Si Si8 0.525078 0.341111 0.316427
O O1 0.405435 0.362231 0.237340
O O2 0.483262 0.356477 0.229440
O O3 0.449664 0.547839 0.269363
O O4 0.443595 0.449000 0.000000
O O5 0.786432 0.605752 0.500000
O O6 0.743779 0.561241 0.258840
O O7 0.823041 0.516578 0.267895
O O8 0.798925 0.722635 0.249236
O O9 0.699178 0.538433 0.500000
O O10 0.678165 0.435288 0.248199
O O11 0.671304 0.654737 0.272832
O O12 0.101588 0.441826 0.240102
O O13 0.126046 0.236999 0.232596
O O14 0.049696 0.267433 0.263471
O O15 0.085085 0.313802 0.000000
O O16 0.369679 0.022026 0.500000
O O17 0.372707 0.157778 0.265343
O O18 0.329690 0.687355 0.000000
O O19 0.375135 0.293067 0.500000
O O20 0.518235 0.341065 0.500000
#
# Coordination Sequence:
#
# PCOD9427138 Si02
#       8
#     8   8   8   8   8   8   8   8
#     4  11  22  37  57  85 119 152 185 227 281 337
#     4   9  19  35  57  80 105 140 187 234 278 326
#     4  10  21  34  56  82 107 142 186 234 279 328
#     4  10  20  36  57  82 112 146 186 228 278 335
#     4   9  19  36  57  80 110 148 190 235 280 330
#     4  10  21  35  52  77 111 144 178 225 276 331
#     4  10  21  37  56  82 114 149 189 233 281 333
#     4  11  21  36  61  88 115 146 185 232 281 330
#
# _framework density 18.610522
#
# number of rings (size 3 to 8) (size 9 to 14) (size 15 to 20)
#    0.000    2.000    0.000    4.500    1.750    5.000 
#    0.000    0.625    0.000    3.750    0.000    0.000 
#    0.000    0.000    0.000    0.000    0.000    0.000 
#
# Total GULP energy -357481.895547 kJ/mol
# GULP energy per Si atom -5585.654618 kJ/mol
# Density = 1.856816 g / cm^3
# Si number density = 18.610522 Si / 1000 Ang^3
#
#
#
# Elastic Constant Matrix: (Units=GPa)
#
#
# Indices 1 2 3 4 5 6 
#
# 1 47.5174 5.2029 2.5995 0.0000 0.0000 0.0000
# 2 5.2029 37.4904 0.2149 0.0000 0.0000 0.0000
# 3 2.5995 0.2149 16.5042 0.0000 0.0000 0.0000
# 4 0.0000 0.0000 0.0000 -11.3332 0.0000 0.0000
# 5 0.0000 0.0000 0.0000 0.0000 15.5342 0.0000
# 6 0.0000 0.0000 0.0000 0.0000 0.0000 16.2924
#
#
#
# Elastic Compliance Matrix: (Units=1/GPa)
#
#
# Indices 1 2 3 4 5 6 
#
# 1 0.021554 -0.002972 -0.003356 0.000000 0.000000 0.000000
# 2 -0.002972 0.027085 0.000115 0.000000 0.000000 0.000000
# 3 -0.003356 0.000115 0.061118 0.000000 0.000000 0.000000
# 4 0.000000 0.000000 0.000000 -0.088237 0.000000 0.000000
# 5 0.000000 0.000000 0.000000 0.000000 0.064374 0.000000
# 6 0.000000 0.000000 0.000000 0.000000 0.000000 0.061378
#
#
# Mechanical properties :
#
#
# Convention : Reuss Voigt Hill
#
# Bulk Modulus (GPa) = 10.27417 13.06073 11.66745
# Shear Modulus (GPa) = 26.02245 10.33168 18.17707
#
# Velocity S-wave (km/s) = 3.74340 2.35872 3.12863
# Velocity P-wave (km/s) = 4.92104 3.80148 4.39704
#
# Compressibility (1/GPa) = 0.09733150
#
# Stress axis : x y z
#
# Youngs Moduli (GPa) = 46.39521 36.92045 16.36185
#
# Poissons Ratio (x) = 0.10973 0.05491
# Poissons Ratio (y) = 0.13789 -0.00189
# Poissons Ratio (z) = 0.15571 -0.00426
#
# Static dielectric constant tensor:
#      x y z
#    x 1.641940 0.000000 0.000000 
#    y 0.000000 1.618330 0.000000 
#    z 0.000000 0.000000 1.625530 
# 
# From -- ./inp_files/10822.got.cif
#   From: 2010.05.17/outbox.cif.g08.bks.cpg/sg55_6_cif.got.tgz:10822.got - 2010.06.03 13:27:54.
