data_PCOD9427461
_publ_section_title
;
Structure prediction by ZEFSAII (Michael W. Deem and Ramdas Pophale) SiO2 
 PCOD9427461
Probable space group: P B A M
;
_chemical_formula_sum "Si O2"
_cell_formula_units_Z 56
_cell_length_a 21.708813
_cell_length_b 14.737857
_cell_length_c 7.595827
_cell_angle_alpha 90.000000
_cell_angle_beta 90.000000
_cell_angle_gamma 90.000000
_cell_volume 2430.219385
_symmetry_space_group_name_H-M "P B A M"
_symmetry_group_IT_number 55
_symmetry_cell_setting 'orthorhombic'
loop_
_space_group_symop_operation_xyz
x,y,z
-x,-y,z
1/2+x,1/2-y,-z
1/2-x,1/2+y,-z
-x,-y,-z
x,y,-z
1/2-x,1/2+y,z
1/2+x,1/2-y,z
loop_
_atom_site_type_symbol
_atom_site_label
_atom_site_fract_x
_atom_site_fract_y
_atom_site_fract_z
Si Si1 0.263925 0.097304 0.293555
Si Si2 0.492934 0.717895 0.202203
Si Si3 0.290035 0.295997 0.787405
Si Si4 0.406170 0.419626 0.213993
Si Si5 0.535936 0.089565 0.783097
Si Si6 0.324549 0.908557 0.795383
Si Si7 0.873785 0.878841 0.297392
O O1 0.257452 0.076750 0.500000
O O2 0.298602 0.192536 0.270535
O O3 0.194954 0.114189 0.220812
O O4 0.296312 0.009736 0.212959
O O5 0.535369 0.638456 0.277294
O O6 0.496805 0.818262 0.278476
O O7 0.421929 0.687596 0.206571
O O8 0.513560 0.725569 0.000000
O O9 0.345535 0.362415 0.736902
O O10 0.225800 0.338777 0.719673
O O11 0.288711 0.296096 0.000000
O O12 0.401444 0.520208 0.287396
O O13 0.408364 0.429634 0.000000
O O14 0.606726 0.090720 0.721311
O O15 0.500000 0.000000 0.728288
O O16 0.536383 0.090058 0.000000
O O17 0.330858 0.883299 0.000000
O O18 0.869066 0.849523 0.500000
#
# Coordination Sequence:
#
# PCOD9427461 Si02
#       7
#     8   8   8   8   8   8   8
#     4  11  24  38  57  85 118 157 194 236 292 348
#     4  10  21  37  60  88 118 153 193 242 294 342
#     4  10  21  37  60  90 117 149 197 246 294 346
#     4  10  21  37  60  90 118 148 191 245 296 345
#     4   9  19  35  59  88 116 147 190 241 292 343
#     4  10  20  37  62  87 113 150 192 241 291 340
#     4  11  23  39  58  84 119 160 196 234 289 350
#
# _framework density 23.043188000000001
#
# number of rings (size 3 to 8) (size 9 to 14) (size 15 to 20)
#    0.000    1.857    1.429    2.143    2.000    6.286 
#    0.000    0.714    0.000    0.857    0.000    0.000 
#    0.000    0.000    0.000    0.000    0.000    0.000 
#
# Total GULP energy -313144.853145 kJ/mol
# GULP energy per Si atom -5591.872378 kJ/mol
# Density = 2.299074 g / cm^3
# Si number density = 23.043188 Si / 1000 Ang^3
#
#
#
# Elastic Constant Matrix: (Units=GPa)
#
#
# Indices 1 2 3 4 5 6 
#
# 1 52.5872 -6.0108 1.4873 0.0000 0.0000 0.0000
# 2 -6.0108 106.7391 -13.7106 0.0000 0.0000 0.0000
# 3 1.4873 -13.7106 50.9539 0.0000 0.0000 0.0000
# 4 0.0000 0.0000 0.0000 66.0612 0.0000 0.0000
# 5 0.0000 0.0000 0.0000 0.0000 3.4528 0.0000
# 6 0.0000 0.0000 0.0000 0.0000 0.0000 20.8177
#
#
#
# Elastic Compliance Matrix: (Units=1/GPa)
#
#
# Indices 1 2 3 4 5 6 
#
# 1 0.019143 0.001042 -0.000278 0.000000 0.000000 0.000000
# 2 0.001042 0.009761 0.002596 0.000000 0.000000 0.000000
# 3 -0.000278 0.002596 0.020332 0.000000 0.000000 0.000000
# 4 0.000000 0.000000 0.000000 0.015137 0.000000 0.000000
# 5 0.000000 0.000000 0.000000 0.000000 0.289619 0.000000
# 6 0.000000 0.000000 0.000000 0.000000 0.000000 0.048036
#
#
# Mechanical properties :
#
#
# Convention : Reuss Voigt Hill
#
# Bulk Modulus (GPa) = 17.87121 19.31244 18.59182
# Shear Modulus (GPa) = 12.07844 33.30062 22.68953
#
# Velocity S-wave (km/s) = 2.29195 3.80562 3.14132
# Velocity P-wave (km/s) = 3.84401 5.26398 4.60901
#
# Compressibility (1/GPa) = 0.05595593
#
# Stress axis : x y z
#
# Youngs Moduli (GPa) = 52.23828 102.45079 49.18301
#
# Poissons Ratio (x) = -0.10678 0.01369
# Poissons Ratio (y) = -0.05445 -0.12768
# Poissons Ratio (z) = 0.01454 -0.26596
#
# Static dielectric constant tensor:
#      x y z
#    x 1.857880 0.000000 0.000000 
#    y 0.000000 1.816230 0.000000 
#    z 0.000000 0.000000 1.888480 
# 
# From -- ./inp_files/6055.got.cif
#   From: 2010.05.17/outbox.cif.g08.bks.cpg/sg55_4_cif.got.tgz:6055.got - 2010.06.03 13:27:54.
