data_PCOD9427471
_publ_section_title
;
Structure prediction by ZEFSAII (Michael W. Deem and Ramdas Pophale) SiO2 
 PCOD9427471
Probable space group: P B A M
;
_chemical_formula_sum "Si O2"
_cell_formula_units_Z 58
_cell_length_a 16.872722
_cell_length_b 20.481038
_cell_length_c 7.543023
_cell_angle_alpha 90.000000
_cell_angle_beta 90.000000
_cell_angle_gamma 90.000000
_cell_volume 2606.648948
_symmetry_space_group_name_H-M "P B A M"
_symmetry_group_IT_number 55
_symmetry_cell_setting 'orthorhombic'
loop_
_space_group_symop_operation_xyz
x,y,z
-x,-y,z
1/2+x,1/2-y,-z
1/2-x,1/2+y,-z
-x,-y,-z
x,y,-z
1/2-x,1/2+y,z
1/2+x,1/2-y,z
loop_
_atom_site_type_symbol
_atom_site_label
_atom_site_fract_x
_atom_site_fract_y
_atom_site_fract_z
Si Si1 0.952886 0.239713 0.790045
Si Si2 0.187838 0.421189 0.199817
Si Si3 0.051133 0.107369 0.788528
Si Si4 0.778786 0.841369 0.784912
Si Si5 0.275641 0.295896 0.782497
Si Si6 0.978141 0.621285 0.697045
Si Si7 0.643424 0.938350 0.785557
Si Si8 0.000000 0.000000 0.500000
O O1 0.865010 0.220749 0.727322
O O2 0.989732 0.305155 0.711574
O O3 0.008334 0.177213 0.767765
O O4 0.945484 0.253856 0.000000
O O5 0.242801 0.365205 0.281916
O O6 0.177829 0.492880 0.280887
O O7 0.099198 0.392020 0.188325
O O8 0.218994 0.432101 0.000000
O O9 0.142883 0.119138 0.738068
O O10 0.013781 0.055536 0.656850
O O11 0.046167 0.090193 0.000000
O O12 0.777316 0.766082 0.727177
O O13 0.699992 0.879345 0.726321
O O14 0.776978 0.839806 0.000000
O O15 0.274027 0.298480 0.000000
O O16 0.949619 0.608299 0.500000
O O17 0.053052 0.575255 0.735468
O O18 0.644844 0.939911 0.000000
#
# Coordination Sequence:
#
# PCOD9427471 Si02
#       8
#     8   8   8   8   8   8   8   2
#     4  10  20  39  68  94 121 159 208 263 316 374
#     4  10  21  36  59  89 118 156 208 257 309 375
#     4  10  23  42  68  97 128 172 218 268 327 386
#     4   9  17  35  62  91 122 160 212 260 314 382
#     4   9  17  34  63  94 120 154 206 267 316 369
#     4  12  24  37  58  87 126 165 203 252 316 387
#     4  10  20  37  62  89 121 163 211 260 311 379
#     4  12  26  44  64  90 132 168 214 280 320 390
#
# _framework density 22.250789999999999
#
# number of rings (size 3 to 8) (size 9 to 14) (size 15 to 20)
#    0.000    1.931    1.379    2.690    0.966    5.517 
#    1.241    4.828    3.034    0.000    0.000    0.000 
#    0.000    0.000    0.000    0.000    0.000    0.000 
#
# Total GULP energy -323571.466794 kJ/mol
# GULP energy per Si atom -5578.818393 kJ/mol
# Density = 2.220015 g / cm^3
# Si number density = 22.250790 Si / 1000 Ang^3
#
#
#
# Elastic Constant Matrix: (Units=GPa)
#
#
# Indices 1 2 3 4 5 6 
#
# 1 155.2310 -339.6927 -43.7000 0.0000 0.0000 0.0000
# 2 -339.6927 988.4899 134.5133 0.0000 0.0000 0.0000
# 3 -43.7000 134.5133 91.4978 0.0000 0.0000 0.0000
# 4 0.0000 0.0000 0.0000 234.0869 0.0000 0.0000
# 5 0.0000 0.0000 0.0000 0.0000 -34.2480 0.0000
# 6 0.0000 0.0000 0.0000 0.0000 0.0000 23.1837
#
#
#
# Elastic Compliance Matrix: (Units=1/GPa)
#
#
# Indices 1 2 3 4 5 6 
#
# 1 0.026035 0.009069 -0.000898 0.000000 0.000000 0.000000
# 2 0.009069 0.004424 -0.002172 0.000000 0.000000 0.000000
# 3 -0.000898 -0.002172 0.013693 0.000000 0.000000 0.000000
# 4 0.000000 0.000000 0.000000 0.004272 0.000000 0.000000
# 5 0.000000 0.000000 0.000000 0.000000 -0.029199 0.000000
# 6 0.000000 0.000000 0.000000 0.000000 0.000000 0.043134
#
#
# Mechanical properties :
#
#
# Convention : Reuss Voigt Hill
#
# Bulk Modulus (GPa) = 17.80923 81.94000 49.87461
# Shear Modulus (GPa) = 72.38127 143.54440 107.96283
#
# Velocity S-wave (km/s) = 5.70967 8.04065 6.97325
# Velocity P-wave (km/s) = 7.17554 11.09542 9.34336
#
# Compressibility (1/GPa) = 0.05615066
#
# Stress axis : x y z
#
# Youngs Moduli (GPa) = 38.40914 226.04703 73.02765
#
# Poissons Ratio (x) = -2.05008 0.06560
# Poissons Ratio (y) = -0.34834 0.15862
# Poissons Ratio (z) = 0.03450 0.49099
#
# Static dielectric constant tensor:
#      x y z
#    x 1.791810 0.000000 0.000000 
#    y 0.000000 1.789210 0.000000 
#    z 0.000000 0.000000 1.847340 
# 
# From -- ./inp_files/7745.got.cif
#   From: 2010.05.17/outbox.cif.g08.bks.cpg/sg55_4_cif.got.tgz:7745.got - 2010.06.03 13:27:54.
