data_PCOD9427090
_publ_section_title
;
Structure prediction by ZEFSAII (Michael W. Deem and Ramdas Pophale) SiO2 
 PCOD9427090
Probable space group: P B A M
;
_chemical_formula_sum "Si O2"
_cell_formula_units_Z 64
_cell_length_a 8.067200
_cell_length_b 14.374234
_cell_length_c 23.248042
_cell_angle_alpha 90.000000
_cell_angle_beta 90.000000
_cell_angle_gamma 90.000000
_cell_volume 2695.838778
_symmetry_space_group_name_H-M "P B A M"
_symmetry_group_IT_number 55
_symmetry_cell_setting 'orthorhombic'
loop_
_space_group_symop_operation_xyz
x,y,z
-x,-y,z
1/2+x,1/2-y,-z
1/2-x,1/2+y,-z
-x,-y,-z
x,y,-z
1/2-x,1/2+y,z
1/2+x,1/2-y,z
loop_
_atom_site_type_symbol
_atom_site_label
_atom_site_fract_x
_atom_site_fract_y
_atom_site_fract_z
Si Si1 0.674825 0.606400 0.853225
Si Si2 0.040796 0.698725 0.139115
Si Si3 0.831490 0.387563 0.616998
Si Si4 0.685538 0.954571 0.934368
Si Si5 0.528106 0.272405 0.566533
Si Si6 0.656295 0.557680 0.403723
Si Si7 0.440648 0.172811 0.267989
Si Si8 0.325265 0.379583 0.276558
O O1 0.548653 0.690122 0.867614
O O2 0.697224 0.517969 0.894319
O O3 0.641997 0.579603 0.786765
O O4 0.853558 0.659670 0.858622
O O5 0.149011 0.646744 0.091441
O O6 0.112751 0.668304 0.201643
O O7 0.669279 0.328300 0.600078
O O8 0.982969 0.325683 0.594577
O O9 0.809876 0.488467 0.589121
O O10 0.842921 0.388675 0.686059
O O11 0.500000 0.000000 0.933444
O O12 0.743889 0.952505 0.000000
O O13 0.570483 0.263587 0.500000
O O14 0.365405 0.339718 0.571558
O O15 0.500000 0.500000 0.427626
O O16 0.639604 0.566465 0.334720
O O17 0.419313 0.281215 0.282685
O O18 0.630391 0.144070 0.274496
#
# Coordination Sequence:
#
# PCOD9427090 Si02
#       8
#     8   8   8   8   8   8   8   8
#     4   9  19  35  56  83 116 154 196 240 296 345
#     4   9  19  35  55  85 115 153 196 244 296 344
#     4  11  23  40  63  89 115 154 195 244 293 348
#     4   9  18  34  56  81 115 159 203 238 283 353
#     4  11  24  44  64  85 118 158 197 239 292 352
#     4  10  24  39  61  92 119 154 195 240 296 355
#     4  10  20  35  62  84 122 153 192 243 301 355
#     4  10  20  37  58  90 123 155 191 245 299 358
#
# _framework density 23.740293999999999
#
# number of rings (size 3 to 8) (size 9 to 14) (size 15 to 20)
#    0.000    2.125    1.250    1.125    3.500    3.750 
#    0.000    0.625    0.000    2.250    0.000    0.000 
#    0.000    0.000    0.000    0.000    0.000    0.000 
#
# Total GULP energy -357863.131845 kJ/mol
# GULP energy per Si atom -5591.611435 kJ/mol
# Density = 2.368626 g / cm^3
# Si number density = 23.740294 Si / 1000 Ang^3
#
#
#
# Elastic Constant Matrix: (Units=GPa)
#
#
# Indices 1 2 3 4 5 6 
#
# 1 53.8905 17.6131 16.2547 0.0000 0.0000 0.0000
# 2 17.6131 70.0256 10.5594 0.0000 0.0000 0.0000
# 3 16.2547 10.5594 86.9062 0.0000 0.0000 0.0000
# 4 0.0000 0.0000 0.0000 -47.6444 0.0000 0.0000
# 5 0.0000 0.0000 0.0000 0.0000 20.2666 0.0000
# 6 0.0000 0.0000 0.0000 0.0000 0.0000 23.2328
#
#
#
# Elastic Compliance Matrix: (Units=1/GPa)
#
#
# Indices 1 2 3 4 5 6 
#
# 1 0.021145 -0.004810 -0.003370 0.000000 0.000000 0.000000
# 2 -0.004810 0.015641 -0.001001 0.000000 0.000000 0.000000
# 3 -0.003370 -0.001001 0.012259 0.000000 0.000000 0.000000
# 4 0.000000 0.000000 0.000000 -0.020989 0.000000 0.000000
# 5 0.000000 0.000000 0.000000 0.000000 0.049342 0.000000
# 6 0.000000 0.000000 0.000000 0.000000 0.000000 0.043043
#
#
# Mechanical properties :
#
#
# Convention : Reuss Voigt Hill
#
# Bulk Modulus (GPa) = 32.59241 33.29742 32.94491
# Shear Modulus (GPa) = 33.55010 10.26402 21.90706
#
# Velocity S-wave (km/s) = 3.76335 2.08155 3.04102
# Velocity P-wave (km/s) = 5.71334 4.45346 5.12228
#
# Compressibility (1/GPa) = 0.03068199
#
# Stress axis : x y z
#
# Youngs Moduli (GPa) = 47.29283 63.93341 81.57501
#
# Poissons Ratio (x) = 0.30753 0.27494
# Poissons Ratio (y) = 0.22749 0.08164
# Poissons Ratio (z) = 0.15940 0.06398
#
# Static dielectric constant tensor:
#      x y z
#    x 1.949470 0.000000 0.000000 
#    y 0.000000 1.916550 0.000000 
#    z 0.000000 0.000000 1.865730 
# 
# From -- ./inp_files/23481.got.cif
#   From: 2010.05.17/outbox.cif.g08.bks.cpg/sg55_12_cif.got.tgz:23481.got - 2010.06.03 13:27:54.
