data_PCOD9427397
_publ_section_title
;
Structure prediction by ZEFSAII (Michael W. Deem and Ramdas Pophale) SiO2 
 PCOD9427397
Probable space group: P B A M
;
_chemical_formula_sum "Si O2"
_cell_formula_units_Z 48
_cell_length_a 15.350224
_cell_length_b 19.377255
_cell_length_c 8.954558
_cell_angle_alpha 90.000000
_cell_angle_beta 90.000000
_cell_angle_gamma 90.000000
_cell_volume 2663.490338
_symmetry_space_group_name_H-M "P B A M"
_symmetry_group_IT_number 55
_symmetry_cell_setting 'orthorhombic'
loop_
_space_group_symop_operation_xyz
x,y,z
-x,-y,z
1/2+x,1/2-y,-z
1/2-x,1/2+y,-z
-x,-y,-z
x,y,-z
1/2-x,1/2+y,z
1/2+x,1/2-y,z
loop_
_atom_site_type_symbol
_atom_site_label
_atom_site_fract_x
_atom_site_fract_y
_atom_site_fract_z
Si Si1 0.994076 0.670088 0.679109
Si Si2 0.844722 0.919597 0.821237
Si Si3 0.850745 0.574324 0.822036
Si Si4 0.502396 0.331208 0.321629
Si Si5 0.343186 0.073435 0.678744
Si Si6 0.647055 0.579888 0.822582
O O1 0.980965 0.664823 0.500000
O O2 0.915005 0.632201 0.761062
O O3 0.000465 0.750461 0.718521
O O4 0.082787 0.629158 0.714988
O O5 0.749598 0.908165 0.751067
O O6 0.915784 0.868476 0.754792
O O7 0.870359 0.999241 0.787637
O O8 0.839654 0.913362 0.000000
O O9 0.869734 0.501322 0.742844
O O10 0.749344 0.591665 0.791582
O O11 0.859802 0.565799 0.000000
O O12 0.510122 0.336761 0.500000
O O13 0.416054 0.370368 0.267027
O O14 0.334327 0.069104 0.500000
O O15 0.632329 0.589300 0.000000
#
# Coordination Sequence:
#
# PCOD9427397 Si02
#       6
#     8   8   8   8   8   8
#     4  10  23  39  54  79 115 150 183 224 274 328
#     4  10  21  38  59  83 111 143 183 232 280 329
#     4  10  21  37  59  86 112 142 184 231 276 326
#     4  11  23  37  55  81 112 147 186 226 273 330
#     4  10  20  37  60  83 110 146 186 229 276 326
#     4   9  20  38  57  80 110 141 178 227 277 325
#
# _framework density 18.021464999999999
#
# number of rings (size 3 to 8) (size 9 to 14) (size 15 to 20)
#    0.000    2.000    0.000    4.000    0.000   12.000 
#    0.000    5.000    0.000    0.000    0.000    0.000 
#    0.000    0.000    0.000    0.000    0.000    0.000 
#
# Total GULP energy -268182.342273 kJ/mol
# GULP energy per Si atom -5587.132131 kJ/mol
# Density = 1.798045 g / cm^3
# Si number density = 18.021465 Si / 1000 Ang^3
#
#
#
# Elastic Constant Matrix: (Units=GPa)
#
#
# Indices 1 2 3 4 5 6 
#
# 1 113.8308 115.9680 69.6901 0.0000 0.0000 0.0000
# 2 115.9680 158.9768 81.3538 0.0000 0.0000 0.0000
# 3 69.6901 81.3538 66.6631 0.0000 0.0000 0.0000
# 4 0.0000 0.0000 0.0000 1.5202 0.0000 0.0000
# 5 0.0000 0.0000 0.0000 0.0000 34.9670 0.0000
# 6 0.0000 0.0000 0.0000 0.0000 0.0000 39.7514
#
#
#
# Elastic Compliance Matrix: (Units=1/GPa)
#
#
# Indices 1 2 3 4 5 6 
#
# 1 0.040063 -0.020751 -0.016558 0.000000 0.000000 0.000000
# 2 -0.020751 0.027500 -0.011867 0.000000 0.000000 0.000000
# 3 -0.016558 -0.011867 0.046793 0.000000 0.000000 0.000000
# 4 0.000000 0.000000 0.000000 0.657810 0.000000 0.000000
# 5 0.000000 0.000000 0.000000 0.000000 0.028598 0.000000
# 6 0.000000 0.000000 0.000000 0.000000 0.000000 0.025156
#
#
# Mechanical properties :
#
#
# Convention : Reuss Voigt Hill
#
# Bulk Modulus (GPa) = 62.48582 97.05493 79.77037
# Shear Modulus (GPa) = 5.37861 20.07832 12.72846
#
# Velocity S-wave (km/s) = 1.72946 3.34148 2.66050
# Velocity P-wave (km/s) = 6.22385 8.29816 7.33470
#
# Compressibility (1/GPa) = 0.01600363
#
# Stress axis : x y z
#
# Youngs Moduli (GPa) = 24.96065 36.36303 21.37091
#
# Poissons Ratio (x) = 0.75459 0.35385
# Poissons Ratio (y) = 0.51797 0.25361
# Poissons Ratio (z) = 0.41329 0.43152
#
# Static dielectric constant tensor:
#      x y z
#    x 1.598070 0.000000 0.000000 
#    y 0.000000 1.590030 0.000000 
#    z 0.000000 0.000000 1.599810 
# 
# From -- ./inp_files/5589.got.cif
#   From: 2010.05.17/outbox.cif.g08.bks.cpg/sg55_3_cif.got.tgz:5589.got - 2010.06.03 13:27:54.
