data_PCOD9427700
_publ_section_title
;
Structure prediction by ZEFSAII (Michael W. Deem and Ramdas Pophale) SiO2 
 PCOD9427700
Probable space group: P B A M
;
_chemical_formula_sum "Si O2"
_cell_formula_units_Z 48
_cell_length_a 10.792667
_cell_length_b 13.834466
_cell_length_c 14.974027
_cell_angle_alpha 90.000000
_cell_angle_beta 90.000000
_cell_angle_gamma 90.000000
_cell_volume 2235.783721
_symmetry_space_group_name_H-M "P B A M"
_symmetry_group_IT_number 55
_symmetry_cell_setting 'orthorhombic'
loop_
_space_group_symop_operation_xyz
x,y,z
-x,-y,z
1/2+x,1/2-y,-z
1/2-x,1/2+y,-z
-x,-y,-z
x,y,-z
1/2-x,1/2+y,z
1/2+x,1/2-y,z
loop_
_atom_site_type_symbol
_atom_site_label
_atom_site_fract_x
_atom_site_fract_y
_atom_site_fract_z
Si Si1 0.562694 0.688370 0.189648
Si Si2 0.105974 0.081332 0.692396
Si Si3 0.768529 0.585797 0.695124
Si Si4 0.068074 0.173236 0.500000
Si Si5 0.225230 0.839636 0.500000
Si Si6 0.462008 0.890720 0.165083
Si Si7 0.941803 0.163491 0.000000
Si Si8 0.171369 0.301504 0.000000
O O1 0.434768 0.665985 0.241622
O O2 0.673192 0.657783 0.254562
O O3 0.559296 0.801844 0.164805
O O4 0.565665 0.622171 0.100092
O O5 0.096502 0.115113 0.590546
O O6 0.230949 0.025111 0.715024
O O7 0.000000 0.000000 0.704112
O O8 0.747575 0.601052 0.590526
O O9 0.900947 0.606456 0.736864
O O10 0.167166 0.259466 0.500000
O O11 0.919350 0.195520 0.500000
O O12 0.500000 0.000000 0.143817
O O13 0.362391 0.860991 0.089096
O O14 0.074282 0.214788 0.000000
O O15 0.814491 0.225828 0.000000
#
# Coordination Sequence:
#
# PCOD9427700 Si02
#       8
#     8   8   8   4   4   8   4   4
#     4  10  21  40  67  89 128 174 220 264 328 395
#     4  10  20  40  67  90 122 172 224 267 322 392
#     4  11  23  42  65  94 130 172 223 272 326 391
#     4  12  22  41  66  93 129 171 218 268 332 391
#     4  12  25  40  66  97 129 173 222 268 326 397
#     4  11  24  41  64  97 135 171 217 273 333 394
#     4  10  20  40  66  97 128 167 224 272 319 392
#     4  10  21  42  67  96 131 179 213 270 332 394
#
# _framework density 21.468979999999998
#
# number of rings (size 3 to 8) (size 9 to 14) (size 15 to 20)
#    0.000    1.333    5.000    2.000    0.000    2.667 
#    3.000    5.000    0.000    0.000    0.000    0.000 
#    0.000    0.000    0.000    0.000    0.000    0.000 
#
# Total GULP energy -267570.172997 kJ/mol
# GULP energy per Si atom -5574.378604 kJ/mol
# Density = 2.142012 g / cm^3
# Si number density = 21.468980 Si / 1000 Ang^3
#
#
#
# Elastic Constant Matrix: (Units=GPa)
#
#
# Indices 1 2 3 4 5 6 
#
# 1 45.2269 -6.3145 -2.4747 0.0000 0.0000 0.0000
# 2 -6.3145 57.2600 1.0318 0.0000 0.0000 0.0000
# 3 -2.4747 1.0318 134.2778 0.0000 0.0000 0.0000
# 4 0.0000 0.0000 0.0000 2.5421 0.0000 0.0000
# 5 0.0000 0.0000 0.0000 0.0000 35.2619 0.0000
# 6 0.0000 0.0000 0.0000 0.0000 0.0000 23.3324
#
#
#
# Elastic Compliance Matrix: (Units=1/GPa)
#
#
# Indices 1 2 3 4 5 6 
#
# 1 0.022477 0.002472 0.000395 0.000000 0.000000 0.000000
# 2 0.002472 0.017738 -0.000091 0.000000 0.000000 0.000000
# 3 0.000395 -0.000091 0.007455 0.000000 0.000000 0.000000
# 4 0.000000 0.000000 0.000000 0.393373 0.000000 0.000000
# 5 0.000000 0.000000 0.000000 0.000000 0.028359 0.000000
# 6 0.000000 0.000000 0.000000 0.000000 0.000000 0.042859
#
#
# Mechanical properties :
#
#
# Convention : Reuss Voigt Hill
#
# Bulk Modulus (GPa) = 18.78873 24.58332 21.68602
# Shear Modulus (GPa) = 9.53377 28.52875 19.03126
#
# Velocity S-wave (km/s) = 2.10959 3.64927 2.98057
# Velocity P-wave (km/s) = 3.83463 5.40664 4.68701
#
# Compressibility (1/GPa) = 0.05322340
#
# Stress axis : x y z
#
# Youngs Moduli (GPa) = 44.48904 56.37490 134.13406
#
# Poissons Ratio (x) = -0.13934 -0.05302
# Poissons Ratio (y) = -0.10996 0.01217
# Poissons Ratio (z) = -0.01758 0.00512
#
# Static dielectric constant tensor:
#      x y z
#    x 1.791900 0.000000 0.000000 
#    y 0.000000 1.819230 0.000000 
#    z 0.000000 0.000000 1.810220 
# 
# From -- ./inp_files/18347.got.cif
#   From: 2010.05.17/outbox.cif.g08.bks.cpg/sg55_10_cif.got.tgz:18347.got - 2010.06.03 13:27:54.
