data_PCOD9427264
_publ_section_title
;
Structure prediction by ZEFSAII (Michael W. Deem and Ramdas Pophale) SiO2 
 PCOD9427264
Probable space group: P B A M
;
_chemical_formula_sum "Si O2"
_cell_formula_units_Z 56
_cell_length_a 13.920783
_cell_length_b 14.829599
_cell_length_c 14.196226
_cell_angle_alpha 90.000000
_cell_angle_beta 90.000000
_cell_angle_gamma 90.000000
_cell_volume 2930.663638
_symmetry_space_group_name_H-M "P B A M"
_symmetry_group_IT_number 55
_symmetry_cell_setting 'orthorhombic'
loop_
_space_group_symop_operation_xyz
x,y,z
-x,-y,z
1/2+x,1/2-y,-z
1/2-x,1/2+y,-z
-x,-y,-z
x,y,-z
1/2-x,1/2+y,z
1/2+x,1/2-y,z
loop_
_atom_site_type_symbol
_atom_site_label
_atom_site_fract_x
_atom_site_fract_y
_atom_site_fract_z
Si Si1 0.345891 0.673698 0.245708
Si Si2 0.073578 0.822466 0.240901
Si Si3 0.780908 0.024321 0.203163
Si Si4 0.184802 0.704255 0.609168
Si Si5 0.564877 0.844760 0.108566
Si Si6 0.105537 0.538497 0.290859
Si Si7 0.836380 0.664915 0.103187
O O1 0.460065 0.671302 0.258106
O O2 0.312105 0.579698 0.198889
O O3 0.288025 0.687839 0.342232
O O4 0.318477 0.758468 0.180321
O O5 0.125208 0.917001 0.224334
O O6 0.127410 0.776795 0.328756
O O7 0.084467 0.754983 0.150853
O O8 0.728633 0.077169 0.118684
O O9 0.695980 0.028664 0.282553
O O10 0.690488 0.774059 0.500000
O O11 0.128094 0.611505 0.629843
O O12 0.605112 0.911812 0.188141
O O13 0.449351 0.859251 0.109839
O O14 0.596883 0.855706 0.000000
O O15 0.000000 0.500000 0.304125
O O16 0.819307 0.703711 0.000000
#
# Coordination Sequence:
#
# PCOD9427264 Si02
#       7
#     8   8   8   8   8   8   8
#     4  10  22  41  62  85 127 163 198 254 311 363
#     4  10  21  39  61  88 120 163 200 250 306 361
#     4  11  21  37  58  89 121 164 204 244 300 367
#     4  10  22  40  63  91 118 155 205 253 309 373
#     4   9  19  36  57  84 121 162 203 247 299 362
#     4  10  20  36  60  86 125 156 198 258 308 355
#     4  10  20  36  60  89 120 161 209 248 297 362
#
# _framework density 19.108301000000001
#
# number of rings (size 3 to 8) (size 9 to 14) (size 15 to 20)
#    0.000    2.000    2.857    0.429    0.000    2.857 
#    0.000    2.857    0.000    8.571    0.000    0.000 
#    0.000    0.000    0.000    0.000    0.000    0.000 
#
# Total GULP energy -312369.800591 kJ/mol
# GULP energy per Si atom -5578.032153 kJ/mol
# Density = 1.906481 g / cm^3
# Si number density = 19.108301 Si / 1000 Ang^3
#
#
#
# Elastic Constant Matrix: (Units=GPa)
#
#
# Indices 1 2 3 4 5 6 
#
# 1 107.3538 27.9088 16.2844 0.0000 0.0000 0.0000
# 2 27.9088 55.9152 20.3679 0.0000 0.0000 0.0000
# 3 16.2844 20.3679 97.4759 0.0000 0.0000 0.0000
# 4 0.0000 0.0000 0.0000 8.5281 0.0000 0.0000
# 5 0.0000 0.0000 0.0000 0.0000 18.8998 0.0000
# 6 0.0000 0.0000 0.0000 0.0000 0.0000 32.6653
#
#
#
# Elastic Compliance Matrix: (Units=1/GPa)
#
#
# Indices 1 2 3 4 5 6 
#
# 1 0.010752 -0.005100 -0.000730 0.000000 0.000000 0.000000
# 2 -0.005100 0.021777 -0.003698 0.000000 0.000000 0.000000
# 3 -0.000730 -0.003698 0.011154 0.000000 0.000000 0.000000
# 4 0.000000 0.000000 0.000000 0.117260 0.000000 0.000000
# 5 0.000000 0.000000 0.000000 0.000000 0.052911 0.000000
# 6 0.000000 0.000000 0.000000 0.000000 0.000000 0.030614
#
#
# Mechanical properties :
#
#
# Convention : Reuss Voigt Hill
#
# Bulk Modulus (GPa) = 40.61032 43.31855 41.96443
# Shear Modulus (GPa) = 18.40040 25.09756 21.74898
#
# Velocity S-wave (km/s) = 3.10652 3.62807 3.37738
# Velocity P-wave (km/s) = 5.84518 6.34585 6.10065
#
# Compressibility (1/GPa) = 0.02462428
#
# Stress axis : x y z
#
# Youngs Moduli (GPa) = 93.00810 45.91969 89.65594
#
# Poissons Ratio (x) = 0.23421 0.06549
# Poissons Ratio (y) = 0.47438 0.33158
# Poissons Ratio (z) = 0.06794 0.16983
#
# Static dielectric constant tensor:
#      x y z
#    x 1.696340 0.000000 0.000000 
#    y 0.000000 1.697340 0.000000 
#    z 0.000000 0.000000 1.624100 
# 
# From -- ./inp_files/14227.got.cif
#   From: 2010.05.17/outbox.cif.g08.bks.cpg/sg55_8_cif.got.tgz:14227.got - 2010.06.03 13:27:54.
