data_PCOD9427769
_publ_section_title
;
Structure prediction by ZEFSAII (Michael W. Deem and Ramdas Pophale) SiO2 
 PCOD9427769
Probable space group: P B A M
;
_chemical_formula_sum "Si O2"
_cell_formula_units_Z 48
_cell_length_a 14.047298
_cell_length_b 8.023905
_cell_length_c 18.976413
_cell_angle_alpha 90.000000
_cell_angle_beta 90.000000
_cell_angle_gamma 90.000000
_cell_volume 2138.910919
_symmetry_space_group_name_H-M "P B A M"
_symmetry_group_IT_number 55
_symmetry_cell_setting 'orthorhombic'
loop_
_space_group_symop_operation_xyz
x,y,z
-x,-y,z
1/2+x,1/2-y,-z
1/2-x,1/2+y,-z
-x,-y,-z
x,y,-z
1/2-x,1/2+y,z
1/2+x,1/2-y,z
loop_
_atom_site_type_symbol
_atom_site_label
_atom_site_fract_x
_atom_site_fract_y
_atom_site_fract_z
Si Si1 0.900220 0.335839 0.918457
Si Si2 0.558113 0.325818 0.825507
Si Si3 0.058113 0.325818 0.674493
Si Si4 0.400220 0.335839 0.581543
Si Si5 0.215264 0.491394 0.582036
Si Si6 0.215264 0.008607 0.917964
O O1 0.826465 0.481273 0.898563
O O2 0.988850 0.297451 0.869042
O O3 0.832513 0.172214 0.914253
O O4 0.930551 0.352531 0.000000
O O5 0.500000 0.500000 0.816736
O O6 0.580662 0.250000 0.750000
O O7 0.651050 0.374644 0.869469
O O8 0.151050 0.374645 0.630531
O O9 0.000000 0.500000 0.683264
O O10 0.988850 0.202549 0.630958
O O11 0.430551 0.352531 0.500000
O O12 0.326465 0.481273 0.601437
O O13 0.332513 0.172215 0.585747
O O14 0.209130 0.437462 0.500000
O O15 0.209130 0.062538 0.000000
#
# Coordination Sequence:
#
# PCOD9427769 Si02
#       6
#     8   8   8   8   8   8
#     4   9  18  34  55  76  98 128 167 208 248 291
#     4  10  21  35  51  73 103 136 166 200 246 298
#     4  10  21  35  51  73 103 136 166 200 246 298
#     4   9  18  34  55  76  98 128 167 208 248 291
#     4   9  18  34  55  76  98 128 167 208 248 291
#     4   9  18  34  55  76  98 128 167 208 248 291
#
# _framework density 22.441327999999999
#
# number of rings (size 3 to 8) (size 9 to 14) (size 15 to 20)
#    0.000    2.667    0.000    1.000    0.000    8.000 
#    0.000    6.667    0.000   10.000    0.000    0.000 
#    0.000    0.000    0.000    0.000    0.000    0.000 
#
# Total GULP energy -268527.251917 kJ/mol
# GULP energy per Si atom -5594.317748 kJ/mol
# Density = 2.239025 g / cm^3
# Si number density = 22.441328 Si / 1000 Ang^3
#
#
#
# Elastic Constant Matrix: (Units=GPa)
#
#
# Indices 1 2 3 4 5 6 
#
# 1 97.7057 41.8750 56.1944 0.0000 0.0000 0.0000
# 2 41.8750 81.6571 30.7315 0.0000 0.0000 0.0000
# 3 56.1944 30.7315 71.2952 0.0000 0.0000 0.0000
# 4 0.0000 0.0000 0.0000 -82.8172 0.0000 0.0000
# 5 0.0000 0.0000 0.0000 0.0000 11.1073 0.0000
# 6 0.0000 0.0000 0.0000 0.0000 0.0000 46.0304
#
#
#
# Elastic Compliance Matrix: (Units=1/GPa)
#
#
# Indices 1 2 3 4 5 6 
#
# 1 0.020467 -0.005281 -0.013856 0.000000 0.000000 0.000000
# 2 -0.005281 0.015980 -0.002726 0.000000 0.000000 0.000000
# 3 -0.013856 -0.002726 0.026122 0.000000 0.000000 0.000000
# 4 0.000000 0.000000 0.000000 -0.012075 0.000000 0.000000
# 5 0.000000 0.000000 0.000000 0.000000 0.090031 0.000000
# 6 0.000000 0.000000 0.000000 0.000000 0.000000 0.021725
#
#
# Mechanical properties :
#
#
# Convention : Reuss Voigt Hill
#
# Bulk Modulus (GPa) = 53.06582 56.47330 54.76956
# Shear Modulus (GPa) = 23.55633 2.98790 13.27212
#
# Velocity S-wave (km/s) = 3.24340 1.15513 2.43454
# Velocity P-wave (km/s) = 6.14199 5.19602 5.68870
#
# Compressibility (1/GPa) = 0.01884452
#
# Stress axis : x y z
#
# Youngs Moduli (GPa) = 48.85847 62.57636 38.28197
#
# Poissons Ratio (x) = 0.33049 0.53042
# Poissons Ratio (y) = 0.25804 0.10434
# Poissons Ratio (z) = 0.67697 0.17055
#
# Static dielectric constant tensor:
#      x y z
#    x 1.781770 0.000000 0.000000 
#    y 0.000000 1.917940 0.000000 
#    z 0.000000 0.000000 1.748740 
# 
# From -- ./inp_files/5564.got.cif
#   From: 2010.05.17/outbox.cif.g08.bks.cpg/sg55_3_cif.got.tgz:5564.got - 2010.06.03 13:27:54.
