data_PCOD9427221
_publ_section_title
;
Structure prediction by ZEFSAII (Michael W. Deem and Ramdas Pophale) SiO2 
 PCOD9427221
Probable space group: P B A M
;
_chemical_formula_sum "Si O2"
_cell_formula_units_Z 64
_cell_length_a 16.068992
_cell_length_b 24.511786
_cell_length_c 7.704788
_cell_angle_alpha 90.000000
_cell_angle_beta 90.000000
_cell_angle_gamma 90.000000
_cell_volume 3034.759533
_symmetry_space_group_name_H-M "P B A M"
_symmetry_group_IT_number 55
_symmetry_cell_setting 'orthorhombic'
loop_
_space_group_symop_operation_xyz
x,y,z
-x,-y,z
1/2+x,1/2-y,-z
1/2-x,1/2+y,-z
-x,-y,-z
x,y,-z
1/2-x,1/2+y,z
1/2+x,1/2-y,z
loop_
_atom_site_type_symbol
_atom_site_label
_atom_site_fract_x
_atom_site_fract_y
_atom_site_fract_z
Si Si1 0.752888 0.806230 0.792417
Si Si2 0.156811 0.501604 0.287958
Si Si3 0.251697 0.317194 0.208432
Si Si4 0.906229 0.878126 0.793029
Si Si5 0.088538 0.386285 0.290848
Si Si6 0.651234 0.499136 0.707803
Si Si7 0.088626 0.883136 0.793561
Si Si8 0.404662 0.120394 0.290347
O O1 0.750601 0.744607 0.724033
O O2 0.830415 0.841715 0.722373
O O3 0.666895 0.837797 0.761819
O O4 0.763740 0.802776 0.000000
O O5 0.155721 0.501770 0.500000
O O6 0.107151 0.448087 0.230568
O O7 0.252847 0.496966 0.232253
O O8 0.119798 0.559361 0.231168
O O9 0.166059 0.348555 0.243813
O O10 0.331095 0.351079 0.277277
O O11 0.260473 0.314700 0.000000
O O12 0.886018 0.941711 0.765644
O O13 0.998447 0.866250 0.722110
O O14 0.908981 0.869146 0.000000
O O15 0.085488 0.388240 0.500000
O O16 0.998086 0.366661 0.229316
O O17 0.651451 0.499560 0.500000
O O18 0.602289 0.552431 0.767794
O O19 0.086691 0.873411 0.000000
O O20 0.405234 0.119431 0.500000
#
# Coordination Sequence:
#
# PCOD9427221 Si02
#       8
#     8   8   8   8   8   8   8   8
#     4  10  22  39  58  80 108 146 189 232 274 318
#     4   9  17  32  55  82 112 143 174 216 271 329
#     4  10  22  39  58  80 108 146 189 232 274 318
#     4  10  21  37  56  79 110 147 183 222 273 330
#     4  10  20  36  59  85 113 146 181 220 272 331
#     4  11  20  33  57  85 111 142 179 224 275 326
#     4  10  21  37  56  79 110 147 183 222 273 330
#     4  10  20  36  59  85 113 146 181 220 272 331
#
# _framework density 21.088985999999998
#
# number of rings (size 3 to 8) (size 9 to 14) (size 15 to 20)
#    0.000    2.000    2.500    1.125    0.000    5.500 
#    0.000    3.125    0.000    1.500    0.000    0.000 
#    0.000    0.000    0.000    0.000    0.000    0.000 
#
# Total GULP energy -357544.365126 kJ/mol
# GULP energy per Si atom -5586.630705 kJ/mol
# Density = 2.104099 g / cm^3
# Si number density = 21.088986 Si / 1000 Ang^3
#
#
#
# Elastic Constant Matrix: (Units=GPa)
#
#
# Indices 1 2 3 4 5 6 
#
# 1 101.6198 23.4341 -0.9721 0.0000 0.0000 0.0000
# 2 23.4341 115.7371 -5.5667 0.0000 0.0000 0.0000
# 3 -0.9721 -5.5667 34.9255 0.0000 0.0000 0.0000
# 4 0.0000 0.0000 0.0000 -0.2851 0.0000 0.0000
# 5 0.0000 0.0000 0.0000 0.0000 21.7071 0.0000
# 6 0.0000 0.0000 0.0000 0.0000 0.0000 5.3925
#
#
#
# Elastic Compliance Matrix: (Units=1/GPa)
#
#
# Indices 1 2 3 4 5 6 
#
# 1 0.010323 -0.002092 -0.000046 0.000000 0.000000 0.000000
# 2 -0.002092 0.009131 0.001397 0.000000 0.000000 0.000000
# 3 -0.000046 0.001397 0.028854 0.000000 0.000000 0.000000
# 4 0.000000 0.000000 0.000000 -3.507947 0.000000 0.000000
# 5 0.000000 0.000000 0.000000 0.000000 0.046068 0.000000
# 6 0.000000 0.000000 0.000000 0.000000 0.000000 0.185443
#
#
# Mechanical properties :
#
#
# Convention : Reuss Voigt Hill
#
# Bulk Modulus (GPa) = 21.35615 31.78589 26.57102
# Shear Modulus (GPa) = -1.55713 21.05539 9.74913
#
# Velocity S-wave (km/s) = -0.86021 3.16319 2.15241
# Velocity P-wave (km/s) = 3.02689 5.33348 4.33636
#
# Compressibility (1/GPa) = 0.04682491
#
# Stress axis : x y z
#
# Youngs Moduli (GPa) = 96.87423 109.51564 34.65748
#
# Poissons Ratio (x) = 0.22914 0.00160
# Poissons Ratio (y) = 0.20269 -0.04842
# Poissons Ratio (z) = 0.00447 -0.15301
#
# Static dielectric constant tensor:
#      x y z
#    x 1.767200 0.000000 0.000000 
#    y 0.000000 1.722940 0.000000 
#    z 0.000000 0.000000 1.785550 
# 
# From -- ./inp_files/6577.got.cif
#   From: 2010.05.17/outbox.cif.g08.bks.cpg/sg55_4_cif.got.tgz:6577.got - 2010.06.03 13:27:54.
