data_PCOD9427080
_publ_section_title
;
Structure prediction by ZEFSAII (Michael W. Deem and Ramdas Pophale) SiO2 
 PCOD9427080
Probable space group: P B A M
;
_chemical_formula_sum "Si O2"
_cell_formula_units_Z 52
_cell_length_a 5.381944
_cell_length_b 19.505121
_cell_length_c 24.357521
_cell_angle_alpha 90.000000
_cell_angle_beta 90.000000
_cell_angle_gamma 90.000000
_cell_volume 2556.942189
_symmetry_space_group_name_H-M "P B A M"
_symmetry_group_IT_number 55
_symmetry_cell_setting 'orthorhombic'
loop_
_space_group_symop_operation_xyz
x,y,z
-x,-y,z
1/2+x,1/2-y,-z
1/2-x,1/2+y,-z
-x,-y,-z
x,y,-z
1/2-x,1/2+y,z
1/2+x,1/2-y,z
loop_
_atom_site_type_symbol
_atom_site_label
_atom_site_fract_x
_atom_site_fract_y
_atom_site_fract_z
Si Si1 0.458057 0.792662 0.434102
Si Si2 0.151894 0.908289 0.939647
Si Si3 0.879441 0.923238 0.832165
Si Si4 0.501402 0.582867 0.712847
Si Si5 0.465584 0.777374 0.936501
Si Si6 0.498418 0.082993 0.646734
Si Si7 0.500000 0.000000 0.884696
O O1 0.459024 0.801259 0.500000
O O2 0.704320 0.748226 0.419410
O O3 0.468665 0.866611 0.404855
O O4 0.382276 0.855519 0.939595
O O5 0.987969 0.890238 0.887155
O O6 0.277116 0.980350 0.924877
O O7 0.036274 0.906441 0.000000
O O8 0.947926 0.890212 0.774405
O O9 0.590738 0.939510 0.844424
O O10 0.000000 0.000000 0.829312
O O11 0.500000 0.500000 0.716026
O O12 0.769303 0.599358 0.687181
O O13 0.265773 0.600240 0.674846
O O14 0.729142 0.760765 0.910918
O O15 0.493958 0.752001 0.000000
O O16 0.500000 0.000000 0.635473
#
# Coordination Sequence:
#
# PCOD9427080 Si02
#       7
#     8   8   8   8   8   8   4
#     4  10  21  38  61  90 130 174 208 238 290 362
#     4  10  21  34  52  77 107 139 181 234 292 359
#     4   9  20  33  51  76 109 145 180 229 292 356
#     4   9  19  33  56  82 113 146 195 247 297 344
#     4   9  19  35  54  72  91 125 171 215 261 321
#     4  10  20  35  60  91 117 153 206 262 298 336
#     4  10  21  32  52  80 110 144 177 224 296 368
#
# _framework density 20.336790000000001
#
# number of rings (size 3 to 8) (size 9 to 14) (size 15 to 20)
#    0.000    2.462    0.000    1.154    9.692    3.692 
#    0.000    0.000    0.000   11.077    0.000    0.000 
#    0.000    0.000    0.000    0.000    0.000    0.000 
#
# Total GULP energy -289681.714489 kJ/mol
# GULP energy per Si atom -5570.802202 kJ/mol
# Density = 2.029050 g / cm^3
# Si number density = 20.336790 Si / 1000 Ang^3
#
#
#
# Elastic Constant Matrix: (Units=GPa)
#
#
# Indices 1 2 3 4 5 6 
#
# 1 118.7607 26.0020 35.4285 0.0000 0.0000 0.0000
# 2 26.0020 57.2379 37.9771 0.0000 0.0000 0.0000
# 3 35.4285 37.9771 87.3280 0.0000 0.0000 0.0000
# 4 0.0000 0.0000 0.0000 4.9954 0.0000 0.0000
# 5 0.0000 0.0000 0.0000 0.0000 17.7901 0.0000
# 6 0.0000 0.0000 0.0000 0.0000 0.0000 31.7935
#
#
#
# Elastic Compliance Matrix: (Units=1/GPa)
#
#
# Indices 1 2 3 4 5 6 
#
# 1 0.009840 -0.002560 -0.002879 0.000000 0.000000 0.000000
# 2 -0.002560 0.025222 -0.009930 0.000000 0.000000 0.000000
# 3 -0.002879 -0.009930 0.016937 0.000000 0.000000 0.000000
# 4 0.000000 0.000000 0.000000 0.200184 0.000000 0.000000
# 5 0.000000 0.000000 0.000000 0.000000 0.056211 0.000000
# 6 0.000000 0.000000 0.000000 0.000000 0.000000 0.031453
#
#
# Mechanical properties :
#
#
# Convention : Reuss Voigt Hill
#
# Bulk Modulus (GPa) = 47.03242 51.34909 49.19076
# Shear Modulus (GPa) = 13.23899 21.84374 17.54137
#
# Velocity S-wave (km/s) = 2.55421 3.28090 2.94010
# Velocity P-wave (km/s) = 5.64585 6.29735 5.98048
#
# Compressibility (1/GPa) = 0.02126193
#
# Stress axis : x y z
#
# Youngs Moduli (GPa) = 101.63110 39.64715 59.04121
#
# Poissons Ratio (x) = 0.10150 0.16995
# Poissons Ratio (y) = 0.26017 0.58629
# Poissons Ratio (z) = 0.29255 0.39370
#
# Static dielectric constant tensor:
#      x y z
#    x 1.813600 0.000000 0.000000 
#    y 0.000000 1.785080 0.000000 
#    z 0.000000 0.000000 1.720120 
# 
# From -- ./inp_files/22358.got.cif
#   From: 2010.05.17/outbox.cif.g08.bks.cpg/sg55_12_cif.got.tgz:22358.got - 2010.06.03 13:27:54.
