data_PCOD9427165
_publ_section_title
;
Structure prediction by ZEFSAII (Michael W. Deem and Ramdas Pophale) SiO2 
 PCOD9427165
Probable space group: P B A M
;
_chemical_formula_sum "Si O2"
_cell_formula_units_Z 48
_cell_length_a 31.787057
_cell_length_b 9.378338
_cell_length_c 8.942438
_cell_angle_alpha 90.000000
_cell_angle_beta 90.000000
_cell_angle_gamma 90.000000
_cell_volume 2665.828087
_symmetry_space_group_name_H-M "P B A M"
_symmetry_group_IT_number 55
_symmetry_cell_setting 'orthorhombic'
loop_
_space_group_symop_operation_xyz
x,y,z
-x,-y,z
1/2+x,1/2-y,-z
1/2-x,1/2+y,-z
-x,-y,-z
x,y,-z
1/2-x,1/2+y,z
1/2+x,1/2-y,z
loop_
_atom_site_type_symbol
_atom_site_label
_atom_site_fract_x
_atom_site_fract_y
_atom_site_fract_z
Si Si1 0.458433 0.408983 0.179003
Si Si2 0.207000 0.074873 0.178423
Si Si3 0.459684 0.096999 0.680465
Si Si4 0.378803 0.913393 0.320382
Si Si5 0.618418 0.419504 0.679196
Si Si6 0.790668 0.586956 0.177633
O O1 0.500000 0.500000 0.217500
O O2 0.462224 0.250501 0.244084
O O3 0.418080 0.487332 0.248231
O O4 0.454644 0.403949 0.000000
O O5 0.164301 0.033973 0.262615
O O6 0.213654 0.243639 0.201689
O O7 0.248549 0.991886 0.229513
O O8 0.201523 0.050702 0.000000
O O9 0.458990 0.114465 0.500000
O O10 0.500000 0.000000 0.717574
O O11 0.417371 0.013205 0.726111
O O12 0.376423 0.916422 0.500000
O O13 0.386608 0.747850 0.277111
O O14 0.333955 0.959375 0.254709
O O15 0.616419 0.429137 0.500000
O O16 0.794573 0.561803 0.000000
#
# Coordination Sequence:
#
# PCOD9427165 Si02
#       6
#     8   8   8   8   8   8
#     4  11  24  39  56  81 111 142 178 220 265 317
#     4   9  18  33  51  74 105 140 179 220 263 313
#     4  10  21  38  59  82 109 142 180 222 268 319
#     4   9  19  35  55  80 108 139 179 225 269 316
#     4  10  20  36  58  81 107 142 180 220 269 318
#     4   9  18  32  51  74 104 143 180 217 264 316
#
# _framework density 18.005662999999998
#
# number of rings (size 3 to 8) (size 9 to 14) (size 15 to 20)
#    0.000    2.333    0.000    2.000    0.000    6.333 
#    0.000    1.667    0.000    0.000    0.000    0.000 
#    0.000    0.000    0.000    0.000    0.000    0.000 
#
# Total GULP energy -267961.887812 kJ/mol
# GULP energy per Si atom -5582.539329 kJ/mol
# Density = 1.796468 g / cm^3
# Si number density = 18.005663 Si / 1000 Ang^3
#
#
#
# Elastic Constant Matrix: (Units=GPa)
#
#
# Indices 1 2 3 4 5 6 
#
# 1 206.8683 110.6068 65.6817 0.0000 0.0000 0.0000
# 2 110.6068 110.3080 49.6086 0.0000 0.0000 0.0000
# 3 65.6817 49.6086 33.1308 0.0000 0.0000 0.0000
# 4 0.0000 0.0000 0.0000 29.5328 0.0000 0.0000
# 5 0.0000 0.0000 0.0000 0.0000 30.6206 0.0000
# 6 0.0000 0.0000 0.0000 0.0000 0.0000 41.0919
#
#
#
# Elastic Compliance Matrix: (Units=1/GPa)
#
#
# Indices 1 2 3 4 5 6 
#
# 1 0.013796 -0.004694 -0.020322 0.000000 0.000000 0.000000
# 2 -0.004694 0.029355 -0.034648 0.000000 0.000000 0.000000
# 3 -0.020322 -0.034648 0.122352 0.000000 0.000000 0.000000
# 4 0.000000 0.000000 0.000000 0.033861 0.000000 0.000000
# 5 0.000000 0.000000 0.000000 0.000000 0.032658 0.000000
# 6 0.000000 0.000000 0.000000 0.000000 0.000000 0.024336
#
#
# Mechanical properties :
#
#
# Convention : Reuss Voigt Hill
#
# Bulk Modulus (GPa) = 21.65701 89.12236 55.38968
# Shear Modulus (GPa) = 12.78520 28.54306 20.66413
#
# Velocity S-wave (km/s) = 2.66760 3.98581 3.39137
# Velocity P-wave (km/s) = 4.64135 8.41347 6.79443
#
# Compressibility (1/GPa) = 0.04617443
#
# Stress axis : x y z
#
# Youngs Moduli (GPa) = 72.48384 34.06620 8.17312
#
# Poissons Ratio (x) = 0.15991 0.16609
# Poissons Ratio (y) = 0.34025 0.28318
# Poissons Ratio (z) = 1.47302 1.18033
#
# Static dielectric constant tensor:
#      x y z
#    x 1.594990 0.000000 0.000000 
#    y 0.000000 1.597530 0.000000 
#    z 0.000000 0.000000 1.604270 
# 
# From -- ./inp_files/2771.got.cif
#   From: 2010.05.17/outbox.cif.g08.bks.cpg/sg55_2_cif.got.tgz:2771.got - 2010.06.03 13:27:54.
