data_PCOD9427075
_publ_section_title
;
Structure prediction by ZEFSAII (Michael W. Deem and Ramdas Pophale) SiO2 
 PCOD9427075
Probable space group: P B A M
;
_chemical_formula_sum "Si O2"
_cell_formula_units_Z 64
_cell_length_a 20.298704
_cell_length_b 8.311644
_cell_length_c 18.756663
_cell_angle_alpha 90.000000
_cell_angle_beta 90.000000
_cell_angle_gamma 90.000000
_cell_volume 3164.541677
_symmetry_space_group_name_H-M "P B A M"
_symmetry_group_IT_number 55
_symmetry_cell_setting 'orthorhombic'
loop_
_space_group_symop_operation_xyz
x,y,z
-x,-y,z
1/2+x,1/2-y,-z
1/2-x,1/2+y,-z
-x,-y,-z
x,y,-z
1/2-x,1/2+y,z
1/2+x,1/2-y,z
loop_
_atom_site_type_symbol
_atom_site_label
_atom_site_fract_x
_atom_site_fract_y
_atom_site_fract_z
Si Si1 0.264292 0.133091 0.130293
Si Si2 0.566227 0.604251 0.777207
Si Si3 0.815549 0.040210 0.668704
Si Si4 0.870446 0.715768 0.636185
Si Si5 0.803162 0.612920 0.231909
Si Si6 0.351116 0.148676 0.581295
Si Si7 0.851252 0.097817 0.078559
Si Si8 0.984781 0.314080 0.653049
O O1 0.234785 0.245068 0.192259
O O2 0.305676 0.243941 0.078634
O O3 0.314832 0.013378 0.169598
O O4 0.202215 0.041264 0.096795
O O5 0.500000 0.500000 0.782067
O O6 0.625169 0.539083 0.726565
O O7 0.598204 0.617849 0.855641
O O8 0.542094 0.754101 0.729158
O O9 0.827353 0.877071 0.623160
O O10 0.748219 0.035224 0.712604
O O11 0.815665 0.212391 0.628359
O O12 0.862370 0.673531 0.720365
O O13 0.850752 0.544796 0.599386
O O14 0.946852 0.761453 0.626110
O O15 0.330840 0.166538 0.500000
O O16 0.426940 0.200161 0.595544
O O17 0.880427 0.071553 0.000000
O O18 0.000000 0.500000 0.660275
#
# Coordination Sequence:
#
# PCOD9427075 Si02
#       8
#     8   8   8   8   8   8   8   8
#     4  10  20  35  60  85 117 155 192 254 299 353
#     4  11  20  37  60  85 120 156 205 256 302 362
#     4  11  21  39  63  91 119 157 207 257 302 364
#     4  11  21  36  63  90 118 154 201 256 310 358
#     4  11  19  35  61  93 112 145 203 255 305 350
#     4  10  24  41  58  87 126 162 200 249 307 370
#     4  11  23  38  57  89 125 162 200 244 311 375
#     4   9  21  36  60  88 114 152 202 257 299 356
#
# _framework density 20.224098999999999
#
# number of rings (size 3 to 8) (size 9 to 14) (size 15 to 20)
#    0.000    1.500    5.000    1.125    3.500    3.000 
#    0.000    1.250    0.000    0.375    0.000    0.000 
#    0.000    0.000    0.000    0.000    0.000    0.000 
#
# Total GULP energy -356646.774629 kJ/mol
# GULP energy per Si atom -5572.605854 kJ/mol
# Density = 2.017807 g / cm^3
# Si number density = 20.224099 Si / 1000 Ang^3
#
#
#
# Elastic Constant Matrix: (Units=GPa)
#
#
# Indices 1 2 3 4 5 6 
#
# 1 54.9612 8.1710 3.8442 0.0000 0.0000 0.0000
# 2 8.1710 82.0533 22.9883 0.0000 0.0000 0.0000
# 3 3.8442 22.9883 92.2874 0.0000 0.0000 0.0000
# 4 0.0000 0.0000 0.0000 -10.9885 0.0000 0.0000
# 5 0.0000 0.0000 0.0000 0.0000 7.2890 0.0000
# 6 0.0000 0.0000 0.0000 0.0000 0.0000 1.0943
#
#
#
# Elastic Compliance Matrix: (Units=1/GPa)
#
#
# Indices 1 2 3 4 5 6 
#
# 1 0.018478 -0.001746 -0.000335 0.000000 0.000000 0.000000
# 2 -0.001746 0.013267 -0.003232 0.000000 0.000000 0.000000
# 3 -0.000335 -0.003232 0.011655 0.000000 0.000000 0.000000
# 4 0.000000 0.000000 0.000000 -0.091004 0.000000 0.000000
# 5 0.000000 0.000000 0.000000 0.000000 0.137192 0.000000
# 6 0.000000 0.000000 0.000000 0.000000 0.000000 0.913820
#
#
# Mechanical properties :
#
#
# Convention : Reuss Voigt Hill
#
# Bulk Modulus (GPa) = 30.51271 33.25654 31.88463
# Shear Modulus (GPa) = 4.87826 12.43220 8.65523
#
# Velocity S-wave (km/s) = 1.55478 2.48205 2.07098
# Velocity P-wave (km/s) = 4.28289 4.96929 4.63880
#
# Compressibility (1/GPa) = 0.03277322
#
# Stress axis : x y z
#
# Youngs Moduli (GPa) = 54.11939 75.37754 85.80228
#
# Poissons Ratio (x) = 0.13163 0.02872
# Poissons Ratio (y) = 0.09451 0.27730
# Poissons Ratio (z) = 0.01811 0.24361
#
# Static dielectric constant tensor:
#      x y z
#    x 1.762910 0.000000 0.000000 
#    y 0.000000 1.788720 0.000000 
#    z 0.000000 0.000000 1.729550 
# 
# From -- ./inp_files/21936.got.cif
#   From: 2010.05.17/outbox.cif.g08.bks.cpg/sg55_11_cif.got.tgz:21936.got - 2010.06.03 13:27:54.
