data_PCOD9427036
_publ_section_title
;
Structure prediction by ZEFSAII (Michael W. Deem and Ramdas Pophale) SiO2 
 PCOD9427036
Probable space group: P B A M
;
_chemical_formula_sum "Si O2"
_cell_formula_units_Z 64
_cell_length_a 19.953124
_cell_length_b 18.571980
_cell_length_c 7.623328
_cell_angle_alpha 90.000000
_cell_angle_beta 90.000000
_cell_angle_gamma 90.000000
_cell_volume 2824.969185
_symmetry_space_group_name_H-M "P B A M"
_symmetry_group_IT_number 55
_symmetry_cell_setting 'orthorhombic'
loop_
_space_group_symop_operation_xyz
x,y,z
-x,-y,z
1/2+x,1/2-y,-z
1/2-x,1/2+y,-z
-x,-y,-z
x,y,-z
1/2-x,1/2+y,z
1/2+x,1/2-y,z
loop_
_atom_site_type_symbol
_atom_site_label
_atom_site_fract_x
_atom_site_fract_y
_atom_site_fract_z
Si Si1 0.543936 0.129406 0.287552
Si Si2 0.366429 0.998122 0.205363
Si Si3 0.980272 0.886656 0.699157
Si Si4 0.103622 0.657445 0.700877
Si Si5 0.377796 0.731489 0.284986
Si Si6 0.269120 0.239687 0.293890
Si Si7 0.101070 0.976746 0.201624
Si Si8 0.761783 0.092679 0.213072
O O1 0.458707 0.872990 0.500000
O O2 0.568202 0.051593 0.226477
O O3 0.471147 0.154579 0.221392
O O4 0.599227 0.188487 0.234951
O O5 0.304358 0.949839 0.271029
O O6 0.372878 0.074547 0.297536
O O7 0.355722 0.013004 0.000000
O O8 0.998629 0.867497 0.500000
O O9 0.935280 0.823075 0.774854
O O10 0.048143 0.911096 0.791782
O O11 0.932772 0.957056 0.699352
O O12 0.094705 0.683095 0.500000
O O13 0.163014 0.705368 0.782006
O O14 0.376885 0.728558 0.500000
O O15 0.302939 0.713742 0.222237
O O16 0.269390 0.220112 0.500000
O O17 0.267000 0.325793 0.278037
O O18 0.172302 0.950902 0.269008
O O19 0.108051 0.999911 0.000000
O O20 0.761410 0.095763 0.000000
#
# Coordination Sequence:
#
# PCOD9427036 Si02
#       8
#     8   8   8   8   8   8   8   8
#     4  10  20  39  61  85 117 152 188 238 295 343
#     4  11  23  40  60  85 116 155 198 239 282 337
#     4  10  20  35  58  87 113 143 190 241 282 333
#     4  10  23  38  61  91 117 147 190 239 291 344
#     4   9  19  35  57  84 115 146 183 233 285 335
#     4  10  21  39  61  86 112 147 191 234 282 340
#     4  10  21  38  56  79 115 153 188 230 284 342
#     4  10  23  40  57  81 115 154 192 232 282 338
#
# _framework density 22.655114999999999
#
# number of rings (size 3 to 8) (size 9 to 14) (size 15 to 20)
#    0.000    2.000    1.250    2.250    3.500    4.000 
#    0.000    2.500    0.000    0.000    0.000    0.000 
#    0.000    0.000    0.000    0.000    0.000    0.000 
#
# Total GULP energy -357620.163597 kJ/mol
# GULP energy per Si atom -5587.815056 kJ/mol
# Density = 2.260355 g / cm^3
# Si number density = 22.655115 Si / 1000 Ang^3
#
#
#
# Elastic Constant Matrix: (Units=GPa)
#
#
# Indices 1 2 3 4 5 6 
#
# 1 142.9384 25.0232 -4.5141 0.0000 0.0000 0.0000
# 2 25.0232 28.8109 -8.8488 0.0000 0.0000 0.0000
# 3 -4.5141 -8.8488 50.3518 0.0000 0.0000 0.0000
# 4 0.0000 0.0000 0.0000 33.2008 0.0000 0.0000
# 5 0.0000 0.0000 0.0000 0.0000 13.8544 0.0000
# 6 0.0000 0.0000 0.0000 0.0000 0.0000 43.1600
#
#
#
# Elastic Compliance Matrix: (Units=1/GPa)
#
#
# Indices 1 2 3 4 5 6 
#
# 1 0.008265 -0.007347 -0.000550 0.000000 0.000000 0.000000
# 2 -0.007347 0.043221 0.006937 0.000000 0.000000 0.000000
# 3 -0.000550 0.006937 0.021030 0.000000 0.000000 0.000000
# 4 0.000000 0.000000 0.000000 0.030120 0.000000 0.000000
# 5 0.000000 0.000000 0.000000 0.000000 0.072179 0.000000
# 6 0.000000 0.000000 0.000000 0.000000 0.000000 0.023170
#
#
# Mechanical properties :
#
#
# Convention : Reuss Voigt Hill
#
# Bulk Modulus (GPa) = 14.16538 27.26907 20.71722
# Shear Modulus (GPa) = 22.37761 32.07240 27.22501
#
# Velocity S-wave (km/s) = 3.14626 3.76663 3.47034
# Velocity P-wave (km/s) = 4.41189 5.56592 5.02216
#
# Compressibility (1/GPa) = 0.07059466
#
# Stress axis : x y z
#
# Youngs Moduli (GPa) = 120.99380 23.13689 47.55104
#
# Poissons Ratio (x) = 0.16999 0.02617
# Poissons Ratio (y) = 0.88898 -0.32986
# Poissons Ratio (z) = 0.06658 -0.16050
#
# Static dielectric constant tensor:
#      x y z
#    x 1.852550 0.000000 0.000000 
#    y 0.000000 1.800610 0.000000 
#    z 0.000000 0.000000 1.900120 
# 
# From -- ./inp_files/9007.got.cif
#   From: 2010.05.17/outbox.cif.g08.bks.cpg/sg55_5_cif.got.tgz:9007.got - 2010.06.03 13:27:54.
