data_PCOD9427893
_publ_section_title
;
Structure prediction by ZEFSAII (Michael W. Deem and Ramdas Pophale) SiO2 
 PCOD9427893
Probable space group: P B A M
;
_chemical_formula_sum "Si O2"
_cell_formula_units_Z 56
_cell_length_a 17.245978
_cell_length_b 16.976652
_cell_length_c 8.084914
_cell_angle_alpha 90.000000
_cell_angle_beta 90.000000
_cell_angle_gamma 90.000000
_cell_volume 2367.092768
_symmetry_space_group_name_H-M "P B A M"
_symmetry_group_IT_number 55
_symmetry_cell_setting 'orthorhombic'
loop_
_space_group_symop_operation_xyz
x,y,z
-x,-y,z
1/2+x,1/2-y,-z
1/2-x,1/2+y,-z
-x,-y,-z
x,y,-z
1/2-x,1/2+y,z
1/2+x,1/2-y,z
loop_
_atom_site_type_symbol
_atom_site_label
_atom_site_fract_x
_atom_site_fract_y
_atom_site_fract_z
Si Si1 0.933575 0.123262 0.309253
Si Si2 0.238515 0.592512 0.687727
Si Si3 0.349240 0.803849 0.690546
Si Si4 0.380698 0.211608 0.810399
Si Si5 0.728867 0.573531 0.703495
Si Si6 0.019599 0.411587 0.804235
Si Si7 0.104577 0.137375 0.185568
O O1 0.945908 0.101803 0.500000
O O2 0.903750 0.213745 0.298908
O O3 0.860382 0.074737 0.241391
O O4 0.015861 0.116460 0.221103
O O5 0.209927 0.594795 0.500000
O O6 0.199488 0.666275 0.776995
O O7 0.225931 0.504916 0.758925
O O8 0.055116 0.643908 0.786204
O O9 0.337634 0.778406 0.500000
O O10 0.271363 0.845951 0.753979
O O11 0.412214 0.872969 0.700239
O O12 0.383681 0.731331 0.791729
O O13 0.168759 0.101604 0.693944
O O14 0.384083 0.238881 0.000000
O O15 0.729277 0.572771 0.500000
O O16 0.000000 0.500000 0.754575
O O17 0.041021 0.411689 0.000000
O O18 0.125631 0.114612 0.000000
#
# Coordination Sequence:
#
# PCOD9427893 Si02
#       7
#     8   8   8   8   8   8   8
#     4  11  22  41  67  92 121 164 212 257 309 369
#     4  11  23  42  65  90 122 162 207 256 309 369
#     4  11  21  38  64  93 122 160 209 256 307 369
#     4  11  22  38  60  91 129 164 204 252 307 367
#     4   9  22  41  63  92 123 156 204 261 309 362
#     4  10  21  36  56  86 128 170 203 246 306 367
#     4  12  25  42  62  91 127 162 206 259 314 374
#
# _framework density 23.657712
#
# number of rings (size 3 to 8) (size 9 to 14) (size 15 to 20)
#    0.000    1.286    1.429    4.714    0.000    2.571 
#    0.000   10.000    0.000    0.000    0.000    0.000 
#    0.000    0.000    0.000    0.000    0.000    0.000 
#
# Total GULP energy -313328.861255 kJ/mol
# GULP energy per Si atom -5595.158237 kJ/mol
# Density = 2.360387 g / cm^3
# Si number density = 23.657712 Si / 1000 Ang^3
#
#
#
# Elastic Constant Matrix: (Units=GPa)
#
#
# Indices 1 2 3 4 5 6 
#
# 1 84.4421 -18.1264 -2.6612 0.0000 0.0000 0.0000
# 2 -18.1264 50.2237 -7.9371 0.0000 0.0000 0.0000
# 3 -2.6612 -7.9371 39.3184 0.0000 0.0000 0.0000
# 4 0.0000 0.0000 0.0000 8.8554 0.0000 0.0000
# 5 0.0000 0.0000 0.0000 0.0000 13.7720 0.0000
# 6 0.0000 0.0000 0.0000 0.0000 0.0000 32.2844
#
#
#
# Elastic Compliance Matrix: (Units=1/GPa)
#
#
# Indices 1 2 3 4 5 6 
#
# 1 0.012971 0.004979 0.001883 0.000000 0.000000 0.000000
# 2 0.004979 0.022478 0.004875 0.000000 0.000000 0.000000
# 3 0.001883 0.004875 0.026545 0.000000 0.000000 0.000000
# 4 0.000000 0.000000 0.000000 0.112925 0.000000 0.000000
# 5 0.000000 0.000000 0.000000 0.000000 0.072611 0.000000
# 6 0.000000 0.000000 0.000000 0.000000 0.000000 0.030975
#
#
# Mechanical properties :
#
#
# Convention : Reuss Voigt Hill
#
# Bulk Modulus (GPa) = 11.70054 12.94833 12.32443
# Shear Modulus (GPa) = 17.63539 24.49629 21.06584
#
# Velocity S-wave (km/s) = 2.73324 3.22133 2.98727
# Velocity P-wave (km/s) = 3.86229 4.39557 4.13753
#
# Compressibility (1/GPa) = 0.08546617
#
# Stress axis : x y z
#
# Youngs Moduli (GPa) = 77.09788 44.48761 37.67213
#
# Poissons Ratio (x) = -0.22149 -0.07093
# Poissons Ratio (y) = -0.38385 -0.18364
# Poissons Ratio (z) = -0.14517 -0.21686
#
# Static dielectric constant tensor:
#      x y z
#    x 1.906760 0.000000 0.000000 
#    y 0.000000 1.906010 0.000000 
#    z 0.000000 0.000000 1.834590 
# 
# From -- ./inp_files/6153.got.cif
#   From: 2010.05.17/outbox.cif.g08.bks.cpg/sg55_4_cif.got.tgz:6153.got - 2010.06.03 13:27:54.
