data_PCOD9427084
_publ_section_title
;
Structure prediction by ZEFSAII (Michael W. Deem and Ramdas Pophale) SiO2 
 PCOD9427084
Probable space group: P B A M
;
_chemical_formula_sum "Si O2"
_cell_formula_units_Z 64
_cell_length_a 25.550211
_cell_length_b 15.009866
_cell_length_c 8.699810
_cell_angle_alpha 90.000000
_cell_angle_beta 90.000000
_cell_angle_gamma 90.000000
_cell_volume 3336.422751
_symmetry_space_group_name_H-M "P B A M"
_symmetry_group_IT_number 55
_symmetry_cell_setting 'orthorhombic'
loop_
_space_group_symop_operation_xyz
x,y,z
-x,-y,z
1/2+x,1/2-y,-z
1/2-x,1/2+y,-z
-x,-y,-z
x,y,-z
1/2-x,1/2+y,z
1/2+x,1/2-y,z
loop_
_atom_site_type_symbol
_atom_site_label
_atom_site_fract_x
_atom_site_fract_y
_atom_site_fract_z
Si Si1 0.942898 0.349799 0.685985
Si Si2 0.341759 0.259700 0.686226
Si Si3 0.107565 0.468339 0.316377
Si Si4 0.553810 0.205494 0.817805
Si Si5 0.225560 0.255165 0.685181
Si Si6 0.670790 0.535469 0.314311
Si Si7 0.377618 0.642610 0.684175
Si Si8 0.782881 0.546952 0.182293
O O1 0.946262 0.344348 0.500000
O O2 0.891731 0.295299 0.739635
O O3 0.932658 0.453119 0.725151
O O4 0.995719 0.311504 0.755465
O O5 0.343691 0.257421 0.500000
O O6 0.284065 0.224004 0.729249
O O7 0.343319 0.363802 0.732727
O O8 0.109150 0.460422 0.500000
O O9 0.089521 0.374607 0.247788
O O10 0.165231 0.493677 0.257662
O O11 0.577905 0.298771 0.762115
O O12 0.554523 0.201288 0.000000
O O13 0.225574 0.271245 0.500000
O O14 0.178334 0.188958 0.718876
O O15 0.216146 0.348912 0.768331
O O16 0.675190 0.534403 0.500000
O O17 0.629058 0.460276 0.269748
O O18 0.727859 0.512468 0.247815
O O19 0.385106 0.646944 0.500000
O O20 0.784685 0.538061 0.000000
#
# Coordination Sequence:
#
# PCOD9427084 Si02
#       8
#     8   8   8   8   8   8   8   8
#     4  10  22  39  62  84 109 150 197 240 286 343
#     4   8  16  34  58  86 114 142 187 243 287 327
#     4  11  22  37  59  84 112 151 198 242 283 342
#     4  12  25  40  58  82 118 152 188 241 296 349
#     4   9  17  32  56  82 112 148 189 237 281 332
#     4   9  19  36  60  87 117 152 193 241 287 335
#     4  10  20  35  61  88 113 151 197 239 283 337
#     4  11  21  33  52  83 122 158 187 226 285 347
#
# _framework density 19.182221999999999
#
# number of rings (size 3 to 8) (size 9 to 14) (size 15 to 20)
#    0.000    2.000    1.250    3.750    1.750    3.000 
#    0.000    3.125    0.000    3.750    0.000    0.000 
#    0.000    0.000    0.000    0.000    0.000    0.000 
#
# Total GULP energy -357401.543009 kJ/mol
# GULP energy per Si atom -5584.399110 kJ/mol
# Density = 1.913856 g / cm^3
# Si number density = 19.182222 Si / 1000 Ang^3
#
#
#
# Elastic Constant Matrix: (Units=GPa)
#
#
# Indices 1 2 3 4 5 6 
#
# 1 74.2326 5.3973 9.3930 0.0000 0.0000 0.0000
# 2 5.3973 25.7383 5.9247 0.0000 0.0000 0.0000
# 3 9.3930 5.9247 25.0202 0.0000 0.0000 0.0000
# 4 0.0000 0.0000 0.0000 -11.5971 0.0000 0.0000
# 5 0.0000 0.0000 0.0000 0.0000 -5.0659 0.0000
# 6 0.0000 0.0000 0.0000 0.0000 0.0000 31.6125
#
#
#
# Elastic Compliance Matrix: (Units=1/GPa)
#
#
# Indices 1 2 3 4 5 6 
#
# 1 0.014226 -0.001855 -0.004902 0.000000 0.000000 0.000000
# 2 -0.001855 0.041334 -0.009091 0.000000 0.000000 0.000000
# 3 -0.004902 -0.009091 0.043961 0.000000 0.000000 0.000000
# 4 0.000000 0.000000 0.000000 -0.086229 0.000000 0.000000
# 5 0.000000 0.000000 0.000000 0.000000 -0.197397 0.000000
# 6 0.000000 0.000000 0.000000 0.000000 0.000000 0.031633
#
#
# Mechanical properties :
#
#
# Convention : Reuss Voigt Hill
#
# Bulk Modulus (GPa) = 14.74374 18.49124 16.61749
# Shear Modulus (GPa) = -50.93363 9.94164 -20.49600
#
# Velocity S-wave (km/s) = -5.15850 2.27903 -3.27232
# Velocity P-wave (km/s) = 5.27043 4.07259 2.36552
#
# Compressibility (1/GPa) = 0.06782541
#
# Stress axis : x y z
#
# Youngs Moduli (GPa) = 70.29255 24.19292 22.74762
#
# Poissons Ratio (x) = 0.04488 0.11150
# Poissons Ratio (y) = 0.13039 0.20681
# Poissons Ratio (z) = 0.34454 0.21995
#
# Static dielectric constant tensor:
#      x y z
#    x 1.666160 0.000000 0.000000 
#    y 0.000000 1.680880 0.000000 
#    z 0.000000 0.000000 1.639900 
# 
# From -- ./inp_files/9699.got.cif
#   From: 2010.05.17/outbox.cif.g08.bks.cpg/sg55_5_cif.got.tgz:9699.got - 2010.06.03 13:27:54.
