data_PCOD9427878
_publ_section_title
;
Structure prediction by ZEFSAII (Michael W. Deem and Ramdas Pophale) SiO2 
 PCOD9427878
Probable space group: P B A M
;
_chemical_formula_sum "Si O2"
_cell_formula_units_Z 40
_cell_length_a 24.315309
_cell_length_b 8.261097
_cell_length_c 7.775305
_cell_angle_alpha 90.000000
_cell_angle_beta 90.000000
_cell_angle_gamma 90.000000
_cell_volume 1561.834272
_symmetry_space_group_name_H-M "P B A M"
_symmetry_group_IT_number 55
_symmetry_cell_setting 'orthorhombic'
loop_
_space_group_symop_operation_xyz
x,y,z
-x,-y,z
1/2+x,1/2-y,-z
1/2-x,1/2+y,-z
-x,-y,-z
x,y,-z
1/2-x,1/2+y,z
1/2+x,1/2-y,z
loop_
_atom_site_type_symbol
_atom_site_label
_atom_site_fract_x
_atom_site_fract_y
_atom_site_fract_z
Si Si1 0.362790 0.665941 0.304330
Si Si2 0.734888 0.537024 0.199564
Si Si3 0.067119 0.852685 0.208555
Si Si4 0.533417 0.156530 0.792749
Si Si5 0.167844 0.654151 0.789270
O O1 0.346597 0.682140 0.500000
O O2 0.307203 0.615831 0.206279
O O3 0.402639 0.509207 0.280583
O O4 0.403379 0.812170 0.254150
O O5 0.701960 0.687981 0.273056
O O6 0.794328 0.492501 0.273684
O O7 0.742976 0.575514 0.000000
O O8 0.105590 0.697892 0.254330
O O9 0.005570 0.807342 0.259903
O O10 0.068012 0.871733 0.000000
O O11 0.500000 0.000000 0.729629
O O12 0.532685 0.149874 0.000000
O O13 0.168341 0.647613 0.000000
#
# Coordination Sequence:
#
# PCOD9427878 Si02
#       5
#     8   8   8   8   8
#     4  11  22  35  52  75 106 144 180 210 249 306
#     4   9  17  32  53  76 102 132 170 214 258 302
#     4   9  18  35  57  79 103 133 173 216 258 307
#     4  10  21  36  56  81 105 131 168 218 270 313
#     4   8  15  28  50  76  98 126 165 210 255 299
#
# _framework density 25.610911999999999
#
# number of rings (size 3 to 8) (size 9 to 14) (size 15 to 20)
#    0.000    2.600    0.000    3.600    0.000    5.200 
#    0.000   10.000    0.000    0.000    0.000    0.000 
#    0.000    0.000    0.000    0.000    0.000    0.000 
#
# Total GULP energy -223455.514481 kJ/mol
# GULP energy per Si atom -5586.387862 kJ/mol
# Density = 2.555262 g / cm^3
# Si number density = 25.610912 Si / 1000 Ang^3
#
#
#
# Elastic Constant Matrix: (Units=GPa)
#
#
# Indices 1 2 3 4 5 6 
#
# 1 150.5532 8.0667 -0.2695 0.0000 0.0000 0.0000
# 2 8.0667 55.3291 3.3013 0.0000 0.0000 0.0000
# 3 -0.2695 3.3013 46.6387 0.0000 0.0000 0.0000
# 4 0.0000 0.0000 0.0000 28.3160 0.0000 0.0000
# 5 0.0000 0.0000 0.0000 0.0000 -4.2213 0.0000
# 6 0.0000 0.0000 0.0000 0.0000 0.0000 48.4279
#
#
#
# Elastic Compliance Matrix: (Units=1/GPa)
#
#
# Indices 1 2 3 4 5 6 
#
# 1 0.006695 -0.000983 0.000108 0.000000 0.000000 0.000000
# 2 -0.000983 0.018295 -0.001301 0.000000 0.000000 0.000000
# 3 0.000108 -0.001301 0.021534 0.000000 0.000000 0.000000
# 4 0.000000 0.000000 0.000000 0.035316 0.000000 0.000000
# 5 0.000000 0.000000 0.000000 0.000000 -0.236895 0.000000
# 6 0.000000 0.000000 0.000000 0.000000 0.000000 0.020649
#
#
# Mechanical properties :
#
#
# Convention : Reuss Voigt Hill
#
# Bulk Modulus (GPa) = 23.71148 30.52424 27.11786
# Shear Modulus (GPa) = -43.10383 30.59935 -6.25224
#
# Velocity S-wave (km/s) = -4.10692 3.46031 -1.56414
# Velocity P-wave (km/s) = 3.63464 5.28292 2.71097
#
# Compressibility (1/GPa) = 0.04217367
#
# Stress axis : x y z
#
# Youngs Moduli (GPa) = 149.36495 54.66113 46.43797
#
# Poissons Ratio (x) = 0.05371 -0.00503
# Poissons Ratio (y) = 0.14676 0.06040
# Poissons Ratio (z) = -0.01617 0.07110
#
# Static dielectric constant tensor:
#      x y z
#    x 1.997130 0.000000 0.000000 
#    y 0.000000 2.144970 0.000000 
#    z 0.000000 0.000000 1.950540 
# 
# From -- ./inp_files/2277.got.cif
#   From: 2010.05.17/outbox.cif.g08.bks.cpg/sg55_2_cif.got.tgz:2277.got - 2010.06.03 13:27:54.
