data_PCOD9427295
_publ_section_title
;
Structure prediction by ZEFSAII (Michael W. Deem and Ramdas Pophale) SiO2 
 PCOD9427295
Probable space group: P B A M
;
_chemical_formula_sum "Si O2"
_cell_formula_units_Z 58
_cell_length_a 18.799915
_cell_length_b 17.418624
_cell_length_c 7.361128
_cell_angle_alpha 90.000000
_cell_angle_beta 90.000000
_cell_angle_gamma 90.000000
_cell_volume 2410.538653
_symmetry_space_group_name_H-M "P B A M"
_symmetry_group_IT_number 55
_symmetry_cell_setting 'orthorhombic'
loop_
_space_group_symop_operation_xyz
x,y,z
-x,-y,z
1/2+x,1/2-y,-z
1/2-x,1/2+y,-z
-x,-y,-z
x,y,-z
1/2-x,1/2+y,z
1/2+x,1/2-y,z
loop_
_atom_site_type_symbol
_atom_site_label
_atom_site_fract_x
_atom_site_fract_y
_atom_site_fract_z
Si Si1 0.175901 0.777138 0.794863
Si Si2 0.845821 0.524309 0.718776
Si Si3 0.915497 0.366881 0.279555
Si Si4 0.188934 0.035094 0.787668
Si Si5 0.426379 0.411313 0.219905
Si Si6 0.573278 0.174369 0.281612
Si Si7 0.185953 0.206798 0.785670
Si Si8 0.000000 0.000000 0.500000
O O1 0.142527 0.692487 0.792056
O O2 0.115282 0.833957 0.723189
O O3 0.253510 0.764614 0.709132
O O4 0.186830 0.806887 0.000000
O O5 0.847494 0.526212 0.500000
O O6 0.895291 0.452956 0.775824
O O7 0.765358 0.505065 0.770976
O O8 0.876950 0.604648 0.784880
O O9 0.912975 0.364113 0.500000
O O10 0.993193 0.340120 0.218850
O O11 0.190640 0.120926 0.709479
O O12 0.128591 0.978426 0.717203
O O13 0.172281 0.042951 0.000000
O O14 0.493872 0.432716 0.338860
O O15 0.438433 0.411556 0.000000
O O16 0.571448 0.170714 0.500000
O O17 0.609659 0.254159 0.231668
O O18 0.203007 0.200959 0.000000
#
# Coordination Sequence:
#
# PCOD9427295 Si02
#       8
#     8   8   8   8   8   8   8   2
#     4  10  21  40  63  87 122 162 206 256 316 376
#     4  10  20  36  61  89 122 162 203 250 306 375
#     4  10  21  37  59  89 126 163 203 252 308 373
#     4  10  21  40  64  89 122 160 204 261 319 369
#     4  10  24  44  65  94 130 169 213 275 329 375
#     4  10  22  38  56  87 125 160 197 249 310 370
#     4  10  21  39  62  89 121 160 202 253 316 378
#     4  12  26  44  68  90 120 168 222 272 316 410
#
# _framework density 24.061012000000002
#
# number of rings (size 3 to 8) (size 9 to 14) (size 15 to 20)
#    0.000    1.931    1.379    1.448    1.931    6.069 
#    2.483    2.759    0.000    2.483    0.000    0.000 
#    0.000    0.000    0.000    0.000    0.000    0.000 
#
# Total GULP energy -323745.204998 kJ/mol
# GULP energy per Si atom -5581.813879 kJ/mol
# Density = 2.400625 g / cm^3
# Si number density = 24.061012 Si / 1000 Ang^3
#
#
#
# Elastic Constant Matrix: (Units=GPa)
#
#
# Indices 1 2 3 4 5 6 
#
# 1 65.5663 7.0539 -17.9927 0.0000 0.0000 0.0000
# 2 7.0539 39.6328 8.3906 0.0000 0.0000 0.0000
# 3 -17.9927 8.3906 105.5465 0.0000 0.0000 0.0000
# 4 0.0000 0.0000 0.0000 8.7361 0.0000 0.0000
# 5 0.0000 0.0000 0.0000 0.0000 1.2682 0.0000
# 6 0.0000 0.0000 0.0000 0.0000 0.0000 10.8546
#
#
#
# Elastic Compliance Matrix: (Units=1/GPa)
#
#
# Indices 1 2 3 4 5 6 
#
# 1 0.016488 -0.003590 0.003096 0.000000 0.000000 0.000000
# 2 -0.003590 0.026445 -0.002714 0.000000 0.000000 0.000000
# 3 0.003096 -0.002714 0.010218 0.000000 0.000000 0.000000
# 4 0.000000 0.000000 0.000000 0.114468 0.000000 0.000000
# 5 0.000000 0.000000 0.000000 0.000000 0.788498 0.000000
# 6 0.000000 0.000000 0.000000 0.000000 0.000000 0.092127
#
#
# Mechanical properties :
#
#
# Convention : Reuss Voigt Hill
#
# Bulk Modulus (GPa) = 21.39747 22.84991 22.12369
# Shear Modulus (GPa) = 4.67186 18.39137 11.53161
#
# Velocity S-wave (km/s) = 1.39495 2.76771 2.19159
# Velocity P-wave (km/s) = 3.39217 4.44195 3.95207
#
# Compressibility (1/GPa) = 0.04673450
#
# Stress axis : x y z
#
# Youngs Moduli (GPa) = 60.65169 37.81406 97.86588
#
# Poissons Ratio (x) = 0.13575 -0.30300
# Poissons Ratio (y) = 0.21774 0.26564
# Poissons Ratio (z) = -0.18778 0.10264
#
# Static dielectric constant tensor:
#      x y z
#    x 1.961790 0.000000 0.000000 
#    y 0.000000 1.920190 0.000000 
#    z 0.000000 0.000000 1.970260 
# 
# From -- ./inp_files/7693.got.cif
#   From: 2010.05.17/outbox.cif.g08.bks.cpg/sg55_4_cif.got.tgz:7693.got - 2010.06.03 13:27:54.
