data_PCOD9427603
_publ_section_title
;
Structure prediction by ZEFSAII (Michael W. Deem and Ramdas Pophale) SiO2 
 PCOD9427603
Probable space group: P B A M
;
_chemical_formula_sum "Si O2"
_cell_formula_units_Z 52
_cell_length_a 18.823117
_cell_length_b 8.742651
_cell_length_c 16.995610
_cell_angle_alpha 90.000000
_cell_angle_beta 90.000000
_cell_angle_gamma 90.000000
_cell_volume 2796.864590
_symmetry_space_group_name_H-M "P B A M"
_symmetry_group_IT_number 55
_symmetry_cell_setting 'orthorhombic'
loop_
_space_group_symop_operation_xyz
x,y,z
-x,-y,z
1/2+x,1/2-y,-z
1/2-x,1/2+y,-z
-x,-y,-z
x,y,-z
1/2-x,1/2+y,z
1/2+x,1/2-y,z
loop_
_atom_site_type_symbol
_atom_site_label
_atom_site_fract_x
_atom_site_fract_y
_atom_site_fract_z
Si Si1 0.398075 0.373557 0.000000
Si Si2 0.795551 0.937439 0.623317
Si Si3 0.167615 0.884045 0.836892
Si Si4 0.069022 0.084524 0.270357
Si Si5 0.726392 0.698182 0.500000
Si Si6 0.294164 0.057939 0.221582
Si Si7 0.939186 0.771467 0.000000
Si Si8 0.434475 0.882682 0.167617
O O1 0.356751 0.329152 0.078226
O O2 0.406319 0.558283 0.000000
O O3 0.475811 0.299101 0.000000
O O4 0.868709 0.890690 0.666290
O O5 0.763183 0.807043 0.568232
O O6 0.738929 0.972131 0.692699
O O7 0.805673 0.085160 0.569114
O O8 0.191522 0.737192 0.787665
O O9 0.102957 0.971089 0.794833
O O10 0.232816 0.002115 0.838078
O O11 0.049517 0.239905 0.225024
O O12 0.000000 0.000000 0.303866
O O13 0.365320 0.966534 0.202066
O O14 0.920417 0.682298 0.920060
O O15 0.500000 0.000000 0.164823
#
# Coordination Sequence:
#
# PCOD9427603 Si02
#       8
#     4   8   8   8   4   8   4   8
#     4  11  22  39  59  84 117 165 212 262 314 363
#     4  10  21  39  65  92 123 159 196 253 301 376
#     4  11  23  38  61  86 121 168 209 267 313 359
#     4  11  21  39  62  91 126 164 207 252 310 366
#     4  10  20  38  64  92 117 154 195 230 310 372
#     4  11  23  41  60  91 122 156 213 260 312 373
#     4  11  23  39  59  82 122 165 213 262 310 365
#     4  12  24  38  62  89 124 169 214 261 311 367
#
# _framework density 18.592248000000001
#
# number of rings (size 3 to 8) (size 9 to 14) (size 15 to 20)
#    0.000    1.077    1.538    7.615    0.000    1.846 
#    0.000    1.538    0.000    1.846    0.000    8.615 
#    0.000    0.000    0.000    0.000    0.000    0.000 
#
# Total GULP energy -289494.060868 kJ/mol
# GULP energy per Si atom -5567.193478 kJ/mol
# Density = 1.854993 g / cm^3
# Si number density = 18.592248 Si / 1000 Ang^3
#
#
#
# Elastic Constant Matrix: (Units=GPa)
#
#
# Indices 1 2 3 4 5 6 
#
# 1 69.4999 17.1902 24.8427 0.0000 0.0000 0.0000
# 2 17.1902 75.0127 15.4353 0.0000 0.0000 0.0000
# 3 24.8427 15.4353 108.2315 0.0000 0.0000 0.0000
# 4 0.0000 0.0000 0.0000 32.3893 0.0000 0.0000
# 5 0.0000 0.0000 0.0000 0.0000 7.0750 0.0000
# 6 0.0000 0.0000 0.0000 0.0000 0.0000 22.7082
#
#
#
# Elastic Compliance Matrix: (Units=1/GPa)
#
#
# Indices 1 2 3 4 5 6 
#
# 1 0.016329 -0.003061 -0.003312 0.000000 0.000000 0.000000
# 2 -0.003061 0.014308 -0.001338 0.000000 0.000000 0.000000
# 3 -0.003312 -0.001338 0.010190 0.000000 0.000000 0.000000
# 4 0.000000 0.000000 0.000000 0.030874 0.000000 0.000000
# 5 0.000000 0.000000 0.000000 0.000000 0.141343 0.000000
# 6 0.000000 0.000000 0.000000 0.000000 0.000000 0.044037
#
#
# Mechanical properties :
#
#
# Convention : Reuss Voigt Hill
#
# Bulk Modulus (GPa) = 39.35926 40.85338 40.10632
# Shear Modulus (GPa) = 17.79543 25.45291 21.62417
#
# Velocity S-wave (km/s) = 3.09713 3.70402 3.41409
# Velocity P-wave (km/s) = 5.83140 6.34934 6.09587
#
# Compressibility (1/GPa) = 0.02540698
#
# Stress axis : x y z
#
# Youngs Moduli (GPa) = 61.23975 69.89208 98.13170
#
# Poissons Ratio (x) = 0.21391 0.32497
# Poissons Ratio (y) = 0.18743 0.13130
# Poissons Ratio (z) = 0.20280 0.09351
#
# Static dielectric constant tensor:
#      x y z
#    x 1.631390 0.000000 0.000000 
#    y 0.000000 1.650790 0.000000 
#    z 0.000000 0.000000 1.625710 
# 
# From -- ./inp_files/20968.got.cif
#   From: 2010.05.17/outbox.cif.g08.bks.cpg/sg55_11_cif.got.tgz:20968.got - 2010.06.03 13:27:54.
