data_PCOD9427824
_publ_section_title
;
Structure prediction by ZEFSAII (Michael W. Deem and Ramdas Pophale) SiO2 
 PCOD9427824
Probable space group: P B A M
;
_chemical_formula_sum "Si O2"
_cell_formula_units_Z 48
_cell_length_a 29.122553
_cell_length_b 8.025770
_cell_length_c 7.354324
_cell_angle_alpha 90.000000
_cell_angle_beta 90.000000
_cell_angle_gamma 90.000000
_cell_volume 1718.932857
_symmetry_space_group_name_H-M "P B A M"
_symmetry_group_IT_number 55
_symmetry_cell_setting 'orthorhombic'
loop_
_space_group_symop_operation_xyz
x,y,z
-x,-y,z
1/2+x,1/2-y,-z
1/2-x,1/2+y,-z
-x,-y,-z
x,y,-z
1/2-x,1/2+y,z
1/2+x,1/2-y,z
loop_
_atom_site_type_symbol
_atom_site_label
_atom_site_fract_x
_atom_site_fract_y
_atom_site_fract_z
Si Si1 0.990032 0.726482 0.283688
Si Si2 0.905083 0.539143 0.715562
Si Si3 0.346375 0.647102 0.279832
Si Si4 0.820955 0.344779 0.218894
Si Si5 0.738677 0.542995 0.789194
Si Si6 0.071698 0.935867 0.716261
O O1 0.997991 0.698152 0.500000
O O2 0.956369 0.579341 0.215001
O O3 0.039060 0.789185 0.209110
O O4 0.958231 0.892630 0.267620
O O5 0.909703 0.561765 0.500000
O O6 0.873952 0.375837 0.736831
O O7 0.871762 0.686462 0.785488
O O8 0.347060 0.648070 0.500000
O O9 0.294502 0.618964 0.219557
O O10 0.378741 0.493661 0.213320
O O11 0.794012 0.184250 0.291881
O O12 0.788004 0.494781 0.287935
O O13 0.681039 0.841940 0.000000
O O14 0.745639 0.583021 0.000000
O O15 0.076539 0.907124 0.500000
#
# Coordination Sequence:
#
# PCOD9427824 Si02
#       6
#     8   8   8   8   8   8
#     4   7  10  19  38  65  95 123 150 182 220 262
#     4   9  17  29  48  75 101 123 151 189 232 274
#     4   9  17  29  48  75 101 123 151 189 232 274
#     4  10  21  36  52  68  88 119 158 195 233 279
#     4  10  21  36  52  68  88 119 158 195 233 279
#     4   7  10  19  38  65  95 123 150 182 220 262
#
# _framework density 27.924299000000001
#
# number of rings (size 3 to 8) (size 9 to 14) (size 15 to 20)
#    0.000    3.333    0.000    4.000    0.000    3.333 
#    0.000    0.000    0.000    2.000    0.000   11.667 
#    0.000    0.000    0.000    0.000    0.000    0.000 
#
# Total GULP energy -268339.494843 kJ/mol
# GULP energy per Si atom -5590.406143 kJ/mol
# Density = 2.786074 g / cm^3
# Si number density = 27.924299 Si / 1000 Ang^3
#
#
#
# Elastic Constant Matrix: (Units=GPa)
#
#
# Indices 1 2 3 4 5 6 
#
# 1 224.5005 32.4386 0.2918 0.0000 0.0000 0.0000
# 2 32.4386 105.4513 -5.5818 0.0000 0.0000 0.0000
# 3 0.2918 -5.5818 115.3388 0.0000 0.0000 0.0000
# 4 0.0000 0.0000 0.0000 1.9137 0.0000 0.0000
# 5 0.0000 0.0000 0.0000 0.0000 1.5047 0.0000
# 6 0.0000 0.0000 0.0000 0.0000 0.0000 62.1710
#
#
#
# Elastic Compliance Matrix: (Units=1/GPa)
#
#
# Indices 1 2 3 4 5 6 
#
# 1 0.004662 -0.001439 -0.000081 0.000000 0.000000 0.000000
# 2 -0.001439 0.009951 0.000485 0.000000 0.000000 0.000000
# 3 -0.000081 0.000485 0.008694 0.000000 0.000000 0.000000
# 4 0.000000 0.000000 0.000000 0.522538 0.000000 0.000000
# 5 0.000000 0.000000 0.000000 0.000000 0.664588 0.000000
# 6 0.000000 0.000000 0.000000 0.000000 0.000000 0.016085
#
#
# Mechanical properties :
#
#
# Convention : Reuss Voigt Hill
#
# Bulk Modulus (GPa) = 47.08551 55.50974 51.29763
# Shear Modulus (GPa) = 4.04640 40.99403 22.52021
#
# Velocity S-wave (km/s) = 1.20507 3.83566 2.84293
# Velocity P-wave (km/s) = 4.33990 6.28794 5.40245
#
# Compressibility (1/GPa) = 0.02123795
#
# Stress axis : x y z
#
# Youngs Moduli (GPa) = 214.48671 100.48994 115.02457
#
# Poissons Ratio (x) = 0.14456 0.00936
# Poissons Ratio (y) = 0.30854 -0.05581
# Poissons Ratio (z) = 0.01746 -0.04876
#
# Static dielectric constant tensor:
#      x y z
#    x 2.128810 0.000000 0.000000 
#    y 0.000000 2.337180 0.000000 
#    z 0.000000 0.000000 2.047240 
# 
# From -- ./inp_files/10498.got.cif
#   From: 2010.05.17/outbox.cif.g08.bks.cpg/sg55_6_cif.got.tgz:10498.got - 2010.06.03 13:27:54.
