data_PCOD9427146
_publ_section_title
;
Structure prediction by ZEFSAII (Michael W. Deem and Ramdas Pophale) SiO2 
 PCOD9427146
Probable space group: P B A M
;
_chemical_formula_sum "Si O2"
_cell_formula_units_Z 64
_cell_length_a 22.473197
_cell_length_b 15.182459
_cell_length_c 7.483242
_cell_angle_alpha 90.000000
_cell_angle_beta 90.000000
_cell_angle_gamma 90.000000
_cell_volume 2553.270138
_symmetry_space_group_name_H-M "P B A M"
_symmetry_group_IT_number 55
_symmetry_cell_setting 'orthorhombic'
loop_
_space_group_symop_operation_xyz
x,y,z
-x,-y,z
1/2+x,1/2-y,-z
1/2-x,1/2+y,-z
-x,-y,-z
x,y,-z
1/2-x,1/2+y,z
1/2+x,1/2-y,z
loop_
_atom_site_type_symbol
_atom_site_label
_atom_site_fract_x
_atom_site_fract_y
_atom_site_fract_z
Si Si1 0.037003 0.866483 0.716399
Si Si2 0.411860 0.542669 0.284896
Si Si3 0.216151 0.075031 0.206263
Si Si4 0.767392 0.118170 0.792846
Si Si5 0.406508 0.057130 0.209907
Si Si6 0.185335 0.704729 0.218604
Si Si7 0.132877 0.362542 0.703412
Si Si8 0.005892 0.316713 0.716134
O O1 0.041985 0.863647 0.500000
O O2 0.033070 0.766533 0.781524
O O3 0.972541 0.907909 0.760254
O O4 0.083108 0.940965 0.778830
O O5 0.408510 0.541812 0.500000
O O6 0.353702 0.589739 0.215115
O O7 0.254979 0.154138 0.278114
O O8 0.227646 0.978907 0.290017
O O9 0.235616 0.068302 0.000000
O O10 0.808543 0.195506 0.715177
O O11 0.697758 0.145362 0.788973
O O12 0.784684 0.109192 0.000000
O O13 0.366510 0.138951 0.277121
O O14 0.473074 0.093148 0.233858
O O15 0.386916 0.965585 0.295661
O O16 0.394734 0.045029 0.000000
O O17 0.182531 0.710121 0.000000
O O18 0.140253 0.332372 0.500000
O O19 0.074204 0.314809 0.780473
O O20 0.008344 0.313010 0.500000
#
# Coordination Sequence:
#
# PCOD9427146 Si02
#       8
#     8   8   8   8   8   8   8   8
#     4   8  17  36  56  78 112 151 184 226 280 332
#     4   9  18  34  58  81 108 149 191 223 269 338
#     4  10  20  36  57  83 114 147 180 229 290 331
#     4  10  21  39  61  81 113 153 188 229 281 337
#     4  11  22  40  62  83 111 149 192 231 278 342
#     4   9  20  38  58  82 112 149 187 227 279 334
#     4  11  23  39  59  84 115 147 184 233 286 335
#     4  10  22  38  57  82 114 146 183 236 291 330
#
# _framework density 25.065892999999999
#
# number of rings (size 3 to 8) (size 9 to 14) (size 15 to 20)
#    0.000    2.250    1.250    1.875    3.500    3.000 
#    0.000    3.125    0.000    0.000    0.000    0.000 
#    0.000    0.000    0.000    0.000    0.000    0.000 
#
# Total GULP energy -357774.028425 kJ/mol
# GULP energy per Si atom -5590.219194 kJ/mol
# Density = 2.500884 g / cm^3
# Si number density = 25.065893 Si / 1000 Ang^3
#
#
#
# Elastic Constant Matrix: (Units=GPa)
#
#
# Indices 1 2 3 4 5 6 
#
# 1 55.4206 -14.8946 -9.5062 0.0000 0.0000 0.0000
# 2 -14.8946 88.5886 -3.3120 0.0000 0.0000 0.0000
# 3 -9.5062 -3.3120 75.2156 0.0000 0.0000 0.0000
# 4 0.0000 0.0000 0.0000 1.5374 0.0000 0.0000
# 5 0.0000 0.0000 0.0000 0.0000 22.9345 0.0000
# 6 0.0000 0.0000 0.0000 0.0000 0.0000 29.3487
#
#
#
# Elastic Compliance Matrix: (Units=1/GPa)
#
#
# Indices 1 2 3 4 5 6 
#
# 1 0.019392 0.003358 0.002599 0.000000 0.000000 0.000000
# 2 0.003358 0.011888 0.000948 0.000000 0.000000 0.000000
# 3 0.002599 0.000948 0.013665 0.000000 0.000000 0.000000
# 4 0.000000 0.000000 0.000000 0.650464 0.000000 0.000000
# 5 0.000000 0.000000 0.000000 0.000000 0.043602 0.000000
# 6 0.000000 0.000000 0.000000 0.000000 0.000000 0.034073
#
#
# Mechanical properties :
#
#
# Convention : Reuss Voigt Hill
#
# Bulk Modulus (GPa) = 17.02023 18.19990 17.61007
# Shear Modulus (GPa) = 6.41963 27.22663 16.82313
#
# Velocity S-wave (km/s) = 1.60208 3.29933 2.59348
# Velocity P-wave (km/s) = 3.19799 4.66805 4.00112
#
# Compressibility (1/GPa) = 0.05875360
#
# Stress axis : x y z
#
# Youngs Moduli (GPa) = 51.56776 84.11785 73.17809
#
# Poissons Ratio (x) = -0.28243 -0.19017
# Poissons Ratio (y) = -0.17314 -0.06936
# Poissons Ratio (z) = -0.13401 -0.07973
#
# Static dielectric constant tensor:
#      x y z
#    x 1.961800 0.000000 0.000000 
#    y 0.000000 1.996370 0.000000 
#    z 0.000000 0.000000 1.947740 
# 
# From -- ./inp_files/9735.got.cif
#   From: 2010.05.17/outbox.cif.g08.bks.cpg/sg55_5_cif.got.tgz:9735.got - 2010.06.03 13:27:54.
