data_PCOD9427706
_publ_section_title
;
Structure prediction by ZEFSAII (Michael W. Deem and Ramdas Pophale) SiO2 
 PCOD9427706
Probable space group: P B A M
;
_chemical_formula_sum "Si O2"
_cell_formula_units_Z 60
_cell_length_a 12.300564
_cell_length_b 10.874674
_cell_length_c 21.801910
_cell_angle_alpha 90.000000
_cell_angle_beta 90.000000
_cell_angle_gamma 90.000000
_cell_volume 2916.324283
_symmetry_space_group_name_H-M "P B A M"
_symmetry_group_IT_number 55
_symmetry_cell_setting 'orthorhombic'
loop_
_space_group_symop_operation_xyz
x,y,z
-x,-y,z
1/2+x,1/2-y,-z
1/2-x,1/2+y,-z
-x,-y,-z
x,y,-z
1/2-x,1/2+y,z
1/2+x,1/2-y,z
loop_
_atom_site_type_symbol
_atom_site_label
_atom_site_fract_x
_atom_site_fract_y
_atom_site_fract_z
Si Si1 0.772583 0.034681 0.611349
Si Si2 0.654272 0.278100 0.431699
Si Si3 0.846729 0.971962 0.112643
Si Si4 0.391675 0.080041 0.853966
Si Si5 0.966313 0.176982 0.665071
Si Si6 0.974539 0.198425 0.068716
Si Si7 0.615224 0.931325 0.709402
Si Si8 0.000000 0.000000 0.225892
O O1 0.719995 0.151140 0.577036
O O2 0.892561 0.077391 0.630366
O O3 0.777387 0.904858 0.575821
O O4 0.706063 0.007710 0.673631
O O5 0.605349 0.278485 0.500000
O O6 0.565430 0.284510 0.377997
O O7 0.717788 0.966899 0.113666
O O8 0.896813 0.997629 0.180434
O O9 0.906234 0.847686 0.089781
O O10 0.897109 0.079068 0.071156
O O11 0.423980 0.210166 0.882140
O O12 0.366037 0.082950 0.781648
O O13 0.500000 0.000000 0.862811
O O14 0.895002 0.296850 0.679745
O O15 0.002332 0.117325 0.729433
O O16 0.977940 0.249543 0.000000
O O17 0.500000 0.000000 0.701293
#
# Coordination Sequence:
#
# PCOD9427706 Si02
#       8
#     8   8   8   8   8   8   8   4
#     4  12  24  45  70  97 133 177 223 280 342 401
#     4  12  27  45  68  98 133 177 229 279 337 411
#     4  10  22  43  68  98 134 176 229 282 339 402
#     4  11  26  42  66 105 138 174 224 286 335 402
#     4  12  23  42  67  97 130 174 224 273 341 407
#     4  10  23  45  69  96 135 183 227 274 338 403
#     4  11  23  43  66 100 135 170 218 277 342 402
#     4  10  20  40  70 100 126 178 226 280 350 408
#
# _framework density 20.573844999999999
#
# number of rings (size 3 to 8) (size 9 to 14) (size 15 to 20)
#    0.000    1.067    4.000    3.600    1.867    2.933 
#    2.400    0.667    0.000    0.000    0.000    0.000 
#    0.000    0.000    0.000    0.000    0.000    0.000 
#
# Total GULP energy -335280.619914 kJ/mol
# GULP energy per Si atom -5588.010332 kJ/mol
# Density = 2.052702 g / cm^3
# Si number density = 20.573845 Si / 1000 Ang^3
#
#
#
# Elastic Constant Matrix: (Units=GPa)
#
#
# Indices 1 2 3 4 5 6 
#
# 1 100.1003 23.0212 22.5213 0.0000 0.0000 0.0000
# 2 23.0212 98.7795 19.4206 0.0000 0.0000 0.0000
# 3 22.5213 19.4206 80.3427 0.0000 0.0000 0.0000
# 4 0.0000 0.0000 0.0000 23.0347 0.0000 0.0000
# 5 0.0000 0.0000 0.0000 0.0000 -10.9659 0.0000
# 6 0.0000 0.0000 0.0000 0.0000 0.0000 22.5820
#
#
#
# Elastic Compliance Matrix: (Units=1/GPa)
#
#
# Indices 1 2 3 4 5 6 
#
# 1 0.011049 -0.002064 -0.002598 0.000000 0.000000 0.000000
# 2 -0.002064 0.011014 -0.002084 0.000000 0.000000 0.000000
# 3 -0.002598 -0.002084 0.013679 0.000000 0.000000 0.000000
# 4 0.000000 0.000000 0.000000 0.043413 0.000000 0.000000
# 5 0.000000 0.000000 0.000000 0.000000 -0.091192 0.000000
# 6 0.000000 0.000000 0.000000 0.000000 0.000000 0.044283
#
#
# Mechanical properties :
#
#
# Convention : Reuss Voigt Hill
#
# Bulk Modulus (GPa) = 44.94446 45.46095 45.20270
# Shear Modulus (GPa) = 94.06410 21.21414 57.63912
#
# Velocity S-wave (km/s) = 6.76901 3.21459 5.29873
# Velocity P-wave (km/s) = 9.10964 5.99355 7.71065
#
# Compressibility (1/GPa) = 0.02224968
#
# Stress axis : x y z
#
# Youngs Moduli (GPa) = 90.50337 90.79086 73.10622
#
# Poissons Ratio (x) = 0.18742 0.18995
# Poissons Ratio (y) = 0.18682 0.15234
# Poissons Ratio (z) = 0.23516 0.18919
#
# Static dielectric constant tensor:
#      x y z
#    x 1.711300 0.000000 0.000000 
#    y 0.000000 1.771690 0.000000 
#    z 0.000000 0.000000 1.715910 
# 
# From -- ./inp_files/22872.got.cif
#   From: 2010.05.17/outbox.cif.g08.bks.cpg/sg55_12_cif.got.tgz:22872.got - 2010.06.03 13:27:54.
