data_PCOD9427638
_publ_section_title
;
Structure prediction by ZEFSAII (Michael W. Deem and Ramdas Pophale) SiO2 
 PCOD9427638
Probable space group: P B A M
;
_chemical_formula_sum "Si O2"
_cell_formula_units_Z 56
_cell_length_a 14.840039
_cell_length_b 16.947039
_cell_length_c 11.517161
_cell_angle_alpha 90.000000
_cell_angle_beta 90.000000
_cell_angle_gamma 90.000000
_cell_volume 2896.505177
_symmetry_space_group_name_H-M "P B A M"
_symmetry_group_IT_number 55
_symmetry_cell_setting 'orthorhombic'
loop_
_space_group_symop_operation_xyz
x,y,z
-x,-y,z
1/2+x,1/2-y,-z
1/2-x,1/2+y,-z
-x,-y,-z
x,y,-z
1/2-x,1/2+y,z
1/2+x,1/2-y,z
loop_
_atom_site_type_symbol
_atom_site_label
_atom_site_fract_x
_atom_site_fract_y
_atom_site_fract_z
Si Si1 0.107825 0.987856 0.130538
Si Si2 0.427781 0.310112 0.865545
Si Si3 0.788689 0.323150 0.863240
Si Si4 0.607897 0.285993 0.276803
Si Si5 0.561810 0.111212 0.637963
Si Si6 0.864517 0.446676 0.704593
Si Si7 0.831251 0.938560 0.377197
O O1 0.121559 0.894121 0.138030
O O2 0.143012 0.023831 0.251753
O O3 0.139464 0.015578 0.000000
O O4 0.000000 0.000000 0.129486
O O5 0.361364 0.241916 0.825004
O O6 0.517943 0.309734 0.791501
O O7 0.452243 0.295277 0.000000
O O8 0.694522 0.299693 0.805055
O O9 0.830231 0.406695 0.823399
O O10 0.778867 0.319821 0.000000
O O11 0.595241 0.196801 0.320786
O O12 0.625148 0.351896 0.373821
O O13 0.576725 0.101849 0.500000
O O14 0.455452 0.096920 0.662663
O O15 0.612326 0.039366 0.703359
O O16 0.777007 0.433110 0.625524
O O17 0.858167 0.978352 0.500000
#
# Coordination Sequence:
#
# PCOD9427638 Si02
#       7
#     8   8   8   8   8   8   8
#     4  10  21  38  62  86 116 163 209 248 308 379
#     4  10  20  39  60  86 121 160 205 255 308 372
#     4  10  22  40  63  91 124 160 206 259 312 372
#     4  11  22  38  63  90 125 163 210 253 317 377
#     4  11  22  41  64  87 119 166 212 257 310 378
#     4  10  22  41  64  87 122 162 209 251 316 374
#     4  11  23  39  61  93 128 160 205 265 319 370
#
# _framework density 19.333644
#
# number of rings (size 3 to 8) (size 9 to 14) (size 15 to 20)
#    0.000    1.571    2.857    2.571    2.000    2.571 
#    0.000    2.857    0.000    0.000    0.000    0.000 
#    0.000    0.000    0.000    0.000    0.000    0.000 
#
# Total GULP energy -312180.100868 kJ/mol
# GULP energy per Si atom -5574.644658 kJ/mol
# Density = 1.928964 g / cm^3
# Si number density = 19.333644 Si / 1000 Ang^3
#
#
#
# Elastic Constant Matrix: (Units=GPa)
#
#
# Indices 1 2 3 4 5 6 
#
# 1 98.5735 31.9745 54.6362 0.0000 0.0000 0.0000
# 2 31.9745 106.8091 39.7643 0.0000 0.0000 0.0000
# 3 54.6362 39.7643 120.2388 0.0000 0.0000 0.0000
# 4 0.0000 0.0000 0.0000 -47.6534 0.0000 0.0000
# 5 0.0000 0.0000 0.0000 0.0000 -19.0299 0.0000
# 6 0.0000 0.0000 0.0000 0.0000 0.0000 26.2033
#
#
#
# Elastic Compliance Matrix: (Units=1/GPa)
#
#
# Indices 1 2 3 4 5 6 
#
# 1 0.013950 -0.002071 -0.005654 0.000000 0.000000 0.000000
# 2 -0.002071 0.010985 -0.002692 0.000000 0.000000 0.000000
# 3 -0.005654 -0.002692 0.011776 0.000000 0.000000 0.000000
# 4 0.000000 0.000000 0.000000 -0.020985 0.000000 0.000000
# 5 0.000000 0.000000 0.000000 0.000000 -0.052549 0.000000
# 6 0.000000 0.000000 0.000000 0.000000 0.000000 0.038163
#
#
# Mechanical properties :
#
#
# Convention : Reuss Voigt Hill
#
# Bulk Modulus (GPa) = 62.98261 64.26351 63.62306
# Shear Modulus (GPa) = 182.03848 5.18708 93.61278
#
# Velocity S-wave (km/s) = 9.71395 1.63974 6.96597
# Velocity P-wave (km/s) = 12.58816 6.07424 9.88327
#
# Compressibility (1/GPa) = 0.01587740
#
# Stress axis : x y z
#
# Youngs Moduli (GPa) = 71.68228 91.03651 84.91776
#
# Poissons Ratio (x) = 0.18856 0.48013
# Poissons Ratio (y) = 0.14847 0.22856
# Poissons Ratio (z) = 0.40530 0.24503
#
# Static dielectric constant tensor:
#      x y z
#    x 1.679640 0.000000 0.000000 
#    y 0.000000 1.708740 0.000000 
#    z 0.000000 0.000000 1.689740 
# 
# From -- ./inp_files/14221.got.cif
#   From: 2010.05.17/outbox.cif.g08.bks.cpg/sg55_8_cif.got.tgz:14221.got - 2010.06.03 13:27:54.
