data_PCOD9427045
_publ_section_title
;
Structure prediction by ZEFSAII (Michael W. Deem and Ramdas Pophale) SiO2 
 PCOD9427045
Probable space group: P B A M
;
_chemical_formula_sum "Si O2"
_cell_formula_units_Z 48
_cell_length_a 12.362748
_cell_length_b 24.196613
_cell_length_c 8.488921
_cell_angle_alpha 90.000000
_cell_angle_beta 90.000000
_cell_angle_gamma 90.000000
_cell_volume 2539.347212
_symmetry_space_group_name_H-M "P B A M"
_symmetry_group_IT_number 55
_symmetry_cell_setting 'orthorhombic'
loop_
_space_group_symop_operation_xyz
x,y,z
-x,-y,z
1/2+x,1/2-y,-z
1/2-x,1/2+y,-z
-x,-y,-z
x,y,-z
1/2-x,1/2+y,z
1/2+x,1/2-y,z
loop_
_atom_site_type_symbol
_atom_site_label
_atom_site_fract_x
_atom_site_fract_y
_atom_site_fract_z
Si Si1 0.995388 0.876190 0.808592
Si Si2 0.906971 0.658030 0.688272
Si Si3 0.154654 0.646614 0.311149
Si Si4 0.724011 0.579170 0.809424
Si Si5 0.297251 0.547807 0.809360
Si Si6 0.656728 0.277209 0.188923
O O1 0.912834 0.925403 0.764146
O O2 0.939219 0.819051 0.757811
O O3 0.116330 0.888443 0.753921
O O4 0.997953 0.875096 0.000000
O O5 0.906802 0.655998 0.500000
O O6 0.830728 0.609678 0.751938
O O7 0.860428 0.716737 0.743381
O O8 0.031101 0.652356 0.742980
O O9 0.158065 0.650088 0.500000
O O10 0.206455 0.588638 0.257395
O O11 0.231884 0.694143 0.241637
O O12 0.715988 0.515329 0.758832
O O13 0.723166 0.579648 0.000000
O O14 0.291924 0.549668 0.000000
O O15 0.655030 0.274688 0.000000
#
# Coordination Sequence:
#
# PCOD9427045 Si02
#       6
#     8   8   8   8   8   8
#     4   8  16  33  58  88 114 141 180 234 291 332
#     4  11  25  40  54  80 117 155 191 233 287 343
#     4  10  22  40  59  80 113 154 192 231 284 346
#     4  10  20  35  58  88 117 148 191 237 283 336
#     4   9  18  35  60  87 115 148 190 238 283 335
#     4  10  21  38  62  86 110 143 190 241 288 341
#
# _framework density 18.902497
#
# number of rings (size 3 to 8) (size 9 to 14) (size 15 to 20)
#    0.000    2.333    0.000    3.000    2.333    6.000 
#    0.000    6.667    0.000    5.000    0.000    0.000 
#    0.000    0.000    0.000    0.000    0.000    0.000 
#
# Total GULP energy -267996.673960 kJ/mol
# GULP energy per Si atom -5583.264041 kJ/mol
# Density = 1.885947 g / cm^3
# Si number density = 18.902497 Si / 1000 Ang^3
#
#
#
# Elastic Constant Matrix: (Units=GPa)
#
#
# Indices 1 2 3 4 5 6 
#
# 1 101.3467 6.9370 6.0719 0.0000 0.0000 0.0000
# 2 6.9370 21.7728 2.4727 0.0000 0.0000 0.0000
# 3 6.0719 2.4727 12.4230 0.0000 0.0000 0.0000
# 4 0.0000 0.0000 0.0000 9.0294 0.0000 0.0000
# 5 0.0000 0.0000 0.0000 0.0000 24.2591 0.0000
# 6 0.0000 0.0000 0.0000 0.0000 0.0000 9.6250
#
#
#
# Elastic Compliance Matrix: (Units=1/GPa)
#
#
# Indices 1 2 3 4 5 6 
#
# 1 0.010327 -0.002780 -0.004494 0.000000 0.000000 0.000000
# 2 -0.002780 0.047739 -0.008144 0.000000 0.000000 0.000000
# 3 -0.004494 -0.008144 0.084313 0.000000 0.000000 0.000000
# 4 0.000000 0.000000 0.000000 0.110750 0.000000 0.000000
# 5 0.000000 0.000000 0.000000 0.000000 0.041222 0.000000
# 6 0.000000 0.000000 0.000000 0.000000 0.000000 0.103896
#
#
# Mechanical properties :
#
#
# Convention : Reuss Voigt Hill
#
# Bulk Modulus (GPa) = 8.96502 18.50065 13.73283
# Shear Modulus (GPa) = 10.72355 16.58674 13.65515
#
# Velocity S-wave (km/s) = 2.38441 2.96546 2.69066
# Velocity P-wave (km/s) = 3.51192 4.64047 4.11507
#
# Compressibility (1/GPa) = 0.11154463
#
# Stress axis : x y z
#
# Youngs Moduli (GPa) = 96.83694 20.94707 11.86052
#
# Poissons Ratio (x) = 0.05823 0.05330
# Poissons Ratio (y) = 0.26919 0.09659
# Poissons Ratio (z) = 0.43518 0.17058
#
# Static dielectric constant tensor:
#      x y z
#    x 1.647590 0.000000 0.000000 
#    y 0.000000 1.629840 0.000000 
#    z 0.000000 0.000000 1.647830 
# 
# From -- ./inp_files/4085.got.cif
#   From: 2010.05.17/outbox.cif.g08.bks.cpg/sg55_3_cif.got.tgz:4085.got - 2010.06.03 13:27:54.
