data_PCOD9427372
_publ_section_title
;
Structure prediction by ZEFSAII (Michael W. Deem and Ramdas Pophale) SiO2 
 PCOD9427372
Probable space group: P B A M
;
_chemical_formula_sum "Si O2"
_cell_formula_units_Z 64
_cell_length_a 8.904793
_cell_length_b 11.121891
_cell_length_c 31.518589
_cell_angle_alpha 90.000000
_cell_angle_beta 90.000000
_cell_angle_gamma 90.000000
_cell_volume 3121.542339
_symmetry_space_group_name_H-M "P B A M"
_symmetry_group_IT_number 55
_symmetry_cell_setting 'orthorhombic'
loop_
_space_group_symop_operation_xyz
x,y,z
-x,-y,z
1/2+x,1/2-y,-z
1/2-x,1/2+y,-z
-x,-y,-z
x,y,-z
1/2-x,1/2+y,z
1/2+x,1/2-y,z
loop_
_atom_site_type_symbol
_atom_site_label
_atom_site_fract_x
_atom_site_fract_y
_atom_site_fract_z
Si Si1 0.788066 0.250618 0.103393
Si Si2 0.126339 0.166275 0.745719
Si Si3 0.796806 0.091380 0.283923
Si Si4 0.472108 0.716836 0.421685
Si Si5 0.543565 0.137824 0.952456
Si Si6 0.258532 0.899291 0.381075
Si Si7 0.191694 0.584175 0.546004
Si Si8 0.042361 0.137198 0.840969
O O1 0.679467 0.156298 0.080225
O O2 0.675848 0.345673 0.125081
O O3 0.899092 0.297885 0.067336
O O4 0.895612 0.200977 0.140071
O O5 0.200913 0.290584 0.729803
O O6 0.091430 0.185505 0.795361
O O7 0.968824 0.136229 0.722264
O O8 0.217121 0.038657 0.740008
O O9 0.755681 0.064024 0.332627
O O10 0.368495 0.785952 0.387513
O O11 0.594318 0.636192 0.398139
O O12 0.567939 0.812409 0.448541
O O13 0.355790 0.643602 0.450062
O O14 0.500000 0.000000 0.954997
O O15 0.579731 0.182546 0.000000
O O16 0.319774 0.998404 0.413534
O O17 0.177358 0.523759 0.500000
O O18 0.000000 0.000000 0.834871
#
# Coordination Sequence:
#
# PCOD9427372 Si02
#       8
#     8   8   8   8   8   8   8   8
#     4  10  22  36  62  89 127 171 213 273 328 383
#     4  11  25  45  69  97 131 176 211 284 320 406
#     4  11  25  44  69  97 133 168 219 260 340 379
#     4  10  24  41  63  91 124 162 207 249 315 360
#     4  10  20  37  58  91 127 170 219 266 324 386
#     4  11  24  41  66  90 125 164 204 259 305 393
#     4  11  24  42  65  94 126 164 206 255 312 372
#     4  11  21  40  62  90 126 165 223 266 334 388
#
# _framework density 20.502686000000001
#
# number of rings (size 3 to 8) (size 9 to 14) (size 15 to 20)
#    0.000    1.375    1.250    3.750    7.000    4.500 
#    2.250    0.000    0.000    6.000    0.000    0.000 
#    0.000    0.000    0.000    0.000    0.000    0.000 
#
# Total GULP energy -357433.664531 kJ/mol
# GULP energy per Si atom -5584.901008 kJ/mol
# Density = 2.045602 g / cm^3
# Si number density = 20.502686 Si / 1000 Ang^3
#
#
#
# Elastic Constant Matrix: (Units=GPa)
#
#
# Indices 1 2 3 4 5 6 
#
# 1 98.9535 31.5735 32.5889 0.0000 0.0000 0.0000
# 2 31.5735 78.8387 41.7551 0.0000 0.0000 0.0000
# 3 32.5889 41.7551 142.0151 0.0000 0.0000 0.0000
# 4 0.0000 0.0000 0.0000 31.6401 0.0000 0.0000
# 5 0.0000 0.0000 0.0000 0.0000 -66.3358 0.0000
# 6 0.0000 0.0000 0.0000 0.0000 0.0000 24.9122
#
#
#
# Elastic Compliance Matrix: (Units=1/GPa)
#
#
# Indices 1 2 3 4 5 6 
#
# 1 0.011875 -0.003924 -0.001571 0.000000 0.000000 0.000000
# 2 -0.003924 0.016320 -0.003898 0.000000 0.000000 0.000000
# 3 -0.001571 -0.003898 0.008548 0.000000 0.000000 0.000000
# 4 0.000000 0.000000 0.000000 0.031606 0.000000 0.000000
# 5 0.000000 0.000000 0.000000 0.000000 -0.015075 0.000000
# 6 0.000000 0.000000 0.000000 0.000000 0.000000 0.040141
#
#
# Mechanical properties :
#
#
# Convention : Reuss Voigt Hill
#
# Bulk Modulus (GPa) = 55.68759 59.07136 57.37948
# Shear Modulus (GPa) = 42.30595 12.30262 27.30428
#
# Velocity S-wave (km/s) = 4.54743 2.45225 3.65326
# Velocity P-wave (km/s) = 7.40218 6.07389 6.77069
#
# Compressibility (1/GPa) = 0.01795732
#
# Stress axis : x y z
#
# Youngs Moduli (GPa) = 84.20921 61.27481 116.98350
#
# Poissons Ratio (x) = 0.24041 0.18384
# Poissons Ratio (y) = 0.33040 0.45600
# Poissons Ratio (z) = 0.13233 0.23885
#
# Static dielectric constant tensor:
#      x y z
#    x 1.728870 0.000000 0.000000 
#    y 0.000000 1.747270 0.000000 
#    z 0.000000 0.000000 1.718110 
# 
# From -- ./inp_files/24152.got.cif
#   From: 2010.05.17/outbox.cif.g08.bks.cpg/sg55_13_cif.got.tgz:24152.got - 2010.06.03 13:27:54.
