data_PCOD9427127
_publ_section_title
;
Structure prediction by ZEFSAII (Michael W. Deem and Ramdas Pophale) SiO2 
 PCOD9427127
Probable space group: P B A M
;
_chemical_formula_sum "Si O2"
_cell_formula_units_Z 64
_cell_length_a 28.014723
_cell_length_b 11.491875
_cell_length_c 9.605005
_cell_angle_alpha 90.000000
_cell_angle_beta 90.000000
_cell_angle_gamma 90.000000
_cell_volume 3092.251589
_symmetry_space_group_name_H-M "P B A M"
_symmetry_group_IT_number 55
_symmetry_cell_setting 'orthorhombic'
loop_
_space_group_symop_operation_xyz
x,y,z
-x,-y,z
1/2+x,1/2-y,-z
1/2-x,1/2+y,-z
-x,-y,-z
x,y,-z
1/2-x,1/2+y,z
1/2+x,1/2-y,z
loop_
_atom_site_type_symbol
_atom_site_label
_atom_site_fract_x
_atom_site_fract_y
_atom_site_fract_z
Si Si1 0.880937 0.086609 0.831302
Si Si2 0.659777 0.348560 0.842447
Si Si3 0.768835 0.408620 0.147566
Si Si4 0.052780 0.743672 0.333719
Si Si5 0.297413 0.294117 0.343199
Si Si6 0.527541 0.123982 0.841254
Si Si7 0.900614 0.504896 0.651605
Si Si8 0.805785 0.615659 0.715498
O O1 0.923994 0.151240 0.752884
O O2 0.834168 0.141876 0.758479
O O3 0.877790 0.947913 0.803467
O O4 0.881391 0.102977 0.000000
O O5 0.711661 0.411232 0.845569
O O6 0.668932 0.237675 0.747334
O O7 0.649577 0.308939 0.000000
O O8 0.786483 0.329975 0.273889
O O9 0.790800 0.536285 0.154057
O O10 0.781827 0.351324 0.000000
O O11 0.048041 0.765061 0.500000
O O12 0.087472 0.629801 0.317187
O O13 0.003621 0.706186 0.258605
O O14 0.316912 0.285961 0.500000
O O15 0.245827 0.357585 0.349530
O O16 0.576594 0.087689 0.768067
O O17 0.500000 0.000000 0.846592
O O18 0.532177 0.166862 0.000000
O O19 0.923471 0.528443 0.500000
O O20 0.845376 0.536597 0.643624
#
# Coordination Sequence:
#
# PCOD9427127 Si02
#       8
#     8   8   8   8   8   8   8   8
#     4  11  21  37  57  80 110 149 194 237 282 334
#     4   9  20  36  53  77 108 145 189 239 286 332
#     4  10  20  36  57  77 103 143 191 239 286 336
#     4  10  20  36  60  88 118 151 184 231 289 342
#     4  11  23  36  52  79 114 149 189 237 286 337
#     4   9  18  34  57  87 118 146 183 229 281 341
#     4  10  21  36  55  83 119 152 186 228 283 343
#     4  11  21  36  56  82 110 152 193 238 285 339
#
# _framework density 20.696892999999999
#
# number of rings (size 3 to 8) (size 9 to 14) (size 15 to 20)
#    0.000    1.875    1.250    3.000    0.000    6.000 
#    0.000    1.875    0.000    0.750    0.000    4.375 
#    0.000    0.000    0.000    0.000    0.000    0.000 
#
# Total GULP energy -356843.250133 kJ/mol
# GULP energy per Si atom -5575.675783 kJ/mol
# Density = 2.064979 g / cm^3
# Si number density = 20.696893 Si / 1000 Ang^3
#
#
#
# Elastic Constant Matrix: (Units=GPa)
#
#
# Indices 1 2 3 4 5 6 
#
# 1 38.0637 -3.9114 9.8837 0.0000 0.0000 0.0000
# 2 -3.9114 29.0902 12.1240 0.0000 0.0000 0.0000
# 3 9.8837 12.1240 110.4985 0.0000 0.0000 0.0000
# 4 0.0000 0.0000 0.0000 -3.6756 0.0000 0.0000
# 5 0.0000 0.0000 0.0000 0.0000 2.7657 0.0000
# 6 0.0000 0.0000 0.0000 0.0000 0.0000 31.2673
#
#
#
# Elastic Compliance Matrix: (Units=1/GPa)
#
#
# Indices 1 2 3 4 5 6 
#
# 1 0.027563 0.004960 -0.003010 0.000000 0.000000 0.000000
# 2 0.004960 0.036916 -0.004494 0.000000 0.000000 0.000000
# 3 -0.003010 -0.004494 0.009812 0.000000 0.000000 0.000000
# 4 0.000000 0.000000 0.000000 -0.272061 0.000000 0.000000
# 5 0.000000 0.000000 0.000000 0.000000 0.361573 0.000000
# 6 0.000000 0.000000 0.000000 0.000000 0.000000 0.031982
#
#
# Mechanical properties :
#
#
# Convention : Reuss Voigt Hill
#
# Bulk Modulus (GPa) = 14.44999 23.76055 19.10527
# Shear Modulus (GPa) = 22.32742 16.70854 19.51798
#
# Velocity S-wave (km/s) = 3.28804 2.84438 3.07423
# Velocity P-wave (km/s) = 4.62729 4.72149 4.67463
#
# Compressibility (1/GPa) = 0.06920418
#
# Stress axis : x y z
#
# Youngs Moduli (GPa) = 36.28055 27.08865 101.91392
#
# Poissons Ratio (x) = -0.13437 0.30673
# Poissons Ratio (y) = -0.17997 0.45801
# Poissons Ratio (z) = 0.10919 0.12174
#
# Static dielectric constant tensor:
#      x y z
#    x 1.752010 0.000000 0.000000 
#    y 0.000000 1.746100 0.000000 
#    z 0.000000 0.000000 1.775750 
# 
# From -- ./inp_files/10860.got.cif
#   From: 2010.05.17/outbox.cif.g08.bks.cpg/sg55_6_cif.got.tgz:10860.got - 2010.06.03 13:27:54.
