data_PCOD9427357
_publ_section_title
;
Structure prediction by ZEFSAII (Michael W. Deem and Ramdas Pophale) SiO2 
 PCOD9427357
Probable space group: P B A M
;
_chemical_formula_sum "Si O2"
_cell_formula_units_Z 64
_cell_length_a 24.759789
_cell_length_b 14.715385
_cell_length_c 9.524667
_cell_angle_alpha 90.000000
_cell_angle_beta 90.000000
_cell_angle_gamma 90.000000
_cell_volume 3470.310780
_symmetry_space_group_name_H-M "P B A M"
_symmetry_group_IT_number 55
_symmetry_cell_setting 'orthorhombic'
loop_
_space_group_symop_operation_xyz
x,y,z
-x,-y,z
1/2+x,1/2-y,-z
1/2-x,1/2+y,-z
-x,-y,-z
x,y,-z
1/2-x,1/2+y,z
1/2+x,1/2-y,z
loop_
_atom_site_type_symbol
_atom_site_label
_atom_site_fract_x
_atom_site_fract_y
_atom_site_fract_z
Si Si1 0.475079 0.401077 0.833271
Si Si2 0.624491 0.556704 0.662788
Si Si3 0.328256 0.017952 0.668495
Si Si4 0.946877 0.556486 0.668092
Si Si5 0.060292 0.258893 0.164946
Si Si6 0.743567 0.642713 0.335842
Si Si7 0.268548 0.172499 0.837207
Si Si8 0.353947 0.616709 0.840512
O O1 0.500000 0.500000 0.796726
O O2 0.420144 0.387589 0.748046
O O3 0.517610 0.321261 0.804526
O O4 0.464385 0.401887 0.000000
O O5 0.609708 0.552411 0.500000
O O6 0.684662 0.596518 0.674195
O O7 0.626031 0.457717 0.732523
O O8 0.323240 0.033310 0.500000
O O9 0.308489 0.106514 0.752180
O O10 0.390184 0.992986 0.701576
O O11 0.289174 0.931898 0.702553
O O12 0.948002 0.568403 0.500000
O O13 0.947913 0.653358 0.742427
O O14 0.000000 0.500000 0.709054
O O15 0.118745 0.213406 0.189180
O O16 0.055873 0.281780 0.000000
O O17 0.752693 0.667975 0.500000
O O18 0.740800 0.731449 0.239302
O O19 0.210127 0.124017 0.836446
O O20 0.284962 0.184576 0.000000
O O21 0.371303 0.591340 0.000000
#
# Coordination Sequence:
#
# PCOD9427357 Si02
#       8
#     8   8   8   8   8   8   8   8
#     4  10  20  37  58  82 120 161 191 231 293 355
#     4  11  22  35  56  86 117 153 196 242 287 342
#     4  10  21  41  64  85 118 159 196 242 299 359
#     4  10  23  42  63  87 115 151 196 249 300 343
#     4  10  21  38  62  87 114 156 200 240 292 351
#     4  10  22  39  58  84 120 160 196 236 295 358
#     4  11  23  36  60  92 119 153 197 248 296 348
#     4  10  20  37  58  84 118 152 191 241 296 348
#
# _framework density 18.442152
#
# number of rings (size 3 to 8) (size 9 to 14) (size 15 to 20)
#    0.000    1.750    2.500    1.500    0.000    5.000 
#    0.000    3.750    0.000    0.000    0.000    0.000 
#    0.000    0.000    0.000    0.000    0.000    0.000 
#
# Total GULP energy -357375.749724 kJ/mol
# GULP energy per Si atom -5583.996089 kJ/mol
# Density = 1.840018 g / cm^3
# Si number density = 18.442152 Si / 1000 Ang^3
#
#
#
# Elastic Constant Matrix: (Units=GPa)
#
#
# Indices 1 2 3 4 5 6 
#
# 1 110.3185 36.1809 45.4186 0.0000 0.0000 0.0000
# 2 36.1809 81.3941 50.7735 0.0000 0.0000 0.0000
# 3 45.4186 50.7735 61.8491 0.0000 0.0000 0.0000
# 4 0.0000 0.0000 0.0000 34.8765 0.0000 0.0000
# 5 0.0000 0.0000 0.0000 0.0000 26.6898 0.0000
# 6 0.0000 0.0000 0.0000 0.0000 0.0000 22.1401
#
#
#
# Elastic Compliance Matrix: (Units=1/GPa)
#
#
# Indices 1 2 3 4 5 6 
#
# 1 0.012998 0.000361 -0.009842 0.000000 0.000000 0.000000
# 2 0.000361 0.025191 -0.020945 0.000000 0.000000 0.000000
# 3 -0.009842 -0.020945 0.040590 0.000000 0.000000 0.000000
# 4 0.000000 0.000000 0.000000 0.028673 0.000000 0.000000
# 5 0.000000 0.000000 0.000000 0.000000 0.037467 0.000000
# 6 0.000000 0.000000 0.000000 0.000000 0.000000 0.045167
#
#
# Mechanical properties :
#
#
# Convention : Reuss Voigt Hill
#
# Bulk Modulus (GPa) = 55.77903 57.58975 56.68439
# Shear Modulus (GPa) = 19.46185 24.82053 22.14119
#
# Velocity S-wave (km/s) = 3.25205 3.67257 3.46869
# Velocity P-wave (km/s) = 6.66425 7.01988 6.84437
#
# Compressibility (1/GPa) = 0.01792788
#
# Stress axis : x y z
#
# Youngs Moduli (GPa) = 76.93488 39.69703 24.63657
#
# Poissons Ratio (x) = -0.01435 0.24247
# Poissons Ratio (y) = -0.02781 0.51602
# Poissons Ratio (z) = 0.75717 0.83146
#
# Static dielectric constant tensor:
#      x y z
#    x 1.648610 0.000000 0.000000 
#    y 0.000000 1.607820 0.000000 
#    z 0.000000 0.000000 1.622300 
# 
# From -- ./inp_files/9759.got.cif
#   From: 2010.05.17/outbox.cif.g08.bks.cpg/sg55_5_cif.got.tgz:9759.got - 2010.06.03 13:27:54.
