data_PCOD9427865
_publ_section_title
;
Structure prediction by ZEFSAII (Michael W. Deem and Ramdas Pophale) SiO2 
 PCOD9427865
Probable space group: P B A M
;
_chemical_formula_sum "Si O2"
_cell_formula_units_Z 48
_cell_length_a 19.256490
_cell_length_b 12.896250
_cell_length_c 7.376098
_cell_angle_alpha 90.000000
_cell_angle_beta 90.000000
_cell_angle_gamma 90.000000
_cell_volume 1831.754429
_symmetry_space_group_name_H-M "P B A M"
_symmetry_group_IT_number 55
_symmetry_cell_setting 'orthorhombic'
loop_
_space_group_symop_operation_xyz
x,y,z
-x,-y,z
1/2+x,1/2-y,-z
1/2-x,1/2+y,-z
-x,-y,-z
x,y,-z
1/2-x,1/2+y,z
1/2+x,1/2-y,z
loop_
_atom_site_type_symbol
_atom_site_label
_atom_site_fract_x
_atom_site_fract_y
_atom_site_fract_z
Si Si1 0.458774 0.098134 0.290166
Si Si2 0.773340 0.580945 0.784377
Si Si3 0.598664 0.200043 0.780646
Si Si4 0.556021 0.571027 0.295778
Si Si5 0.649739 0.747418 0.719276
Si Si6 0.672787 0.412637 0.220635
O O1 0.445624 0.072843 0.500000
O O2 0.520714 0.184474 0.285931
O O3 0.385316 0.143809 0.217756
O O4 0.500000 0.000000 0.205578
O O5 0.849730 0.608953 0.717713
O O6 0.721074 0.682487 0.758828
O O7 0.744137 0.469131 0.720869
O O8 0.777638 0.572985 0.000000
O O9 0.641119 0.302858 0.724367
O O10 0.595120 0.201773 0.000000
O O11 0.500000 0.500000 0.199766
O O12 0.531130 0.596400 0.500000
O O13 0.589734 0.670321 0.209560
O O14 0.620296 0.494533 0.302281
O O15 0.648166 0.749467 0.500000
O O16 0.672208 0.412990 0.000000
#
# Coordination Sequence:
#
# PCOD9427865 Si02
#       6
#     8   8   8   8   8   8
#     4  10  22  39  57  79 109 144 182 226 276 329
#     4   9  19  35  54  78 109 144 182 226 274 323
#     4  10  21  36  55  80 109 143 183 224 270 326
#     4   9  16  27  46  71  97 126 160 200 249 304
#     4   9  18  33  52  75 103 135 175 220 266 320
#     4   9  18  32  49  72 102 133 168 212 260 310
#
# _framework density 26.204384999999998
#
# number of rings (size 3 to 8) (size 9 to 14) (size 15 to 20)
#    0.000    2.667    0.000    1.000    0.000    5.333 
#    0.000    5.000    0.000    0.000    0.000    0.000 
#    0.000    0.000    0.000    0.000    0.000    0.000 
#
# Total GULP energy -267366.504564 kJ/mol
# GULP energy per Si atom -5570.135512 kJ/mol
# Density = 2.614474 g / cm^3
# Si number density = 26.204385 Si / 1000 Ang^3
#
#
#
# Elastic Constant Matrix: (Units=GPa)
#
#
# Indices 1 2 3 4 5 6 
#
# 1 132.5180 26.3107 -9.6137 0.0000 0.0000 0.0000
# 2 26.3107 91.0175 3.5635 0.0000 0.0000 0.0000
# 3 -9.6137 3.5635 103.1640 0.0000 0.0000 0.0000
# 4 0.0000 0.0000 0.0000 14.1852 0.0000 0.0000
# 5 0.0000 0.0000 0.0000 0.0000 13.2984 0.0000
# 6 0.0000 0.0000 0.0000 0.0000 0.0000 21.4188
#
#
#
# Elastic Compliance Matrix: (Units=1/GPa)
#
#
# Indices 1 2 3 4 5 6 
#
# 1 0.008077 -0.002367 0.000834 0.000000 0.000000 0.000000
# 2 -0.002367 0.011696 -0.000625 0.000000 0.000000 0.000000
# 3 0.000834 -0.000625 0.009793 0.000000 0.000000 0.000000
# 4 0.000000 0.000000 0.000000 0.070496 0.000000 0.000000
# 5 0.000000 0.000000 0.000000 0.000000 0.075197 0.000000
# 6 0.000000 0.000000 0.000000 0.000000 0.000000 0.046688
#
#
# Mechanical properties :
#
#
# Convention : Reuss Voigt Hill
#
# Bulk Modulus (GPa) = 39.60420 40.80228 40.20324
# Shear Modulus (GPa) = 21.30575 30.20972 25.75774
#
# Velocity S-wave (km/s) = 2.85452 3.39905 3.13861
# Velocity P-wave (km/s) = 5.10007 5.56860 5.33948
#
# Compressibility (1/GPa) = 0.02524985
#
# Stress axis : x y z
#
# Youngs Moduli (GPa) = 123.81262 85.50143 102.11753
#
# Poissons Ratio (x) = 0.20242 -0.08521
# Poissons Ratio (y) = 0.29312 0.06378
# Poissons Ratio (z) = -0.10331 0.05341
#
# Static dielectric constant tensor:
#      x y z
#    x 1.817840 0.000000 0.000000 
#    y 0.000000 2.303680 0.000000 
#    z 0.000000 0.000000 1.966510 
# 
# From -- ./inp_files/9439.got.cif
#   From: 2010.05.17/outbox.cif.g08.bks.cpg/sg55_5_cif.got.tgz:9439.got - 2010.06.03 13:27:54.
