data_PCOD9427094
_publ_section_title
;
Structure prediction by ZEFSAII (Michael W. Deem and Ramdas Pophale) SiO2 
 PCOD9427094
Probable space group: P B A M
;
_chemical_formula_sum "Si O2"
_cell_formula_units_Z 64
_cell_length_a 9.797869
_cell_length_b 13.469482
_cell_length_c 22.992218
_cell_angle_alpha 90.000000
_cell_angle_beta 90.000000
_cell_angle_gamma 90.000000
_cell_volume 3034.334055
_symmetry_space_group_name_H-M "P B A M"
_symmetry_group_IT_number 55
_symmetry_cell_setting 'orthorhombic'
loop_
_space_group_symop_operation_xyz
x,y,z
-x,-y,z
1/2+x,1/2-y,-z
1/2-x,1/2+y,-z
-x,-y,-z
x,y,-z
1/2-x,1/2+y,z
1/2+x,1/2-y,z
loop_
_atom_site_type_symbol
_atom_site_label
_atom_site_fract_x
_atom_site_fract_y
_atom_site_fract_z
Si Si1 0.751974 0.169194 0.622013
Si Si2 0.575571 0.605429 0.063586
Si Si3 0.483240 0.747850 0.832447
Si Si4 0.454544 0.199949 0.567890
Si Si5 0.631028 0.055363 0.896711
Si Si6 0.742618 0.727244 0.246022
Si Si7 0.655700 0.959456 0.653744
Si Si8 0.834992 0.499145 0.777274
O O1 0.607275 0.197652 0.593041
O O2 0.878118 0.197908 0.581677
O O3 0.763661 0.225214 0.684251
O O4 0.744970 0.051822 0.633057
O O5 0.500000 0.500000 0.067051
O O6 0.527928 0.671569 0.117733
O O7 0.738293 0.587293 0.066965
O O8 0.542382 0.650274 0.000000
O O9 0.430511 0.846201 0.865672
O O10 0.364224 0.717630 0.787793
O O11 0.609082 0.760976 0.788510
O O12 0.456386 0.176297 0.500000
O O13 0.361876 0.122539 0.604531
O O14 0.693454 0.983758 0.845448
O O15 0.500000 0.000000 0.923771
O O16 0.773206 0.608829 0.234674
O O17 0.701490 0.935397 0.719961
O O18 0.500000 0.000000 0.659662
O O19 0.000000 0.500000 0.777572
#
# Coordination Sequence:
#
# PCOD9427094 Si02
#       8
#     8   8   8   8   8   8   8   8
#     4  10  21  38  58  89 121 158 201 262 312 365
#     4  11  26  46  64  91 131 174 218 260 309 377
#     4  11  21  42  61  97 126 165 206 263 321 376
#     4  11  22  37  58  86 120 165 212 250 309 378
#     4  10  22  39  67  95 123 165 214 259 320 378
#     4  10  20  35  64  92 124 154 210 262 323 382
#     4   8  17  33  56  80 111 151 204 247 295 359
#     4   8  14  31  55  84 117 148 192 253 305 361
#
# _framework density 21.091944000000002
#
# number of rings (size 3 to 8) (size 9 to 14) (size 15 to 20)
#    0.000    2.125    2.500    1.875    1.750    6.500 
#    0.000    0.625    0.000    1.500    0.000    0.000 
#    0.000    0.000    0.000    0.000    0.000    0.000 
#
# Total GULP energy -356768.119373 kJ/mol
# GULP energy per Si atom -5574.501865 kJ/mol
# Density = 2.104394 g / cm^3
# Si number density = 21.091944 Si / 1000 Ang^3
#
#
#
# Elastic Constant Matrix: (Units=GPa)
#
#
# Indices 1 2 3 4 5 6 
#
# 1 102.1343 18.8280 41.5183 0.0000 0.0000 0.0000
# 2 18.8280 40.7258 29.6819 0.0000 0.0000 0.0000
# 3 41.5183 29.6819 153.6979 0.0000 0.0000 0.0000
# 4 0.0000 0.0000 0.0000 3.2962 0.0000 0.0000
# 5 0.0000 0.0000 0.0000 0.0000 23.3228 0.0000
# 6 0.0000 0.0000 0.0000 0.0000 0.0000 29.4552
#
#
#
# Elastic Compliance Matrix: (Units=1/GPa)
#
#
# Indices 1 2 3 4 5 6 
#
# 1 0.011418 -0.003527 -0.002403 0.000000 0.000000 0.000000
# 2 -0.003527 0.029666 -0.004776 0.000000 0.000000 0.000000
# 3 -0.002403 -0.004776 0.008078 0.000000 0.000000 0.000000
# 4 0.000000 0.000000 0.000000 0.303380 0.000000 0.000000
# 5 0.000000 0.000000 0.000000 0.000000 0.042876 0.000000
# 6 0.000000 0.000000 0.000000 0.000000 0.000000 0.033950
#
#
# Mechanical properties :
#
#
# Convention : Reuss Voigt Hill
#
# Bulk Modulus (GPa) = 36.03766 52.95715 44.49741
# Shear Modulus (GPa) = 10.86882 24.98351 17.92617
#
# Velocity S-wave (km/s) = 2.27250 3.44540 2.91848
# Velocity P-wave (km/s) = 4.89987 6.40234 5.70082
#
# Compressibility (1/GPa) = 0.02774875
#
# Stress axis : x y z
#
# Youngs Moduli (GPa) = 87.57958 33.70839 123.79566
#
# Poissons Ratio (x) = 0.11890 0.29751
# Poissons Ratio (y) = 0.30892 0.59128
# Poissons Ratio (z) = 0.21047 0.16100
#
# Static dielectric constant tensor:
#      x y z
#    x 1.801840 0.000000 0.000000 
#    y 0.000000 1.849000 0.000000 
#    z 0.000000 0.000000 1.787160 
# 
# From -- ./inp_files/23471.got.cif
#   From: 2010.05.17/outbox.cif.g08.bks.cpg/sg55_12_cif.got.tgz:23471.got - 2010.06.03 13:27:54.
