data_PCOD9427522
_publ_section_title
;
Structure prediction by ZEFSAII (Michael W. Deem and Ramdas Pophale) SiO2 
 PCOD9427522
Probable space group: P B A M
;
_chemical_formula_sum "Si O2"
_cell_formula_units_Z 52
_cell_length_a 28.523677
_cell_length_b 12.803306
_cell_length_c 7.267246
_cell_angle_alpha 90.000000
_cell_angle_beta 90.000000
_cell_angle_gamma 90.000000
_cell_volume 2653.979089
_symmetry_space_group_name_H-M "P B A M"
_symmetry_group_IT_number 55
_symmetry_cell_setting 'orthorhombic'
loop_
_space_group_symop_operation_xyz
x,y,z
-x,-y,z
1/2+x,1/2-y,-z
1/2-x,1/2+y,-z
-x,-y,-z
x,y,-z
1/2-x,1/2+y,z
1/2+x,1/2-y,z
loop_
_atom_site_type_symbol
_atom_site_label
_atom_site_fract_x
_atom_site_fract_y
_atom_site_fract_z
Si Si1 0.130335 0.848401 0.779785
Si Si2 0.206968 0.923243 0.500000
Si Si3 0.930250 0.345979 0.776630
Si Si4 0.471365 0.752308 0.222868
Si Si5 0.414876 0.561614 0.219939
Si Si6 0.394801 0.926010 0.778574
Si Si7 0.683999 0.124379 0.500000
Si Si8 0.161126 0.136619 0.500000
O O1 0.177567 0.877880 0.673051
O O2 0.109814 0.736551 0.724349
O O3 0.091574 0.939055 0.736442
O O4 0.137382 0.849739 0.000000
O O5 0.261605 0.901923 0.500000
O O6 0.199843 0.047391 0.500000
O O7 0.919141 0.464528 0.724734
O O8 0.979953 0.300814 0.711972
O O9 0.931833 0.345654 0.000000
O O10 0.459283 0.632791 0.275109
O O11 0.428791 0.829689 0.274216
O O12 0.473482 0.753474 0.000000
O O13 0.371618 0.615473 0.323508
O O14 0.410618 0.570322 0.000000
O O15 0.345567 0.916063 0.675239
O O16 0.389329 0.924247 0.000000
O O17 0.680298 0.248763 0.500000
#
# Coordination Sequence:
#
# PCOD9427522 Si02
#       8
#     8   4   8   8   8   8   4   4
#     4   9  19  37  57  80 112 148 183 226 279 330
#     4  10  24  40  58  82 107 139 182 239 291 328
#     4   9  18  33  56  84 119 154 181 219 273 332
#     4   9  16  30  55  84 114 152 185 218 269 324
#     4   9  17  32  56  80 108 145 183 219 260 317
#     4  10  21  37  55  81 117 148 183 228 273 324
#     4  12  24  38  61  84 102 140 193 235 277 335
#     4  10  20  38  56  77 108 136 175 230 280 322
#
# _framework density 19.593222000000001
#
# number of rings (size 3 to 8) (size 9 to 14) (size 15 to 20)
#    0.000    2.462    1.538    0.462    0.000    4.923 
#    0.000    6.923    0.000    2.769    0.000    0.000 
#    0.000    0.000    0.000    0.000    0.000    0.000 
#
# Total GULP energy -290130.540847 kJ/mol
# GULP energy per Si atom -5579.433478 kJ/mol
# Density = 1.954863 g / cm^3
# Si number density = 19.593222 Si / 1000 Ang^3
#
#
#
# Elastic Constant Matrix: (Units=GPa)
#
#
# Indices 1 2 3 4 5 6 
#
# 1 60.3468 -14.7745 8.3763 0.0000 0.0000 0.0000
# 2 -14.7745 26.1626 -1.4703 0.0000 0.0000 0.0000
# 3 8.3763 -1.4703 78.7764 0.0000 0.0000 0.0000
# 4 0.0000 0.0000 0.0000 11.1956 0.0000 0.0000
# 5 0.0000 0.0000 0.0000 0.0000 6.4589 0.0000
# 6 0.0000 0.0000 0.0000 0.0000 0.0000 12.3658
#
#
#
# Elastic Compliance Matrix: (Units=1/GPa)
#
#
# Indices 1 2 3 4 5 6 
#
# 1 0.019501 0.010907 -0.001870 0.000000 0.000000 0.000000
# 2 0.010907 0.044363 -0.000332 0.000000 0.000000 0.000000
# 3 -0.001870 -0.000332 0.012887 0.000000 0.000000 0.000000
# 4 0.000000 0.000000 0.000000 0.089320 0.000000 0.000000
# 5 0.000000 0.000000 0.000000 0.000000 0.154825 0.000000
# 6 0.000000 0.000000 0.000000 0.000000 0.000000 0.080868
#
#
# Mechanical properties :
#
#
# Convention : Reuss Voigt Hill
#
# Bulk Modulus (GPa) = 10.61993 16.61651 13.61822
# Shear Modulus (GPa) = 12.02671 17.54770 14.78721
#
# Velocity S-wave (km/s) = 2.48023 2.99590 2.75018
# Velocity P-wave (km/s) = 3.69243 4.52398 4.12919
#
# Compressibility (1/GPa) = 0.09416258
#
# Stress axis : x y z
#
# Youngs Moduli (GPa) = 51.27976 22.54109 77.59882
#
# Poissons Ratio (x) = -0.24587 0.14510
# Poissons Ratio (y) = -0.55933 0.02574
# Poissons Ratio (z) = 0.09589 0.00748
#
# Static dielectric constant tensor:
#      x y z
#    x 1.637260 0.000000 0.000000 
#    y 0.000000 1.694150 0.000000 
#    z 0.000000 0.000000 1.727490 
# 
# From -- ./inp_files/10155.got.cif
#   From: 2010.05.17/outbox.cif.g08.bks.cpg/sg55_6_cif.got.tgz:10155.got - 2010.06.03 13:27:54.
