data_PCOD9427985
_publ_section_title
;
Structure prediction by ZEFSAII (Michael W. Deem and Ramdas Pophale) SiO2 
 PCOD9427985
Probable space group: P B A M
;
_chemical_formula_sum "Si O2"
_cell_formula_units_Z 32
_cell_length_a 4.750727
_cell_length_b 10.543175
_cell_length_c 23.346227
_cell_angle_alpha 90.000000
_cell_angle_beta 90.000000
_cell_angle_gamma 90.000000
_cell_volume 1169.359891
_symmetry_space_group_name_H-M "P B A M"
_symmetry_group_IT_number 55
_symmetry_cell_setting 'orthorhombic'
loop_
_space_group_symop_operation_xyz
x,y,z
-x,-y,z
1/2+x,1/2-y,-z
1/2-x,1/2+y,-z
-x,-y,-z
x,y,-z
1/2-x,1/2+y,z
1/2+x,1/2-y,z
loop_
_atom_site_type_symbol
_atom_site_label
_atom_site_fract_x
_atom_site_fract_y
_atom_site_fract_z
Si Si1 0.500000 0.500000 0.094890
Si Si2 0.711720 0.833384 0.190173
Si Si3 0.823377 0.161584 0.500000
Si Si4 0.000000 0.000000 0.286018
Si Si5 0.322878 0.838230 0.377401
Si Si6 0.703736 0.165120 0.000000
O O1 0.690330 0.411204 0.135094
O O2 0.304143 0.412964 0.054915
O O3 0.384627 0.799187 0.190054
O O4 0.817239 0.908462 0.245458
O O5 0.644074 0.293371 0.500000
O O6 0.745181 0.101357 0.439443
O O7 0.789156 0.078094 0.326208
O O8 0.642293 0.792671 0.374671
O O9 0.378522 0.202723 0.000000
#
# Coordination Sequence:
#
# PCOD9427985 Si02
#       6
#     4   8   4   4   8   4
#     4  10  24  41  68  93 122 168 202 236 298 348
#     4  11  25  43  62  88 121 157 202 249 290 344
#     4   8  16  33  54  77 110 146 182 233 290 347
#     4  11  24  38  62  86 114 155 196 242 302 349
#     4  10  21  37  57  83 114 148 190 239 292 355
#     4  11  24  41  64  98 132 159 198 247 290 344
#
# _framework density 27.365400000000001
#
# number of rings (size 3 to 8) (size 9 to 14) (size 15 to 20)
#    0.000    1.750    0.000    3.000    0.000   11.500 
#    0.000    0.000    0.000    9.000    0.000    0.000 
#    0.000    0.000    0.000    0.000    0.000    0.000 
#
# Total GULP energy -180010.636460 kJ/mol
# GULP energy per Si atom -5625.332389 kJ/mol
# Density = 2.730311 g / cm^3
# Si number density = 27.365400 Si / 1000 Ang^3
#
#
#
# Elastic Constant Matrix: (Units=GPa)
#
#
# Indices 1 2 3 4 5 6 
#
# 1 102.3962 20.7007 19.0553 0.0000 0.0000 0.0000
# 2 20.7007 91.7285 56.9795 0.0000 0.0000 0.0000
# 3 19.0553 56.9795 211.4686 0.0000 0.0000 0.0000
# 4 0.0000 0.0000 0.0000 87.4716 0.0000 0.0000
# 5 0.0000 0.0000 0.0000 0.0000 18.0903 0.0000
# 6 0.0000 0.0000 0.0000 0.0000 0.0000 47.2837
#
#
#
# Elastic Compliance Matrix: (Units=1/GPa)
#
#
# Indices 1 2 3 4 5 6 
#
# 1 0.010256 -0.002090 -0.000361 0.000000 0.000000 0.000000
# 2 -0.002090 0.013519 -0.003454 0.000000 0.000000 0.000000
# 3 -0.000361 -0.003454 0.005692 0.000000 0.000000 0.000000
# 4 0.000000 0.000000 0.000000 0.011432 0.000000 0.000000
# 5 0.000000 0.000000 0.000000 0.000000 0.055278 0.000000
# 6 0.000000 0.000000 0.000000 0.000000 0.000000 0.021149
#
#
# Mechanical properties :
#
#
# Convention : Reuss Voigt Hill
#
# Bulk Modulus (GPa) = 56.63797 66.56269 61.60033
# Shear Modulus (GPa) = 37.03073 51.15965 44.09519
#
# Velocity S-wave (km/s) = 3.68257 4.32846 4.01852
# Velocity P-wave (km/s) = 6.23086 7.02547 6.64006
#
# Compressibility (1/GPa) = 0.01765600
#
# Stress axis : x y z
#
# Youngs Moduli (GPa) = 97.50657 73.96881 175.68143
#
# Poissons Ratio (x) = 0.15461 0.06341
# Poissons Ratio (y) = 0.20381 0.60687
# Poissons Ratio (z) = 0.03519 0.25551
#
# Static dielectric constant tensor:
#      x y z
#    x 2.002860 0.000000 0.000000 
#    y 0.000000 2.103470 0.000000 
#    z 0.000000 0.000000 2.077800 
# 
# From -- ./inp_files/22224.got.cif
#   From: 2010.05.17/outbox.cif.g08.bks.cpg/sg55_12_cif.got.tgz:22224.got - 2010.06.03 13:27:54.
