data_PCOD9427829
_publ_section_title
;
Structure prediction by ZEFSAII (Michael W. Deem and Ramdas Pophale) SiO2 
 PCOD9427829
Probable space group: P B A M
;
_chemical_formula_sum "Si O2"
_cell_formula_units_Z 64
_cell_length_a 11.887435
_cell_length_b 34.324646
_cell_length_c 7.659179
_cell_angle_alpha 90.000000
_cell_angle_beta 90.000000
_cell_angle_gamma 90.000000
_cell_volume 3125.190112
_symmetry_space_group_name_H-M "P B A M"
_symmetry_group_IT_number 55
_symmetry_cell_setting 'orthorhombic'
loop_
_space_group_symop_operation_xyz
x,y,z
-x,-y,z
1/2+x,1/2-y,-z
1/2-x,1/2+y,-z
-x,-y,-z
x,y,-z
1/2-x,1/2+y,z
1/2+x,1/2-y,z
loop_
_atom_site_type_symbol
_atom_site_label
_atom_site_fract_x
_atom_site_fract_y
_atom_site_fract_z
Si Si1 0.412399 0.791270 0.201930
Si Si2 0.915873 0.944508 0.287234
Si Si3 0.960713 0.365706 0.298057
Si Si4 0.818192 0.173438 0.793826
Si Si5 0.837559 0.027544 0.287075
Si Si6 0.292309 0.633748 0.715097
Si Si7 0.442283 0.704117 0.700508
Si Si8 0.687033 0.095913 0.711603
O O1 0.497997 0.820915 0.292354
O O2 0.286088 0.799760 0.268936
O O3 0.443526 0.746325 0.213239
O O4 0.412245 0.803479 0.000000
O O5 0.915950 0.944068 0.500000
O O6 0.863605 0.903894 0.229485
O O7 0.044617 0.952274 0.234152
O O8 0.844822 0.982575 0.232073
O O9 0.950768 0.377747 0.500000
O O10 0.836170 0.369252 0.223336
O O11 0.064427 0.390746 0.222512
O O12 0.775633 0.129620 0.761256
O O13 0.935735 0.184090 0.707979
O O14 0.833747 0.179622 0.000000
O O15 0.836340 0.027352 0.500000
O O16 0.734628 0.054412 0.228890
O O17 0.293381 0.634538 0.500000
O O18 0.352642 0.673363 0.774033
O O19 0.411971 0.711626 0.500000
O O20 0.682481 0.095776 0.500000
#
# Coordination Sequence:
#
# PCOD9427829 Si02
#       8
#     8   8   8   8   8   8   8   8
#     4  10  22  38  53  72  98 128 165 207 253 303
#     4   8  13  23  40  67 104 135 163 205 256 301
#     4   9  18  33  51  72 100 134 169 209 252 299
#     4  10  21  36  52  73 101 129 163 207 254 302
#     4   8  13  22  42  71 100 132 168 209 253 296
#     4   9  18  31  47  72 103 134 166 205 253 304
#     4  11  22  34  53  76  98 127 166 209 253 303
#     4   9  16  29  50  74  99 130 172 212 248 294
#
# _framework density 20.478753999999999
#
# number of rings (size 3 to 8) (size 9 to 14) (size 15 to 20)
#    0.000    2.750    0.000    2.625    1.750    3.500 
#    0.000    1.250    0.000    3.750    0.000    8.750 
#    0.000    4.000    0.000    0.000    0.000    0.000 
#
# Total GULP energy -357080.222006 kJ/mol
# GULP energy per Si atom -5579.378469 kJ/mol
# Density = 2.043214 g / cm^3
# Si number density = 20.478754 Si / 1000 Ang^3
#
#
#
# Elastic Constant Matrix: (Units=GPa)
#
#
# Indices 1 2 3 4 5 6 
#
# 1 56.8009 12.7724 -1.1276 0.0000 0.0000 0.0000
# 2 12.7724 59.4115 -2.0618 0.0000 0.0000 0.0000
# 3 -1.1276 -2.0618 38.8518 0.0000 0.0000 0.0000
# 4 0.0000 0.0000 0.0000 -23.8598 0.0000 0.0000
# 5 0.0000 0.0000 0.0000 0.0000 2.7700 0.0000
# 6 0.0000 0.0000 0.0000 0.0000 0.0000 11.1287
#
#
#
# Elastic Compliance Matrix: (Units=1/GPa)
#
#
# Indices 1 2 3 4 5 6 
#
# 1 0.018504 -0.003967 0.000327 0.000000 0.000000 0.000000
# 2 -0.003967 0.017713 0.000825 0.000000 0.000000 0.000000
# 3 0.000327 0.000825 0.025792 0.000000 0.000000 0.000000
# 4 0.000000 0.000000 0.000000 -0.041912 0.000000 0.000000
# 5 0.000000 0.000000 0.000000 0.000000 0.361013 0.000000
# 6 0.000000 0.000000 0.000000 0.000000 0.000000 0.089858
#
#
# Mechanical properties :
#
#
# Convention : Reuss Voigt Hill
#
# Bulk Modulus (GPa) = 17.73726 19.35893 18.54809
# Shear Modulus (GPa) = 10.09303 7.70652 8.89977
#
# Velocity S-wave (km/s) = 2.22244 1.94200 2.08693
# Velocity P-wave (km/s) = 3.90714 3.80817 3.85797
#
# Compressibility (1/GPa) = 0.05637849
#
# Stress axis : x y z
#
# Youngs Moduli (GPa) = 54.04297 56.45528 38.77161
#
# Poissons Ratio (x) = 0.22394 -0.01266
# Poissons Ratio (y) = 0.21437 -0.03198
# Poissons Ratio (z) = -0.01765 -0.04657
#
# Static dielectric constant tensor:
#      x y z
#    x 1.721960 0.000000 0.000000 
#    y 0.000000 1.704430 0.000000 
#    z 0.000000 0.000000 1.753330 
# 
# From -- ./inp_files/4543.got.cif
#   From: 2010.05.17/outbox.cif.g08.bks.cpg/sg55_3_cif.got.tgz:4543.got - 2010.06.03 13:27:54.
