data_PCOD9427752
_publ_section_title
;
Structure prediction by ZEFSAII (Michael W. Deem and Ramdas Pophale) SiO2 
 PCOD9427752
Probable space group: P B A M
;
_chemical_formula_sum "Si O2"
_cell_formula_units_Z 64
_cell_length_a 11.497143
_cell_length_b 31.753824
_cell_length_c 9.762368
_cell_angle_alpha 90.000000
_cell_angle_beta 90.000000
_cell_angle_gamma 90.000000
_cell_volume 3564.028277
_symmetry_space_group_name_H-M "P B A M"
_symmetry_group_IT_number 55
_symmetry_cell_setting 'orthorhombic'
loop_
_space_group_symop_operation_xyz
x,y,z
-x,-y,z
1/2+x,1/2-y,-z
1/2-x,1/2+y,-z
-x,-y,-z
x,y,-z
1/2-x,1/2+y,z
1/2+x,1/2-y,z
loop_
_atom_site_type_symbol
_atom_site_label
_atom_site_fract_x
_atom_site_fract_y
_atom_site_fract_z
Si Si1 0.624720 0.979561 0.333860
Si Si2 0.057036 0.812982 0.154205
Si Si3 0.133741 0.616969 0.665761
Si Si4 0.163588 0.178110 0.658693
Si Si5 0.801180 0.099872 0.156944
Si Si6 0.732548 0.728535 0.345348
Si Si7 0.118411 0.354853 0.338828
Si Si8 0.875671 0.023849 0.663811
O O1 0.619724 0.979996 0.500000
O O2 0.628270 0.931068 0.286018
O O3 0.500000 0.000000 0.288534
O O4 0.751540 0.000433 0.301874
O O5 0.128227 0.856534 0.150940
O O6 0.135437 0.779127 0.232576
O O7 0.945591 0.821318 0.244485
O O8 0.029508 0.799989 0.000000
O O9 0.139431 0.615376 0.500000
O O10 0.244854 0.643480 0.709076
O O11 0.016110 0.641833 0.698730
O O12 0.132541 0.168909 0.500000
O O13 0.218358 0.224708 0.661074
O O14 0.688039 0.112277 0.245326
O O15 0.871401 0.065127 0.241961
O O16 0.776598 0.086732 0.000000
O O17 0.685194 0.721766 0.500000
O O18 0.829472 0.692079 0.324118
O O19 0.131658 0.366456 0.500000
O O20 0.871432 0.033193 0.500000
O O21 0.000000 0.000000 0.686376
#
# Coordination Sequence:
#
# PCOD9427752 Si02
#       8
#     8   8   8   8   8   8   8   8
#     4   9  17  31  52  80 110 140 176 225 283 339
#     4  10  22  38  55  77 110 150 188 224 271 334
#     4   9  18  31  53  83 112 140 175 225 284 333
#     4  10  21  34  56  84 113 144 181 234 285 330
#     4  10  21  37  56  78 108 146 186 224 273 330
#     4   9  19  34  56  83 108 139 182 232 277 320
#     4   9  17  33  57  82 106 138 181 226 270 325
#     4  10  21  34  55  84 110 140 185 234 278 337
#
# _framework density 17.957208000000001
#
# number of rings (size 3 to 8) (size 9 to 14) (size 15 to 20)
#    0.000    2.500    0.000    1.500    3.500    4.250 
#    0.000    0.625    0.000    3.375    0.000    0.000 
#    0.000    0.000    0.000    0.000    0.000    0.000 
#
# Total GULP energy -356594.297107 kJ/mol
# GULP energy per Si atom -5571.785892 kJ/mol
# Density = 1.791634 g / cm^3
# Si number density = 17.957208 Si / 1000 Ang^3
#
#
#
# Elastic Constant Matrix: (Units=GPa)
#
#
# Indices 1 2 3 4 5 6 
#
# 1 95.9206 2.1070 40.0694 0.0000 0.0000 0.0000
# 2 2.1070 30.2315 11.2364 0.0000 0.0000 0.0000
# 3 40.0694 11.2364 62.3594 0.0000 0.0000 0.0000
# 4 0.0000 0.0000 0.0000 15.2055 0.0000 0.0000
# 5 0.0000 0.0000 0.0000 0.0000 -66.0385 0.0000
# 6 0.0000 0.0000 0.0000 0.0000 0.0000 -24.2296
#
#
#
# Elastic Compliance Matrix: (Units=1/GPa)
#
#
# Indices 1 2 3 4 5 6 
#
# 1 0.014441 0.002618 -0.009751 0.000000 0.000000 0.000000
# 2 0.002618 0.035927 -0.008156 0.000000 0.000000 0.000000
# 3 -0.009751 -0.008156 0.023771 0.000000 0.000000 0.000000
# 4 0.000000 0.000000 0.000000 0.065766 0.000000 0.000000
# 5 0.000000 0.000000 0.000000 0.000000 -0.015143 0.000000
# 6 0.000000 0.000000 0.000000 0.000000 0.000000 -0.041272
#
#
# Mechanical properties :
#
#
# Convention : Reuss Voigt Hill
#
# Bulk Modulus (GPa) = 22.95605 32.81522 27.88563
# Shear Modulus (GPa) = 38.88376 -6.00594 16.43891
#
# Velocity S-wave (km/s) = 4.65839 -1.83080 3.02892
# Velocity P-wave (km/s) = 6.46108 3.72084 5.27211
#
# Compressibility (1/GPa) = 0.04356151
#
# Stress axis : x y z
#
# Youngs Moduli (GPa) = 69.24698 27.83435 42.06790
#
# Poissons Ratio (x) = -0.07286 0.41020
# Poissons Ratio (y) = -0.18127 0.34309
# Poissons Ratio (z) = 0.67522 0.22701
#
# Static dielectric constant tensor:
#      x y z
#    x 1.666660 0.000000 0.000000 
#    y 0.000000 1.615730 0.000000 
#    z 0.000000 0.000000 1.606190 
# 
# From -- ./inp_files/4635.got.cif
#   From: 2010.05.17/outbox.cif.g08.bks.cpg/sg55_3_cif.got.tgz:4635.got - 2010.06.03 13:27:54.
