data_PCOD9427591
_publ_section_title
;
Structure prediction by ZEFSAII (Michael W. Deem and Ramdas Pophale) SiO2 
 PCOD9427591
Probable space group: P B A M
;
_chemical_formula_sum "Si O2"
_cell_formula_units_Z 48
_cell_length_a 15.199524
_cell_length_b 19.146796
_cell_length_c 8.534106
_cell_angle_alpha 90.000000
_cell_angle_beta 90.000000
_cell_angle_gamma 90.000000
_cell_volume 2483.614178
_symmetry_space_group_name_H-M "P B A M"
_symmetry_group_IT_number 55
_symmetry_cell_setting 'orthorhombic'
loop_
_space_group_symop_operation_xyz
x,y,z
-x,-y,z
1/2+x,1/2-y,-z
1/2-x,1/2+y,-z
-x,-y,-z
x,y,-z
1/2-x,1/2+y,z
1/2+x,1/2-y,z
loop_
_atom_site_type_symbol
_atom_site_label
_atom_site_fract_x
_atom_site_fract_y
_atom_site_fract_z
Si Si1 0.055720 0.432704 0.691190
Si Si2 0.279973 0.263655 0.187319
Si Si3 0.095706 0.029849 0.310497
Si Si4 0.959418 0.290442 0.687377
Si Si5 0.898454 0.813902 0.187579
Si Si6 0.242428 0.918439 0.689368
O O1 0.056234 0.432916 0.500000
O O2 0.157499 0.433824 0.741960
O O3 0.000000 0.500000 0.742241
O O4 0.008401 0.361089 0.741287
O O5 0.362476 0.218776 0.244689
O O6 0.188651 0.228201 0.238657
O O7 0.284819 0.341878 0.253459
O O8 0.280732 0.266830 0.000000
O O9 0.098373 0.034585 0.500000
O O10 0.107609 0.106486 0.241221
O O11 0.172619 0.976870 0.259582
O O12 0.000000 0.000000 0.266347
O O13 0.954142 0.292295 0.500000
O O14 0.017821 0.224706 0.739285
O O15 0.904876 0.810459 0.000000
O O16 0.242250 0.917778 0.500000
#
# Coordination Sequence:
#
# PCOD9427591 Si02
#       6
#     8   8   8   8   8   8
#     4   9  19  35  57  88 119 152 197 250 304 353
#     4  11  24  40  60  88 125 162 199 244 301 366
#     4  10  22  38  60  91 122 154 201 254 302 357
#     4  11  22  38  65  91 118 156 205 257 302 354
#     4  11  24  41  61  88 126 164 200 244 299 367
#     4  10  20  38  63  89 121 158 201 251 300 355
#
# _framework density 19.326673
#
# number of rings (size 3 to 8) (size 9 to 14) (size 15 to 20)
#    0.000    1.667    1.667    2.500    2.333    4.333 
#    0.000    0.000    0.000    2.500    0.000    0.000 
#    0.000    0.000    0.000    0.000    0.000    0.000 
#
# Total GULP energy -268296.752167 kJ/mol
# GULP energy per Si atom -5589.515670 kJ/mol
# Density = 1.928268 g / cm^3
# Si number density = 19.326673 Si / 1000 Ang^3
#
#
#
# Elastic Constant Matrix: (Units=GPa)
#
#
# Indices 1 2 3 4 5 6 
#
# 1 69.7856 -4.2824 6.0570 0.0000 0.0000 0.0000
# 2 -4.2824 88.9717 4.7103 0.0000 0.0000 0.0000
# 3 6.0570 4.7103 7.5375 0.0000 0.0000 0.0000
# 4 0.0000 0.0000 0.0000 5.0985 0.0000 0.0000
# 5 0.0000 0.0000 0.0000 0.0000 30.5803 0.0000
# 6 0.0000 0.0000 0.0000 0.0000 0.0000 41.9759
#
#
#
# Elastic Compliance Matrix: (Units=1/GPa)
#
#
# Indices 1 2 3 4 5 6 
#
# 1 0.015586 0.001462 -0.013438 0.000000 0.000000 0.000000
# 2 0.001462 0.011761 -0.008524 0.000000 0.000000 0.000000
# 3 -0.013438 -0.008524 0.148795 0.000000 0.000000 0.000000
# 4 0.000000 0.000000 0.000000 0.196134 0.000000 0.000000
# 5 0.000000 0.000000 0.000000 0.000000 0.032701 0.000000
# 6 0.000000 0.000000 0.000000 0.000000 0.000000 0.023823
#
#
# Mechanical properties :
#
#
# Convention : Reuss Voigt Hill
#
# Bulk Modulus (GPa) = 7.39965 19.91828 13.65897
# Shear Modulus (GPa) = 9.71161 26.18495 17.94828
#
# Velocity S-wave (km/s) = 2.24408 3.68484 3.05073
# Velocity P-wave (km/s) = 3.24831 5.33221 4.41498
#
# Compressibility (1/GPa) = 0.13514149
#
# Stress axis : x y z
#
# Youngs Moduli (GPa) = 64.16183 85.02565 6.72065
#
# Poissons Ratio (x) = -0.12427 0.09031
# Poissons Ratio (y) = -0.09378 0.05729
# Poissons Ratio (z) = 0.86218 0.72477
#
# Static dielectric constant tensor:
#      x y z
#    x 1.660870 0.000000 0.000000 
#    y 0.000000 1.638300 0.000000 
#    z 0.000000 0.000000 1.653000 
# 
# From -- ./inp_files/5580.got.cif
#   From: 2010.05.17/outbox.cif.g08.bks.cpg/sg55_3_cif.got.tgz:5580.got - 2010.06.03 13:27:54.
