data_PCOD9427362
_publ_section_title
;
Structure prediction by ZEFSAII (Michael W. Deem and Ramdas Pophale) SiO2 
 PCOD9427362
Probable space group: P B A M
;
_chemical_formula_sum "Si O2"
_cell_formula_units_Z 32
_cell_length_a 14.210092
_cell_length_b 9.954406
_cell_length_c 10.959625
_cell_angle_alpha 90.000000
_cell_angle_beta 90.000000
_cell_angle_gamma 90.000000
_cell_volume 1550.272110
_symmetry_space_group_name_H-M "P B A M"
_symmetry_group_IT_number 55
_symmetry_cell_setting 'orthorhombic'
loop_
_space_group_symop_operation_xyz
x,y,z
-x,-y,z
1/2+x,1/2-y,-z
1/2-x,1/2+y,-z
-x,-y,-z
x,y,-z
1/2-x,1/2+y,z
1/2+x,1/2-y,z
loop_
_atom_site_type_symbol
_atom_site_label
_atom_site_fract_x
_atom_site_fract_y
_atom_site_fract_z
Si Si1 0.920305 0.614058 0.368905
Si Si2 0.636240 0.467395 0.135585
Si Si3 0.530222 0.705534 0.219000
Si Si4 0.849373 0.461432 0.859827
O O1 0.869743 0.618721 0.500000
O O2 0.865191 0.572019 0.246037
O O3 0.000000 0.500000 0.377319
O O4 0.978304 0.748983 0.342039
O O5 0.605631 0.586082 0.226378
O O6 0.555720 0.355666 0.141425
O O7 0.741187 0.414654 0.154148
O O8 0.634707 0.529935 0.000000
O O9 0.580232 0.837186 0.163949
O O10 0.862539 0.509034 0.000000
#
# Coordination Sequence:
#
# PCOD9427362 Si02
#       4
#     8   8   8   8
#     4   9  20  39  60  83 116 154 197 245 294 349
#     4  10  21  35  56  90 126 158 194 246 302 353
#     4  10  20  37  58  83 124 159 193 242 302 353
#     4  10  21  35  60  91 118 156 203 244 296 357
#
# _framework density 20.641537
#
# number of rings (size 3 to 8) (size 9 to 14) (size 15 to 20)
#    0.000    2.250    0.000    3.000    3.500    6.500 
#    0.000    5.000    0.000    0.000    0.000    0.000 
#    0.000    0.000    0.000    0.000    0.000    0.000 
#
# Total GULP energy -178205.125170 kJ/mol
# GULP energy per Si atom -5568.910162 kJ/mol
# Density = 2.059456 g / cm^3
# Si number density = 20.641537 Si / 1000 Ang^3
#
#
#
# Elastic Constant Matrix: (Units=GPa)
#
#
# Indices 1 2 3 4 5 6 
#
# 1 100.1057 21.9947 39.7392 0.0000 0.0000 0.0000
# 2 21.9947 68.5850 38.1677 0.0000 0.0000 0.0000
# 3 39.7392 38.1677 122.0758 0.0000 0.0000 0.0000
# 4 0.0000 0.0000 0.0000 -8.1771 0.0000 0.0000
# 5 0.0000 0.0000 0.0000 0.0000 -69.4244 0.0000
# 6 0.0000 0.0000 0.0000 0.0000 0.0000 23.7576
#
#
#
# Elastic Compliance Matrix: (Units=1/GPa)
#
#
# Indices 1 2 3 4 5 6 
#
# 1 0.011689 -0.001975 -0.003188 0.000000 0.000000 0.000000
# 2 -0.001975 0.017985 -0.004980 0.000000 0.000000 0.000000
# 3 -0.003188 -0.004980 0.010786 0.000000 0.000000 0.000000
# 4 0.000000 0.000000 0.000000 -0.122292 0.000000 0.000000
# 5 0.000000 0.000000 0.000000 0.000000 -0.014404 0.000000
# 6 0.000000 0.000000 0.000000 0.000000 0.000000 0.042092
#
#
# Mechanical properties :
#
#
# Convention : Reuss Voigt Hill
#
# Bulk Modulus (GPa) = 49.56584 54.50775 52.03679
# Shear Modulus (GPa) = -184.27243 1.95554 -91.15844
#
# Velocity S-wave (km/s) = -9.45867 0.97439 -6.65271
# Velocity P-wave (km/s) = 9.75827 5.26593 5.80920
#
# Compressibility (1/GPa) = 0.02017519
#
# Stress axis : x y z
#
# Youngs Moduli (GPa) = 85.55277 55.60100 92.70876
#
# Poissons Ratio (x) = 0.10979 0.29552
# Poissons Ratio (y) = 0.16893 0.46173
# Poissons Ratio (z) = 0.27271 0.27692
#
# Static dielectric constant tensor:
#      x y z
#    x 1.761210 0.000000 0.000000 
#    y 0.000000 1.767880 0.000000 
#    z 0.000000 0.000000 1.792720 
# 
# From -- ./inp_files/3416.got.cif
#   From: 2010.05.17/outbox.cif.g08.bks.cpg/sg55_2_cif.got.tgz:3416.got - 2010.06.03 13:27:54.
