data_PCOD9427731
_publ_section_title
;
Structure prediction by ZEFSAII (Michael W. Deem and Ramdas Pophale) SiO2 
 PCOD9427731
Probable space group: P B A M
;
_chemical_formula_sum "Si O2"
_cell_formula_units_Z 52
_cell_length_a 9.451494
_cell_length_b 21.060374
_cell_length_c 13.063868
_cell_angle_alpha 90.000000
_cell_angle_beta 90.000000
_cell_angle_gamma 90.000000
_cell_volume 2600.389034
_symmetry_space_group_name_H-M "P B A M"
_symmetry_group_IT_number 55
_symmetry_cell_setting 'orthorhombic'
loop_
_space_group_symop_operation_xyz
x,y,z
-x,-y,z
1/2+x,1/2-y,-z
1/2-x,1/2+y,-z
-x,-y,-z
x,y,-z
1/2-x,1/2+y,z
1/2+x,1/2-y,z
loop_
_atom_site_type_symbol
_atom_site_label
_atom_site_fract_x
_atom_site_fract_y
_atom_site_fract_z
Si Si1 0.987174 0.891451 0.887010
Si Si2 0.269508 0.491150 0.886959
Si Si3 0.029105 0.672673 0.276925
Si Si4 0.231511 0.896135 0.500000
Si Si5 0.651147 0.301293 0.724731
Si Si6 0.612934 0.046741 0.305689
Si Si7 0.944564 0.828964 0.500000
Si Si8 0.491338 0.813857 0.500000
O O1 0.946705 0.843956 0.797624
O O2 0.136291 0.927257 0.876206
O O3 0.874075 0.948737 0.886723
O O4 0.981961 0.860823 0.000000
O O5 0.179445 0.494434 0.785174
O O6 0.200419 0.489702 0.000000
O O7 0.185006 0.692826 0.239392
O O8 0.916668 0.730588 0.271059
O O9 0.955279 0.607217 0.245708
O O10 0.050501 0.657956 0.397266
O O11 0.280881 0.930190 0.394983
O O12 0.324117 0.830705 0.500000
O O13 0.065958 0.881770 0.500000
O O14 0.637089 0.326537 0.607808
O O15 0.500000 0.000000 0.356876
O O16 0.021212 0.760293 0.500000
#
# Coordination Sequence:
#
# PCOD9427731 Si02
#       8
#     8   8   8   4   8   8   4   4
#     4   9  19  38  62  86 118 153 193 247 299 356
#     4   9  19  37  64  89 110 154 207 243 290 357
#     4  10  23  35  58  86 119 157 199 245 301 359
#     4  10  21  36  53  90 118 159 197 241 301 360
#     4  11  22  37  58  87 120 153 198 249 299 355
#     4  11  22  38  59  84 124 161 200 248 305 354
#     4  10  21  31  62  82 118 153 199 243 293 353
#     4   8  19  31  53  76 117 150 197 232 282 343
#
# _framework density 19.997008000000001
#
# number of rings (size 3 to 8) (size 9 to 14) (size 15 to 20)
#    0.000    2.154    0.000    3.462   15.077    0.308 
#    0.000    4.615    0.000    5.538    0.000    0.000 
#    0.000    0.000    0.000    0.000    0.000    0.000 
#
# Total GULP energy -289676.511237 kJ/mol
# GULP energy per Si atom -5570.702139 kJ/mol
# Density = 1.995149 g / cm^3
# Si number density = 19.997008 Si / 1000 Ang^3
#
#
#
# Elastic Constant Matrix: (Units=GPa)
#
#
# Indices 1 2 3 4 5 6 
#
# 1 48.1706 -4.1860 -10.4660 0.0000 0.0000 0.0000
# 2 -4.1860 37.9896 2.7064 0.0000 0.0000 0.0000
# 3 -10.4660 2.7064 65.0480 0.0000 0.0000 0.0000
# 4 0.0000 0.0000 0.0000 1.3825 0.0000 0.0000
# 5 0.0000 0.0000 0.0000 0.0000 -12.0255 0.0000
# 6 0.0000 0.0000 0.0000 0.0000 0.0000 14.0488
#
#
#
# Elastic Compliance Matrix: (Units=1/GPa)
#
#
# Indices 1 2 3 4 5 6 
#
# 1 0.021685 0.002147 0.003400 0.000000 0.000000 0.000000
# 2 0.002147 0.026614 -0.000762 0.000000 0.000000 0.000000
# 3 0.003400 -0.000762 0.015952 0.000000 0.000000 0.000000
# 4 0.000000 0.000000 0.000000 0.723335 0.000000 0.000000
# 5 0.000000 0.000000 0.000000 0.000000 -0.083157 0.000000
# 6 0.000000 0.000000 0.000000 0.000000 0.000000 0.071180
#
#
# Mechanical properties :
#
#
# Convention : Reuss Voigt Hill
#
# Bulk Modulus (GPa) = 13.54633 14.14633 13.84633
# Shear Modulus (GPa) = 6.32394 11.55809 8.94102
#
# Velocity S-wave (km/s) = 1.78026 2.40675 2.11681
# Velocity P-wave (km/s) = 3.31883 3.84875 3.59357
#
# Compressibility (1/GPa) = 0.07382074
#
# Stress axis : x y z
#
# Youngs Moduli (GPa) = 46.11525 37.57442 62.68827
#
# Poissons Ratio (x) = -0.08068 -0.21312
# Poissons Ratio (y) = -0.09902 0.04776
# Poissons Ratio (z) = -0.15678 0.02863
#
# Static dielectric constant tensor:
#      x y z
#    x 1.772290 0.000000 0.000000 
#    y 0.000000 1.714910 0.000000 
#    z 0.000000 0.000000 1.723430 
# 
# From -- ./inp_files/17586.got.cif
#   From: 2010.05.17/outbox.cif.g08.bks.cpg/sg55_9_cif.got.tgz:17586.got - 2010.06.03 13:27:54.
