data_PCOD9427785
_publ_section_title
;
Structure prediction by ZEFSAII (Michael W. Deem and Ramdas Pophale) SiO2 
 PCOD9427785
Probable space group: P B A M
;
_chemical_formula_sum "Si O2"
_cell_formula_units_Z 48
_cell_length_a 31.584306
_cell_length_b 9.447064
_cell_length_c 8.791544
_cell_angle_alpha 90.000000
_cell_angle_beta 90.000000
_cell_angle_gamma 90.000000
_cell_volume 2623.211757
_symmetry_space_group_name_H-M "P B A M"
_symmetry_group_IT_number 55
_symmetry_cell_setting 'orthorhombic'
loop_
_space_group_symop_operation_xyz
x,y,z
-x,-y,z
1/2+x,1/2-y,-z
1/2-x,1/2+y,-z
-x,-y,-z
x,y,-z
1/2-x,1/2+y,z
1/2+x,1/2-y,z
loop_
_atom_site_type_symbol
_atom_site_label
_atom_site_fract_x
_atom_site_fract_y
_atom_site_fract_z
Si Si1 0.634395 0.918124 0.682027
Si Si2 0.538305 0.897522 0.318001
Si Si3 0.630508 0.587049 0.682508
Si Si4 0.787147 0.905466 0.683340
Si Si5 0.210836 0.409353 0.818621
Si Si6 0.540577 0.588049 0.818558
O O1 0.642033 0.930023 0.500000
O O2 0.585380 0.956915 0.712162
O O3 0.639133 0.751679 0.724572
O O4 0.667186 0.015444 0.769745
O O5 0.536396 0.871161 0.500000
O O6 0.534689 0.749410 0.233019
O O7 0.500000 0.000000 0.276344
O O8 0.626325 0.585654 0.500000
O O9 0.669426 0.486829 0.724822
O O10 0.585773 0.540909 0.752003
O O11 0.784011 0.900581 0.500000
O O12 0.786848 0.747562 0.748914
O O13 0.748372 0.995448 0.749488
O O14 0.214532 0.402856 0.000000
O O15 0.500000 0.500000 0.763791
O O16 0.542530 0.578663 0.000000
#
# Coordination Sequence:
#
# PCOD9427785 Si02
#       6
#     8   8   8   8   8   8
#     4   9  18  36  59  83 112 146 187 233 281 332
#     4   9  19  36  58  82 108 144 191 236 274 321
#     4   9  20  38  61  84 106 142 191 235 274 324
#     4  11  23  41  63  85 112 149 190 231 279 334
#     4  12  25  39  58  87 118 148 185 230 281 335
#     4  10  21  35  53  81 116 150 182 223 279 336
#
# _framework density 18.298178
#
# number of rings (size 3 to 8) (size 9 to 14) (size 15 to 20)
#    0.000    2.000    0.000    4.500    0.000    8.333 
#    0.000    5.000    0.000    0.000    0.000    0.000 
#    0.000    0.000    0.000    0.000    0.000    0.000 
#
# Total GULP energy -268096.312296 kJ/mol
# GULP energy per Si atom -5585.339840 kJ/mol
# Density = 1.825653 g / cm^3
# Si number density = 18.298178 Si / 1000 Ang^3
#
#
#
# Elastic Constant Matrix: (Units=GPa)
#
#
# Indices 1 2 3 4 5 6 
#
# 1 160.6307 99.2388 61.8807 0.0000 0.0000 0.0000
# 2 99.2388 113.9128 49.6415 0.0000 0.0000 0.0000
# 3 61.8807 49.6415 57.2618 0.0000 0.0000 0.0000
# 4 0.0000 0.0000 0.0000 32.5179 0.0000 0.0000
# 5 0.0000 0.0000 0.0000 0.0000 18.2568 0.0000
# 6 0.0000 0.0000 0.0000 0.0000 0.0000 39.9266
#
#
#
# Elastic Compliance Matrix: (Units=1/GPa)
#
#
# Indices 1 2 3 4 5 6 
#
# 1 0.015521 -0.009984 -0.008117 0.000000 0.000000 0.000000
# 2 -0.009984 0.020531 -0.007010 0.000000 0.000000 0.000000
# 3 -0.008117 -0.007010 0.032313 0.000000 0.000000 0.000000
# 4 0.000000 0.000000 0.000000 0.030752 0.000000 0.000000
# 5 0.000000 0.000000 0.000000 0.000000 0.054774 0.000000
# 6 0.000000 0.000000 0.000000 0.000000 0.000000 0.025046
#
#
# Mechanical properties :
#
#
# Convention : Reuss Voigt Hill
#
# Bulk Modulus (GPa) = 55.11892 83.70302 69.41097
# Shear Modulus (GPa) = 21.25794 26.20989 23.73392
#
# Velocity S-wave (km/s) = 3.41215 3.78878 3.60539
# Velocity P-wave (km/s) = 6.76104 8.06121 7.43958
#
# Compressibility (1/GPa) = 0.01814259
#
# Stress axis : x y z
#
# Youngs Moduli (GPa) = 64.43017 48.70645 30.94766
#
# Poissons Ratio (x) = 0.48628 0.25121
# Poissons Ratio (y) = 0.64327 0.21693
# Poissons Ratio (z) = 0.52300 0.34142
#
# Static dielectric constant tensor:
#      x y z
#    x 1.627530 0.000000 0.000000 
#    y 0.000000 1.597790 0.000000 
#    z 0.000000 0.000000 1.612500 
# 
# From -- ./inp_files/2874.got.cif
#   From: 2010.05.17/outbox.cif.g08.bks.cpg/sg55_2_cif.got.tgz:2874.got - 2010.06.03 13:27:54.
