data_PCOD9427242
_publ_section_title
;
Structure prediction by ZEFSAII (Michael W. Deem and Ramdas Pophale) SiO2 
 PCOD9427242
Probable space group: P B A M
;
_chemical_formula_sum "Si O2"
_cell_formula_units_Z 56
_cell_length_a 15.750052
_cell_length_b 20.470454
_cell_length_c 8.986961
_cell_angle_alpha 90.000000
_cell_angle_beta 90.000000
_cell_angle_gamma 90.000000
_cell_volume 2897.492521
_symmetry_space_group_name_H-M "P B A M"
_symmetry_group_IT_number 55
_symmetry_cell_setting 'orthorhombic'
loop_
_space_group_symop_operation_xyz
x,y,z
-x,-y,z
1/2+x,1/2-y,-z
1/2-x,1/2+y,-z
-x,-y,-z
x,y,-z
1/2-x,1/2+y,z
1/2+x,1/2-y,z
loop_
_atom_site_type_symbol
_atom_site_label
_atom_site_fract_x
_atom_site_fract_y
_atom_site_fract_z
Si Si1 0.756588 0.540649 0.177358
Si Si2 0.837257 0.408136 0.821234
Si Si3 0.498477 0.678559 0.320937
Si Si4 0.685264 0.311103 0.178751
Si Si5 0.021008 0.676216 0.674924
Si Si6 0.916189 0.043003 0.324395
Si Si7 0.681696 0.172777 0.324666
O O1 0.819486 0.482479 0.226051
O O2 0.661939 0.520466 0.225286
O O3 0.776377 0.608752 0.256484
O O4 0.762195 0.548064 0.000000
O O5 0.757204 0.362945 0.776626
O O6 0.921919 0.375477 0.759636
O O7 0.840314 0.407798 0.000000
O O8 0.484691 0.680875 0.500000
O O9 0.406858 0.670716 0.244784
O O10 0.536600 0.748719 0.275886
O O11 0.558688 0.617663 0.288992
O O12 0.707186 0.239584 0.242957
O O13 0.680418 0.308735 0.000000
O O14 0.040606 0.671701 0.500000
O O15 0.920277 0.666072 0.693649
O O16 0.893781 0.038901 0.500000
O O17 0.000000 0.000000 0.301335
O O18 0.700448 0.178245 0.500000
#
# Coordination Sequence:
#
# PCOD9427242 Si02
#       7
#     8   8   8   8   8   8   8
#     4  11  24  40  58  85 119 156 196 241 295 353
#     4  10  23  39  56  83 119 152 191 238 289 351
#     4   9  19  36  56  84 116 149 192 239 288 341
#     4  10  20  36  59  87 117 153 194 237 289 348
#     4   9  20  37  58  83 110 147 195 242 289 342
#     4  10  21  37  59  87 121 158 198 241 288 349
#     4  10  22  41  61  85 116 151 194 246 296 349
#
# _framework density 19.327055999999999
#
# number of rings (size 3 to 8) (size 9 to 14) (size 15 to 20)
#    0.000    2.143    0.000    3.000    2.000    6.571 
#    0.000    2.857    0.000    0.000    0.000    0.000 
#    0.000    0.000    0.000    0.000    0.000    0.000 
#
# Total GULP energy -312844.964272 kJ/mol
# GULP energy per Si atom -5586.517219 kJ/mol
# Density = 1.928307 g / cm^3
# Si number density = 19.327056 Si / 1000 Ang^3
#
#
#
# Elastic Constant Matrix: (Units=GPa)
#
#
# Indices 1 2 3 4 5 6 
#
# 1 7.2188 5.6160 11.0862 0.0000 0.0000 0.0000
# 2 5.6160 60.1221 14.3720 0.0000 0.0000 0.0000
# 3 11.0862 14.3720 26.7553 0.0000 0.0000 0.0000
# 4 0.0000 0.0000 0.0000 19.1526 0.0000 0.0000
# 5 0.0000 0.0000 0.0000 0.0000 42.3133 0.0000
# 6 0.0000 0.0000 0.0000 0.0000 0.0000 27.7627
#
#
#
# Elastic Compliance Matrix: (Units=1/GPa)
#
#
# Indices 1 2 3 4 5 6 
#
# 1 0.381251 0.002467 -0.159299 0.000000 0.000000 0.000000
# 2 0.002467 0.019099 -0.011282 0.000000 0.000000 0.000000
# 3 -0.159299 -0.011282 0.109442 0.000000 0.000000 0.000000
# 4 0.000000 0.000000 0.000000 0.052212 0.000000 0.000000
# 5 0.000000 0.000000 0.000000 0.000000 0.023633 0.000000
# 6 0.000000 0.000000 0.000000 0.000000 0.000000 0.036020
#
#
# Mechanical properties :
#
#
# Convention : Reuss Voigt Hill
#
# Bulk Modulus (GPa) = 5.76150 17.36049 11.56100
# Shear Modulus (GPa) = 4.92252 22.04721 13.48486
#
# Velocity S-wave (km/s) = 1.59765 3.38115 2.64430
# Velocity P-wave (km/s) = 2.52801 4.92391 3.91381
#
# Compressibility (1/GPa) = 0.17356593
#
# Stress axis : x y z
#
# Youngs Moduli (GPa) = 2.62294 52.35816 9.13722
#
# Poissons Ratio (x) = -0.12919 1.45555
# Poissons Ratio (y) = -0.00647 0.10308
# Poissons Ratio (z) = 0.41783 0.59069
#
# Static dielectric constant tensor:
#      x y z
#    x 1.666590 0.000000 0.000000 
#    y 0.000000 1.679780 0.000000 
#    z 0.000000 0.000000 1.643990 
# 
# From -- ./inp_files/6025.got.cif
#   From: 2010.05.17/outbox.cif.g08.bks.cpg/sg55_4_cif.got.tgz:6025.got - 2010.06.03 13:27:54.
