data_PCOD9427417
_publ_section_title
;
Structure prediction by ZEFSAII (Michael W. Deem and Ramdas Pophale) SiO2 
 PCOD9427417
Probable space group: P B A M
;
_chemical_formula_sum "Si O2"
_cell_formula_units_Z 40
_cell_length_a 7.974597
_cell_length_b 23.733632
_cell_length_c 8.516425
_cell_angle_alpha 90.000000
_cell_angle_beta 90.000000
_cell_angle_gamma 90.000000
_cell_volume 1611.870976
_symmetry_space_group_name_H-M "P B A M"
_symmetry_group_IT_number 55
_symmetry_cell_setting 'orthorhombic'
loop_
_space_group_symop_operation_xyz
x,y,z
-x,-y,z
1/2+x,1/2-y,-z
1/2-x,1/2+y,-z
-x,-y,-z
x,y,-z
1/2-x,1/2+y,z
1/2+x,1/2-y,z
loop_
_atom_site_type_symbol
_atom_site_label
_atom_site_fract_x
_atom_site_fract_y
_atom_site_fract_z
Si Si1 0.859088 0.570418 0.817551
Si Si2 0.967700 0.133959 0.689472
Si Si3 0.543755 0.830593 0.680234
Si Si4 0.183158 0.030611 0.319086
Si Si5 0.848173 0.762866 0.182361
O O1 0.688159 0.602664 0.767776
O O2 0.998477 0.605302 0.722698
O O3 0.813812 0.505557 0.780704
O O4 0.893409 0.577477 0.000000
O O5 0.946262 0.137325 0.500000
O O6 0.006413 0.193269 0.767869
O O7 0.130765 0.094163 0.718934
O O8 0.596068 0.826840 0.500000
O O9 0.378440 0.792084 0.711192
O O10 0.681553 0.798739 0.783680
O O11 0.236735 0.026486 0.500000
O O12 0.000000 0.000000 0.309187
O O13 0.856964 0.747334 0.000000
#
# Coordination Sequence:
#
# PCOD9427417 Si02
#       5
#     8   8   8   8   8
#     4  11  21  35  58  89 121 153 193 242 290 333
#     4  10  20  37  60  87 119 157 197 234 281 343
#     4  12  25  43  63  84 114 154 195 233 285 350
#     4   8  16  32  55  83 116 154 195 235 278 337
#     4  12  25  42  62  88 118 147 188 242 294 339
#
# _framework density 24.815881999999998
#
# number of rings (size 3 to 8) (size 9 to 14) (size 15 to 20)
#    0.000    1.400    0.000    8.400    0.000    4.400 
#    0.000    1.000    0.000    6.000    0.000    0.000 
#    0.000    0.000    0.000    0.000    0.000    0.000 
#
# Total GULP energy -224077.252399 kJ/mol
# GULP energy per Si atom -5601.931310 kJ/mol
# Density = 2.475940 g / cm^3
# Si number density = 24.815882 Si / 1000 Ang^3
#
#
#
# Elastic Constant Matrix: (Units=GPa)
#
#
# Indices 1 2 3 4 5 6 
#
# 1 69.3015 -15.1439 -7.6746 0.0000 0.0000 0.0000
# 2 -15.1439 117.1706 13.8380 0.0000 0.0000 0.0000
# 3 -7.6746 13.8380 83.9974 0.0000 0.0000 0.0000
# 4 0.0000 0.0000 0.0000 20.1615 0.0000 0.0000
# 5 0.0000 0.0000 0.0000 0.0000 27.2981 0.0000
# 6 0.0000 0.0000 0.0000 0.0000 0.0000 40.3795
#
#
#
# Elastic Compliance Matrix: (Units=1/GPa)
#
#
# Indices 1 2 3 4 5 6 
#
# 1 0.014942 0.001805 0.001068 0.000000 0.000000 0.000000
# 2 0.001805 0.008922 -0.001305 0.000000 0.000000 0.000000
# 3 0.001068 -0.001305 0.012218 0.000000 0.000000 0.000000
# 4 0.000000 0.000000 0.000000 0.049600 0.000000 0.000000
# 5 0.000000 0.000000 0.000000 0.000000 0.036633 0.000000
# 6 0.000000 0.000000 0.000000 0.000000 0.000000 0.024765
#
#
# Mechanical properties :
#
#
# Convention : Reuss Voigt Hill
#
# Bulk Modulus (GPa) = 25.49832 28.05651 26.77742
# Shear Modulus (GPa) = 31.84390 36.19780 34.02085
#
# Velocity S-wave (km/s) = 3.58607 3.82338 3.70662
# Velocity P-wave (km/s) = 5.23869 5.55170 5.39746
#
# Compressibility (1/GPa) = 0.03921827
#
# Stress axis : x y z
#
# Youngs Moduli (GPa) = 66.92352 112.08272 81.84866
#
# Poissons Ratio (x) = -0.20233 -0.08740
# Poissons Ratio (y) = -0.12081 0.10681
# Poissons Ratio (z) = -0.07146 0.14626
#
# Static dielectric constant tensor:
#      x y z
#    x 2.096260 0.000000 0.000000 
#    y 0.000000 2.073490 0.000000 
#    z 0.000000 0.000000 1.809210 
# 
# From -- ./inp_files/2300.got.cif
#   From: 2010.05.17/outbox.cif.g08.bks.cpg/sg55_2_cif.got.tgz:2300.got - 2010.06.03 13:27:54.
