data_PCOD9427050
_publ_section_title
;
Structure prediction by ZEFSAII (Michael W. Deem and Ramdas Pophale) SiO2 
 PCOD9427050
Probable space group: P B A M
;
_chemical_formula_sum "Si O2"
_cell_formula_units_Z 40
_cell_length_a 14.273464
_cell_length_b 7.863265
_cell_length_c 13.566807
_cell_angle_alpha 90.000000
_cell_angle_beta 90.000000
_cell_angle_gamma 90.000000
_cell_volume 1522.684556
_symmetry_space_group_name_H-M "P B A M"
_symmetry_group_IT_number 55
_symmetry_cell_setting 'orthorhombic'
loop_
_space_group_symop_operation_xyz
x,y,z
-x,-y,z
1/2+x,1/2-y,-z
1/2-x,1/2+y,-z
-x,-y,-z
x,y,-z
1/2-x,1/2+y,z
1/2+x,1/2-y,z
loop_
_atom_site_type_symbol
_atom_site_label
_atom_site_fract_x
_atom_site_fract_y
_atom_site_fract_z
Si Si1 0.391793 0.555991 0.884132
Si Si2 0.387303 0.126966 0.691417
Si Si3 0.946563 0.816759 0.613073
Si Si4 0.288785 0.466068 0.690966
Si Si5 0.110040 0.463730 0.894401
O O1 0.500000 0.500000 0.857904
O O2 0.318226 0.471153 0.808378
O O3 0.380737 0.761332 0.874707
O O4 0.380205 0.511764 0.000000
O O5 0.495319 0.174055 0.672931
O O6 0.336993 0.296436 0.653711
O O7 0.317351 0.982224 0.652332
O O8 0.367147 0.090479 0.806163
O O9 0.946847 0.763115 0.500000
O O10 0.846650 0.872723 0.652674
O O11 0.000000 0.000000 0.619630
O O12 0.000000 0.500000 0.904262
O O13 0.155596 0.503462 0.000000
#
# Coordination Sequence:
#
# PCOD9427050 Si02
#       5
#     8   8   8   8   8
#     4  10  20  36  60  89 123 165 210 255 308 370
#     4  11  23  38  62  92 127 168 212 264 323 389
#     4   9  20  41  66  90 120 160 208 266 332 397
#     4  11  22  38  61  90 124 166 212 264 324 389
#     4  10  20  35  58  88 124 165 207 254 307 370
#
# _framework density 26.269393000000001
#
# number of rings (size 3 to 8) (size 9 to 14) (size 15 to 20)
#    0.000    1.800    0.000    5.400    0.000    4.000 
#    0.000    0.000    0.000   14.400    0.000    0.000 
#    0.000    0.000    0.000    0.000    0.000    0.000 
#
# Total GULP energy -223309.517185 kJ/mol
# GULP energy per Si atom -5582.737930 kJ/mol
# Density = 2.620960 g / cm^3
# Si number density = 26.269393 Si / 1000 Ang^3
#
#
#
# Elastic Constant Matrix: (Units=GPa)
#
#
# Indices 1 2 3 4 5 6 
#
# 1 134.7188 -6.7200 -10.6634 0.0000 0.0000 0.0000
# 2 -6.7200 123.2524 3.1966 0.0000 0.0000 0.0000
# 3 -10.6634 3.1966 79.9363 0.0000 0.0000 0.0000
# 4 0.0000 0.0000 0.0000 21.0374 0.0000 0.0000
# 5 0.0000 0.0000 0.0000 0.0000 -23.4354 0.0000
# 6 0.0000 0.0000 0.0000 0.0000 0.0000 39.1843
#
#
#
# Elastic Compliance Matrix: (Units=1/GPa)
#
#
# Indices 1 2 3 4 5 6 
#
# 1 0.007520 0.000384 0.000988 0.000000 0.000000 0.000000
# 2 0.000384 0.008142 -0.000274 0.000000 0.000000 0.000000
# 3 0.000988 -0.000274 0.012653 0.000000 0.000000 0.000000
# 4 0.000000 0.000000 0.000000 0.047534 0.000000 0.000000
# 5 0.000000 0.000000 0.000000 0.000000 -0.042670 0.000000
# 6 0.000000 0.000000 0.000000 0.000000 0.000000 0.025520
#
#
# Mechanical properties :
#
#
# Convention : Reuss Voigt Hill
#
# Bulk Modulus (GPa) = 32.77584 34.39267 33.58425
# Shear Modulus (GPa) = 74.99294 30.83022 52.91158
#
# Velocity S-wave (km/s) = 5.34880 3.42953 4.49284
# Velocity P-wave (km/s) = 7.11689 5.36684 6.30290
#
# Compressibility (1/GPa) = 0.03051028
#
# Stress axis : x y z
#
# Youngs Moduli (GPa) = 132.97465 122.82741 79.03449
#
# Poissons Ratio (x) = -0.04721 -0.07807
# Poissons Ratio (y) = -0.05112 0.02168
# Poissons Ratio (z) = -0.13135 0.03369
#
# Static dielectric constant tensor:
#      x y z
#    x 2.183570 0.000000 0.000000 
#    y 0.000000 2.079340 0.000000 
#    z 0.000000 0.000000 2.176510 
# 
# From -- ./inp_files/18756.got.cif
#   From: 2010.05.17/outbox.cif.g08.bks.cpg/sg55_10_cif.got.tgz:18756.got - 2010.06.03 13:27:54.
