data_PCOD9427444
_publ_section_title
;
Structure prediction by ZEFSAII (Michael W. Deem and Ramdas Pophale) SiO2 
 PCOD9427444
Probable space group: P B A M
;
_chemical_formula_sum "Si O2"
_cell_formula_units_Z 64
_cell_length_a 19.890983
_cell_length_b 10.092575
_cell_length_c 15.758750
_cell_angle_alpha 90.000000
_cell_angle_beta 90.000000
_cell_angle_gamma 90.000000
_cell_volume 3163.588568
_symmetry_space_group_name_H-M "P B A M"
_symmetry_group_IT_number 55
_symmetry_cell_setting 'orthorhombic'
loop_
_space_group_symop_operation_xyz
x,y,z
-x,-y,z
1/2+x,1/2-y,-z
1/2-x,1/2+y,-z
-x,-y,-z
x,y,-z
1/2-x,1/2+y,z
1/2+x,1/2-y,z
loop_
_atom_site_type_symbol
_atom_site_label
_atom_site_fract_x
_atom_site_fract_y
_atom_site_fract_z
Si Si1 0.776574 0.932906 0.689418
Si Si2 0.810488 0.948769 0.871075
Si Si3 0.201099 0.342229 0.401359
Si Si4 0.629940 0.886519 0.230868
Si Si5 0.567543 0.085400 0.901375
Si Si6 0.577150 0.956097 0.596070
Si Si7 0.959111 0.879677 0.904808
Si Si8 0.693676 0.739365 0.906890
O O1 0.822724 0.955357 0.770298
O O2 0.799240 0.801701 0.640827
O O3 0.704236 0.902440 0.731245
O O4 0.760186 0.064053 0.635881
O O5 0.882284 0.925277 0.911238
O O6 0.757482 0.834846 0.893737
O O7 0.782041 0.089582 0.899280
O O8 0.213601 0.323986 0.500000
O O9 0.130708 0.423013 0.392298
O O10 0.637426 0.767187 0.164166
O O11 0.612282 0.011323 0.169712
O O12 0.585969 0.874071 0.316162
O O13 0.546765 0.231458 0.869282
O O14 0.500000 0.000000 0.905930
O O15 0.594385 0.094574 0.000000
O O16 0.592584 0.900677 0.500000
O O17 0.500000 0.000000 0.593877
O O18 0.988539 0.862120 0.000000
O O19 0.000000 0.000000 0.862992
O O20 0.664932 0.764568 0.000000
#
# Coordination Sequence:
#
# PCOD9427444 Si02
#       8
#     8   8   8   8   8   8   8   8
#     4  10  21  36  57  88 121 154 202 252 304 372
#     4  11  24  40  60  85 122 162 205 260 313 365
#     4  10  20  37  61  88 121 159 195 248 316 380
#     4  10  21  35  59  88 122 155 202 254 305 357
#     4  10  22  38  60  87 119 163 214 259 299 361
#     4   9  19  37  62  93 123 154 200 256 312 371
#     4  10  23  41  59  82 118 163 209 254 306 362
#     4  11  23  38  59  87 120 162 210 256 309 369
#
# _framework density 20.23019
#
# number of rings (size 3 to 8) (size 9 to 14) (size 15 to 20)
#    0.000    1.875    0.000    3.750    8.750    0.500 
#    0.000    0.000    0.000    0.000    0.000    0.000 
#    0.000   21.500    0.000    0.000    0.000    0.000 
#
# Total GULP energy -356778.506236 kJ/mol
# GULP energy per Si atom -5574.664160 kJ/mol
# Density = 2.018415 g / cm^3
# Si number density = 20.230190 Si / 1000 Ang^3
#
#
#
# Elastic Constant Matrix: (Units=GPa)
#
#
# Indices 1 2 3 4 5 6 
#
# 1 49.1611 20.5122 26.6034 0.0000 0.0000 0.0000
# 2 20.5122 124.8951 26.1848 0.0000 0.0000 0.0000
# 3 26.6034 26.1848 138.6798 0.0000 0.0000 0.0000
# 4 0.0000 0.0000 0.0000 77.2310 0.0000 0.0000
# 5 0.0000 0.0000 0.0000 0.0000 19.2957 0.0000
# 6 0.0000 0.0000 0.0000 0.0000 0.0000 25.7317
#
#
#
# Elastic Compliance Matrix: (Units=1/GPa)
#
#
# Indices 1 2 3 4 5 6 
#
# 1 0.023777 -0.003070 -0.003981 0.000000 0.000000 0.000000
# 2 -0.003070 0.008733 -0.001060 0.000000 0.000000 0.000000
# 3 -0.003981 -0.001060 0.008175 0.000000 0.000000 0.000000
# 4 0.000000 0.000000 0.000000 0.012948 0.000000 0.000000
# 5 0.000000 0.000000 0.000000 0.000000 0.051825 0.000000
# 6 0.000000 0.000000 0.000000 0.000000 0.000000 0.038863
#
#
# Mechanical properties :
#
#
# Convention : Reuss Voigt Hill
#
# Bulk Modulus (GPa) = 40.88072 51.03741 45.95906
# Shear Modulus (GPa) = 29.63879 40.41406 35.02642
#
# Velocity S-wave (km/s) = 3.83178 4.47442 4.16552
# Velocity P-wave (km/s) = 6.31098 7.20951 6.77516
#
# Compressibility (1/GPa) = 0.02446141
#
# Stress axis : x y z
#
# Youngs Moduli (GPa) = 42.05764 114.50561 122.32753
#
# Poissons Ratio (x) = 0.35156 0.48704
# Poissons Ratio (y) = 0.12913 0.12966
# Poissons Ratio (z) = 0.16745 0.12137
#
# Static dielectric constant tensor:
#      x y z
#    x 1.703310 0.000000 0.000000 
#    y 0.000000 1.849010 0.000000 
#    z 0.000000 0.000000 1.804310 
# 
# From -- ./inp_files/19979.got.cif
#   From: 2010.05.17/outbox.cif.g08.bks.cpg/sg55_10_cif.got.tgz:19979.got - 2010.06.03 13:27:54.
