data_PCOD9427568
_publ_section_title
;
Structure prediction by ZEFSAII (Michael W. Deem and Ramdas Pophale) SiO2 
 PCOD9427568
Probable space group: P B A M
;
_chemical_formula_sum "Si O2"
_cell_formula_units_Z 64
_cell_length_a 15.830279
_cell_length_b 24.312292
_cell_length_c 8.695458
_cell_angle_alpha 90.000000
_cell_angle_beta 90.000000
_cell_angle_gamma 90.000000
_cell_volume 3346.624099
_symmetry_space_group_name_H-M "P B A M"
_symmetry_group_IT_number 55
_symmetry_cell_setting 'orthorhombic'
loop_
_space_group_symop_operation_xyz
x,y,z
-x,-y,z
1/2+x,1/2-y,-z
1/2-x,1/2+y,-z
-x,-y,-z
x,y,-z
1/2-x,1/2+y,z
1/2+x,1/2-y,z
loop_
_atom_site_type_symbol
_atom_site_label
_atom_site_fract_x
_atom_site_fract_y
_atom_site_fract_z
Si Si1 0.844374 0.364546 0.183908
Si Si2 0.998985 0.064184 0.314653
Si Si3 0.166191 0.131721 0.314261
Si Si4 0.599974 0.249663 0.686620
Si Si5 0.664870 0.130631 0.684490
Si Si6 0.155911 0.866494 0.817245
Si Si7 0.492317 0.936119 0.185465
Si Si8 0.402500 0.250953 0.315232
O O1 0.754665 0.386182 0.243120
O O2 0.859821 0.304467 0.255409
O O3 0.922930 0.403129 0.229447
O O4 0.843398 0.360513 0.000000
O O5 0.990710 0.069000 0.500000
O O6 0.920663 0.095612 0.240078
O O7 0.086774 0.093749 0.271710
O O8 0.000000 0.000000 0.274189
O O9 0.173114 0.131542 0.500000
O O10 0.144859 0.194225 0.263191
O O11 0.601593 0.249873 0.500000
O O12 0.643470 0.193177 0.737149
O O13 0.501420 0.250253 0.731208
O O14 0.669932 0.130605 0.500000
O O15 0.754249 0.113289 0.753821
O O16 0.588314 0.092463 0.738625
O O17 0.139802 0.805510 0.750869
O O18 0.157333 0.864642 0.000000
O O19 0.500000 0.000000 0.227805
O O20 0.483620 0.932710 0.000000
O O21 0.397657 0.252605 0.500000
#
# Coordination Sequence:
#
# PCOD9427568 Si02
#       8
#     8   8   8   8   8   8   8   8
#     4  11  23  38  59  91 124 156 199 248 305 368
#     4  10  22  42  66  91 120 159 211 262 301 347
#     4  10  20  38  62  88 120 159 200 244 301 359
#     4   9  18  34  60  89 116 151 193 245 302 355
#     4  11  22  39  64  93 121 157 207 256 303 358
#     4  12  25  40  61  93 128 163 200 244 307 371
#     4  10  23  43  62  84 122 167 207 254 309 361
#     4  11  20  38  64  90 122 157 199 247 303 364
#
# _framework density 19.123747999999999
#
# number of rings (size 3 to 8) (size 9 to 14) (size 15 to 20)
#    0.000    1.500    2.500    3.000    0.000    3.500 
#    0.000    3.125    0.000    0.000    0.000    0.000 
#    0.000    0.000    0.000    0.000    0.000    0.000 
#
# Total GULP energy -357807.813777 kJ/mol
# GULP energy per Si atom -5590.747090 kJ/mol
# Density = 1.908022 g / cm^3
# Si number density = 19.123748 Si / 1000 Ang^3
#
#
#
# Elastic Constant Matrix: (Units=GPa)
#
#
# Indices 1 2 3 4 5 6 
#
# 1 194.7153 81.2758 61.6262 0.0000 0.0000 0.0000
# 2 81.2758 140.3373 51.8705 0.0000 0.0000 0.0000
# 3 61.6262 51.8705 52.1869 0.0000 0.0000 0.0000
# 4 0.0000 0.0000 0.0000 19.8362 0.0000 0.0000
# 5 0.0000 0.0000 0.0000 0.0000 -101.6876 0.0000
# 6 0.0000 0.0000 0.0000 0.0000 0.0000 -3.1388
#
#
#
# Elastic Compliance Matrix: (Units=1/GPa)
#
#
# Indices 1 2 3 4 5 6 
#
# 1 0.008516 -0.001921 -0.008147 0.000000 0.000000 0.000000
# 2 -0.001921 0.011697 -0.009358 0.000000 0.000000 0.000000
# 3 -0.008147 -0.009358 0.038084 0.000000 0.000000 0.000000
# 4 0.000000 0.000000 0.000000 0.050413 0.000000 0.000000
# 5 0.000000 0.000000 0.000000 0.000000 -0.009834 0.000000
# 6 0.000000 0.000000 0.000000 0.000000 0.000000 -0.318589
#
#
# Mechanical properties :
#
#
# Convention : Reuss Voigt Hill
#
# Bulk Modulus (GPa) = 51.42671 86.30939 68.86805
# Shear Modulus (GPa) = -28.67301 -4.16692 -16.41996
#
# Velocity S-wave (km/s) = -3.87633 -1.47772 -2.93339
# Velocity P-wave (km/s) = 2.62970 6.50527 4.96154
#
# Compressibility (1/GPa) = 0.01944515
#
# Stress axis : x y z
#
# Youngs Moduli (GPa) = 117.42649 85.49335 26.25774
#
# Poissons Ratio (x) = 0.16420 0.21393
# Poissons Ratio (y) = 0.22553 0.24572
# Poissons Ratio (z) = 0.95671 0.80004
#
# Static dielectric constant tensor:
#      x y z
#    x 1.654480 0.000000 0.000000 
#    y 0.000000 1.644610 0.000000 
#    z 0.000000 0.000000 1.645930 
# 
# From -- ./inp_files/6513.got.cif
#   From: 2010.05.17/outbox.cif.g08.bks.cpg/sg55_4_cif.got.tgz:6513.got - 2010.06.03 13:27:54.
