data_PCOD9427243
_publ_section_title
;
Structure prediction by ZEFSAII (Michael W. Deem and Ramdas Pophale) SiO2 
 PCOD9427243
Probable space group: P B A M
;
_chemical_formula_sum "Si O2"
_cell_formula_units_Z 64
_cell_length_a 7.155110
_cell_length_b 23.711118
_cell_length_c 16.417188
_cell_angle_alpha 90.000000
_cell_angle_beta 90.000000
_cell_angle_gamma 90.000000
_cell_volume 2785.268825
_symmetry_space_group_name_H-M "P B A M"
_symmetry_group_IT_number 55
_symmetry_cell_setting 'orthorhombic'
loop_
_space_group_symop_operation_xyz
x,y,z
-x,-y,z
1/2+x,1/2-y,-z
1/2-x,1/2+y,-z
-x,-y,-z
x,y,-z
1/2-x,1/2+y,z
1/2+x,1/2-y,z
loop_
_atom_site_type_symbol
_atom_site_label
_atom_site_fract_x
_atom_site_fract_y
_atom_site_fract_z
Si Si1 0.116832 0.915887 0.861240
Si Si2 0.210816 0.513761 0.599254
Si Si3 0.175082 0.897095 0.591547
Si Si4 0.750687 0.973007 0.909092
Si Si5 0.880686 0.363254 0.406033
Si Si6 0.085404 0.828374 0.730061
Si Si7 0.482310 0.200833 0.750287
Si Si8 0.999834 0.367337 0.092716
O O1 0.034021 0.880516 0.786948
O O2 0.276378 0.876617 0.900609
O O3 0.938889 0.935968 0.911761
O O4 0.217627 0.976263 0.846100
O O5 0.213463 0.509872 0.500000
O O6 0.333489 0.460542 0.627661
O O7 0.232919 0.579740 0.616264
O O8 0.000000 0.500000 0.626937
O O9 0.107156 0.899849 0.500000
O O10 0.397747 0.881622 0.590340
O O11 0.065707 0.848579 0.638168
O O12 0.589200 0.928827 0.891461
O O13 0.721577 0.997843 0.000000
O O14 0.837234 0.345178 0.500000
O O15 0.870261 0.319841 0.330219
O O16 0.308632 0.821989 0.739868
O O17 0.005414 0.768135 0.752586
O O18 0.424152 0.174185 0.837016
O O19 0.951981 0.350665 0.000000
#
# Coordination Sequence:
#
# PCOD9427243 Si02
#       8
#     8   8   8   8   8   8   8   8
#     4  10  20  36  59  87 119 148 184 236 292 345
#     4   7  10  19  40  70 103 131 162 213 274 334
#     4   8  14  27  48  76 107 141 181 228 287 349
#     4  10  20  36  63  92 116 146 184 232 295 354
#     4   8  14  27  49  78 108 140 180 231 286 341
#     4  10  22  36  54  76 111 150 193 238 287 333
#     4  10  22  37  53  77 109 151 194 241 279 337
#     4  10  21  38  59  86 118 152 191 235 288 347
#
# _framework density 22.978034999999998
#
# number of rings (size 3 to 8) (size 9 to 14) (size 15 to 20)
#    0.000    2.875    0.000    3.375    1.750    2.500 
#    0.000    7.500    0.000    0.000    0.000    1.750 
#    0.000    0.000    0.000    0.000    0.000    0.000 
#
# Total GULP energy -356974.523314 kJ/mol
# GULP energy per Si atom -5577.726927 kJ/mol
# Density = 2.292574 g / cm^3
# Si number density = 22.978035 Si / 1000 Ang^3
#
#
#
# Elastic Constant Matrix: (Units=GPa)
#
#
# Indices 1 2 3 4 5 6 
#
# 1 56.0938 4.2395 9.9679 0.0000 0.0000 0.0000
# 2 4.2395 116.9850 82.1765 0.0000 0.0000 0.0000
# 3 9.9679 82.1765 121.0539 0.0000 0.0000 0.0000
# 4 0.0000 0.0000 0.0000 30.8794 0.0000 0.0000
# 5 0.0000 0.0000 0.0000 0.0000 10.2492 0.0000
# 6 0.0000 0.0000 0.0000 0.0000 0.0000 27.7557
#
#
#
# Elastic Compliance Matrix: (Units=1/GPa)
#
#
# Indices 1 2 3 4 5 6 
#
# 1 0.018126 0.000749 -0.002001 0.000000 0.000000 0.000000
# 2 0.000749 0.016371 -0.011175 0.000000 0.000000 0.000000
# 3 -0.002001 -0.011175 0.016011 0.000000 0.000000 0.000000
# 4 0.000000 0.000000 0.000000 0.032384 0.000000 0.000000
# 5 0.000000 0.000000 0.000000 0.000000 0.097568 0.000000
# 6 0.000000 0.000000 0.000000 0.000000 0.000000 0.036029
#
#
# Mechanical properties :
#
#
# Convention : Reuss Voigt Hill
#
# Bulk Modulus (GPa) = 38.97951 54.10004 46.53977
# Shear Modulus (GPa) = 20.00840 26.96011 23.48425
#
# Velocity S-wave (km/s) = 2.95407 3.42906 3.20039
# Velocity P-wave (km/s) = 5.35126 6.26684 5.82706
#
# Compressibility (1/GPa) = 0.02565450
#
# Stress axis : x y z
#
# Youngs Moduli (GPa) = 55.16861 61.08456 62.45533
#
# Poissons Ratio (x) = -0.04572 0.12495
# Poissons Ratio (y) = -0.04129 0.69793
# Poissons Ratio (z) = 0.11037 0.68261
#
# Static dielectric constant tensor:
#      x y z
#    x 1.974170 0.000000 0.000000 
#    y 0.000000 1.925670 0.000000 
#    z 0.000000 0.000000 1.866590 
# 
# From -- ./inp_files/21110.got.cif
#   From: 2010.05.17/outbox.cif.g08.bks.cpg/sg55_11_cif.got.tgz:21110.got - 2010.06.03 13:27:54.
