data_PCOD9427628
_publ_section_title
;
Structure prediction by ZEFSAII (Michael W. Deem and Ramdas Pophale) SiO2 
 PCOD9427628
Probable space group: P B A M
;
_chemical_formula_sum "Si O2"
_cell_formula_units_Z 48
_cell_length_a 18.080815
_cell_length_b 8.868856
_cell_length_c 14.367791
_cell_angle_alpha 90.000000
_cell_angle_beta 90.000000
_cell_angle_gamma 90.000000
_cell_volume 2303.963571
_symmetry_space_group_name_H-M "P B A M"
_symmetry_group_IT_number 55
_symmetry_cell_setting 'orthorhombic'
loop_
_space_group_symop_operation_xyz
x,y,z
-x,-y,z
1/2+x,1/2-y,-z
1/2-x,1/2+y,-z
-x,-y,-z
x,y,-z
1/2-x,1/2+y,z
1/2+x,1/2-y,z
loop_
_atom_site_type_symbol
_atom_site_label
_atom_site_fract_x
_atom_site_fract_y
_atom_site_fract_z
Si Si1 0.713597 0.627317 0.897839
Si Si2 0.844191 0.763574 0.609440
Si Si3 0.746075 0.994166 0.295156
Si Si4 0.524775 0.328636 0.260069
Si Si5 0.885630 0.358404 0.806567
Si Si6 0.885406 0.686675 0.105468
O O1 0.714344 0.530803 0.803238
O O2 0.651069 0.753246 0.885321
O O3 0.796354 0.697309 0.895524
O O4 0.706036 0.552563 0.000000
O O5 0.846428 0.737395 0.500000
O O6 0.795033 0.637514 0.661223
O O7 0.803853 0.920115 0.635194
O O8 0.925091 0.769633 0.655297
O O9 0.679570 0.881340 0.268455
O O10 0.500000 0.500000 0.274223
O O11 0.454802 0.223081 0.239181
O O12 0.576573 0.311003 0.169095
O O13 0.902147 0.522954 0.848894
O O14 0.912494 0.691686 0.000000
#
# Coordination Sequence:
#
# PCOD9427628 Si02
#       6
#     8   8   8   8   8   8
#     4  10  20  38  70 104 136 177 228 275 330 397
#     4  12  26  48  73 100 129 174 233 289 349 399
#     4  11  22  45  71 102 133 176 225 287 333 398
#     4  12  26  43  64  95 141 180 217 284 342 404
#     4  11  21  40  68  94 140 182 222 267 339 399
#     4  10  22  41  66  96 137 185 231 273 331 409
#
# _framework density 20.833663000000001
#
# number of rings (size 3 to 8) (size 9 to 14) (size 15 to 20)
#    0.000    1.000    5.000    2.500    0.000    4.667 
#    0.000    8.333    0.000    0.000    0.000    0.000 
#    0.000    0.000    0.000    0.000    0.000    0.000 
#
# Total GULP energy -268443.662360 kJ/mol
# GULP energy per Si atom -5592.576299 kJ/mol
# Density = 2.078624 g / cm^3
# Si number density = 20.833663 Si / 1000 Ang^3
#
#
#
# Elastic Constant Matrix: (Units=GPa)
#
#
# Indices 1 2 3 4 5 6 
#
# 1 83.2645 48.3289 46.2183 0.0000 0.0000 0.0000
# 2 48.3289 81.0732 43.8137 0.0000 0.0000 0.0000
# 3 46.2183 43.8137 153.3876 0.0000 0.0000 0.0000
# 4 0.0000 0.0000 0.0000 23.6428 0.0000 0.0000
# 5 0.0000 0.0000 0.0000 0.0000 18.0613 0.0000
# 6 0.0000 0.0000 0.0000 0.0000 0.0000 39.9056
#
#
#
# Elastic Compliance Matrix: (Units=1/GPa)
#
#
# Indices 1 2 3 4 5 6 
#
# 1 0.019478 -0.009980 -0.003018 0.000000 0.000000 0.000000
# 2 -0.009980 0.019699 -0.002620 0.000000 0.000000 0.000000
# 3 -0.003018 -0.002620 0.008177 0.000000 0.000000 0.000000
# 4 0.000000 0.000000 0.000000 0.042296 0.000000 0.000000
# 5 0.000000 0.000000 0.000000 0.000000 0.055367 0.000000
# 6 0.000000 0.000000 0.000000 0.000000 0.000000 0.025059
#
#
# Mechanical properties :
#
#
# Convention : Reuss Voigt Hill
#
# Bulk Modulus (GPa) = 62.04066 66.04966 64.04516
# Shear Modulus (GPa) = 24.19129 28.27958 26.23543
#
# Velocity S-wave (km/s) = 3.41128 3.68829 3.55248
# Velocity P-wave (km/s) = 6.73494 7.06471 6.90180
#
# Compressibility (1/GPa) = 0.01611846
#
# Stress axis : x y z
#
# Youngs Moduli (GPa) = 51.34020 50.76273 122.29035
#
# Poissons Ratio (x) = 0.50660 0.36912
# Poissons Ratio (y) = 0.51237 0.32038
# Poissons Ratio (z) = 0.15496 0.13299
#
# Static dielectric constant tensor:
#      x y z
#    x 1.758310 0.000000 0.000000 
#    y 0.000000 1.797190 0.000000 
#    z 0.000000 0.000000 1.715440 
# 
# From -- ./inp_files/17359.got.cif
#   From: 2010.05.17/outbox.cif.g08.bks.cpg/sg55_9_cif.got.tgz:17359.got - 2010.06.03 13:27:54.
