data_PCOD9427463
_publ_section_title
;
Structure prediction by ZEFSAII (Michael W. Deem and Ramdas Pophale) SiO2 
 PCOD9427463
Probable space group: P B A M
;
_chemical_formula_sum "Si O2"
_cell_formula_units_Z 56
_cell_length_a 19.166071
_cell_length_b 17.229580
_cell_length_c 7.636959
_cell_angle_alpha 90.000000
_cell_angle_beta 90.000000
_cell_angle_gamma 90.000000
_cell_volume 2521.902212
_symmetry_space_group_name_H-M "P B A M"
_symmetry_group_IT_number 55
_symmetry_cell_setting 'orthorhombic'
loop_
_space_group_symop_operation_xyz
x,y,z
-x,-y,z
1/2+x,1/2-y,-z
1/2-x,1/2+y,-z
-x,-y,-z
x,y,-z
1/2-x,1/2+y,z
1/2+x,1/2-y,z
loop_
_atom_site_type_symbol
_atom_site_label
_atom_site_fract_x
_atom_site_fract_y
_atom_site_fract_z
Si Si1 0.852577 0.493809 0.787219
Si Si2 0.135050 0.820013 0.204002
Si Si3 0.574032 0.837998 0.201739
Si Si4 0.289645 0.581242 0.211139
Si Si5 0.218571 0.259919 0.705711
Si Si6 0.083353 0.341897 0.297556
Si Si7 0.420635 0.485145 0.214711
O O1 0.895930 0.418341 0.725669
O O2 0.772522 0.477090 0.737711
O O3 0.884665 0.572168 0.714008
O O4 0.856855 0.499670 0.000000
O O5 0.102478 0.741537 0.283733
O O6 0.217989 0.808087 0.213242
O O7 0.107511 0.901314 0.275704
O O8 0.113863 0.821534 0.000000
O O9 0.490874 0.838538 0.205467
O O10 0.599326 0.837828 0.000000
O O11 0.272225 0.668138 0.270087
O O12 0.364544 0.549831 0.271285
O O13 0.289893 0.583077 0.000000
O O14 0.219133 0.278014 0.500000
O O15 0.143144 0.285487 0.775980
O O16 0.070209 0.321597 0.500000
O O17 0.500000 0.500000 0.269832
O O18 0.419937 0.486072 0.000000
#
# Coordination Sequence:
#
# PCOD9427463 Si02
#       7
#     8   8   8   8   8   8   8
#     4  10  20  38  60  87 115 146 194 244 292 346
#     4  10  20  39  64  89 117 152 196 242 296 350
#     4  10  21  37  60  90 118 148 189 240 292 346
#     4  10  20  37  62  88 116 152 196 244 294 347
#     4  11  24  40  58  84 119 158 200 242 283 344
#     4  11  25  39  55  84 119 156 196 232 285 352
#     4   9  19  34  59  94 123 149 191 246 297 350
#
# _framework density 22.205461
#
# number of rings (size 3 to 8) (size 9 to 14) (size 15 to 20)
#    0.000    1.857    1.429    2.143    2.000    6.857 
#    0.000    0.714    0.000    0.857    0.000    0.000 
#    0.000    0.000    0.000    0.000    0.000    0.000 
#
# Total GULP energy -312992.586105 kJ/mol
# GULP energy per Si atom -5589.153323 kJ/mol
# Density = 2.215492 g / cm^3
# Si number density = 22.205461 Si / 1000 Ang^3
#
#
#
# Elastic Constant Matrix: (Units=GPa)
#
#
# Indices 1 2 3 4 5 6 
#
# 1 108.2715 5.1998 -9.1180 0.0000 0.0000 0.0000
# 2 5.1998 52.2989 -4.5539 0.0000 0.0000 0.0000
# 3 -9.1180 -4.5539 40.8292 0.0000 0.0000 0.0000
# 4 0.0000 0.0000 0.0000 4.4300 0.0000 0.0000
# 5 0.0000 0.0000 0.0000 0.0000 635.1306 0.0000
# 6 0.0000 0.0000 0.0000 0.0000 0.0000 5.1590
#
#
#
# Elastic Compliance Matrix: (Units=1/GPa)
#
#
# Indices 1 2 3 4 5 6 
#
# 1 0.009443 -0.000763 0.002024 0.000000 0.000000 0.000000
# 2 -0.000763 0.019370 0.001990 0.000000 0.000000 0.000000
# 3 0.002024 0.001990 0.025166 0.000000 0.000000 0.000000
# 4 0.000000 0.000000 0.000000 0.225735 0.000000 0.000000
# 5 0.000000 0.000000 0.000000 0.000000 0.001574 0.000000
# 6 0.000000 0.000000 0.000000 0.000000 0.000000 0.193838
#
#
# Mechanical properties :
#
#
# Convention : Reuss Voigt Hill
#
# Bulk Modulus (GPa) = 16.53389 20.49503 18.51446
# Shear Modulus (GPa) = 10.22946 142.93536 76.58241
#
# Velocity S-wave (km/s) = 2.14866 8.03176 5.87903
# Velocity P-wave (km/s) = 3.69021 9.76023 7.37834
#
# Compressibility (1/GPa) = 0.06048182
#
# Stress axis : x y z
#
# Youngs Moduli (GPa) = 105.89747 51.62624 39.73580
#
# Poissons Ratio (x) = 0.03937 -0.08042
# Poissons Ratio (y) = 0.08076 -0.07908
# Poissons Ratio (z) = -0.21431 -0.10274
#
# Static dielectric constant tensor:
#      x y z
#    x 1.784550 0.000000 0.000000 
#    y 0.000000 1.797950 0.000000 
#    z 0.000000 0.000000 1.876510 
# 
# From -- ./inp_files/8736.got.cif
#   From: 2010.05.17/outbox.cif.g08.bks.cpg/sg55_5_cif.got.tgz:8736.got - 2010.06.03 13:27:54.
