data_PCOD9427064
_publ_section_title
;
Structure prediction by ZEFSAII (Michael W. Deem and Ramdas Pophale) SiO2 
 PCOD9427064
Probable space group: P B A M
;
_chemical_formula_sum "Si O2"
_cell_formula_units_Z 48
_cell_length_a 12.688722
_cell_length_b 18.810435
_cell_length_c 9.940226
_cell_angle_alpha 90.000000
_cell_angle_beta 90.000000
_cell_angle_gamma 90.000000
_cell_volume 2372.536923
_symmetry_space_group_name_H-M "P B A M"
_symmetry_group_IT_number 55
_symmetry_cell_setting 'orthorhombic'
loop_
_space_group_symop_operation_xyz
x,y,z
-x,-y,z
1/2+x,1/2-y,-z
1/2-x,1/2+y,-z
-x,-y,-z
x,y,-z
1/2-x,1/2+y,z
1/2+x,1/2-y,z
loop_
_atom_site_type_symbol
_atom_site_label
_atom_site_fract_x
_atom_site_fract_y
_atom_site_fract_z
Si Si1 0.655447 0.025969 0.842291
Si Si2 0.306625 0.233583 0.162151
Si Si3 0.969067 0.385959 0.163279
Si Si4 0.639309 0.343286 0.347392
Si Si5 0.616123 0.504338 0.256542
Si Si6 0.605619 0.658440 0.646414
O O1 0.587185 0.093273 0.790173
O O2 0.602653 0.952856 0.790511
O O3 0.779672 0.022171 0.826572
O O4 0.633616 0.024902 0.000000
O O5 0.408793 0.185523 0.200912
O O6 0.208595 0.194884 0.233868
O O7 0.327514 0.308791 0.232545
O O8 0.295240 0.237255 0.000000
O O9 0.968275 0.383029 0.000000
O O10 0.676056 0.328397 0.500000
O O11 0.638643 0.428466 0.324082
O O12 0.516994 0.321404 0.336878
O O13 0.500000 0.500000 0.188441
O O14 0.607523 0.572912 0.351404
O O15 0.642971 0.683735 0.500000
#
# Coordination Sequence:
#
# PCOD9427064 Si02
#       6
#     8   8   8   8   8   8
#     4   9  16  30  53  83 117 152 191 241 301 356
#     4  11  22  38  61  90 121 157 202 253 308 366
#     4   8  16  31  53  79 112 154 193 232 289 357
#     4  10  21  40  65  87 116 160 203 249 304 365
#     4  10  20  35  59  88 116 154 206 257 304 356
#     4  10  23  41  59  85 120 160 205 248 300 365
#
# _framework density 20.23151
#
# number of rings (size 3 to 8) (size 9 to 14) (size 15 to 20)
#    0.000    2.333    1.667    2.000    0.000    5.000 
#    0.000    5.000    0.000    4.000    0.000    0.000 
#    0.000    0.000    0.000    0.000    0.000    0.000 
#
# Total GULP energy -267245.724470 kJ/mol
# GULP energy per Si atom -5567.619260 kJ/mol
# Density = 2.018546 g / cm^3
# Si number density = 20.231510 Si / 1000 Ang^3
#
#
#
# Elastic Constant Matrix: (Units=GPa)
#
#
# Indices 1 2 3 4 5 6 
#
# 1 96.5813 28.5714 29.3892 0.0000 0.0000 0.0000
# 2 28.5714 75.3729 42.3902 0.0000 0.0000 0.0000
# 3 29.3892 42.3902 87.4378 0.0000 0.0000 0.0000
# 4 0.0000 0.0000 0.0000 8.6677 0.0000 0.0000
# 5 0.0000 0.0000 0.0000 0.0000 16.8187 0.0000
# 6 0.0000 0.0000 0.0000 0.0000 0.0000 25.7400
#
#
#
# Elastic Compliance Matrix: (Units=1/GPa)
#
#
# Indices 1 2 3 4 5 6 
#
# 1 0.012054 -0.003149 -0.002525 0.000000 0.000000 0.000000
# 2 -0.003149 0.019064 -0.008184 0.000000 0.000000 0.000000
# 3 -0.002525 -0.008184 0.016253 0.000000 0.000000 0.000000
# 4 0.000000 0.000000 0.000000 0.115371 0.000000 0.000000
# 5 0.000000 0.000000 0.000000 0.000000 0.059458 0.000000
# 6 0.000000 0.000000 0.000000 0.000000 0.000000 0.038850
#
#
# Mechanical properties :
#
#
# Convention : Reuss Voigt Hill
#
# Bulk Modulus (GPa) = 50.87752 51.12149 50.99951
# Shear Modulus (GPa) = 16.93105 20.84804 18.88955
#
# Velocity S-wave (km/s) = 2.89600 3.21358 3.05892
# Velocity P-wave (km/s) = 6.03197 6.25241 6.14318
#
# Compressibility (1/GPa) = 0.01965505
#
# Stress axis : x y z
#
# Youngs Moduli (GPa) = 82.96081 52.45574 61.52814
#
# Poissons Ratio (x) = 0.16520 0.15534
# Poissons Ratio (y) = 0.26127 0.50352
# Poissons Ratio (z) = 0.20945 0.42928
#
# Static dielectric constant tensor:
#      x y z
#    x 1.756300 0.000000 0.000000 
#    y 0.000000 1.755840 0.000000 
#    z 0.000000 0.000000 1.694910 
# 
# From -- ./inp_files/13193.got.cif
#   From: 2010.05.17/outbox.cif.g08.bks.cpg/sg55_7_cif.got.tgz:13193.got - 2010.06.03 13:27:54.
