data_PCOD9427950
_publ_section_title
;
Structure prediction by ZEFSAII (Michael W. Deem and Ramdas Pophale) SiO2 
 PCOD9427950
Probable space group: P B A M
;
_chemical_formula_sum "Si O2"
_cell_formula_units_Z 48
_cell_length_a 17.167207
_cell_length_b 18.738651
_cell_length_c 7.546833
_cell_angle_alpha 90.000000
_cell_angle_beta 90.000000
_cell_angle_gamma 90.000000
_cell_volume 2427.742976
_symmetry_space_group_name_H-M "P B A M"
_symmetry_group_IT_number 55
_symmetry_cell_setting 'orthorhombic'
loop_
_space_group_symop_operation_xyz
x,y,z
-x,-y,z
1/2+x,1/2-y,-z
1/2-x,1/2+y,-z
-x,-y,-z
x,y,-z
1/2-x,1/2+y,z
1/2+x,1/2-y,z
loop_
_atom_site_type_symbol
_atom_site_label
_atom_site_fract_x
_atom_site_fract_y
_atom_site_fract_z
Si Si1 0.144856 0.671222 0.782664
Si Si2 0.260760 0.552361 0.213360
Si Si3 0.994760 0.582561 0.216321
Si Si4 0.671401 0.670591 0.791123
Si Si5 0.177340 0.407391 0.783446
Si Si6 0.417608 0.472894 0.708007
O O1 0.221238 0.626025 0.728050
O O2 0.145321 0.752886 0.720624
O O3 0.067882 0.628890 0.724204
O O4 0.143507 0.670453 0.000000
O O5 0.204136 0.487132 0.268519
O O6 0.347797 0.529989 0.267081
O O7 0.261242 0.552771 0.000000
O O8 0.909896 0.609903 0.272650
O O9 0.000000 0.500000 0.270290
O O10 0.996504 0.582888 0.000000
O O11 0.754684 0.644561 0.718757
O O12 0.613154 0.603596 0.775111
O O13 0.682999 0.681462 0.000000
O O14 0.177896 0.406851 0.000000
O O15 0.500000 0.500000 0.783548
O O16 0.428452 0.462458 0.500000
#
# Coordination Sequence:
#
# PCOD9427950 Si02
#       6
#     8   8   8   8   8   8
#     4   9  16  27  44  74 109 130 154 198 249 299
#     4   9  16  29  51  75  99 126 158 203 250 295
#     4   9  13  20  39  67  98 129 155 183 231 290
#     4   9  18  32  49  73 103 129 159 204 253 295
#     4   8  13  23  40  63  94 129 156 183 228 285
#     4  10  21  37  54  70  92 130 178 216 247 293
#
# _framework density 19.771450999999999
#
# number of rings (size 3 to 8) (size 9 to 14) (size 15 to 20)
#    0.000    3.000    1.667    1.500    0.000    1.333 
#    3.000    0.833    0.000    0.000    0.000    9.333 
#    0.000    0.000    0.000    0.000    0.000    0.000 
#
# Total GULP energy -267559.717813 kJ/mol
# GULP energy per Si atom -5574.160788 kJ/mol
# Density = 1.972645 g / cm^3
# Si number density = 19.771451 Si / 1000 Ang^3
#
#
#
# Elastic Constant Matrix: (Units=GPa)
#
#
# Indices 1 2 3 4 5 6 
#
# 1 161.2527 95.4432 -8.0925 0.0000 0.0000 0.0000
# 2 95.4432 151.0086 -1.4137 0.0000 0.0000 0.0000
# 3 -8.0925 -1.4137 40.7954 0.0000 0.0000 0.0000
# 4 0.0000 0.0000 0.0000 -17.5200 0.0000 0.0000
# 5 0.0000 0.0000 0.0000 0.0000 88.7223 0.0000
# 6 0.0000 0.0000 0.0000 0.0000 0.0000 22.9917
#
#
#
# Elastic Compliance Matrix: (Units=1/GPa)
#
#
# Indices 1 2 3 4 5 6 
#
# 1 0.010034 -0.006325 0.001771 0.000000 0.000000 0.000000
# 2 -0.006325 0.010612 -0.000887 0.000000 0.000000 0.000000
# 3 0.001771 -0.000887 0.024833 0.000000 0.000000 0.000000
# 4 0.000000 0.000000 0.000000 -0.057078 0.000000 0.000000
# 5 0.000000 0.000000 0.000000 0.000000 0.011271 0.000000
# 6 0.000000 0.000000 0.000000 0.000000 0.000000 0.043494
#
#
# Mechanical properties :
#
#
# Convention : Reuss Voigt Hill
#
# Bulk Modulus (GPa) = 28.90439 58.32561 43.61500
# Shear Modulus (GPa) = 76.24093 36.64679 56.44386
#
# Velocity S-wave (km/s) = 6.21650 4.30992 5.34884
# Velocity P-wave (km/s) = 8.13495 7.37097 7.76237
#
# Compressibility (1/GPa) = 0.03459683
#
# Stress axis : x y z
#
# Youngs Moduli (GPa) = 99.65828 94.23498 40.26868
#
# Poissons Ratio (x) = 0.59608 -0.07133
# Poissons Ratio (y) = 0.63039 0.03572
# Poissons Ratio (z) = -0.17652 0.08359
#
# Static dielectric constant tensor:
#      x y z
#    x 1.700670 0.000000 0.000000 
#    y 0.000000 1.682330 0.000000 
#    z 0.000000 0.000000 1.745440 
# 
# From -- ./inp_files/7572.got.cif
#   From: 2010.05.17/outbox.cif.g08.bks.cpg/sg55_4_cif.got.tgz:7572.got - 2010.06.03 13:27:54.
