data_PCOD9427400
_publ_section_title
;
Structure prediction by ZEFSAII (Michael W. Deem and Ramdas Pophale) SiO2 
 PCOD9427400
Probable space group: P B A M
;
_chemical_formula_sum "Si O2"
_cell_formula_units_Z 48
_cell_length_a 8.193091
_cell_length_b 14.643127
_cell_length_c 16.995658
_cell_angle_alpha 90.000000
_cell_angle_beta 90.000000
_cell_angle_gamma 90.000000
_cell_volume 2039.011104
_symmetry_space_group_name_H-M "P B A M"
_symmetry_group_IT_number 55
_symmetry_cell_setting 'orthorhombic'
loop_
_space_group_symop_operation_xyz
x,y,z
-x,-y,z
1/2+x,1/2-y,-z
1/2-x,1/2+y,-z
-x,-y,-z
x,y,-z
1/2-x,1/2+y,z
1/2+x,1/2-y,z
loop_
_atom_site_type_symbol
_atom_site_label
_atom_site_fract_x
_atom_site_fract_y
_atom_site_fract_z
Si Si1 0.178347 0.549424 0.908957
Si Si2 0.685949 0.131500 0.662869
Si Si3 0.807378 0.124820 0.160205
Si Si4 0.369030 0.209755 0.408871
Si Si5 0.000406 0.272682 0.093049
Si Si6 0.325355 0.535341 0.593389
O O1 0.295783 0.481823 0.861646
O O2 0.134824 0.651341 0.881300
O O3 0.000000 0.500000 0.907527
O O4 0.231856 0.554077 0.000000
O O5 0.749584 0.137884 0.751001
O O6 0.809625 0.188915 0.608200
O O7 0.511008 0.176102 0.648228
O O8 0.691890 0.027307 0.635291
O O9 0.971621 0.179137 0.139774
O O10 0.672069 0.177771 0.107670
O O11 0.422405 0.200239 0.500000
O O12 0.216910 0.141069 0.395674
O O13 0.982811 0.256517 0.000000
O O14 0.500000 0.500000 0.622994
O O15 0.317933 0.518218 0.500000
#
# Coordination Sequence:
#
# PCOD9427400 Si02
#       6
#     8   8   8   8   8   8
#     4   8  16  33  56  78 104 145 188 221 267 338
#     4  12  24  38  59  90 124 157 198 253 310 356
#     4  11  22  36  57  87 118 149 187 241 297 347
#     4  11  23  40  62  85 117 162 209 251 295 360
#     4  10  20  37  60  83 113 154 197 235 280 349
#     4  10  22  41  64  88 116 156 205 253 303 364
#
# _framework density 23.540824000000001
#
# number of rings (size 3 to 8) (size 9 to 14) (size 15 to 20)
#    0.000    1.667    0.000    6.500    0.000    8.000 
#    0.000    0.833    0.000    3.000    0.000    0.000 
#    0.000    0.000    0.000    0.000    0.000    0.000 
#
# Total GULP energy -268581.306827 kJ/mol
# GULP energy per Si atom -5595.443892 kJ/mol
# Density = 2.348724 g / cm^3
# Si number density = 23.540824 Si / 1000 Ang^3
#
#
#
# Elastic Constant Matrix: (Units=GPa)
#
#
# Indices 1 2 3 4 5 6 
#
# 1 55.7347 -4.7921 0.3440 0.0000 0.0000 0.0000
# 2 -4.7921 95.7485 7.4248 0.0000 0.0000 0.0000
# 3 0.3440 7.4248 52.2776 0.0000 0.0000 0.0000
# 4 0.0000 0.0000 0.0000 -71.6226 0.0000 0.0000
# 5 0.0000 0.0000 0.0000 0.0000 52.4637 0.0000
# 6 0.0000 0.0000 0.0000 0.0000 0.0000 35.0105
#
#
#
# Elastic Compliance Matrix: (Units=1/GPa)
#
#
# Indices 1 2 3 4 5 6 
#
# 1 0.018023 0.000921 -0.000249 0.000000 0.000000 0.000000
# 2 0.000921 0.010607 -0.001513 0.000000 0.000000 0.000000
# 3 -0.000249 -0.001513 0.019345 0.000000 0.000000 0.000000
# 4 0.000000 0.000000 0.000000 -0.013962 0.000000 0.000000
# 5 0.000000 0.000000 0.000000 0.000000 0.019061 0.000000
# 6 0.000000 0.000000 0.000000 0.000000 0.000000 0.028563
#
#
# Mechanical properties :
#
#
# Convention : Reuss Voigt Hill
#
# Bulk Modulus (GPa) = 21.60102 23.30157 22.45130
# Shear Modulus (GPa) = 50.63303 16.55593 33.59448
#
# Velocity S-wave (km/s) = 4.64277 2.65483 3.78176
# Velocity P-wave (km/s) = 6.15925 4.39515 5.35040
#
# Compressibility (1/GPa) = 0.04629411
#
# Stress axis : x y z
#
# Youngs Moduli (GPa) = 55.48491 94.27348 51.69262
#
# Poissons Ratio (x) = -0.08686 0.01290
# Poissons Ratio (y) = -0.05112 0.07819
# Poissons Ratio (z) = 0.01384 0.14260
#
# Static dielectric constant tensor:
#      x y z
#    x 1.947770 0.000000 0.000000 
#    y 0.000000 1.867280 0.000000 
#    z 0.000000 0.000000 1.806940 
# 
# From -- ./inp_files/20782.got.cif
#   From: 2010.05.17/outbox.cif.g08.bks.cpg/sg55_11_cif.got.tgz:20782.got - 2010.06.03 13:27:54.
