data_PCOD9427489
_publ_section_title
;
Structure prediction by ZEFSAII (Michael W. Deem and Ramdas Pophale) SiO2 
 PCOD9427489
Probable space group: P B A M
;
_chemical_formula_sum "Si O2"
_cell_formula_units_Z 64
_cell_length_a 19.313126
_cell_length_b 19.822392
_cell_length_c 8.014006
_cell_angle_alpha 90.000000
_cell_angle_beta 90.000000
_cell_angle_gamma 90.000000
_cell_volume 3068.020784
_symmetry_space_group_name_H-M "P B A M"
_symmetry_group_IT_number 55
_symmetry_cell_setting 'orthorhombic'
loop_
_space_group_symop_operation_xyz
x,y,z
-x,-y,z
1/2+x,1/2-y,-z
1/2-x,1/2+y,-z
-x,-y,-z
x,y,-z
1/2-x,1/2+y,z
1/2+x,1/2-y,z
loop_
_atom_site_type_symbol
_atom_site_label
_atom_site_fract_x
_atom_site_fract_y
_atom_site_fract_z
Si Si1 0.516290 0.128226 0.200179
Si Si2 0.361541 0.961349 0.204009
Si Si3 0.973267 0.899633 0.694574
Si Si4 0.139936 0.613741 0.200983
Si Si5 0.402583 0.737356 0.297675
Si Si6 0.255325 0.230895 0.302229
Si Si7 0.106385 0.976278 0.193638
Si Si8 0.771702 0.119662 0.798304
O O1 0.563446 0.065536 0.258939
O O2 0.437667 0.130980 0.263628
O O3 0.559335 0.195310 0.239950
O O4 0.511662 0.121899 0.000000
O O5 0.302937 0.908158 0.257414
O O6 0.344564 0.037281 0.258246
O O7 0.361365 0.961414 0.000000
O O8 0.992829 0.895023 0.500000
O O9 0.038785 0.928866 0.792055
O O10 0.946174 0.828015 0.755143
O O11 0.912816 0.955247 0.712377
O O12 0.196399 0.669702 0.245286
O O13 0.137633 0.611875 0.000000
O O14 0.401002 0.737561 0.500000
O O15 0.323608 0.730818 0.234981
O O16 0.250431 0.225736 0.500000
O O17 0.285369 0.304413 0.258417
O O18 0.170726 0.933556 0.259199
O O19 0.118702 0.993237 0.000000
O O20 0.772960 0.119813 0.000000
#
# Coordination Sequence:
#
# PCOD9427489 Si02
#       8
#     8   8   8   8   8   8   8   8
#     4  10  20  37  63  90 116 152 193 238 291 343
#     4   9  18  37  62  88 117 151 190 236 290 344
#     4  10  21  38  58  80 112 155 193 231 288 349
#     4  10  22  38  62  93 120 148 191 241 289 346
#     4  10  23  40  57  81 116 156 196 236 282 343
#     4  11  24  41  58  83 118 156 194 237 286 339
#     4  10  21  36  57  87 115 141 189 247 288 337
#     4  10  21  38  60  85 115 152 193 238 289 342
#
# _framework density 20.860354999999998
#
# number of rings (size 3 to 8) (size 9 to 14) (size 15 to 20)
#    0.000    2.000    1.250    2.250    3.500    4.500 
#    0.000    1.250    0.000    1.500    0.000    0.000 
#    0.000    0.000    0.000    0.000    0.000    0.000 
#
# Total GULP energy -357456.126556 kJ/mol
# GULP energy per Si atom -5585.251977 kJ/mol
# Density = 2.081288 g / cm^3
# Si number density = 20.860355 Si / 1000 Ang^3
#
#
#
# Elastic Constant Matrix: (Units=GPa)
#
#
# Indices 1 2 3 4 5 6 
#
# 1 30.2233 31.0965 1.3855 0.0000 0.0000 0.0000
# 2 31.0965 123.2844 -1.5743 0.0000 0.0000 0.0000
# 3 1.3855 -1.5743 16.9896 0.0000 0.0000 0.0000
# 4 0.0000 0.0000 0.0000 60.4967 0.0000 0.0000
# 5 0.0000 0.0000 0.0000 0.0000 11.8729 0.0000
# 6 0.0000 0.0000 0.0000 0.0000 0.0000 37.7029
#
#
#
# Elastic Compliance Matrix: (Units=1/GPa)
#
#
# Indices 1 2 3 4 5 6 
#
# 1 0.045060 -0.011426 -0.004733 0.000000 0.000000 0.000000
# 2 -0.011426 0.011018 0.001953 0.000000 0.000000 0.000000
# 3 -0.004733 0.001953 0.059426 0.000000 0.000000 0.000000
# 4 0.000000 0.000000 0.000000 0.016530 0.000000 0.000000
# 5 0.000000 0.000000 0.000000 0.000000 0.084225 0.000000
# 6 0.000000 0.000000 0.000000 0.000000 0.000000 0.026523
#
#
# Mechanical properties :
#
#
# Convention : Reuss Voigt Hill
#
# Bulk Modulus (GPa) = 11.48216 25.81252 18.64734
# Shear Modulus (GPa) = 16.65403 31.32047 23.98725
#
# Velocity S-wave (km/s) = 2.82859 3.87904 3.39469
# Velocity P-wave (km/s) = 4.02295 5.69767 4.93191
#
# Compressibility (1/GPa) = 0.08709161
#
# Stress axis : x y z
#
# Youngs Moduli (GPa) = 22.19244 90.75778 16.82753
#
# Poissons Ratio (x) = 1.03702 0.07965
# Poissons Ratio (y) = 0.25358 -0.03286
# Poissons Ratio (z) = 0.10504 -0.17723
#
# Static dielectric constant tensor:
#      x y z
#    x 1.759230 0.000000 0.000000 
#    y 0.000000 1.719280 0.000000 
#    z 0.000000 0.000000 1.741720 
# 
# From -- ./inp_files/9005.got.cif
#   From: 2010.05.17/outbox.cif.g08.bks.cpg/sg55_5_cif.got.tgz:9005.got - 2010.06.03 13:27:54.
