data_PCOD9427906
_publ_section_title
;
Structure prediction by ZEFSAII (Michael W. Deem and Ramdas Pophale) SiO2 
 PCOD9427906
Probable space group: P B A M
;
_chemical_formula_sum "Si O2"
_cell_formula_units_Z 64
_cell_length_a 25.363983
_cell_length_b 14.627583
_cell_length_c 8.942023
_cell_angle_alpha 90.000000
_cell_angle_beta 90.000000
_cell_angle_gamma 90.000000
_cell_volume 3317.613634
_symmetry_space_group_name_H-M "P B A M"
_symmetry_group_IT_number 55
_symmetry_cell_setting 'orthorhombic'
loop_
_space_group_symop_operation_xyz
x,y,z
-x,-y,z
1/2+x,1/2-y,-z
1/2-x,1/2+y,-z
-x,-y,-z
x,y,-z
1/2-x,1/2+y,z
1/2+x,1/2-y,z
loop_
_atom_site_type_symbol
_atom_site_label
_atom_site_fract_x
_atom_site_fract_y
_atom_site_fract_z
Si Si1 0.878961 0.866931 0.320534
Si Si2 0.053803 0.284284 0.178721
Si Si3 0.721960 0.044330 0.324844
Si Si4 0.396205 0.962392 0.679251
Si Si5 0.331495 0.463634 0.821668
Si Si6 0.836414 0.249343 0.820796
Si Si7 0.560671 0.862495 0.179587
Si Si8 0.227682 0.235768 0.325154
O O1 0.881949 0.865458 0.500000
O O2 0.926607 0.809821 0.250572
O O3 0.871802 0.968663 0.258824
O O4 0.825009 0.814486 0.272774
O O5 0.088350 0.366471 0.247337
O O6 0.993284 0.309714 0.212593
O O7 0.060374 0.281459 0.000000
O O8 0.730769 0.022254 0.500000
O O9 0.664014 0.011284 0.278873
O O10 0.772030 0.012284 0.230941
O O11 0.719873 0.154903 0.311197
O O12 0.397965 0.953696 0.500000
O O13 0.434741 0.040752 0.738484
O O14 0.340133 0.357724 0.777804
O O15 0.335767 0.471758 0.000000
O O16 0.888443 0.303474 0.774354
O O17 0.781957 0.288015 0.756141
O O18 0.833336 0.252388 0.000000
O O19 0.562572 0.877625 0.000000
O O20 0.234106 0.214664 0.500000
#
# Coordination Sequence:
#
# PCOD9427906 Si02
#       8
#     8   8   8   8   8   8   8   8
#     4  11  22  38  59  85 118 154 192 240 293 347
#     4  11  23  40  61  84 115 153 198 245 292 347
#     4   9  18  35  54  79 116 153 185 224 279 342
#     4  11  22  37  58  86 119 156 193 235 292 353
#     4  10  21  36  57  86 116 151 193 238 289 346
#     4   9  20  39  59  82 115 150 191 240 290 341
#     4  10  23  41  59  83 115 154 197 247 296 343
#     4   9  18  34  55  79 111 148 184 227 283 342
#
# _framework density 19.290973999999999
#
# number of rings (size 3 to 8) (size 9 to 14) (size 15 to 20)
#    0.000    2.000    1.250    1.875    1.750    5.500 
#    0.000    0.625    0.000    3.750    0.000    0.000 
#    0.000    0.000    0.000    0.000    0.000    0.000 
#
# Total GULP energy -357579.573048 kJ/mol
# GULP energy per Si atom -5587.180829 kJ/mol
# Density = 1.924707 g / cm^3
# Si number density = 19.290974 Si / 1000 Ang^3
#
#
#
# Elastic Constant Matrix: (Units=GPa)
#
#
# Indices 1 2 3 4 5 6 
#
# 1 65.0583 5.9363 19.8712 0.0000 0.0000 0.0000
# 2 5.9363 34.4620 8.8012 0.0000 0.0000 0.0000
# 3 19.8712 8.8012 28.1176 0.0000 0.0000 0.0000
# 4 0.0000 0.0000 0.0000 22.2819 0.0000 0.0000
# 5 0.0000 0.0000 0.0000 0.0000 38.3168 0.0000
# 6 0.0000 0.0000 0.0000 0.0000 0.0000 33.3070
#
#
#
# Elastic Compliance Matrix: (Units=1/GPa)
#
#
# Indices 1 2 3 4 5 6 
#
# 1 0.019603 0.000175 -0.013909 0.000000 0.000000 0.000000
# 2 0.000175 0.031540 -0.009996 0.000000 0.000000 0.000000
# 3 -0.013909 -0.009996 0.048523 0.000000 0.000000 0.000000
# 4 0.000000 0.000000 0.000000 0.044879 0.000000 0.000000
# 5 0.000000 0.000000 0.000000 0.000000 0.026098 0.000000
# 6 0.000000 0.000000 0.000000 0.000000 0.000000 0.030024
#
#
# Mechanical properties :
#
#
# Convention : Reuss Voigt Hill
#
# Bulk Modulus (GPa) = 19.15446 21.87282 20.51364
# Shear Modulus (GPa) = 18.83026 24.98308 21.90667
#
# Velocity S-wave (km/s) = 3.12768 3.60261 3.37351
# Velocity P-wave (km/s) = 4.79520 5.35425 5.08242
#
# Compressibility (1/GPa) = 0.05220717
#
# Stress axis : x y z
#
# Youngs Moduli (GPa) = 51.01247 31.70551 20.60863
#
# Poissons Ratio (x) = -0.00556 0.28664
# Poissons Ratio (y) = -0.00894 0.20601
# Poissons Ratio (z) = 0.70952 0.31694
#
# Static dielectric constant tensor:
#      x y z
#    x 1.669620 0.000000 0.000000 
#    y 0.000000 1.684780 0.000000 
#    z 0.000000 0.000000 1.642550 
# 
# From -- ./inp_files/6688.got.cif
#   From: 2010.05.17/outbox.cif.g08.bks.cpg/sg55_4_cif.got.tgz:6688.got - 2010.06.03 13:27:54.
