data_PCOD9427133
_publ_section_title
;
Structure prediction by ZEFSAII (Michael W. Deem and Ramdas Pophale) SiO2 
 PCOD9427133
Probable space group: P B A M
;
_chemical_formula_sum "Si O2"
_cell_formula_units_Z 56
_cell_length_a 19.618800
_cell_length_b 19.393665
_cell_length_c 8.847792
_cell_angle_alpha 90.000000
_cell_angle_beta 90.000000
_cell_angle_gamma 90.000000
_cell_volume 3366.411748
_symmetry_space_group_name_H-M "P B A M"
_symmetry_group_IT_number 55
_symmetry_cell_setting 'orthorhombic'
loop_
_space_group_symop_operation_xyz
x,y,z
-x,-y,z
1/2+x,1/2-y,-z
1/2-x,1/2+y,-z
-x,-y,-z
x,y,-z
1/2-x,1/2+y,z
1/2+x,1/2-y,z
loop_
_atom_site_type_symbol
_atom_site_label
_atom_site_fract_x
_atom_site_fract_y
_atom_site_fract_z
Si Si1 0.121972 0.757195 0.681585
Si Si2 0.768709 0.355392 0.321121
Si Si3 0.977482 0.790228 0.180386
Si Si4 0.697871 0.480121 0.179252
Si Si5 0.769558 0.138105 0.180988
Si Si6 0.946338 0.938682 0.320367
Si Si7 0.340961 0.765904 0.320048
O O1 0.119432 0.763792 0.500000
O O2 0.163076 0.686935 0.717451
O O3 0.167927 0.819017 0.747872
O O4 0.047479 0.761324 0.751449
O O5 0.769574 0.370902 0.500000
O O6 0.753373 0.423825 0.228800
O O7 0.706722 0.301513 0.294636
O O8 0.968206 0.868885 0.236906
O O9 0.912940 0.748040 0.242890
O O10 0.979043 0.788581 0.000000
O O11 0.721179 0.557603 0.215200
O O12 0.627945 0.461884 0.264680
O O13 0.685633 0.475540 0.000000
O O14 0.701223 0.170889 0.250269
O O15 0.769704 0.147342 0.000000
O O16 0.944470 0.925068 0.500000
O O17 0.000000 0.000000 0.291565
O O18 0.348350 0.774255 0.500000
#
# Coordination Sequence:
#
# PCOD9427133 Si02
#       7
#     8   8   8   8   8   8   8
#     4  10  21  37  56  79 108 144 184 228 273 326
#     4   9  19  35  56  78 104 140 184 226 268 323
#     4  12  23  35  55  81 110 144 180 227 279 329
#     4  11  22  34  53  80 111 145 180 224 275 325
#     4  10  21  36  54  81 113 144 182 227 274 325
#     4  11  23  36  52  76 111 151 186 221 267 329
#     4  10  20  36  57  80 106 143 187 227 269 327
#
# _framework density 16.634923000000001
#
# number of rings (size 3 to 8) (size 9 to 14) (size 15 to 20)
#    0.000    1.571    1.429    5.143    0.000    8.571 
#    0.000    0.000    0.000    0.857    0.000    6.000 
#    0.000    0.000    0.000    0.000    0.000    0.000 
#
# Total GULP energy -312891.651149 kJ/mol
# GULP energy per Si atom -5587.350913 kJ/mol
# Density = 1.659706 g / cm^3
# Si number density = 16.634923 Si / 1000 Ang^3
#
#
#
# Elastic Constant Matrix: (Units=GPa)
#
#
# Indices 1 2 3 4 5 6 
#
# 1 149.7239 59.8330 66.7142 0.0000 0.0000 0.0000
# 2 59.8330 47.2413 37.0900 0.0000 0.0000 0.0000
# 3 66.7142 37.0900 77.0628 0.0000 0.0000 0.0000
# 4 0.0000 0.0000 0.0000 25.0728 0.0000 0.0000
# 5 0.0000 0.0000 0.0000 0.0000 23.9097 0.0000
# 6 0.0000 0.0000 0.0000 0.0000 0.0000 18.2433
#
#
#
# Elastic Compliance Matrix: (Units=1/GPa)
#
#
# Indices 1 2 3 4 5 6 
#
# 1 0.015194 -0.014332 -0.006255 0.000000 0.000000 0.000000
# 2 -0.014332 0.047545 -0.010476 0.000000 0.000000 0.000000
# 3 -0.006255 -0.010476 0.023434 0.000000 0.000000 0.000000
# 4 0.000000 0.000000 0.000000 0.039884 0.000000 0.000000
# 5 0.000000 0.000000 0.000000 0.000000 0.041824 0.000000
# 6 0.000000 0.000000 0.000000 0.000000 0.000000 0.054815
#
#
# Mechanical properties :
#
#
# Convention : Reuss Voigt Hill
#
# Bulk Modulus (GPa) = 41.58712 66.81139 54.19926
# Shear Modulus (GPa) = 17.07440 20.80456 18.93948
#
# Velocity S-wave (km/s) = 3.20725 3.54030 3.37788
# Velocity P-wave (km/s) = 6.22651 7.54733 6.91851
#
# Compressibility (1/GPa) = 0.02404591
#
# Stress axis : x y z
#
# Youngs Moduli (GPa) = 65.81667 21.03274 42.67388
#
# Poissons Ratio (x) = 0.30145 0.26694
# Poissons Ratio (y) = 0.94331 0.44703
# Poissons Ratio (z) = 0.41170 0.22033
#
# Static dielectric constant tensor:
#      x y z
#    x 1.543160 0.000000 0.000000 
#    y 0.000000 1.543160 0.000000 
#    z 0.000000 0.000000 1.555460 
# 
# From -- ./inp_files/7815.got.cif
#   From: 2010.05.17/outbox.cif.g08.bks.cpg/sg55_4_cif.got.tgz:7815.got - 2010.06.03 13:27:54.
