data_PCOD9427207
_publ_section_title
;
Structure prediction by ZEFSAII (Michael W. Deem and Ramdas Pophale) SiO2 
 PCOD9427207
Probable space group: P B A M
;
_chemical_formula_sum "Si O2"
_cell_formula_units_Z 56
_cell_length_a 15.724662
_cell_length_b 22.165494
_cell_length_c 8.024028
_cell_angle_alpha 90.000000
_cell_angle_beta 90.000000
_cell_angle_gamma 90.000000
_cell_volume 2796.734047
_symmetry_space_group_name_H-M "P B A M"
_symmetry_group_IT_number 55
_symmetry_cell_setting 'orthorhombic'
loop_
_space_group_symop_operation_xyz
x,y,z
-x,-y,z
1/2+x,1/2-y,-z
1/2-x,1/2+y,-z
-x,-y,-z
x,y,-z
1/2-x,1/2+y,z
1/2+x,1/2-y,z
loop_
_atom_site_type_symbol
_atom_site_label
_atom_site_fract_x
_atom_site_fract_y
_atom_site_fract_z
Si Si1 0.505460 0.813771 0.798647
Si Si2 0.629486 0.706303 0.797780
Si Si3 0.305870 0.975484 0.691234
Si Si4 0.369446 0.518034 0.805680
Si Si5 0.316774 0.836826 0.301171
Si Si6 0.552696 0.945196 0.194766
Si Si7 0.488625 0.400717 0.806969
O O1 0.576820 0.765596 0.743502
O O2 0.405777 0.805822 0.752549
O O3 0.533034 0.879894 0.733946
O O4 0.508671 0.812712 0.000000
O O5 0.727977 0.695489 0.748573
O O6 0.569637 0.651583 0.733602
O O7 0.630136 0.704878 0.000000
O O8 0.334868 0.975147 0.500000
O O9 0.316804 0.907182 0.761279
O O10 0.208963 0.995413 0.700785
O O11 0.353886 0.028218 0.789395
O O12 0.431457 0.460461 0.809372
O O13 0.421332 0.575870 0.738172
O O14 0.345402 0.529173 0.000000
O O15 0.316610 0.840078 0.500000
O O16 0.500000 0.000000 0.273015
O O17 0.528952 0.940744 0.000000
O O18 0.505761 0.383518 0.000000
#
# Coordination Sequence:
#
# PCOD9427207 Si02
#       7
#     8   8   8   8   8   8   8
#     4  10  22  40  62  87 111 144 195 246 288 335
#     4  10  20  38  63  86 112 147 193 242 283 334
#     4  11  22  34  53  83 114 147 186 227 277 340
#     4   9  16  30  53  79 108 143 184 226 275 331
#     4  11  23  38  59  85 115 153 191 227 283 352
#     4  10  20  36  59  83 108 141 183 238 294 334
#     4   8  15  29  53  82 107 137 178 228 278 321
#
# _framework density 20.023356
#
# number of rings (size 3 to 8) (size 9 to 14) (size 15 to 20)
#    0.000    2.143    2.857    1.714    0.000    2.571 
#    2.571    2.143    0.000    0.000    0.000    0.000 
#    0.000    0.000    0.000    0.000    0.000    0.000 
#
# Total GULP energy -311798.272001 kJ/mol
# GULP energy per Si atom -5567.826286 kJ/mol
# Density = 1.997778 g / cm^3
# Si number density = 20.023356 Si / 1000 Ang^3
#
#
#
# Elastic Constant Matrix: (Units=GPa)
#
#
# Indices 1 2 3 4 5 6 
#
# 1 105.5571 67.0586 9.3958 0.0000 0.0000 0.0000
# 2 67.0586 121.6585 15.3496 0.0000 0.0000 0.0000
# 3 9.3958 15.3496 23.8064 0.0000 0.0000 0.0000
# 4 0.0000 0.0000 0.0000 -0.1926 0.0000 0.0000
# 5 0.0000 0.0000 0.0000 0.0000 209.3948 0.0000
# 6 0.0000 0.0000 0.0000 0.0000 0.0000 31.6163
#
#
#
# Elastic Compliance Matrix: (Units=1/GPa)
#
#
# Indices 1 2 3 4 5 6 
#
# 1 0.014587 -0.007962 -0.000624 0.000000 0.000000 0.000000
# 2 -0.007962 0.013293 -0.005429 0.000000 0.000000 0.000000
# 3 -0.000624 -0.005429 0.045752 0.000000 0.000000 0.000000
# 4 0.000000 0.000000 0.000000 -5.191218 0.000000 0.000000
# 5 0.000000 0.000000 0.000000 0.000000 0.004776 0.000000
# 6 0.000000 0.000000 0.000000 0.000000 0.000000 0.031629
#
#
# Mechanical properties :
#
#
# Convention : Reuss Voigt Hill
#
# Bulk Modulus (GPa) = 21.92794 48.29223 35.11009
# Shear Modulus (GPa) = -0.99247 58.77822 28.89288
#
# Velocity S-wave (km/s) = -0.70479 5.42389 3.80275
# Velocity P-wave (km/s) = 3.21133 7.96210 6.07074
#
# Compressibility (1/GPa) = 0.04560392
#
# Stress axis : x y z
#
# Youngs Moduli (GPa) = 68.55414 75.22637 21.85697
#
# Poissons Ratio (x) = 0.59893 0.01363
# Poissons Ratio (y) = 0.54581 0.11866
# Poissons Ratio (z) = 0.04275 0.40839
#
# Static dielectric constant tensor:
#      x y z
#    x 13.725040 0.000000 0.000000 
#    y 0.000000 1.660380 0.000000 
#    z 0.000000 0.000000 1.744750 
# 
# From -- ./inp_files/6013.got.cif
#   From: 2010.05.17/outbox.cif.g08.bks.cpg/sg55_4_cif.got.tgz:6013.got - 2010.06.03 13:27:54.
