data_PCOD9427472
_publ_section_title
;
Structure prediction by ZEFSAII (Michael W. Deem and Ramdas Pophale) SiO2 
 PCOD9427472
Probable space group: P B A M
;
_chemical_formula_sum "Si O2"
_cell_formula_units_Z 58
_cell_length_a 20.171138
_cell_length_b 17.772337
_cell_length_c 8.893428
_cell_angle_alpha 90.000000
_cell_angle_beta 90.000000
_cell_angle_gamma 90.000000
_cell_volume 3188.189549
_symmetry_space_group_name_H-M "P B A M"
_symmetry_group_IT_number 55
_symmetry_cell_setting 'orthorhombic'
loop_
_space_group_symop_operation_xyz
x,y,z
-x,-y,z
1/2+x,1/2-y,-z
1/2-x,1/2+y,-z
-x,-y,-z
x,y,-z
1/2-x,1/2+y,z
1/2+x,1/2-y,z
loop_
_atom_site_type_symbol
_atom_site_label
_atom_site_fract_x
_atom_site_fract_y
_atom_site_fract_z
Si Si1 0.787324 0.735257 0.180829
Si Si2 0.000000 0.500000 0.500000
Si Si3 0.373593 0.060543 0.666955
Si Si4 0.132249 0.979806 0.319443
Si Si5 0.862390 0.281539 0.820593
Si Si6 0.779638 0.574594 0.680960
Si Si7 0.460304 0.340530 0.319737
Si Si8 0.103740 0.141739 0.180544
O O1 0.712836 0.759798 0.223236
O O2 0.800770 0.653484 0.248824
O O3 0.840661 0.797763 0.228198
O O4 0.789607 0.730374 0.000000
O O5 0.054420 0.526903 0.371462
O O6 0.346460 0.083502 0.500000
O O7 0.375380 0.133300 0.769920
O O8 0.326274 0.994700 0.727283
O O9 0.130798 0.991049 0.500000
O O10 0.203552 0.944200 0.279988
O O11 0.075240 0.919718 0.280904
O O12 0.122186 0.059099 0.239755
O O13 0.913404 0.225731 0.739885
O O14 0.868670 0.273600 0.000000
O O15 0.784523 0.580606 0.500000
O O16 0.465263 0.336310 0.500000
O O17 0.532477 0.336807 0.247198
O O18 0.100816 0.141043 0.000000
#
# Coordination Sequence:
#
# PCOD9427472 Si02
#       8
#     8   2   8   8   8   8   8   8
#     4  10  23  40  58  87 127 159 197 252 304 363
#     4   8  20  40  58  84 120 152 194 260 308 356
#     4   9  20  38  61  86 119 158 201 253 303 361
#     4  10  21  38  60  87 120 153 204 250 300 360
#     4  11  22  39  63  90 121 160 206 248 305 371
#     4  10  20  37  62  90 117 158 207 253 300 360
#     4  11  23  40  61  88 123 163 200 255 307 359
#     4  11  24  40  59  89 124 161 202 246 304 372
#
# _framework density 18.192142
#
# number of rings (size 3 to 8) (size 9 to 14) (size 15 to 20)
#    0.414    1.379    1.379    2.483    0.000    6.621 
#    0.000    0.345    0.000    0.000    0.000    0.000 
#    0.000    0.000    0.000    0.000    0.000    0.000 
#
# Total GULP energy -323287.046483 kJ/mol
# GULP energy per Si atom -5573.914595 kJ/mol
# Density = 1.815074 g / cm^3
# Si number density = 18.192142 Si / 1000 Ang^3
#
#
#
# Elastic Constant Matrix: (Units=GPa)
#
#
# Indices 1 2 3 4 5 6 
#
# 1 98.2054 75.5306 27.4462 0.0000 0.0000 0.0000
# 2 75.5306 127.2027 35.2301 0.0000 0.0000 0.0000
# 3 27.4462 35.2301 25.6277 0.0000 0.0000 0.0000
# 4 0.0000 0.0000 0.0000 48.9137 0.0000 0.0000
# 5 0.0000 0.0000 0.0000 0.0000 19.0292 0.0000
# 6 0.0000 0.0000 0.0000 0.0000 0.0000 15.8722
#
#
#
# Elastic Compliance Matrix: (Units=1/GPa)
#
#
# Indices 1 2 3 4 5 6 
#
# 1 0.019735 -0.009470 -0.008117 0.000000 0.000000 0.000000
# 2 -0.009470 0.017239 -0.013557 0.000000 0.000000 0.000000
# 3 -0.008117 -0.013557 0.066349 0.000000 0.000000 0.000000
# 4 0.000000 0.000000 0.000000 0.020444 0.000000 0.000000
# 5 0.000000 0.000000 0.000000 0.000000 0.052551 0.000000
# 6 0.000000 0.000000 0.000000 0.000000 0.000000 0.063003
#
#
# Mechanical properties :
#
#
# Convention : Reuss Voigt Hill
#
# Bulk Modulus (GPa) = 24.36862 58.60550 41.48706
# Shear Modulus (GPa) = 15.85860 24.28496 20.07178
#
# Velocity S-wave (km/s) = 2.95571 3.65761 3.32523
# Velocity P-wave (km/s) = 5.00724 7.07970 6.13167
#
# Compressibility (1/GPa) = 0.04103639
#
# Stress axis : x y z
#
# Youngs Moduli (GPa) = 50.67224 58.00719 15.07184
#
# Poissons Ratio (x) = 0.54933 0.12233
# Poissons Ratio (y) = 0.47987 0.20432
# Poissons Ratio (z) = 0.41129 0.78638
#
# Static dielectric constant tensor:
#      x y z
#    x 1.615980 0.000000 0.000000 
#    y 0.000000 1.596750 0.000000 
#    z 0.000000 0.000000 1.617620 
# 
# From -- ./inp_files/7707.got.cif
#   From: 2010.05.17/outbox.cif.g08.bks.cpg/sg55_4_cif.got.tgz:7707.got - 2010.06.03 13:27:54.
