data_PCOD9427565
_publ_section_title
;
Structure prediction by ZEFSAII (Michael W. Deem and Ramdas Pophale) SiO2 
 PCOD9427565
Probable space group: P B A M
;
_chemical_formula_sum "Si O2"
_cell_formula_units_Z 48
_cell_length_a 21.367538
_cell_length_b 15.379306
_cell_length_c 7.280805
_cell_angle_alpha 90.000000
_cell_angle_beta 90.000000
_cell_angle_gamma 90.000000
_cell_volume 2392.602888
_symmetry_space_group_name_H-M "P B A M"
_symmetry_group_IT_number 55
_symmetry_cell_setting 'orthorhombic'
loop_
_space_group_symop_operation_xyz
x,y,z
-x,-y,z
1/2+x,1/2-y,-z
1/2-x,1/2+y,-z
-x,-y,-z
x,y,-z
1/2-x,1/2+y,z
1/2+x,1/2-y,z
loop_
_atom_site_type_symbol
_atom_site_label
_atom_site_fract_x
_atom_site_fract_y
_atom_site_fract_z
Si Si1 0.567743 0.466418 0.276624
Si Si2 0.201659 0.589779 0.719894
Si Si3 0.969219 0.643518 0.000000
Si Si4 0.096213 0.233915 0.721380
Si Si5 0.805493 0.052140 0.277286
Si Si6 0.097074 0.542664 0.000000
Si Si7 0.239565 0.271555 0.722961
O O1 0.500000 0.500000 0.215711
O O2 0.567602 0.468206 0.500000
O O3 0.582319 0.366358 0.227748
O O4 0.624800 0.528024 0.215644
O O5 0.193339 0.586609 0.500000
O O6 0.259185 0.526705 0.767984
O O7 0.221303 0.686700 0.774974
O O8 0.140592 0.558340 0.824119
O O9 0.950691 0.701843 0.175062
O O10 0.928940 0.554991 0.000000
O O11 0.040175 0.610665 0.000000
O O12 0.091229 0.241150 0.500000
O O13 0.167120 0.259985 0.776535
O O14 0.807878 0.056782 0.500000
O O15 0.773716 0.141193 0.213368
O O16 0.238488 0.273456 0.500000
#
# Coordination Sequence:
#
# PCOD9427565 Si02
#       7
#     8   8   4   8   8   4   8
#     4   9  17  31  55  88 125 160 197 244 302 366
#     4  10  20  38  62  87 119 154 196 254 304 356
#     4  11  26  43  59  84 120 157 204 257 294 365
#     4  10  20  39  64  88 118 163 207 246 306 371
#     4   9  16  30  54  86 120 153 197 250 299 353
#     4  11  26  43  58  86 119 153 203 255 310 355
#     4   9  17  31  58  91 119 154 202 249 297 357
#
# _framework density 20.061833
#
# number of rings (size 3 to 8) (size 9 to 14) (size 15 to 20)
#    0.000    2.333    1.667    1.000    0.000    4.667 
#    0.000    6.250    0.000    0.000    0.000    0.000 
#    0.000    0.000    0.000    0.000    0.000    0.000 
#
# Total GULP energy -268210.626956 kJ/mol
# GULP energy per Si atom -5587.721395 kJ/mol
# Density = 2.001617 g / cm^3
# Si number density = 20.061833 Si / 1000 Ang^3
#
#
#
# Elastic Constant Matrix: (Units=GPa)
#
#
# Indices 1 2 3 4 5 6 
#
# 1 179.8913 92.8449 31.9528 0.0000 0.0000 0.0000
# 2 92.8449 161.8031 22.1383 0.0000 0.0000 0.0000
# 3 31.9528 22.1383 90.3420 0.0000 0.0000 0.0000
# 4 0.0000 0.0000 0.0000 33.0373 0.0000 0.0000
# 5 0.0000 0.0000 0.0000 0.0000 14.7916 0.0000
# 6 0.0000 0.0000 0.0000 0.0000 0.0000 32.4176
#
#
#
# Elastic Compliance Matrix: (Units=1/GPa)
#
#
# Indices 1 2 3 4 5 6 
#
# 1 0.008172 -0.004443 -0.001802 0.000000 0.000000 0.000000
# 2 -0.004443 0.008810 -0.000588 0.000000 0.000000 0.000000
# 3 -0.001802 -0.000588 0.011850 0.000000 0.000000 0.000000
# 4 0.000000 0.000000 0.000000 0.030269 0.000000 0.000000
# 5 0.000000 0.000000 0.000000 0.000000 0.067606 0.000000
# 6 0.000000 0.000000 0.000000 0.000000 0.000000 0.030847
#
#
# Mechanical properties :
#
#
# Convention : Reuss Voigt Hill
#
# Bulk Modulus (GPa) = 65.92640 80.65651 73.29145
# Shear Modulus (GPa) = 28.36494 35.05601 31.71047
#
# Velocity S-wave (km/s) = 3.76423 4.18472 3.98004
# Velocity P-wave (km/s) = 7.19900 7.97750 7.59822
#
# Compressibility (1/GPa) = 0.01516843
#
# Stress axis : x y z
#
# Youngs Moduli (GPa) = 122.37177 113.50771 84.38641
#
# Poissons Ratio (x) = 0.50427 0.15203
# Poissons Ratio (y) = 0.54365 0.04959
# Poissons Ratio (z) = 0.22047 0.06670
#
# Static dielectric constant tensor:
#      x y z
#    x 1.666180 0.000000 0.000000 
#    y 0.000000 1.674540 0.000000 
#    z 0.000000 0.000000 1.750570 
# 
# From -- ./inp_files/5699.got.cif
#   From: 2010.05.17/outbox.cif.g08.bks.cpg/sg55_3_cif.got.tgz:5699.got - 2010.06.03 13:27:54.
