data_PCOD9427209
_publ_section_title
;
Structure prediction by ZEFSAII (Michael W. Deem and Ramdas Pophale) SiO2 
 PCOD9427209
Probable space group: P B A M
;
_chemical_formula_sum "Si O2"
_cell_formula_units_Z 48
_cell_length_a 15.916503
_cell_length_b 18.457995
_cell_length_c 7.743131
_cell_angle_alpha 90.000000
_cell_angle_beta 90.000000
_cell_angle_gamma 90.000000
_cell_volume 2274.829158
_symmetry_space_group_name_H-M "P B A M"
_symmetry_group_IT_number 55
_symmetry_cell_setting 'orthorhombic'
loop_
_space_group_symop_operation_xyz
x,y,z
-x,-y,z
1/2+x,1/2-y,-z
1/2-x,1/2+y,-z
-x,-y,-z
x,y,-z
1/2-x,1/2+y,z
1/2+x,1/2-y,z
loop_
_atom_site_type_symbol
_atom_site_label
_atom_site_fract_x
_atom_site_fract_y
_atom_site_fract_z
Si Si1 0.907208 0.290395 0.296503
Si Si2 0.745314 0.205139 0.706880
Si Si3 0.747334 0.039573 0.288457
Si Si4 0.576125 0.290548 0.203341
Si Si5 0.580562 0.954277 0.288363
Si Si6 0.916272 0.959671 0.291642
O O1 0.889960 0.300087 0.500000
O O2 0.826018 0.248801 0.223465
O O3 0.920488 0.371351 0.226745
O O4 0.991508 0.243622 0.280558
O O5 0.755682 0.199595 0.500000
O O6 0.742562 0.122615 0.771355
O O7 0.659174 0.247739 0.738515
O O8 0.747604 0.039890 0.500000
O O9 0.665855 0.994250 0.235669
O O10 0.832520 0.000386 0.230795
O O11 0.583746 0.375196 0.246891
O O12 0.569013 0.282380 0.000000
O O13 0.578395 0.953791 0.500000
O O14 0.500000 0.000000 0.231235
O O15 0.916503 0.964493 0.500000
O O16 0.000000 0.000000 0.227946
#
# Coordination Sequence:
#
# PCOD9427209 Si02
#       6
#     8   8   8   8   8   8
#     4  10  20  36  59  83 108 145 195 246 288 330
#     4  10  20  37  62  87 111 144 191 243 288 334
#     4   9  17  31  55  85 109 133 176 237 293 332
#     4  12  25  38  55  83 122 161 190 225 283 353
#     4   9  16  27  48  78 107 134 171 226 285 331
#     4  10  20  37  61  85 109 142 191 244 287 332
#
# _framework density 21.100486
#
# number of rings (size 3 to 8) (size 9 to 14) (size 15 to 20)
#    0.000    2.000    0.000    4.500    0.000    9.000 
#    0.000    0.833    0.000    4.500    0.000    0.000 
#    0.000    0.000    0.000    0.000    0.000    0.000 
#
# Total GULP energy -268291.610508 kJ/mol
# GULP energy per Si atom -5589.408552 kJ/mol
# Density = 2.105246 g / cm^3
# Si number density = 21.100486 Si / 1000 Ang^3
#
#
#
# Elastic Constant Matrix: (Units=GPa)
#
#
# Indices 1 2 3 4 5 6 
#
# 1 128.7223 56.4854 -16.1919 0.0000 0.0000 0.0000
# 2 56.4854 167.6395 -8.5416 0.0000 0.0000 0.0000
# 3 -16.1919 -8.5416 24.7868 0.0000 0.0000 0.0000
# 4 0.0000 0.0000 0.0000 -33.4842 0.0000 0.0000
# 5 0.0000 0.0000 0.0000 0.0000 30.1347 0.0000
# 6 0.0000 0.0000 0.0000 0.0000 0.0000 658.4740
#
#
#
# Elastic Compliance Matrix: (Units=1/GPa)
#
#
# Indices 1 2 3 4 5 6 
#
# 1 0.009765 -0.003018 0.005339 0.000000 0.000000 0.000000
# 2 -0.003018 0.007005 0.000442 0.000000 0.000000 0.000000
# 3 0.005339 0.000442 0.043984 0.000000 0.000000 0.000000
# 4 0.000000 0.000000 0.000000 -0.029865 0.000000 0.000000
# 5 0.000000 0.000000 0.000000 0.000000 0.033184 0.000000
# 6 0.000000 0.000000 0.000000 0.000000 0.000000 0.001519
#
#
# Mechanical properties :
#
#
# Convention : Reuss Voigt Hill
#
# Bulk Modulus (GPa) = 15.08782 42.73917 28.91350
# Shear Modulus (GPa) = 60.85782 150.31800 105.58791
#
# Velocity S-wave (km/s) = 5.37629 8.44948 7.08161
# Velocity P-wave (km/s) = 6.76057 10.74666 8.97764
#
# Compressibility (1/GPa) = 0.06627863
#
# Stress axis : x y z
#
# Youngs Moduli (GPa) = 102.41063 142.76204 22.73561
#
# Poissons Ratio (x) = 0.43087 -0.12138
# Poissons Ratio (y) = 0.30909 -0.01005
# Poissons Ratio (z) = -0.54673 -0.06313
#
# Static dielectric constant tensor:
#      x y z
#    x 1.735910 0.000000 0.000000 
#    y 0.000000 1.729870 0.000000 
#    z 0.000000 0.000000 1.754820 
# 
# From -- ./inp_files/5612.got.cif
#   From: 2010.05.17/outbox.cif.g08.bks.cpg/sg55_3_cif.got.tgz:5612.got - 2010.06.03 13:27:54.
