data_PCOD9427885
_publ_section_title
;
Structure prediction by ZEFSAII (Michael W. Deem and Ramdas Pophale) SiO2 
 PCOD9427885
Probable space group: P B A M
;
_chemical_formula_sum "Si O2"
_cell_formula_units_Z 64
_cell_length_a 11.873239
_cell_length_b 29.667381
_cell_length_c 9.227284
_cell_angle_alpha 90.000000
_cell_angle_beta 90.000000
_cell_angle_gamma 90.000000
_cell_volume 3250.291459
_symmetry_space_group_name_H-M "P B A M"
_symmetry_group_IT_number 55
_symmetry_cell_setting 'orthorhombic'
loop_
_space_group_symop_operation_xyz
x,y,z
-x,-y,z
1/2+x,1/2-y,-z
1/2-x,1/2+y,-z
-x,-y,-z
x,y,-z
1/2-x,1/2+y,z
1/2+x,1/2-y,z
loop_
_atom_site_type_symbol
_atom_site_label
_atom_site_fract_x
_atom_site_fract_y
_atom_site_fract_z
Si Si1 0.529095 0.935252 0.836664
Si Si2 0.277409 0.521474 0.830976
Si Si3 0.141493 0.107969 0.671877
Si Si4 0.694145 0.061524 0.671795
Si Si5 0.283612 0.833408 0.327626
Si Si6 0.156538 0.656783 0.168801
Si Si7 0.972134 0.725741 0.826940
Si Si8 0.025369 0.814795 0.670743
O O1 0.647852 0.960541 0.821144
O O2 0.434081 0.947606 0.722747
O O3 0.562600 0.882772 0.824316
O O4 0.485347 0.943742 0.000000
O O5 0.349359 0.560321 0.753005
O O6 0.275344 0.473478 0.752564
O O7 0.306235 0.518174 0.000000
O O8 0.155164 0.101054 0.500000
O O9 0.242060 0.139884 0.731850
O O10 0.028611 0.136323 0.699266
O O11 0.705536 0.056068 0.500000
O O12 0.714572 0.113654 0.710864
O O13 0.307815 0.830342 0.500000
O O14 0.374421 0.804569 0.241519
O O15 0.158067 0.815684 0.301476
O O16 0.092449 0.702341 0.210595
O O17 0.193623 0.659052 0.000000
O O18 0.968747 0.775803 0.764224
O O19 0.962892 0.725499 0.000000
O O20 0.006510 0.805368 0.500000
#
# Coordination Sequence:
#
# PCOD9427885 Si02
#       8
#     8   8   8   8   8   8   8   8
#     4   9  17  32  51  76 115 157 188 227 291 352
#     4  10  21  36  56  82 118 160 196 240 300 360
#     4  10  21  38  61  86 114 153 202 250 292 346
#     4  11  21  33  55  86 116 152 199 248 294 349
#     4  10  23  43  63  87 122 160 200 247 300 357
#     4   9  19  35  55  83 120 155 186 233 295 353
#     4  11  23  39  62  91 120 153 196 244 299 360
#     4  10  24  44  63  85 118 159 201 248 301 354
#
# _framework density 19.690542000000001
#
# number of rings (size 3 to 8) (size 9 to 14) (size 15 to 20)
#    0.000    2.000    1.250    2.625    1.750    7.000 
#    0.000    0.625    0.000    3.750    0.000    0.000 
#    0.000    0.000    0.000    0.000    0.000    0.000 
#
# Total GULP energy -357487.337476 kJ/mol
# GULP energy per Si atom -5585.739648 kJ/mol
# Density = 1.964573 g / cm^3
# Si number density = 19.690542 Si / 1000 Ang^3
#
#
#
# Elastic Constant Matrix: (Units=GPa)
#
#
# Indices 1 2 3 4 5 6 
#
# 1 25.1759 5.2894 19.2935 0.0000 0.0000 0.0000
# 2 5.2894 87.3015 40.8886 0.0000 0.0000 0.0000
# 3 19.2935 40.8886 62.5957 0.0000 0.0000 0.0000
# 4 0.0000 0.0000 0.0000 27.7246 0.0000 0.0000
# 5 0.0000 0.0000 0.0000 0.0000 -34.9405 0.0000
# 6 0.0000 0.0000 0.0000 0.0000 0.0000 13.1367
#
#
#
# Elastic Compliance Matrix: (Units=1/GPa)
#
#
# Indices 1 2 3 4 5 6 
#
# 1 0.054507 0.006579 -0.021098 0.000000 0.000000 0.000000
# 2 0.006579 0.017298 -0.013327 0.000000 0.000000 0.000000
# 3 -0.021098 -0.013327 0.031184 0.000000 0.000000 0.000000
# 4 0.000000 0.000000 0.000000 0.036069 0.000000 0.000000
# 5 0.000000 0.000000 0.000000 0.000000 -0.028620 0.000000
# 6 0.000000 0.000000 0.000000 0.000000 0.000000 0.076122
#
#
# Mechanical properties :
#
#
# Convention : Reuss Voigt Hill
#
# Bulk Modulus (GPa) = 21.14319 34.00178 27.57249
# Shear Modulus (GPa) = 19.37859 8.49093 13.93476
#
# Velocity S-wave (km/s) = 3.14053 2.07883 2.66313
# Velocity P-wave (km/s) = 4.88995 4.80288 4.84661
#
# Compressibility (1/GPa) = 0.04729655
#
# Stress axis : x y z
#
# Youngs Moduli (GPa) = 18.34642 57.81075 32.06789
#
# Poissons Ratio (x) = -0.38033 0.67656
# Poissons Ratio (y) = -0.12070 0.42737
# Poissons Ratio (z) = 0.38707 0.77045
#
# Static dielectric constant tensor:
#      x y z
#    x 1.675520 0.000000 0.000000 
#    y 0.000000 1.708530 0.000000 
#    z 0.000000 0.000000 1.659300 
# 
# From -- ./inp_files/4683.got.cif
#   From: 2010.05.17/outbox.cif.g08.bks.cpg/sg55_3_cif.got.tgz:4683.got - 2010.06.03 13:27:54.
