data_PCOD9427888
_publ_section_title
;
Structure prediction by ZEFSAII (Michael W. Deem and Ramdas Pophale) SiO2 
 PCOD9427888
Probable space group: P B A M
;
_chemical_formula_sum "Si O2"
_cell_formula_units_Z 64
_cell_length_a 19.608593
_cell_length_b 16.993631
_cell_length_c 7.640735
_cell_angle_alpha 90.000000
_cell_angle_beta 90.000000
_cell_angle_gamma 90.000000
_cell_volume 2546.054839
_symmetry_space_group_name_H-M "P B A M"
_symmetry_group_IT_number 55
_symmetry_cell_setting 'orthorhombic'
loop_
_space_group_symop_operation_xyz
x,y,z
-x,-y,z
1/2+x,1/2-y,-z
1/2-x,1/2+y,-z
-x,-y,-z
x,y,-z
1/2-x,1/2+y,z
1/2+x,1/2-y,z
loop_
_atom_site_type_symbol
_atom_site_label
_atom_site_fract_x
_atom_site_fract_y
_atom_site_fract_z
Si Si1 0.092037 0.402461 0.705566
Si Si2 0.790749 0.497711 0.794479
Si Si3 0.607682 0.417568 0.295161
Si Si4 0.530443 0.651537 0.212587
Si Si5 0.331630 0.747519 0.292675
Si Si6 0.540744 0.824485 0.210201
Si Si7 0.696829 0.825623 0.788207
Si Si8 0.667384 0.581980 0.801729
O O1 0.104440 0.406166 0.500000
O O2 0.130811 0.477632 0.780718
O O3 0.131005 0.324770 0.779959
O O4 0.011901 0.391165 0.733646
O O5 0.777476 0.411035 0.722854
O O6 0.740913 0.564577 0.717930
O O7 0.774279 0.494662 0.000000
O O8 0.625195 0.426208 0.500000
O O9 0.526512 0.407653 0.278277
O O10 0.638264 0.335270 0.223192
O O11 0.634728 0.494176 0.197648
O O12 0.510722 0.739868 0.265748
O O13 0.606865 0.633500 0.277460
O O14 0.531726 0.647134 0.000000
O O15 0.345035 0.746980 0.500000
O O16 0.250260 0.741041 0.265371
O O17 0.618662 0.823255 0.271938
O O18 0.542909 0.826397 0.000000
O O19 0.695776 0.825809 0.000000
O O20 0.677320 0.612502 0.000000
#
# Coordination Sequence:
#
# PCOD9427888 Si02
#       8
#     8   8   8   8   8   8   8   8
#     4  11  24  42  62  87 120 159 199 241 293 352
#     4  10  22  40  62  89 119 154 196 248 298 347
#     4  11  21  36  58  84 119 159 197 238 289 352
#     4  10  21  36  56  84 119 155 195 242 292 351
#     4  10  22  39  59  86 120 155 194 240 290 350
#     4  10  22  40  62  88 115 151 197 247 296 348
#     4  10  22  40  65  92 118 152 198 246 297 350
#     4  10  21  37  57  87 122 156 197 242 293 352
#
# _framework density 25.136928999999999
#
# number of rings (size 3 to 8) (size 9 to 14) (size 15 to 20)
#    0.000    1.750    2.500    1.125    1.750    5.500 
#    0.000    2.500    0.000    0.000    0.000    0.000 
#    0.000    0.000    0.000    0.000    0.000    0.000 
#
# Total GULP energy -357931.112024 kJ/mol
# GULP energy per Si atom -5592.673625 kJ/mol
# Density = 2.507972 g / cm^3
# Si number density = 25.136929 Si / 1000 Ang^3
#
#
#
# Elastic Constant Matrix: (Units=GPa)
#
#
# Indices 1 2 3 4 5 6 
#
# 1 120.6531 -1.1325 -6.5412 0.0000 0.0000 0.0000
# 2 -1.1325 45.4935 -0.1238 0.0000 0.0000 0.0000
# 3 -6.5412 -0.1238 63.3671 0.0000 0.0000 0.0000
# 4 0.0000 0.0000 0.0000 1.9310 0.0000 0.0000
# 5 0.0000 0.0000 0.0000 0.0000 33.3274 0.0000
# 6 0.0000 0.0000 0.0000 0.0000 0.0000 45.7645
#
#
#
# Elastic Compliance Matrix: (Units=1/GPa)
#
#
# Indices 1 2 3 4 5 6 
#
# 1 0.008337 0.000210 0.000861 0.000000 0.000000 0.000000
# 2 0.000210 0.021987 0.000065 0.000000 0.000000 0.000000
# 3 0.000861 0.000065 0.015870 0.000000 0.000000 0.000000
# 4 0.000000 0.000000 0.000000 0.517864 0.000000 0.000000
# 5 0.000000 0.000000 0.000000 0.000000 0.030005 0.000000
# 6 0.000000 0.000000 0.000000 0.000000 0.000000 0.021851
#
#
# Mechanical properties :
#
#
# Convention : Reuss Voigt Hill
#
# Bulk Modulus (GPa) = 20.63362 23.76871 22.20117
# Shear Modulus (GPa) = 7.93905 32.02532 19.98218
#
# Velocity S-wave (km/s) = 1.77910 3.57323 2.82252
# Velocity P-wave (km/s) = 3.52797 5.14784 4.41287
#
# Compressibility (1/GPa) = 0.04846459
#
# Stress axis : x y z
#
# Youngs Moduli (GPa) = 119.94902 45.48228 63.01169
#
# Poissons Ratio (x) = -0.00955 -0.05425
# Poissons Ratio (y) = -0.02518 -0.00407
# Poissons Ratio (z) = -0.10328 -0.00294
#
# Static dielectric constant tensor:
#      x y z
#    x 2.037510 0.000000 0.000000 
#    y 0.000000 1.987140 0.000000 
#    z 0.000000 0.000000 1.929500 
# 
# From -- ./inp_files/8074.got.cif
#   From: 2010.05.17/outbox.cif.g08.bks.cpg/sg55_5_cif.got.tgz:8074.got - 2010.06.03 13:27:54.
