data_PCOD9427230
_publ_section_title
;
Structure prediction by ZEFSAII (Michael W. Deem and Ramdas Pophale) SiO2 
 PCOD9427230
Probable space group: P B A M
;
_chemical_formula_sum "Si O2"
_cell_formula_units_Z 56
_cell_length_a 20.430573
_cell_length_b 16.573559
_cell_length_c 8.685327
_cell_angle_alpha 90.000000
_cell_angle_beta 90.000000
_cell_angle_gamma 90.000000
_cell_volume 2940.915186
_symmetry_space_group_name_H-M "P B A M"
_symmetry_group_IT_number 55
_symmetry_cell_setting 'orthorhombic'
loop_
_space_group_symop_operation_xyz
x,y,z
-x,-y,z
1/2+x,1/2-y,-z
1/2-x,1/2+y,-z
-x,-y,-z
x,y,-z
1/2-x,1/2+y,z
1/2+x,1/2-y,z
loop_
_atom_site_type_symbol
_atom_site_label
_atom_site_fract_x
_atom_site_fract_y
_atom_site_fract_z
Si Si1 0.173349 0.516690 0.814508
Si Si2 0.177665 0.995698 0.814464
Si Si3 0.840115 0.659326 0.685453
Si Si4 0.100375 0.678173 0.815281
Si Si5 0.191233 0.819084 0.315295
Si Si6 0.470380 0.750881 0.684193
Si Si7 0.544412 0.423296 0.185258
O O1 0.250035 0.526784 0.771877
O O2 0.151077 0.431348 0.746731
O O3 0.130534 0.592682 0.763767
O O4 0.170317 0.512008 0.000000
O O5 0.118875 0.054791 0.770249
O O6 0.169000 0.907623 0.740406
O O7 0.175293 0.986237 0.000000
O O8 0.840172 0.656917 0.500000
O O9 0.767625 0.688390 0.733177
O O10 0.899649 0.715762 0.736408
O O11 0.147227 0.749801 0.757419
O O12 0.028398 0.695040 0.751387
O O13 0.098820 0.679175 0.000000
O O14 0.187242 0.814880 0.500000
O O15 0.473030 0.753655 0.500000
O O16 0.478614 0.659272 0.739473
O O17 0.500000 0.500000 0.227471
O O18 0.541034 0.414359 0.000000
#
# Coordination Sequence:
#
# PCOD9427230 Si02
#       7
#     8   8   8   8   8   8   8
#     4   9  20  37  58  84 111 148 196 240 284 339
#     4   9  18  35  57  83 115 149 188 234 287 342
#     4   9  21  40  59  84 117 151 190 237 289 345
#     4  11  23  38  57  84 116 150 194 241 287 339
#     4  10  20  36  59  86 116 151 190 234 287 343
#     4  11  24  40  58  84 117 154 195 236 287 348
#     4  10  21  36  57  85 118 152 189 235 289 345
#
# _framework density 19.041691
#
# number of rings (size 3 to 8) (size 9 to 14) (size 15 to 20)
#    0.000    2.143    0.000    2.143    2.000    5.429 
#    0.000    2.857    0.000    0.000    0.000    0.000 
#    0.000    0.000    0.000    0.000    0.000    0.000 
#
# Total GULP energy -312802.735137 kJ/mol
# GULP energy per Si atom -5585.763127 kJ/mol
# Density = 1.899835 g / cm^3
# Si number density = 19.041691 Si / 1000 Ang^3
#
#
#
# Elastic Constant Matrix: (Units=GPa)
#
#
# Indices 1 2 3 4 5 6 
#
# 1 54.8094 10.6822 12.7891 0.0000 0.0000 0.0000
# 2 10.6822 19.2940 3.1021 0.0000 0.0000 0.0000
# 3 12.7891 3.1021 16.6823 0.0000 0.0000 0.0000
# 4 0.0000 0.0000 0.0000 45.1253 0.0000 0.0000
# 5 0.0000 0.0000 0.0000 0.0000 23.6216 0.0000
# 6 0.0000 0.0000 0.0000 0.0000 0.0000 35.5482
#
#
#
# Elastic Compliance Matrix: (Units=1/GPa)
#
#
# Indices 1 2 3 4 5 6 
#
# 1 0.024201 -0.010737 -0.016557 0.000000 0.000000 0.000000
# 2 -0.010737 0.058191 -0.002590 0.000000 0.000000 0.000000
# 3 -0.016557 -0.002590 0.073118 0.000000 0.000000 0.000000
# 4 0.000000 0.000000 0.000000 0.022161 0.000000 0.000000
# 5 0.000000 0.000000 0.000000 0.000000 0.042334 0.000000
# 6 0.000000 0.000000 0.000000 0.000000 0.000000 0.028131
#
#
# Mechanical properties :
#
#
# Convention : Reuss Voigt Hill
#
# Bulk Modulus (GPa) = 10.44457 15.99251 13.21854
# Shear Modulus (GPa) = 14.71386 25.13983 19.92684
#
# Velocity S-wave (km/s) = 2.78280 3.63747 3.23845
# Velocity P-wave (km/s) = 3.97772 5.10475 4.57607
#
# Compressibility (1/GPa) = 0.09574357
#
# Stress axis : x y z
#
# Youngs Moduli (GPa) = 41.32070 17.18492 13.67648
#
# Poissons Ratio (x) = 0.18451 0.22644
# Poissons Ratio (y) = 0.44366 0.03542
# Poissons Ratio (z) = 0.68413 0.04450
#
# Static dielectric constant tensor:
#      x y z
#    x 1.675010 0.000000 0.000000 
#    y 0.000000 1.618090 0.000000 
#    z 0.000000 0.000000 1.641730 
# 
# From -- ./inp_files/8673.got.cif
#   From: 2010.05.17/outbox.cif.g08.bks.cpg/sg55_5_cif.got.tgz:8673.got - 2010.06.03 13:27:54.
