data_PCOD9427767
_publ_section_title
;
Structure prediction by ZEFSAII (Michael W. Deem and Ramdas Pophale) SiO2 
 PCOD9427767
Probable space group: P B A M
;
_chemical_formula_sum "Si O2"
_cell_formula_units_Z 56
_cell_length_a 22.692746
_cell_length_b 14.867580
_cell_length_c 8.946492
_cell_angle_alpha 90.000000
_cell_angle_beta 90.000000
_cell_angle_gamma 90.000000
_cell_volume 3018.423087
_symmetry_space_group_name_H-M "P B A M"
_symmetry_group_IT_number 55
_symmetry_cell_setting 'orthorhombic'
loop_
_space_group_symop_operation_xyz
x,y,z
-x,-y,z
1/2+x,1/2-y,-z
1/2-x,1/2+y,-z
-x,-y,-z
x,y,-z
1/2-x,1/2+y,z
1/2+x,1/2-y,z
loop_
_atom_site_type_symbol
_atom_site_label
_atom_site_fract_x
_atom_site_fract_y
_atom_site_fract_z
Si Si1 0.150480 0.098873 0.678518
Si Si2 0.856073 0.089584 0.820706
Si Si3 0.782453 0.604496 0.175046
Si Si4 0.504639 0.104103 0.819259
Si Si5 0.891049 0.282066 0.817892
Si Si6 0.113451 0.292001 0.677904
Si Si7 0.221387 0.604253 0.177323
O O1 0.151949 0.093014 0.500000
O O2 0.113411 0.186907 0.722092
O O3 0.216963 0.113545 0.738589
O O4 0.128480 0.004693 0.745425
O O5 0.786897 0.109663 0.789123
O O6 0.891697 0.177813 0.772266
O O7 0.860658 0.079109 0.000000
O O8 0.824019 0.666407 0.272952
O O9 0.799144 0.499392 0.193076
O O10 0.789695 0.628360 0.000000
O O11 0.447112 0.160037 0.770280
O O12 0.562544 0.151407 0.756492
O O13 0.500000 0.000000 0.773005
O O14 0.506958 0.105755 0.000000
O O15 0.830160 0.329653 0.770906
O O16 0.890063 0.283225 0.000000
O O17 0.107184 0.297917 0.500000
O O18 0.232093 0.619086 0.000000
#
# Coordination Sequence:
#
# PCOD9427767 Si02
#       7
#     8   8   8   8   8   8   8
#     4  10  21  35  50  74 108 141 174 211 253 304
#     4   9  18  33  54  79 104 132 170 214 259 306
#     4   9  17  30  52  80 106 135 170 210 259 310
#     4  10  21  38  59  80 103 133 170 213 259 307
#     4   9  17  32  55  80 103 130 170 217 259 303
#     4  11  23  36  51  74 106 143 178 212 253 303
#     4   9  17  32  55  81 108 136 167 208 260 313
#
# _framework density 18.552734999999998
#
# number of rings (size 3 to 8) (size 9 to 14) (size 15 to 20)
#    0.000    2.429    0.000    3.429    0.000    8.286 
#    0.000    2.857    0.000    4.286    0.000    0.000 
#    0.000    0.000    0.000    0.000    0.000    0.000 
#
# Total GULP energy -312545.429260 kJ/mol
# GULP energy per Si atom -5581.168380 kJ/mol
# Density = 1.851051 g / cm^3
# Si number density = 18.552735 Si / 1000 Ang^3
#
#
#
# Elastic Constant Matrix: (Units=GPa)
#
#
# Indices 1 2 3 4 5 6 
#
# 1 40.7997 67.9846 21.7587 0.0000 0.0000 0.0000
# 2 67.9846 173.0839 46.4178 0.0000 0.0000 0.0000
# 3 21.7587 46.4178 20.0809 0.0000 0.0000 0.0000
# 4 0.0000 0.0000 0.0000 3.8788 0.0000 0.0000
# 5 0.0000 0.0000 0.0000 0.0000 -6.1045 0.0000
# 6 0.0000 0.0000 0.0000 0.0000 0.0000 32.2199
#
#
#
# Elastic Compliance Matrix: (Units=1/GPa)
#
#
# Indices 1 2 3 4 5 6 
#
# 1 0.080211 -0.021567 -0.037061 0.000000 0.000000 0.000000
# 2 -0.021567 0.020999 -0.025172 0.000000 0.000000 0.000000
# 3 -0.037061 -0.025172 0.148141 0.000000 0.000000 0.000000
# 4 0.000000 0.000000 0.000000 0.257811 0.000000 0.000000
# 5 0.000000 0.000000 0.000000 0.000000 -0.163812 0.000000
# 6 0.000000 0.000000 0.000000 0.000000 0.000000 0.031037
#
#
# Mechanical properties :
#
#
# Convention : Reuss Voigt Hill
#
# Bulk Modulus (GPa) = 12.23190 56.25406 34.24298
# Shear Modulus (GPa) = 8.78369 12.51907 10.65138
#
# Velocity S-wave (km/s) = 2.17824 2.60048 2.39867
# Velocity P-wave (km/s) = 3.59634 6.27723 5.11553
#
# Compressibility (1/GPa) = 0.08175347
#
# Stress axis : x y z
#
# Youngs Moduli (GPa) = 12.46709 47.62078 6.75031
#
# Poissons Ratio (x) = 1.02703 0.25017
# Poissons Ratio (y) = 0.26887 0.16992
# Poissons Ratio (z) = 0.46204 1.19871
#
# Static dielectric constant tensor:
#      x y z
#    x 1.616700 0.000000 0.000000 
#    y 0.000000 1.662760 0.000000 
#    z 0.000000 0.000000 1.618300 
# 
# From -- ./inp_files/8753.got.cif
#   From: 2010.05.17/outbox.cif.g08.bks.cpg/sg55_5_cif.got.tgz:8753.got - 2010.06.03 13:27:54.
