data_PCOD9427973
_publ_section_title
;
Structure prediction by ZEFSAII (Michael W. Deem and Ramdas Pophale) SiO2 
 PCOD9427973
Probable space group: P B A M
;
_chemical_formula_sum "Si O2"
_cell_formula_units_Z 40
_cell_length_a 7.903046
_cell_length_b 16.745721
_cell_length_c 13.177068
_cell_angle_alpha 90.000000
_cell_angle_beta 90.000000
_cell_angle_gamma 90.000000
_cell_volume 1743.882213
_symmetry_space_group_name_H-M "P B A M"
_symmetry_group_IT_number 55
_symmetry_cell_setting 'orthorhombic'
loop_
_space_group_symop_operation_xyz
x,y,z
-x,-y,z
1/2+x,1/2-y,-z
1/2-x,1/2+y,-z
-x,-y,-z
x,y,-z
1/2-x,1/2+y,z
1/2+x,1/2-y,z
loop_
_atom_site_type_symbol
_atom_site_label
_atom_site_fract_x
_atom_site_fract_y
_atom_site_fract_z
Si Si1 0.885621 0.877232 0.500000
Si Si2 0.413768 0.874071 0.693002
Si Si3 0.243659 0.293806 0.884772
Si Si4 0.610924 0.376230 0.885354
Si Si5 0.970697 0.282572 0.500000
Si Si6 0.227645 0.034110 0.694251
O O1 0.033648 0.812714 0.500000
O O2 0.712432 0.824128 0.500000
O O3 0.875108 0.929799 0.600579
O O4 0.371421 0.830067 0.797152
O O5 0.432432 0.812983 0.600342
O O6 0.591316 0.920716 0.695939
O O7 0.270905 0.941650 0.678696
O O8 0.427825 0.333903 0.875591
O O9 0.240672 0.198066 0.872659
O O10 0.181407 0.309322 0.000000
O O11 0.643356 0.441677 0.800250
O O12 0.626965 0.408033 0.000000
#
# Coordination Sequence:
#
# PCOD9427973 Si02
#       6
#     4   8   8   8   4   8
#     4  10  21  37  57  81 109 142 181 224 270 320
#     4  10  21  37  57  81 111 146 182 222 270 324
#     4  10  21  37  57  81 110 144 183 227 272 320
#     4  10  21  37  57  81 110 144 183 227 272 320
#     4  10  21  37  57  81 109 142 181 224 270 320
#     4  10  21  37  57  81 111 146 182 222 270 324
#
# _framework density 22.937328000000001
#
# number of rings (size 3 to 8) (size 9 to 14) (size 15 to 20)
#    0.000    2.000    0.000    3.000    0.000   11.200 
#    0.000    4.000    0.000    3.600    0.000    0.000 
#    0.000    0.000    0.000    0.000    0.000    0.000 
#
# Total GULP energy -223975.324231 kJ/mol
# GULP energy per Si atom -5599.383106 kJ/mol
# Density = 2.288512 g / cm^3
# Si number density = 22.937328 Si / 1000 Ang^3
#
#
#
# Elastic Constant Matrix: (Units=GPa)
#
#
# Indices 1 2 3 4 5 6 
#
# 1 77.5691 18.0011 36.7791 0.0000 0.0000 0.0000
# 2 18.0011 65.7315 33.1404 0.0000 0.0000 0.0000
# 3 36.7791 33.1404 113.5445 0.0000 0.0000 0.0000
# 4 0.0000 0.0000 0.0000 90.3757 0.0000 0.0000
# 5 0.0000 0.0000 0.0000 0.0000 25.5409 0.0000
# 6 0.0000 0.0000 0.0000 0.0000 0.0000 42.8596
#
#
#
# Elastic Compliance Matrix: (Units=1/GPa)
#
#
# Indices 1 2 3 4 5 6 
#
# 1 0.015453 -0.002003 -0.004421 0.000000 0.000000 0.000000
# 2 -0.002003 0.018098 -0.004634 0.000000 0.000000 0.000000
# 3 -0.004421 -0.004634 0.011591 0.000000 0.000000 0.000000
# 4 0.000000 0.000000 0.000000 0.011065 0.000000 0.000000
# 5 0.000000 0.000000 0.000000 0.000000 0.039153 0.000000
# 6 0.000000 0.000000 0.000000 0.000000 0.000000 0.023332
#
#
# Mechanical properties :
#
#
# Convention : Reuss Voigt Hill
#
# Bulk Modulus (GPa) = 43.42606 48.07628 45.75117
# Shear Modulus (GPa) = 33.67401 43.01686 38.34544
#
# Velocity S-wave (km/s) = 3.83572 4.33530 4.09314
# Velocity P-wave (km/s) = 6.21213 6.78713 6.50598
#
# Compressibility (1/GPa) = 0.02302765
#
# Stress axis : x y z
#
# Youngs Moduli (GPa) = 64.71378 55.25460 86.27022
#
# Poissons Ratio (x) = 0.11067 0.38138
# Poissons Ratio (y) = 0.12962 0.39973
# Poissons Ratio (z) = 0.28609 0.25602
#
# Static dielectric constant tensor:
#      x y z
#    x 1.897700 0.000000 0.000000 
#    y 0.000000 1.809960 0.000000 
#    z 0.000000 0.000000 1.794140 
# 
# From -- ./inp_files/11903.got.cif
#   From: 2010.05.17/outbox.cif.g08.bks.cpg/sg55_6_cif.got.tgz:11903.got - 2010.06.03 13:27:54.
