data_PCOD9427495
_publ_section_title
;
Structure prediction by ZEFSAII (Michael W. Deem and Ramdas Pophale) SiO2 
 PCOD9427495
Probable space group: P B A M
;
_chemical_formula_sum "Si O2"
_cell_formula_units_Z 64
_cell_length_a 23.914464
_cell_length_b 15.520340
_cell_length_c 9.043625
_cell_angle_alpha 90.000000
_cell_angle_beta 90.000000
_cell_angle_gamma 90.000000
_cell_volume 3356.637391
_symmetry_space_group_name_H-M "P B A M"
_symmetry_group_IT_number 55
_symmetry_cell_setting 'orthorhombic'
loop_
_space_group_symop_operation_xyz
x,y,z
-x,-y,z
1/2+x,1/2-y,-z
1/2-x,1/2+y,-z
-x,-y,-z
x,y,-z
1/2-x,1/2+y,z
1/2+x,1/2-y,z
loop_
_atom_site_type_symbol
_atom_site_label
_atom_site_fract_x
_atom_site_fract_y
_atom_site_fract_z
Si Si1 0.673005 0.742539 0.175038
Si Si2 0.375364 0.603476 0.323974
Si Si3 0.615734 0.923399 0.823358
Si Si4 0.006687 0.355808 0.172200
Si Si5 0.492290 0.651198 0.173130
Si Si6 0.194384 0.248835 0.824974
Si Si7 0.877713 0.601129 0.324556
Si Si8 0.603477 0.591979 0.324499
O O1 0.648494 0.836112 0.214927
O O2 0.739432 0.741597 0.196285
O O3 0.642637 0.667900 0.265285
O O4 0.660837 0.729527 0.000000
O O5 0.374459 0.618094 0.500000
O O6 0.435184 0.632370 0.258912
O O7 0.328651 0.661081 0.246045
O O8 0.370233 0.501680 0.295367
O O9 0.550107 0.906258 0.792573
O O10 0.636349 0.006464 0.736317
O O11 0.621401 0.937424 0.000000
O O12 0.995270 0.253547 0.184232
O O13 0.058853 0.379714 0.272955
O O14 0.021358 0.373595 0.000000
O O15 0.543971 0.600424 0.243224
O O16 0.485814 0.630274 0.000000
O O17 0.161245 0.327082 0.749918
O O18 0.182300 0.248474 0.000000
O O19 0.873045 0.605447 0.500000
O O20 0.594616 0.600159 0.500000
#
# Coordination Sequence:
#
# PCOD9427495 Si02
#       8
#     8   8   8   8   8   8   8   8
#     4  10  23  44  67  90 117 157 212 261 303 356
#     4  11  24  41  61  91 128 164 201 249 309 370
#     4  10  21  41  65  90 122 157 199 253 305 355
#     4  10  20  37  63  91 123 159 199 249 303 357
#     4  11  21  37  64  94 124 162 206 249 300 362
#     4  11  24  43  66  89 117 159 210 261 306 356
#     4  12  25  39  60  92 128 162 200 245 301 373
#     4  11  24  40  62  93 131 165 197 246 310 367
#
# _framework density 19.066700999999998
#
# number of rings (size 3 to 8) (size 9 to 14) (size 15 to 20)
#    0.000    1.250    2.500    3.375    0.000    8.500 
#    0.000    3.750    0.000    0.000    0.000    0.000 
#    0.000    0.000    0.000    0.000    0.000    0.000 
#
# Total GULP energy -358020.641314 kJ/mol
# GULP energy per Si atom -5594.072521 kJ/mol
# Density = 1.902330 g / cm^3
# Si number density = 19.066701 Si / 1000 Ang^3
#
#
#
# Elastic Constant Matrix: (Units=GPa)
#
#
# Indices 1 2 3 4 5 6 
#
# 1 50.3836 17.7871 38.2838 0.0000 0.0000 0.0000
# 2 17.7871 79.4500 42.6964 0.0000 0.0000 0.0000
# 3 38.2838 42.6964 80.7164 0.0000 0.0000 0.0000
# 4 0.0000 0.0000 0.0000 45.3592 0.0000 0.0000
# 5 0.0000 0.0000 0.0000 0.0000 -7.1292 0.0000
# 6 0.0000 0.0000 0.0000 0.0000 0.0000 0.8871
#
#
#
# Elastic Compliance Matrix: (Units=1/GPa)
#
#
# Indices 1 2 3 4 5 6 
#
# 1 0.031134 0.001349 -0.015481 0.000000 0.000000 0.000000
# 2 0.001349 0.017644 -0.009973 0.000000 0.000000 0.000000
# 3 -0.015481 -0.009973 0.025007 0.000000 0.000000 0.000000
# 4 0.000000 0.000000 0.000000 0.022046 0.000000 0.000000
# 5 0.000000 0.000000 0.000000 0.000000 -0.140268 0.000000
# 6 0.000000 0.000000 0.000000 0.000000 0.000000 1.127228
#
#
# Mechanical properties :
#
#
# Convention : Reuss Voigt Hill
#
# Bulk Modulus (GPa) = 39.09897 45.34272 42.22085
# Shear Modulus (GPa) = 4.38779 15.27562 9.83170
#
# Velocity S-wave (km/s) = 1.51864 2.83356 2.27325
# Velocity P-wave (km/s) = 4.86066 5.87692 5.39278
#
# Compressibility (1/GPa) = 0.02557612
#
# Stress axis : x y z
#
# Youngs Moduli (GPa) = 32.11889 56.67665 39.98912
#
# Poissons Ratio (x) = -0.07645 0.61905
# Poissons Ratio (y) = -0.04333 0.39881
# Poissons Ratio (z) = 0.49722 0.56523
#
# Static dielectric constant tensor:
#      x y z
#    x 1.628840 0.000000 0.000000 
#    y 0.000000 1.663330 0.000000 
#    z 0.000000 0.000000 1.638140 
# 
# From -- ./inp_files/6574.got.cif
#   From: 2010.05.17/outbox.cif.g08.bks.cpg/sg55_4_cif.got.tgz:6574.got - 2010.06.03 13:27:54.
