data_PCOD9427589
_publ_section_title
;
Structure prediction by ZEFSAII (Michael W. Deem and Ramdas Pophale) SiO2 
 PCOD9427589
Probable space group: P B A M
;
_chemical_formula_sum "Si O2"
_cell_formula_units_Z 64
_cell_length_a 15.188135
_cell_length_b 25.250429
_cell_length_c 8.176726
_cell_angle_alpha 90.000000
_cell_angle_beta 90.000000
_cell_angle_gamma 90.000000
_cell_volume 3135.831040
_symmetry_space_group_name_H-M "P B A M"
_symmetry_group_IT_number 55
_symmetry_cell_setting 'orthorhombic'
loop_
_space_group_symop_operation_xyz
x,y,z
-x,-y,z
1/2+x,1/2-y,-z
1/2-x,1/2+y,-z
-x,-y,-z
x,y,-z
1/2-x,1/2+y,z
1/2+x,1/2-y,z
loop_
_atom_site_type_symbol
_atom_site_label
_atom_site_fract_x
_atom_site_fract_y
_atom_site_fract_z
Si Si1 0.251161 0.062233 0.304906
Si Si2 0.370236 0.262870 0.803914
Si Si3 0.001400 0.331529 0.195064
Si Si4 0.166693 0.266756 0.696577
Si Si5 0.870992 0.849677 0.699362
Si Si6 0.446960 0.051414 0.697721
Si Si7 0.439388 0.376526 0.694368
Si Si8 0.401942 0.486262 0.191798
O O1 0.260081 0.067395 0.500000
O O2 0.213720 0.118276 0.242241
O O3 0.346715 0.048640 0.238936
O O4 0.175841 0.019428 0.272163
O O5 0.427856 0.211868 0.745358
O O6 0.267512 0.264444 0.755054
O O7 0.409091 0.317375 0.733364
O O8 0.376676 0.264075 0.000000
O O9 0.984134 0.390696 0.258770
O O10 0.099009 0.311147 0.242362
O O11 0.994901 0.332694 0.000000
O O12 0.167738 0.269085 0.500000
O O13 0.126700 0.210584 0.753058
O O14 0.870745 0.849261 0.500000
O O15 0.959146 0.879430 0.750835
O O16 0.446281 0.048322 0.500000
O O17 0.500000 0.000000 0.757874
O O18 0.434820 0.384962 0.500000
O O19 0.387831 0.423805 0.779995
O O20 0.500000 0.500000 0.258371
O O21 0.401734 0.498506 0.000000
#
# Coordination Sequence:
#
# PCOD9427589 Si02
#       8
#     8   8   8   8   8   8   8   8
#     4  10  20  38  63  89 119 160 211 263 311 367
#     4  11  24  41  60  91 130 164 203 251 313 376
#     4  11  24  42  65  93 128 169 207 254 316 376
#     4  11  22  39  65  94 125 165 212 257 305 364
#     4   9  18  33  58  89 116 151 204 258 304 355
#     4  10  23  43  67  93 121 157 209 266 312 361
#     4  11  21  37  61  87 118 159 205 253 305 361
#     4  11  23  37  55  86 125 162 199 248 312 377
#
# _framework density 20.409261999999998
#
# number of rings (size 3 to 8) (size 9 to 14) (size 15 to 20)
#    0.000    1.500    2.500    2.625    0.000    4.750 
#    0.000    5.000    0.000    0.000    0.000    0.000 
#    0.000    0.000    0.000    0.000    0.000    0.000 
#
# Total GULP energy -357391.396820 kJ/mol
# GULP energy per Si atom -5584.240575 kJ/mol
# Density = 2.036281 g / cm^3
# Si number density = 20.409262 Si / 1000 Ang^3
#
#
#
# Elastic Constant Matrix: (Units=GPa)
#
#
# Indices 1 2 3 4 5 6 
#
# 1 109.0213 48.9268 -1.6276 0.0000 0.0000 0.0000
# 2 48.9268 126.8461 -8.5200 0.0000 0.0000 0.0000
# 3 -1.6276 -8.5200 16.8178 0.0000 0.0000 0.0000
# 4 0.0000 0.0000 0.0000 16.1862 0.0000 0.0000
# 5 0.0000 0.0000 0.0000 0.0000 18.8694 0.0000
# 6 0.0000 0.0000 0.0000 0.0000 0.0000 30.7071
#
#
#
# Elastic Compliance Matrix: (Units=1/GPa)
#
#
# Indices 1 2 3 4 5 6 
#
# 1 0.011114 -0.004363 -0.001135 0.000000 0.000000 0.000000
# 2 -0.004363 0.009874 0.004580 0.000000 0.000000 0.000000
# 3 -0.001135 0.004580 0.061671 0.000000 0.000000 0.000000
# 4 0.000000 0.000000 0.000000 0.061781 0.000000 0.000000
# 5 0.000000 0.000000 0.000000 0.000000 0.052996 0.000000
# 6 0.000000 0.000000 0.000000 0.000000 0.000000 0.032566
#
#
# Mechanical properties :
#
#
# Convention : Reuss Voigt Hill
#
# Bulk Modulus (GPa) = 12.37264 36.69373 24.53319
# Shear Modulus (GPa) = 19.32160 27.41295 23.36728
#
# Velocity S-wave (km/s) = 3.08020 3.66889 3.38736
# Velocity P-wave (km/s) = 4.32731 5.99714 5.22931
#
# Compressibility (1/GPa) = 0.08082348
#
# Stress axis : x y z
#
# Youngs Moduli (GPa) = 89.98005 101.27554 16.21504
#
# Poissons Ratio (x) = 0.44186 0.01840
# Poissons Ratio (y) = 0.39258 -0.07427
# Poissons Ratio (z) = 0.10210 -0.46384
#
# Static dielectric constant tensor:
#      x y z
#    x 1.753360 0.000000 0.000000 
#    y 0.000000 1.729450 0.000000 
#    z 0.000000 0.000000 1.708960 
# 
# From -- ./inp_files/6579.got.cif
#   From: 2010.05.17/outbox.cif.g08.bks.cpg/sg55_4_cif.got.tgz:6579.got - 2010.06.03 13:27:54.
