data_PCOD9427980
_publ_section_title
;
Structure prediction by ZEFSAII (Michael W. Deem and Ramdas Pophale) SiO2 
 PCOD9427980
Probable space group: P B A M
;
_chemical_formula_sum "Si O2"
_cell_formula_units_Z 48
_cell_length_a 32.745168
_cell_length_b 8.313102
_cell_length_c 7.617229
_cell_angle_alpha 90.000000
_cell_angle_beta 90.000000
_cell_angle_gamma 90.000000
_cell_volume 2073.515778
_symmetry_space_group_name_H-M "P B A M"
_symmetry_group_IT_number 55
_symmetry_cell_setting 'orthorhombic'
loop_
_space_group_symop_operation_xyz
x,y,z
-x,-y,z
1/2+x,1/2-y,-z
1/2-x,1/2+y,-z
-x,-y,-z
x,y,-z
1/2-x,1/2+y,z
1/2+x,1/2-y,z
loop_
_atom_site_type_symbol
_atom_site_label
_atom_site_fract_x
_atom_site_fract_y
_atom_site_fract_z
Si Si1 0.050951 0.837389 0.789356
Si Si2 0.174587 0.332800 0.793699
Si Si3 0.687178 0.700371 0.500000
Si Si4 0.131852 0.679125 0.201702
Si Si5 0.401273 0.646759 0.796340
Si Si6 0.268415 0.952644 0.500000
Si Si7 0.525162 0.148980 0.701818
O O1 0.084039 0.696604 0.756044
O O2 0.007597 0.793849 0.710489
O O3 0.074234 0.995502 0.721015
O O4 0.044598 0.853880 0.000000
O O5 0.148910 0.499451 0.783516
O O6 0.142617 0.199448 0.725395
O O7 0.213238 0.362272 0.670722
O O8 0.184640 0.305945 0.000000
O O9 0.658356 0.711508 0.669222
O O10 0.719864 0.559058 0.500000
O O11 0.713877 0.866650 0.500000
O O12 0.136742 0.731195 0.000000
O O13 0.433225 0.793801 0.788438
O O14 0.393801 0.609056 0.000000
O O15 0.534547 0.110117 0.500000
O O16 0.500000 0.000000 0.782066
#
# Coordination Sequence:
#
# PCOD9427980 Si02
#       7
#     8   8   4   8   8   4   8
#     4  10  21  37  57  82 111 144 185 234 284 332
#     4   9  19  37  59  82 112 150 188 229 278 334
#     4  10  22  38  58  85 114 145 184 228 279 340
#     4   9  19  37  59  82 112 150 188 229 278 334
#     4  10  21  37  57  82 111 144 185 234 284 332
#     4  10  22  38  58  85 114 145 184 228 279 340
#     4  11  24  37  52  78 112 151 192 231 274 328
#
# _framework density 23.149090000000001
#
# number of rings (size 3 to 8) (size 9 to 14) (size 15 to 20)
#    0.000    2.167    0.000    2.000    2.333    7.333 
#    0.000    0.000    0.000    0.000    0.000    0.000 
#    0.000    0.000    0.000    0.000    0.000    0.000 
#
# Total GULP energy -268345.201179 kJ/mol
# GULP energy per Si atom -5590.525025 kJ/mol
# Density = 2.309640 g / cm^3
# Si number density = 23.149090 Si / 1000 Ang^3
#
#
#
# Elastic Constant Matrix: (Units=GPa)
#
#
# Indices 1 2 3 4 5 6 
#
# 1 84.4961 -5.3239 18.3495 0.0000 0.0000 0.0000
# 2 -5.3239 51.8938 1.2720 0.0000 0.0000 0.0000
# 3 18.3495 1.2720 66.6139 0.0000 0.0000 0.0000
# 4 0.0000 0.0000 0.0000 11.5916 0.0000 0.0000
# 5 0.0000 0.0000 0.0000 0.0000 3.0854 0.0000
# 6 0.0000 0.0000 0.0000 0.0000 0.0000 40.7643
#
#
#
# Elastic Compliance Matrix: (Units=1/GPa)
#
#
# Indices 1 2 3 4 5 6 
#
# 1 0.012687 0.001388 -0.003521 0.000000 0.000000 0.000000
# 2 0.001388 0.019431 -0.000753 0.000000 0.000000 0.000000
# 3 -0.003521 -0.000753 0.015996 0.000000 0.000000 0.000000
# 4 0.000000 0.000000 0.000000 0.086270 0.000000 0.000000
# 5 0.000000 0.000000 0.000000 0.000000 0.324103 0.000000
# 6 0.000000 0.000000 0.000000 0.000000 0.000000 0.024531
#
#
# Mechanical properties :
#
#
# Convention : Reuss Voigt Hill
#
# Bulk Modulus (GPa) = 23.61790 25.73323 24.67556
# Shear Modulus (GPa) = 9.94224 23.66867 16.80545
#
# Velocity S-wave (km/s) = 2.07466 3.20104 2.69730
# Velocity P-wave (km/s) = 3.99545 4.98022 4.51477
#
# Compressibility (1/GPa) = 0.04234077
#
# Stress axis : x y z
#
# Youngs Moduli (GPa) = 78.82080 51.46422 62.51472
#
# Poissons Ratio (x) = -0.07143 0.22013
# Poissons Ratio (y) = -0.10940 0.04710
# Poissons Ratio (z) = 0.27755 0.03877
#
# Static dielectric constant tensor:
#      x y z
#    x 1.796650 0.000000 0.000000 
#    y 0.000000 1.959110 0.000000 
#    z 0.000000 0.000000 1.827790 
# 
# From -- ./inp_files/2990.got.cif
#   From: 2010.05.17/outbox.cif.g08.bks.cpg/sg55_2_cif.got.tgz:2990.got - 2010.06.03 13:27:54.
