data_PCOD9427321
_publ_section_title
;
Structure prediction by ZEFSAII (Michael W. Deem and Ramdas Pophale) SiO2 
 PCOD9427321
Probable space group: P B A M
;
_chemical_formula_sum "Si O2"
_cell_formula_units_Z 48
_cell_length_a 8.298884
_cell_length_b 12.668359
_cell_length_c 21.011137
_cell_angle_alpha 90.000000
_cell_angle_beta 90.000000
_cell_angle_gamma 90.000000
_cell_volume 2208.968947
_symmetry_space_group_name_H-M "P B A M"
_symmetry_group_IT_number 55
_symmetry_cell_setting 'orthorhombic'
loop_
_space_group_symop_operation_xyz
x,y,z
-x,-y,z
1/2+x,1/2-y,-z
1/2-x,1/2+y,-z
-x,-y,-z
x,y,-z
1/2-x,1/2+y,z
1/2+x,1/2-y,z
loop_
_atom_site_type_symbol
_atom_site_label
_atom_site_fract_x
_atom_site_fract_y
_atom_site_fract_z
Si Si1 0.570708 0.385905 0.923817
Si Si2 0.875816 0.695456 0.238186
Si Si3 0.466072 0.108682 0.572555
Si Si4 0.372618 0.194522 0.857326
Si Si5 0.428392 0.388906 0.697618
Si Si6 0.673354 0.687652 0.572500
O O1 0.500000 0.500000 0.903283
O O2 0.467639 0.288193 0.894559
O O3 0.757267 0.374056 0.902336
O O4 0.560102 0.379668 0.000000
O O5 0.752412 0.750999 0.190297
O O6 0.758234 0.625909 0.281426
O O7 0.001890 0.639125 0.190775
O O8 0.969129 0.788791 0.276275
O O9 0.406983 0.084996 0.500000
O O10 0.345743 0.193863 0.599660
O O11 0.640096 0.161447 0.569302
O O12 0.500000 0.000000 0.607229
O O13 0.500000 0.500000 0.720289
O O14 0.421873 0.384812 0.621097
O O15 0.609897 0.684654 0.500000
#
# Coordination Sequence:
#
# PCOD9427321 Si02
#       6
#     8   8   8   8   8   8
#     4  10  20  36  62  97 134 169 205 247 299 358
#     4   9  21  40  60  87 116 155 211 254 298 362
#     4   9  19  36  57  81 112 147 182 228 289 362
#     4   9  19  38  62  87 124 165 203 252 300 351
#     4  11  23  41  62  86 120 155 199 262 316 367
#     4  10  21  37  59  87 117 151 195 246 311 391
#
# _framework density 21.729593999999999
#
# number of rings (size 3 to 8) (size 9 to 14) (size 15 to 20)
#    0.000    2.333    0.000    1.500    0.000    9.000 
#    0.000   15.000    0.000    9.000    0.000    0.000 
#    0.000    0.000    0.000    0.000    0.000    0.000 
#
# Total GULP energy -267648.913392 kJ/mol
# GULP energy per Si atom -5576.019029 kJ/mol
# Density = 2.168014 g / cm^3
# Si number density = 21.729594 Si / 1000 Ang^3
#
#
#
# Elastic Constant Matrix: (Units=GPa)
#
#
# Indices 1 2 3 4 5 6 
#
# 1 118.3321 61.1877 41.5730 0.0000 0.0000 0.0000
# 2 61.1877 111.5518 19.4946 0.0000 0.0000 0.0000
# 3 41.5730 19.4946 89.9419 0.0000 0.0000 0.0000
# 4 0.0000 0.0000 0.0000 6.9190 0.0000 0.0000
# 5 0.0000 0.0000 0.0000 0.0000 27.8679 0.0000
# 6 0.0000 0.0000 0.0000 0.0000 0.0000 22.2685
#
#
#
# Elastic Compliance Matrix: (Units=1/GPa)
#
#
# Indices 1 2 3 4 5 6 
#
# 1 0.013559 -0.006592 -0.004839 0.000000 0.000000 0.000000
# 2 -0.006592 0.012522 0.000333 0.000000 0.000000 0.000000
# 3 -0.004839 0.000333 0.013283 0.000000 0.000000 0.000000
# 4 0.000000 0.000000 0.000000 0.144530 0.000000 0.000000
# 5 0.000000 0.000000 0.000000 0.000000 0.035884 0.000000
# 6 0.000000 0.000000 0.000000 0.000000 0.000000 0.044906
#
#
# Mechanical properties :
#
#
# Convention : Reuss Voigt Hill
#
# Bulk Modulus (GPa) = 58.24592 62.70403 60.47498
# Shear Modulus (GPa) = 17.08807 24.58245 20.83526
#
# Velocity S-wave (km/s) = 2.80732 3.36711 3.09988
# Velocity P-wave (km/s) = 6.11319 6.63594 6.37992
#
# Compressibility (1/GPa) = 0.01716858
#
# Stress axis : x y z
#
# Youngs Moduli (GPa) = 73.75039 79.85944 75.28613
#
# Poissons Ratio (x) = 0.52642 0.36428
# Poissons Ratio (y) = 0.48615 -0.02505
# Poissons Ratio (z) = 0.35685 -0.02658
#
# Static dielectric constant tensor:
#      x y z
#    x 1.811900 0.000000 0.000000 
#    y 0.000000 1.871080 0.000000 
#    z 0.000000 0.000000 1.842500 
# 
# From -- ./inp_files/23435.got.cif
#   From: 2010.05.17/outbox.cif.g08.bks.cpg/sg55_12_cif.got.tgz:23435.got - 2010.06.03 13:27:54.
