data_PCOD9427259
_publ_section_title
;
Structure prediction by ZEFSAII (Michael W. Deem and Ramdas Pophale) SiO2 
 PCOD9427259
Probable space group: P B A M
;
_chemical_formula_sum "Si O2"
_cell_formula_units_Z 56
_cell_length_a 22.076956
_cell_length_b 15.171212
_cell_length_c 7.585709
_cell_angle_alpha 90.000000
_cell_angle_beta 90.000000
_cell_angle_gamma 90.000000
_cell_volume 2540.713222
_symmetry_space_group_name_H-M "P B A M"
_symmetry_group_IT_number 55
_symmetry_cell_setting 'orthorhombic'
loop_
_space_group_symop_operation_xyz
x,y,z
-x,-y,z
1/2+x,1/2-y,-z
1/2-x,1/2+y,-z
-x,-y,-z
x,y,-z
1/2-x,1/2+y,z
1/2+x,1/2-y,z
loop_
_atom_site_type_symbol
_atom_site_label
_atom_site_fract_x
_atom_site_fract_y
_atom_site_fract_z
Si Si1 0.738256 0.617041 0.786438
Si Si2 0.038810 0.580117 0.295357
Si Si3 0.404612 0.639046 0.203789
Si Si4 0.675060 0.962768 0.213757
Si Si5 0.027761 0.775911 0.297655
Si Si6 0.103206 0.939396 0.705249
Si Si7 0.770091 0.813689 0.215348
O O1 0.793658 0.554317 0.734133
O O2 0.674655 0.578807 0.721225
O O3 0.749715 0.716755 0.729051
O O4 0.735053 0.615589 0.000000
O O5 0.018754 0.588026 0.500000
O O6 0.108753 0.553300 0.286714
O O7 0.031934 0.678342 0.217051
O O8 0.000000 0.500000 0.215701
O O9 0.459355 0.689059 0.295906
O O10 0.412264 0.533592 0.212515
O O11 0.337839 0.662205 0.274340
O O12 0.406801 0.666730 0.000000
O O13 0.721178 0.885959 0.269928
O O14 0.670872 0.960902 0.000000
O O15 0.049784 0.766947 0.500000
O O16 0.068342 0.854481 0.217684
O O17 0.086050 0.947312 0.500000
O O18 0.771298 0.815589 0.000000
#
# Coordination Sequence:
#
# PCOD9427259 Si02
#       7
#     8   8   8   8   8   8   8
#     4  10  20  36  60  85 116 150 187 238 290 343
#     4  10  23  42  61  83 118 158 197 242 290 347
#     4  11  22  38  61  88 118 153 198 245 297 354
#     4  10  20  37  60  86 116 148 188 239 290 341
#     4  10  23  41  58  82 119 157 196 244 295 346
#     4  11  22  38  59  86 120 156 193 239 294 352
#     4   9  19  36  57  85 117 149 186 239 295 341
#
# _framework density 22.041053999999999
#
# number of rings (size 3 to 8) (size 9 to 14) (size 15 to 20)
#    0.000    1.857    1.429    2.143    2.000    4.286 
#    0.000    1.429    0.000    0.000    0.000    0.000 
#    0.000    0.000    0.000    0.000    0.000    0.000 
#
# Total GULP energy -313050.089251 kJ/mol
# GULP energy per Si atom -5590.180165 kJ/mol
# Density = 2.199089 g / cm^3
# Si number density = 22.041054 Si / 1000 Ang^3
#
#
#
# Elastic Constant Matrix: (Units=GPa)
#
#
# Indices 1 2 3 4 5 6 
#
# 1 99.9170 7.1985 -14.2041 0.0000 0.0000 0.0000
# 2 7.1985 40.7838 -6.1743 0.0000 0.0000 0.0000
# 3 -14.2041 -6.1743 49.3494 0.0000 0.0000 0.0000
# 4 0.0000 0.0000 0.0000 4.2848 0.0000 0.0000
# 5 0.0000 0.0000 0.0000 0.0000 25.8480 0.0000
# 6 0.0000 0.0000 0.0000 0.0000 0.0000 33.7434
#
#
#
# Elastic Compliance Matrix: (Units=1/GPa)
#
#
# Indices 1 2 3 4 5 6 
#
# 1 0.010516 -0.001425 0.002848 0.000000 0.000000 0.000000
# 2 -0.001425 0.025186 0.002741 0.000000 0.000000 0.000000
# 3 0.002848 0.002741 0.021426 0.000000 0.000000 0.000000
# 4 0.000000 0.000000 0.000000 0.233381 0.000000 0.000000
# 5 0.000000 0.000000 0.000000 0.000000 0.038688 0.000000
# 6 0.000000 0.000000 0.000000 0.000000 0.000000 0.029635
#
#
# Mechanical properties :
#
#
# Convention : Reuss Voigt Hill
#
# Bulk Modulus (GPa) = 15.27704 18.18781 16.73243
# Shear Modulus (GPa) = 13.42924 26.32394 19.87659
#
# Velocity S-wave (km/s) = 2.47104 3.45963 3.00625
# Velocity P-wave (km/s) = 3.88428 4.92224 4.43374
#
# Compressibility (1/GPa) = 0.06545769
#
# Stress axis : x y z
#
# Youngs Moduli (GPa) = 95.09409 39.70460 46.67124
#
# Poissons Ratio (x) = 0.05657 -0.13294
# Poissons Ratio (y) = 0.13549 -0.12793
# Poissons Ratio (z) = -0.27087 -0.10883
#
# Static dielectric constant tensor:
#      x y z
#    x 1.744040 0.000000 0.000000 
#    y 0.000000 1.804200 0.000000 
#    z 0.000000 0.000000 1.792180 
# 
# From -- ./inp_files/6048.got.cif
#   From: 2010.05.17/outbox.cif.g08.bks.cpg/sg55_4_cif.got.tgz:6048.got - 2010.06.03 13:27:54.
