data_PCOD9427027
_publ_section_title
;
Structure prediction by ZEFSAII (Michael W. Deem and Ramdas Pophale) SiO2 
 PCOD9427027
Probable space group: P B A M
;
_chemical_formula_sum "Si O2"
_cell_formula_units_Z 64
_cell_length_a 10.424096
_cell_length_b 31.805722
_cell_length_c 9.838533
_cell_angle_alpha 90.000000
_cell_angle_beta 90.000000
_cell_angle_gamma 90.000000
_cell_volume 3261.925273
_symmetry_space_group_name_H-M "P B A M"
_symmetry_group_IT_number 55
_symmetry_cell_setting 'orthorhombic'
loop_
_space_group_symop_operation_xyz
x,y,z
-x,-y,z
1/2+x,1/2-y,-z
1/2-x,1/2+y,-z
-x,-y,-z
x,y,-z
1/2-x,1/2+y,z
1/2+x,1/2-y,z
loop_
_atom_site_type_symbol
_atom_site_label
_atom_site_fract_x
_atom_site_fract_y
_atom_site_fract_z
Si Si1 0.466091 0.209462 0.655107
Si Si2 0.437713 0.304453 0.343362
Si Si3 0.405021 0.460533 0.657787
Si Si4 0.708553 0.345366 0.646914
Si Si5 0.807787 0.409219 0.157789
Si Si6 0.355149 0.382272 0.839356
Si Si7 0.351765 0.012229 0.343715
Si Si8 0.072015 0.357828 0.155060
O O1 0.514099 0.213386 0.500000
O O2 0.429336 0.256162 0.702197
O O3 0.336265 0.182320 0.653829
O O4 0.562423 0.182119 0.745669
O O5 0.387445 0.308586 0.500000
O O6 0.587975 0.315235 0.349124
O O7 0.383935 0.338850 0.239698
O O8 0.500000 0.500000 0.687194
O O9 0.429688 0.447943 0.500000
O O10 0.417858 0.421308 0.759205
O O11 0.257263 0.476486 0.665918
O O12 0.708215 0.367866 0.500000
O O13 0.709577 0.377903 0.769255
O O14 0.811837 0.452174 0.238912
O O15 0.947425 0.387135 0.173305
O O16 0.780434 0.414819 0.000000
O O17 0.200292 0.384816 0.828159
O O18 0.388451 0.381234 0.000000
O O19 0.347427 0.027802 0.500000
O O20 0.500000 0.000000 0.317437
O O21 0.069675 0.342060 0.000000
#
# Coordination Sequence:
#
# PCOD9427027 Si02
#       8
#     8   8   8   8   8   8   8   8
#     4   9  19  35  59  87 111 146 193 239 284 333
#     4  10  22  37  58  84 114 150 191 239 286 337
#     4  10  23  42  62  85 116 154 193 239 296 350
#     4   9  19  36  55  80 114 147 185 233 283 335
#     4  10  20  35  58  85 114 149 188 230 282 337
#     4  11  24  40  59  85 117 154 195 234 282 345
#     4  10  21  37  60  88 115 146 190 240 289 343
#     4   9  20  38  57  83 121 157 188 231 284 340
#
# _framework density 19.620315000000002
#
# number of rings (size 3 to 8) (size 9 to 14) (size 15 to 20)
#    0.000    2.250    0.000    1.500    3.500    3.500 
#    0.000    0.000    0.000    0.000    0.000    0.000 
#    0.000    0.000    0.000    0.000    0.000    0.000 
#
# Total GULP energy -357095.646182 kJ/mol
# GULP energy per Si atom -5579.619472 kJ/mol
# Density = 1.957566 g / cm^3
# Si number density = 19.620315 Si / 1000 Ang^3
#
#
#
# Elastic Constant Matrix: (Units=GPa)
#
#
# Indices 1 2 3 4 5 6 
#
# 1 46.0237 -1.8038 10.5546 0.0000 0.0000 0.0000
# 2 -1.8038 89.9600 78.0768 0.0000 0.0000 0.0000
# 3 10.5546 78.0768 110.0285 0.0000 0.0000 0.0000
# 4 0.0000 0.0000 0.0000 28.1073 0.0000 0.0000
# 5 0.0000 0.0000 0.0000 0.0000 18.1066 0.0000
# 6 0.0000 0.0000 0.0000 0.0000 0.0000 9.3742
#
#
#
# Elastic Compliance Matrix: (Units=1/GPa)
#
#
# Indices 1 2 3 4 5 6 
#
# 1 0.023523 0.006326 -0.006746 0.000000 0.000000 0.000000
# 2 0.006326 0.030640 -0.022349 0.000000 0.000000 0.000000
# 3 -0.006746 -0.022349 0.025594 0.000000 0.000000 0.000000
# 4 0.000000 0.000000 0.000000 0.035578 0.000000 0.000000
# 5 0.000000 0.000000 0.000000 0.000000 0.055228 0.000000
# 6 0.000000 0.000000 0.000000 0.000000 0.000000 0.106676
#
#
# Mechanical properties :
#
#
# Convention : Reuss Voigt Hill
#
# Bulk Modulus (GPa) = 29.22231 46.62970 37.92601
# Shear Modulus (GPa) = 14.96189 21.72994 18.34592
#
# Velocity S-wave (km/s) = 2.76447 3.33156 3.06117
# Velocity P-wave (km/s) = 5.01158 6.21423 5.64502
#
# Compressibility (1/GPa) = 0.03422043
#
# Stress axis : x y z
#
# Youngs Moduli (GPa) = 42.51193 32.63754 39.07095
#
# Poissons Ratio (x) = -0.20647 0.26355
# Poissons Ratio (y) = -0.26894 0.87319
# Poissons Ratio (z) = 0.28676 0.72941
#
# Static dielectric constant tensor:
#      x y z
#    x 1.722560 0.000000 0.000000 
#    y 0.000000 1.671430 0.000000 
#    z 0.000000 0.000000 1.685400 
# 
# From -- ./inp_files/4517.got.cif
#   From: 2010.05.17/outbox.cif.g08.bks.cpg/sg55_3_cif.got.tgz:4517.got - 2010.06.03 13:27:54.
