data_PCOD9427446
_publ_section_title
;
Structure prediction by ZEFSAII (Michael W. Deem and Ramdas Pophale) SiO2 
 PCOD9427446
Probable space group: P B A M
;
_chemical_formula_sum "Si O2"
_cell_formula_units_Z 56
_cell_length_a 20.492848
_cell_length_b 16.451965
_cell_length_c 8.572395
_cell_angle_alpha 90.000000
_cell_angle_beta 90.000000
_cell_angle_gamma 90.000000
_cell_volume 2890.162555
_symmetry_space_group_name_H-M "P B A M"
_symmetry_group_IT_number 55
_symmetry_cell_setting 'orthorhombic'
loop_
_space_group_symop_operation_xyz
x,y,z
-x,-y,z
1/2+x,1/2-y,-z
1/2-x,1/2+y,-z
-x,-y,-z
x,y,-z
1/2-x,1/2+y,z
1/2+x,1/2-y,z
loop_
_atom_site_type_symbol
_atom_site_label
_atom_site_fract_x
_atom_site_fract_y
_atom_site_fract_z
Si Si1 0.835580 0.666815 0.187790
Si Si2 0.598222 0.822760 0.812561
Si Si3 0.177856 0.998951 0.187178
Si Si4 0.547791 0.428276 0.688229
Si Si5 0.824743 0.480390 0.810845
Si Si6 0.533459 0.245047 0.313043
Si Si7 0.191978 0.818278 0.313709
O O1 0.843585 0.571928 0.235535
O O2 0.896583 0.716563 0.250972
O O3 0.765805 0.695343 0.253359
O O4 0.833221 0.670847 0.000000
O O5 0.628847 0.908189 0.756452
O O6 0.525055 0.808339 0.754574
O O7 0.643704 0.749950 0.751335
O O8 0.598973 0.821917 0.000000
O O9 0.171479 0.907773 0.253948
O O10 0.119451 0.054159 0.247108
O O11 0.249227 0.031466 0.235882
O O12 0.176639 0.994310 0.000000
O O13 0.500000 0.500000 0.742428
O O14 0.550395 0.431128 0.500000
O O15 0.523192 0.339188 0.733759
O O16 0.826156 0.479223 0.000000
O O17 0.532596 0.240524 0.500000
O O18 0.190475 0.817595 0.500000
#
# Coordination Sequence:
#
# PCOD9427446 Si02
#       7
#     8   8   8   8   8   8   8
#     4  10  21  41  64  87 117 159 206 252 301 360
#     4  11  22  39  62  88 118 157 203 251 302 361
#     4  10  20  37  61  89 116 151 200 248 297 359
#     4  10  22  39  58  82 120 162 198 245 303 359
#     4   8  19  38  60  87 115 148 197 254 299 345
#     4  11  24  40  58  89 126 160 201 250 308 367
#     4  11  22  38  60  89 124 159 195 247 307 362
#
# _framework density 19.376073000000002
#
# number of rings (size 3 to 8) (size 9 to 14) (size 15 to 20)
#    0.000    1.857    0.000    4.714    2.000    3.143 
#    0.000   10.714    0.000    0.000    0.000    0.000 
#    0.000    0.000    0.000    0.000    0.000    0.000 
#
# Total GULP energy -312953.533384 kJ/mol
# GULP energy per Si atom -5588.455953 kJ/mol
# Density = 1.933197 g / cm^3
# Si number density = 19.376073 Si / 1000 Ang^3
#
#
#
# Elastic Constant Matrix: (Units=GPa)
#
#
# Indices 1 2 3 4 5 6 
#
# 1 51.6147 9.2513 8.2767 0.0000 0.0000 0.0000
# 2 9.2513 23.4570 5.4511 0.0000 0.0000 0.0000
# 3 8.2767 5.4511 39.8976 0.0000 0.0000 0.0000
# 4 0.0000 0.0000 0.0000 21.1744 0.0000 0.0000
# 5 0.0000 0.0000 0.0000 0.0000 -105.7008 0.0000
# 6 0.0000 0.0000 0.0000 0.0000 0.0000 37.0079
#
#
#
# Elastic Compliance Matrix: (Units=1/GPa)
#
#
# Indices 1 2 3 4 5 6 
#
# 1 0.021279 -0.007608 -0.003375 0.000000 0.000000 0.000000
# 2 -0.007608 0.046749 -0.004809 0.000000 0.000000 0.000000
# 3 -0.003375 -0.004809 0.026421 0.000000 0.000000 0.000000
# 4 0.000000 0.000000 0.000000 0.047227 0.000000 0.000000
# 5 0.000000 0.000000 0.000000 0.000000 -0.009461 0.000000
# 6 0.000000 0.000000 0.000000 0.000000 0.000000 0.027021
#
#
# Mechanical properties :
#
#
# Convention : Reuss Voigt Hill
#
# Bulk Modulus (GPa) = 15.90684 17.88082 16.89383
# Shear Modulus (GPa) = 23.60984 -3.37100 10.11942
#
# Velocity S-wave (km/s) = 3.49450 -1.32044 2.28779
# Velocity P-wave (km/s) = 4.95069 2.63127 3.96440
#
# Compressibility (1/GPa) = 0.06286604
#
# Stress axis : x y z
#
# Youngs Moduli (GPa) = 46.99435 21.39071 37.84823
#
# Poissons Ratio (x) = 0.16274 0.12773
# Poissons Ratio (y) = 0.35754 0.18201
# Poissons Ratio (z) = 0.15860 0.10287
#
# Static dielectric constant tensor:
#      x y z
#    x 1.648440 0.000000 0.000000 
#    y 0.000000 1.673020 0.000000 
#    z 0.000000 0.000000 1.656720 
# 
# From -- ./inp_files/6093.got.cif
#   From: 2010.05.17/outbox.cif.g08.bks.cpg/sg55_4_cif.got.tgz:6093.got - 2010.06.03 13:27:54.
