data_PCOD9427569
_publ_section_title
;
Structure prediction by ZEFSAII (Michael W. Deem and Ramdas Pophale) SiO2 
 PCOD9427569
Probable space group: P B A M
;
_chemical_formula_sum "Si O2"
_cell_formula_units_Z 64
_cell_length_a 23.079379
_cell_length_b 15.651394
_cell_length_c 8.821249
_cell_angle_alpha 90.000000
_cell_angle_beta 90.000000
_cell_angle_gamma 90.000000
_cell_volume 3186.450854
_symmetry_space_group_name_H-M "P B A M"
_symmetry_group_IT_number 55
_symmetry_cell_setting 'orthorhombic'
loop_
_space_group_symop_operation_xyz
x,y,z
-x,-y,z
1/2+x,1/2-y,-z
1/2-x,1/2+y,-z
-x,-y,-z
x,y,-z
1/2-x,1/2+y,z
1/2+x,1/2-y,z
loop_
_atom_site_type_symbol
_atom_site_label
_atom_site_fract_x
_atom_site_fract_y
_atom_site_fract_z
Si Si1 0.072773 0.751967 0.820583
Si Si2 0.548386 0.570412 0.681480
Si Si3 0.665945 0.499274 0.179076
Si Si4 0.993956 0.403755 0.324830
Si Si5 0.681752 0.318678 0.321190
Si Si6 0.127296 0.358356 0.673169
Si Si7 0.797592 0.499498 0.820651
Si Si8 0.815601 0.315346 0.321607
O O1 0.041390 0.834129 0.747496
O O2 0.044767 0.662960 0.765373
O O3 0.139292 0.744233 0.765454
O O4 0.070247 0.759328 0.000000
O O5 0.500000 0.500000 0.730348
O O6 0.546013 0.575044 0.500000
O O7 0.612277 0.540986 0.734356
O O8 0.666119 0.398816 0.218600
O O9 0.731684 0.525109 0.224726
O O10 0.658923 0.514676 0.000000
O O11 0.972495 0.409593 0.500000
O O12 0.000000 0.500000 0.263788
O O13 0.058964 0.369325 0.325797
O O14 0.675667 0.342462 0.500000
O O15 0.642687 0.237962 0.286932
O O16 0.748486 0.291553 0.298040
O O17 0.148131 0.373909 0.500000
O O18 0.158939 0.425283 0.780023
O O19 0.817587 0.413431 0.735743
O O20 0.796501 0.481563 0.000000
O O21 0.828786 0.311793 0.500000
#
# Coordination Sequence:
#
# PCOD9427569 Si02
#       8
#     8   8   8   8   8   8   8   8
#     4  12  26  42  65  96 131 166 207 262 321 381
#     4  11  26  46  68  90 119 165 218 269 315 373
#     4  10  22  40  62  91 126 162 200 252 317 375
#     4  10  22  41  64  91 126 169 213 257 307 368
#     4   9  20  37  59  89 120 159 206 254 304 367
#     4  10  21  36  59  89 121 158 208 257 300 365
#     4  10  21  37  59  92 129 164 199 248 313 374
#     4  10  20  38  62  88 121 162 207 252 305 368
#
# _framework density 20.085044
#
# number of rings (size 3 to 8) (size 9 to 14) (size 15 to 20)
#    0.000    1.750    0.000    3.375    3.500    5.250 
#    0.000    0.000    0.000    0.000    0.000    0.000 
#    0.000    0.000    0.000    0.000    0.000    0.000 
#
# Total GULP energy -357632.571169 kJ/mol
# GULP energy per Si atom -5588.008925 kJ/mol
# Density = 2.003933 g / cm^3
# Si number density = 20.085044 Si / 1000 Ang^3
#
#
#
# Elastic Constant Matrix: (Units=GPa)
#
#
# Indices 1 2 3 4 5 6 
#
# 1 48.0886 26.2894 16.3012 0.0000 0.0000 0.0000
# 2 26.2894 57.5077 21.3422 0.0000 0.0000 0.0000
# 3 16.3012 21.3422 61.3929 0.0000 0.0000 0.0000
# 4 0.0000 0.0000 0.0000 -426.8454 0.0000 0.0000
# 5 0.0000 0.0000 0.0000 0.0000 22.8366 0.0000
# 6 0.0000 0.0000 0.0000 0.0000 0.0000 22.6595
#
#
#
# Elastic Compliance Matrix: (Units=1/GPa)
#
#
# Indices 1 2 3 4 5 6 
#
# 1 0.028353 -0.011674 -0.003470 0.000000 0.000000 0.000000
# 2 -0.011674 0.024771 -0.005512 0.000000 0.000000 0.000000
# 3 -0.003470 -0.005512 0.019126 0.000000 0.000000 0.000000
# 4 0.000000 0.000000 0.000000 -0.002343 0.000000 0.000000
# 5 0.000000 0.000000 0.000000 0.000000 0.043789 0.000000
# 6 0.000000 0.000000 0.000000 0.000000 0.000000 0.044132
#
#
# Mechanical properties :
#
#
# Convention : Reuss Voigt Hill
#
# Bulk Modulus (GPa) = 32.32155 32.76165 32.54160
# Shear Modulus (GPa) = 23.87177 -69.39945 -22.76384
#
# Velocity S-wave (km/s) = 3.45125 -5.88454 -3.37021
# Velocity P-wave (km/s) = 5.65763 5.46109 1.04529
#
# Compressibility (1/GPa) = 0.03093911
#
# Stress axis : x y z
#
# Youngs Moduli (GPa) = 35.26946 40.36978 52.28492
#
# Poissons Ratio (x) = 0.47126 0.18144
# Poissons Ratio (y) = 0.41172 0.28817
# Poissons Ratio (z) = 0.12239 0.22250
#
# Static dielectric constant tensor:
#      x y z
#    x 1.705430 0.000000 0.000000 
#    y 0.000000 1.684710 0.000000 
#    z 0.000000 0.000000 1.692310 
# 
# From -- ./inp_files/9824.got.cif
#   From: 2010.05.17/outbox.cif.g08.bks.cpg/sg55_5_cif.got.tgz:9824.got - 2010.06.03 13:27:54.
