data_PCOD9427474
_publ_section_title
;
Structure prediction by ZEFSAII (Michael W. Deem and Ramdas Pophale) SiO2 
 PCOD9427474
Probable space group: P B A M
;
_chemical_formula_sum "Si O2"
_cell_formula_units_Z 48
_cell_length_a 20.475033
_cell_length_b 14.451501
_cell_length_c 8.842935
_cell_angle_alpha 90.000000
_cell_angle_beta 90.000000
_cell_angle_gamma 90.000000
_cell_volume 2616.579897
_symmetry_space_group_name_H-M "P B A M"
_symmetry_group_IT_number 55
_symmetry_cell_setting 'orthorhombic'
loop_
_space_group_symop_operation_xyz
x,y,z
-x,-y,z
1/2+x,1/2-y,-z
1/2-x,1/2+y,-z
-x,-y,-z
x,y,-z
1/2-x,1/2+y,z
1/2+x,1/2-y,z
loop_
_atom_site_type_symbol
_atom_site_label
_atom_site_fract_x
_atom_site_fract_y
_atom_site_fract_z
Si Si1 0.575844 0.329596 0.319933
Si Si2 0.226516 0.480910 0.820368
Si Si3 0.439112 0.281694 0.181010
Si Si4 0.119462 0.984045 0.180582
Si Si5 0.703594 0.234775 0.819389
Si Si6 0.328040 0.160496 0.320204
O O1 0.574771 0.323669 0.500000
O O2 0.511207 0.284988 0.249244
O O3 0.580922 0.436390 0.267540
O O4 0.639956 0.279937 0.253903
O O5 0.303511 0.491379 0.783737
O O6 0.206613 0.375101 0.792467
O O7 0.184975 0.555140 0.728944
O O8 0.219546 0.499268 0.000000
O O9 0.405690 0.381260 0.215063
O O10 0.394031 0.202685 0.251962
O O11 0.441373 0.271868 0.000000
O O12 0.111568 0.998883 0.000000
O O13 0.767962 0.281568 0.750477
O O14 0.703312 0.250843 0.000000
O O15 0.327753 0.169558 0.500000
#
# Coordination Sequence:
#
# PCOD9427474 Si02
#       6
#     8   8   8   8   8   8
#     4  12  25  39  58  92 129 161 197 251 312 363
#     4  10  21  39  64  91 119 156 206 252 292 351
#     4  11  23  42  64  87 120 166 209 249 296 361
#     4  10  20  37  62  90 121 160 204 248 296 357
#     4  11  22  41  65  88 118 163 210 249 291 356
#     4  12  24  38  61  93 126 158 195 251 309 358
#
# _framework density 18.344557999999999
#
# number of rings (size 3 to 8) (size 9 to 14) (size 15 to 20)
#    0.000    1.000    3.333    4.500    0.000    4.667 
#    0.000    0.833    0.000    5.000    0.000    0.000 
#    0.000    0.000    0.000    0.000    0.000    0.000 
#
# Total GULP energy -268526.133347 kJ/mol
# GULP energy per Si atom -5594.294445 kJ/mol
# Density = 1.830280 g / cm^3
# Si number density = 18.344558 Si / 1000 Ang^3
#
#
#
# Elastic Constant Matrix: (Units=GPa)
#
#
# Indices 1 2 3 4 5 6 
#
# 1 44.2305 -4.4589 8.7818 0.0000 0.0000 0.0000
# 2 -4.4589 51.2040 28.9564 0.0000 0.0000 0.0000
# 3 8.7818 28.9564 68.0689 0.0000 0.0000 0.0000
# 4 0.0000 0.0000 0.0000 -85.0494 0.0000 0.0000
# 5 0.0000 0.0000 0.0000 0.0000 23.8392 0.0000
# 6 0.0000 0.0000 0.0000 0.0000 0.0000 28.6796
#
#
#
# Elastic Compliance Matrix: (Units=1/GPa)
#
#
# Indices 1 2 3 4 5 6 
#
# 1 0.024172 0.005094 -0.005285 0.000000 0.000000 0.000000
# 2 0.005094 0.026790 -0.012053 0.000000 0.000000 0.000000
# 3 -0.005285 -0.012053 0.020500 0.000000 0.000000 0.000000
# 4 0.000000 0.000000 0.000000 -0.011758 0.000000 0.000000
# 5 0.000000 0.000000 0.000000 0.000000 0.041948 0.000000
# 6 0.000000 0.000000 0.000000 0.000000 0.000000 0.034868
#
#
# Mechanical properties :
#
#
# Convention : Reuss Voigt Hill
#
# Bulk Modulus (GPa) = 21.28936 25.56245 23.42591
# Shear Modulus (GPa) = 28.30184 2.17549 15.23867
#
# Velocity S-wave (km/s) = 3.93210 1.09017 2.88530
# Velocity P-wave (km/s) = 5.67853 3.94329 4.88852
#
# Compressibility (1/GPa) = 0.04697182
#
# Stress axis : x y z
#
# Youngs Moduli (GPa) = 41.37057 37.32782 48.77950
#
# Poissons Ratio (x) = -0.19014 0.25782
# Poissons Ratio (y) = -0.21074 0.58796
# Poissons Ratio (z) = 0.21866 0.44993
#
# Static dielectric constant tensor:
#      x y z
#    x 1.607010 0.000000 0.000000 
#    y 0.000000 1.620640 0.000000 
#    z 0.000000 0.000000 1.606480 
# 
# From -- ./inp_files/5668.got.cif
#   From: 2010.05.17/outbox.cif.g08.bks.cpg/sg55_3_cif.got.tgz:5668.got - 2010.06.03 13:27:54.
