data_PCOD9427191
_publ_section_title
;
Structure prediction by ZEFSAII (Michael W. Deem and Ramdas Pophale) SiO2 
 PCOD9427191
Probable space group: P B A M
;
_chemical_formula_sum "Si O2"
_cell_formula_units_Z 64
_cell_length_a 17.619735
_cell_length_b 12.872065
_cell_length_c 14.757846
_cell_angle_alpha 90.000000
_cell_angle_beta 90.000000
_cell_angle_gamma 90.000000
_cell_volume 3347.114511
_symmetry_space_group_name_H-M "P B A M"
_symmetry_group_IT_number 55
_symmetry_cell_setting 'orthorhombic'
loop_
_space_group_symop_operation_xyz
x,y,z
-x,-y,z
1/2+x,1/2-y,-z
1/2-x,1/2+y,-z
-x,-y,-z
x,y,-z
1/2-x,1/2+y,z
1/2+x,1/2-y,z
loop_
_atom_site_type_symbol
_atom_site_label
_atom_site_fract_x
_atom_site_fract_y
_atom_site_fract_z
Si Si1 0.281759 0.368993 0.105892
Si Si2 0.678438 0.437076 0.219548
Si Si3 0.172632 0.680378 0.217211
Si Si4 0.643601 0.738615 0.596833
Si Si5 0.997320 0.622603 0.205482
Si Si6 0.509863 0.124781 0.403131
Si Si7 0.589866 0.500765 0.603329
Si Si8 0.627988 0.236351 0.106203
O O1 0.325121 0.454735 0.165084
O O2 0.312322 0.255717 0.133161
O O3 0.192094 0.351717 0.125820
O O4 0.290621 0.392287 0.000000
O O5 0.768485 0.413409 0.220965
O O6 0.638567 0.447231 0.317375
O O7 0.643491 0.339615 0.164878
O O8 0.188591 0.739850 0.311789
O O9 0.084905 0.652886 0.213756
O O10 0.684086 0.753593 0.500000
O O11 0.571028 0.815991 0.595683
O O12 0.614157 0.621251 0.601191
O O13 0.000000 0.500000 0.188250
O O14 0.957603 0.646954 0.303464
O O15 0.952340 0.686997 0.131352
O O16 0.547915 0.152717 0.500000
O O17 0.500000 0.000000 0.403482
O O18 0.500000 0.500000 0.624052
O O19 0.600166 0.459159 0.500000
O O20 0.634324 0.261753 0.000000
#
# Coordination Sequence:
#
# PCOD9427191 Si02
#       8
#     8   8   8   8   8   8   8   8
#     4  10  21  40  60  80 113 155 197 245 302 355
#     4  11  22  38  63  86 117 155 198 248 297 352
#     4  10  21  36  57  88 114 150 197 237 293 357
#     4   9  17  33  56  80 115 154 189 231 283 344
#     4  10  20  36  58  85 119 153 188 238 295 355
#     4   8  15  28  50  80 111 145 181 220 273 336
#     4  10  22  38  60  90 121 158 200 240 289 349
#     4  10  23  39  58  87 117 151 202 255 300 358
#
# _framework density 19.120947999999999
#
# number of rings (size 3 to 8) (size 9 to 14) (size 15 to 20)
#    0.000    2.250    1.250    1.125    3.500    1.750 
#    0.000    0.000    0.000    5.250    0.000    0.000 
#    0.000    0.000    0.000    0.000    0.000    0.000 
#
# Total GULP energy -356397.411542 kJ/mol
# GULP energy per Si atom -5568.709555 kJ/mol
# Density = 1.907743 g / cm^3
# Si number density = 19.120948 Si / 1000 Ang^3
#
#
#
# Elastic Constant Matrix: (Units=GPa)
#
#
# Indices 1 2 3 4 5 6 
#
# 1 64.0873 23.3297 36.2458 0.0000 0.0000 0.0000
# 2 23.3297 50.2288 33.4522 0.0000 0.0000 0.0000
# 3 36.2458 33.4522 88.0782 0.0000 0.0000 0.0000
# 4 0.0000 0.0000 0.0000 46.4683 0.0000 0.0000
# 5 0.0000 0.0000 0.0000 0.0000 22.6348 0.0000
# 6 0.0000 0.0000 0.0000 0.0000 0.0000 13.3866
#
#
#
# Elastic Compliance Matrix: (Units=1/GPa)
#
#
# Indices 1 2 3 4 5 6 
#
# 1 0.021398 -0.005454 -0.006734 0.000000 0.000000 0.000000
# 2 -0.005454 0.028040 -0.008405 0.000000 0.000000 0.000000
# 3 -0.006734 -0.008405 0.017317 0.000000 0.000000 0.000000
# 4 0.000000 0.000000 0.000000 0.021520 0.000000 0.000000
# 5 0.000000 0.000000 0.000000 0.000000 0.044180 0.000000
# 6 0.000000 0.000000 0.000000 0.000000 0.000000 0.074702
#
#
# Mechanical properties :
#
#
# Convention : Reuss Voigt Hill
#
# Bulk Modulus (GPa) = 39.11080 43.16107 41.13594
# Shear Modulus (GPa) = 19.46547 23.78905 21.62726
#
# Velocity S-wave (km/s) = 3.19410 3.53106 3.36680
# Velocity P-wave (km/s) = 5.83968 6.26467 6.05591
#
# Compressibility (1/GPa) = 0.02556839
#
# Stress axis : x y z
#
# Youngs Moduli (GPa) = 46.73413 35.66359 57.74623
#
# Poissons Ratio (x) = 0.19449 0.38888
# Poissons Ratio (y) = 0.25487 0.48537
# Poissons Ratio (z) = 0.31472 0.29976
#
# Static dielectric constant tensor:
#      x y z
#    x 1.428250 0.000000 0.000000 
#    y 0.000000 1.669220 0.000000 
#    z 0.000000 0.000000 1.727410 
# 
# From -- ./inp_files/19522.got.cif
#   From: 2010.05.17/outbox.cif.g08.bks.cpg/sg55_10_cif.got.tgz:19522.got - 2010.06.03 13:27:54.
