data_PCOD9427848
_publ_section_title
;
Structure prediction by ZEFSAII (Michael W. Deem and Ramdas Pophale) SiO2 
 PCOD9427848
Probable space group: P B A M
;
_chemical_formula_sum "Si O2"
_cell_formula_units_Z 40
_cell_length_a 13.928402
_cell_length_b 18.142516
_cell_length_c 8.970868
_cell_angle_alpha 90.000000
_cell_angle_beta 90.000000
_cell_angle_gamma 90.000000
_cell_volume 2266.904758
_symmetry_space_group_name_H-M "P B A M"
_symmetry_group_IT_number 55
_symmetry_cell_setting 'orthorhombic'
loop_
_space_group_symop_operation_xyz
x,y,z
-x,-y,z
1/2+x,1/2-y,-z
1/2-x,1/2+y,-z
-x,-y,-z
x,y,-z
1/2-x,1/2+y,z
1/2+x,1/2-y,z
loop_
_atom_site_type_symbol
_atom_site_label
_atom_site_fract_x
_atom_site_fract_y
_atom_site_fract_z
Si Si1 0.606754 0.975881 0.821289
Si Si2 0.877643 0.868424 0.677541
Si Si3 0.081915 0.836945 0.821285
Si Si4 0.798090 0.031276 0.322167
Si Si5 0.186129 0.684906 0.178106
O O1 0.690645 0.020778 0.739819
O O2 0.626404 0.889609 0.789649
O O3 0.500000 0.000000 0.777365
O O4 0.616272 0.986569 0.000000
O O5 0.886045 0.860716 0.500000
O O6 0.853154 0.954264 0.710416
O O7 0.787091 0.822607 0.738101
O O8 0.975724 0.845276 0.755443
O O9 0.128243 0.758109 0.781631
O O10 0.147480 0.901827 0.755443
O O11 0.078476 0.842566 0.000000
O O12 0.797059 0.041231 0.500000
O O13 0.204125 0.686211 0.000000
#
# Coordination Sequence:
#
# PCOD9427848 Si02
#       5
#     8   8   8   8   8
#     4   9  18  35  58  80 105 140 179 219 267 321
#     4  10  21  37  56  78 107 141 176 220 271 319
#     4  11  22  35  55  81 109 143 181 221 266 317
#     4  10  21  36  54  79 109 140 180 225 267 317
#     4   9  20  37  54  77 108 139 175 218 263 317
#
# _framework density 17.645205000000001
#
# number of rings (size 3 to 8) (size 9 to 14) (size 15 to 20)
#    0.000    2.200    0.000    2.400    0.000    8.400 
#    0.000    4.000    0.000    0.000    0.000    0.000 
#    0.000    0.000    0.000    0.000    0.000    0.000 
#
# Total GULP energy -223368.766611 kJ/mol
# GULP energy per Si atom -5584.219165 kJ/mol
# Density = 1.760504 g / cm^3
# Si number density = 17.645205 Si / 1000 Ang^3
#
#
#
# Elastic Constant Matrix: (Units=GPa)
#
#
# Indices 1 2 3 4 5 6 
#
# 1 195.8728 113.2381 78.6263 0.0000 0.0000 0.0000
# 2 113.2381 103.2945 62.2660 0.0000 0.0000 0.0000
# 3 78.6263 62.2660 53.7073 0.0000 0.0000 0.0000
# 4 0.0000 0.0000 0.0000 21.8120 0.0000 0.0000
# 5 0.0000 0.0000 0.0000 0.0000 -12.0601 0.0000
# 6 0.0000 0.0000 0.0000 0.0000 0.0000 21.0029
#
#
#
# Elastic Compliance Matrix: (Units=1/GPa)
#
#
# Indices 1 2 3 4 5 6 
#
# 1 0.015363 -0.010906 -0.009847 0.000000 0.000000 0.000000
# 2 -0.010906 0.039891 -0.030281 0.000000 0.000000 0.000000
# 3 -0.009847 -0.030281 0.068142 0.000000 0.000000 0.000000
# 4 0.000000 0.000000 0.000000 0.045846 0.000000 0.000000
# 5 0.000000 0.000000 0.000000 0.000000 -0.082918 0.000000
# 6 0.000000 0.000000 0.000000 0.000000 0.000000 0.047613
#
#
# Mechanical properties :
#
#
# Convention : Reuss Voigt Hill
#
# Bulk Modulus (GPa) = 46.88890 95.68172 71.28531
# Shear Modulus (GPa) = 20.56644 12.73390 16.65017
#
# Velocity S-wave (km/s) = 3.41773 2.68929 3.07515
# Velocity P-wave (km/s) = 6.49656 7.99913 7.28668
#
# Compressibility (1/GPa) = 0.02132701
#
# Stress axis : x y z
#
# Youngs Moduli (GPa) = 65.08960 25.06852 14.67530
#
# Poissons Ratio (x) = 0.27341 0.14451
# Poissons Ratio (y) = 0.70990 0.44438
# Poissons Ratio (z) = 0.64095 0.75909
#
# Static dielectric constant tensor:
#      x y z
#    x 1.565880 0.000000 0.000000 
#    y 0.000000 1.586050 0.000000 
#    z 0.000000 0.000000 1.585540 
# 
# From -- ./inp_files/3582.got.cif
#   From: 2010.05.17/outbox.cif.g08.bks.cpg/sg55_2_cif.got.tgz:3582.got - 2010.06.03 13:27:54.
