data_PCOD9427433
_publ_section_title
;
Structure prediction by ZEFSAII (Michael W. Deem and Ramdas Pophale) SiO2 
 PCOD9427433
Probable space group: P B A M
;
_chemical_formula_sum "Si O2"
_cell_formula_units_Z 64
_cell_length_a 16.507404
_cell_length_b 23.127032
_cell_length_c 8.907589
_cell_angle_alpha 90.000000
_cell_angle_beta 90.000000
_cell_angle_gamma 90.000000
_cell_volume 3400.625851
_symmetry_space_group_name_H-M "P B A M"
_symmetry_group_IT_number 55
_symmetry_cell_setting 'orthorhombic'
loop_
_space_group_symop_operation_xyz
x,y,z
-x,-y,z
1/2+x,1/2-y,-z
1/2-x,1/2+y,-z
-x,-y,-z
x,y,-z
1/2-x,1/2+y,z
1/2+x,1/2-y,z
loop_
_atom_site_type_symbol
_atom_site_label
_atom_site_fract_x
_atom_site_fract_y
_atom_site_fract_z
Si Si1 0.461537 0.723037 0.176768
Si Si2 0.299982 0.243249 0.334559
Si Si3 0.901578 0.152692 0.326949
Si Si4 0.090245 0.982272 0.680580
Si Si5 0.532585 0.830237 0.671992
Si Si6 0.254636 0.046969 0.320340
Si Si7 0.198094 0.161944 0.173427
Si Si8 0.070872 0.546104 0.180160
O O1 0.540963 0.686305 0.213745
O O2 0.469060 0.785089 0.256420
O O3 0.390104 0.680507 0.227994
O O4 0.451779 0.732487 0.000000
O O5 0.263078 0.231844 0.500000
O O6 0.319151 0.310915 0.324029
O O7 0.383931 0.206999 0.330166
O O8 0.248718 0.220031 0.197758
O O9 0.932728 0.159028 0.500000
O O10 0.897114 0.085589 0.292851
O O11 0.088129 0.992001 0.500000
O O12 0.171682 0.015113 0.733330
O O13 0.000000 0.000000 0.737429
O O14 0.511408 0.843314 0.500000
O O15 0.546871 0.890077 0.759065
O O16 0.260938 0.040950 0.500000
O O17 0.239096 0.113173 0.273593
O O18 0.340892 0.029714 0.248162
O O19 0.196660 0.143650 0.000000
O O20 0.000000 0.500000 0.218434
O O21 0.078059 0.548568 0.000000
#
# Coordination Sequence:
#
# PCOD9427433 Si02
#       8
#     8   8   8   8   8   8   8   8
#     4  10  21  35  54  84 118 152 189 235 293 356
#     4   9  18  32  54  80 108 140 181 234 289 344
#     4   9  18  35  56  79 110 146 188 234 286 346
#     4   9  18  34  58  88 121 157 195 242 297 351
#     4  10  20  37  61  87 111 144 191 244 296 350
#     4  11  22  37  62  91 120 157 206 255 297 352
#     4  11  22  35  54  81 115 151 191 238 291 354
#     4  11  24  42  63  85 117 160 201 250 308 364
#
# _framework density 18.820065
#
# number of rings (size 3 to 8) (size 9 to 14) (size 15 to 20)
#    0.000    2.000    1.250    3.375    0.000    6.000 
#    2.250    1.250    0.000    3.375    0.000    0.000 
#    0.000    0.000    0.000    0.000    0.000    0.000 
#
# Total GULP energy -356622.699882 kJ/mol
# GULP energy per Si atom -5572.229686 kJ/mol
# Density = 1.877723 g / cm^3
# Si number density = 18.820065 Si / 1000 Ang^3
#
#
#
# Elastic Constant Matrix: (Units=GPa)
#
#
# Indices 1 2 3 4 5 6 
#
# 1 87.0340 32.1685 26.5177 0.0000 0.0000 0.0000
# 2 32.1685 74.5596 15.8401 0.0000 0.0000 0.0000
# 3 26.5177 15.8401 37.1786 0.0000 0.0000 0.0000
# 4 0.0000 0.0000 0.0000 19.4982 0.0000 0.0000
# 5 0.0000 0.0000 0.0000 0.0000 25.6610 0.0000
# 6 0.0000 0.0000 0.0000 0.0000 0.0000 23.1906
#
#
#
# Elastic Compliance Matrix: (Units=1/GPa)
#
#
# Indices 1 2 3 4 5 6 
#
# 1 0.016208 -0.004989 -0.009435 0.000000 0.000000 0.000000
# 2 -0.004989 0.016282 -0.003379 0.000000 0.000000 0.000000
# 3 -0.009435 -0.003379 0.035067 0.000000 0.000000 0.000000
# 4 0.000000 0.000000 0.000000 0.051287 0.000000 0.000000
# 5 0.000000 0.000000 0.000000 0.000000 0.038970 0.000000
# 6 0.000000 0.000000 0.000000 0.000000 0.000000 0.043121
#
#
# Mechanical properties :
#
#
# Convention : Reuss Voigt Hill
#
# Bulk Modulus (GPa) = 31.29744 38.64721 34.97232
# Shear Modulus (GPa) = 20.22731 21.95301 21.09016
#
# Velocity S-wave (km/s) = 3.28193 3.41907 3.35120
# Velocity P-wave (km/s) = 5.57022 6.01385 5.79628
#
# Compressibility (1/GPa) = 0.03195150
#
# Stress axis : x y z
#
# Youngs Moduli (GPa) = 61.69674 61.41656 28.51723
#
# Poissons Ratio (x) = 0.30638 0.26907
# Poissons Ratio (y) = 0.30778 0.09636
# Poissons Ratio (z) = 0.58212 0.20753
#
# Static dielectric constant tensor:
#      x y z
#    x 1.707610 0.000000 0.000000 
#    y 0.000000 1.651660 0.000000 
#    z 0.000000 0.000000 1.655290 
# 
# From -- ./inp_files/6605.got.cif
#   From: 2010.05.17/outbox.cif.g08.bks.cpg/sg55_4_cif.got.tgz:6605.got - 2010.06.03 13:27:54.
