data_PCOD9427940
_publ_section_title
;
Structure prediction by ZEFSAII (Michael W. Deem and Ramdas Pophale) SiO2 
 PCOD9427940
Probable space group: P B A M
;
_chemical_formula_sum "Si O2"
_cell_formula_units_Z 64
_cell_length_a 18.676898
_cell_length_b 13.055580
_cell_length_c 13.516259
_cell_angle_alpha 90.000000
_cell_angle_beta 90.000000
_cell_angle_gamma 90.000000
_cell_volume 3295.773994
_symmetry_space_group_name_H-M "P B A M"
_symmetry_group_IT_number 55
_symmetry_cell_setting 'orthorhombic'
loop_
_space_group_symop_operation_xyz
x,y,z
-x,-y,z
1/2+x,1/2-y,-z
1/2-x,1/2+y,-z
-x,-y,-z
x,y,-z
1/2-x,1/2+y,z
1/2+x,1/2-y,z
loop_
_atom_site_type_symbol
_atom_site_label
_atom_site_fract_x
_atom_site_fract_y
_atom_site_fract_z
Si Si1 0.326767 0.425089 0.786360
Si Si2 0.439331 0.411849 0.615338
Si Si3 0.298840 0.209647 0.115665
Si Si4 0.664232 0.004796 0.794751
Si Si5 0.533702 0.250882 0.272403
Si Si6 0.964140 0.610046 0.108919
Si Si7 0.864327 0.866990 0.115961
Si Si8 0.422563 0.945408 0.612549
O O1 0.371595 0.434896 0.685058
O O2 0.326486 0.308942 0.826092
O O3 0.243761 0.455055 0.777218
O O4 0.357407 0.511658 0.860921
O O5 0.500000 0.500000 0.620629
O O6 0.420544 0.397351 0.500000
O O7 0.478755 0.314758 0.663409
O O8 0.333652 0.102728 0.149098
O O9 0.213389 0.187409 0.128229
O O10 0.312105 0.226670 0.000000
O O11 0.617206 0.086646 0.857097
O O12 0.626794 0.994754 0.689002
O O13 0.497900 0.178375 0.190310
O O14 0.584376 0.319948 0.201239
O O15 0.572779 0.170635 0.345500
O O16 0.000000 0.500000 0.108589
O O17 0.967181 0.654315 0.000000
O O18 0.885286 0.854223 0.000000
O O19 0.397487 0.946204 0.500000
O O20 0.500000 0.000000 0.616203
#
# Coordination Sequence:
#
# PCOD9427940 Si02
#       8
#     8   8   8   8   8   8   8   8
#     4  11  23  40  62  89 122 162 207 256 304 358
#     4  11  25  45  65  84 115 161 213 263 315 362
#     4  10  21  36  61  91 125 165 198 237 300 364
#     4  10  21  38  60  89 128 158 202 251 302 361
#     4  11  20  38  62  87 116 159 203 252 299 360
#     4  10  21  36  60  94 130 168 203 239 294 367
#     4  10  21  39  61  91 125 163 202 240 294 366
#     4  10  22  39  63  91 120 157 201 251 309 363
#
# _framework density 19.418807000000001
#
# number of rings (size 3 to 8) (size 9 to 14) (size 15 to 20)
#    0.000    1.625    1.250    4.500    3.500    3.000 
#    0.000    2.500    0.000    0.750    0.000    0.000 
#    0.000    0.000    0.000    0.000    0.000    0.000 
#
# Total GULP energy -357236.328123 kJ/mol
# GULP energy per Si atom -5581.817627 kJ/mol
# Density = 1.937461 g / cm^3
# Si number density = 19.418807 Si / 1000 Ang^3
#
#
#
# Elastic Constant Matrix: (Units=GPa)
#
#
# Indices 1 2 3 4 5 6 
#
# 1 48.4051 4.3524 11.6831 0.0000 0.0000 0.0000
# 2 4.3524 84.4225 18.9072 0.0000 0.0000 0.0000
# 3 11.6831 18.9072 119.2230 0.0000 0.0000 0.0000
# 4 0.0000 0.0000 0.0000 14.1379 0.0000 0.0000
# 5 0.0000 0.0000 0.0000 0.0000 22.7297 0.0000
# 6 0.0000 0.0000 0.0000 0.0000 0.0000 28.6192
#
#
#
# Elastic Compliance Matrix: (Units=1/GPa)
#
#
# Indices 1 2 3 4 5 6 
#
# 1 0.021194 -0.000651 -0.001974 0.000000 0.000000 0.000000
# 2 -0.000651 0.012301 -0.001887 0.000000 0.000000 0.000000
# 3 -0.001974 -0.001887 0.008880 0.000000 0.000000 0.000000
# 4 0.000000 0.000000 0.000000 0.070732 0.000000 0.000000
# 5 0.000000 0.000000 0.000000 0.000000 0.043995 0.000000
# 6 0.000000 0.000000 0.000000 0.000000 0.000000 0.034942
#
#
# Mechanical properties :
#
#
# Convention : Reuss Voigt Hill
#
# Bulk Modulus (GPa) = 29.98253 35.77068 32.87661
# Shear Modulus (GPa) = 23.56438 27.57121 25.56779
#
# Velocity S-wave (km/s) = 3.48729 3.77214 3.63251
# Velocity P-wave (km/s) = 5.62924 6.11822 5.87882
#
# Compressibility (1/GPa) = 0.03335275
#
# Stress axis : x y z
#
# Youngs Moduli (GPa) = 47.18348 81.29187 112.60857
#
# Poissons Ratio (x) = 0.05289 0.22225
# Poissons Ratio (y) = 0.03070 0.21250
# Poissons Ratio (z) = 0.09312 0.15340
#
# Static dielectric constant tensor:
#      x y z
#    x 1.695990 0.000000 0.000000 
#    y 0.000000 1.704400 0.000000 
#    z 0.000000 0.000000 1.654590 
# 
# From -- ./inp_files/19529.got.cif
#   From: 2010.05.17/outbox.cif.g08.bks.cpg/sg55_10_cif.got.tgz:19529.got - 2010.06.03 13:27:54.
