data_PCOD9427283
_publ_section_title
;
Structure prediction by ZEFSAII (Michael W. Deem and Ramdas Pophale) SiO2 
 PCOD9427283
Probable space group: P B A M
;
_chemical_formula_sum "Si O2"
_cell_formula_units_Z 64
_cell_length_a 8.641416
_cell_length_b 22.058044
_cell_length_c 17.090719
_cell_angle_alpha 90.000000
_cell_angle_beta 90.000000
_cell_angle_gamma 90.000000
_cell_volume 3257.708681
_symmetry_space_group_name_H-M "P B A M"
_symmetry_group_IT_number 55
_symmetry_cell_setting 'orthorhombic'
loop_
_space_group_symop_operation_xyz
x,y,z
-x,-y,z
1/2+x,1/2-y,-z
1/2-x,1/2+y,-z
-x,-y,-z
x,y,-z
1/2-x,1/2+y,z
1/2+x,1/2-y,z
loop_
_atom_site_type_symbol
_atom_site_label
_atom_site_fract_x
_atom_site_fract_y
_atom_site_fract_z
Si Si1 0.688143 0.338786 0.780700
Si Si2 0.851185 0.731242 0.410143
Si Si3 0.151330 0.963834 0.872119
Si Si4 0.139782 0.356239 0.912589
Si Si5 0.548250 0.662526 0.413909
Si Si6 0.193158 0.581414 0.089520
Si Si7 0.969142 0.714940 0.760267
Si Si8 0.986047 0.066485 0.705049
O O1 0.704371 0.368636 0.866109
O O2 0.853277 0.307071 0.764883
O O3 0.557556 0.287149 0.772584
O O4 0.642443 0.397007 0.727969
O O5 0.903219 0.713670 0.500000
O O6 0.887309 0.802572 0.402488
O O7 0.913997 0.702145 0.329131
O O8 0.670439 0.716907 0.409468
O O9 0.217646 0.903223 0.910314
O O10 0.104701 0.944415 0.785037
O O11 0.281243 0.015892 0.872460
O O12 0.000000 0.000000 0.903942
O O13 0.983011 0.396175 0.908046
O O14 0.125217 0.315435 0.833574
O O15 0.139338 0.326121 0.000000
O O16 0.551276 0.635652 0.500000
O O17 0.594412 0.612553 0.352739
O O18 0.239681 0.575896 0.000000
O O19 0.000000 0.000000 0.669045
#
# Coordination Sequence:
#
# PCOD9427283 Si02
#       8
#     8   8   8   8   8   8   8   8
#     4  11  23  40  58  90 116 156 200 244 308 363
#     4  10  20  36  60  95 122 152 197 245 293 352
#     4  11  21  36  60  86 114 159 201 250 292 342
#     4  10  23  39  58  88 123 158 201 247 305 364
#     4  10  21  36  61  92 124 157 196 244 301 358
#     4  10  21  40  59  83 118 155 201 252 295 352
#     4  11  23  38  66  86 124 161 194 253 314 362
#     4  11  22  39  60  84 122 154 206 248 295 365
#
# _framework density 19.645710000000001
#
# number of rings (size 3 to 8) (size 9 to 14) (size 15 to 20)
#    0.000    1.500    3.750    2.250    1.750    2.750 
#    0.000    0.000    0.000    0.000    0.000    1.750 
#    0.000    0.000    0.000    0.000    0.000    0.000 
#
# Total GULP energy -356383.211224 kJ/mol
# GULP energy per Si atom -5568.487675 kJ/mol
# Density = 1.960100 g / cm^3
# Si number density = 19.645710 Si / 1000 Ang^3
#
#
#
# Elastic Constant Matrix: (Units=GPa)
#
#
# Indices 1 2 3 4 5 6 
#
# 1 34.3573 33.1378 27.4911 0.0000 0.0000 0.0000
# 2 33.1378 103.3449 48.2492 0.0000 0.0000 0.0000
# 3 27.4911 48.2492 138.7010 0.0000 0.0000 0.0000
# 4 0.0000 0.0000 0.0000 26.8023 0.0000 0.0000
# 5 0.0000 0.0000 0.0000 0.0000 18.4788 0.0000
# 6 0.0000 0.0000 0.0000 0.0000 0.0000 32.4877
#
#
#
# Elastic Compliance Matrix: (Units=1/GPa)
#
#
# Indices 1 2 3 4 5 6 
#
# 1 0.044468 -0.012111 -0.004601 0.000000 0.000000 0.000000
# 2 -0.012111 0.014851 -0.002766 0.000000 0.000000 0.000000
# 3 -0.004601 -0.002766 0.009084 0.000000 0.000000 0.000000
# 4 0.000000 0.000000 0.000000 0.037310 0.000000 0.000000
# 5 0.000000 0.000000 0.000000 0.000000 0.054116 0.000000
# 6 0.000000 0.000000 0.000000 0.000000 0.000000 0.030781
#
#
# Mechanical properties :
#
#
# Convention : Reuss Voigt Hill
#
# Bulk Modulus (GPa) = 33.95796 54.90663 44.43229
# Shear Modulus (GPa) = 20.88720 26.72210 23.80465
#
# Velocity S-wave (km/s) = 3.26420 3.69209 3.48472
# Velocity P-wave (km/s) = 5.61510 6.79591 6.23353
#
# Compressibility (1/GPa) = 0.02944818
#
# Stress axis : x y z
#
# Youngs Moduli (GPa) = 22.48791 67.33571 110.08661
#
# Poissons Ratio (x) = 0.81549 0.50649
# Poissons Ratio (y) = 0.27235 0.30447
# Poissons Ratio (z) = 0.10346 0.18623
#
# Static dielectric constant tensor:
#      x y z
#    x 1.736040 0.000000 0.000000 
#    y 0.000000 1.692890 0.000000 
#    z 0.000000 0.000000 1.759890 
# 
# From -- ./inp_files/21109.got.cif
#   From: 2010.05.17/outbox.cif.g08.bks.cpg/sg55_11_cif.got.tgz:21109.got - 2010.06.03 13:27:54.
