data_PCOD9427172
_publ_section_title
;
Structure prediction by ZEFSAII (Michael W. Deem and Ramdas Pophale) SiO2 
 PCOD9427172
Probable space group: P B A M
;
_chemical_formula_sum "Si O2"
_cell_formula_units_Z 64
_cell_length_a 18.883122
_cell_length_b 9.819285
_cell_length_c 18.173779
_cell_angle_alpha 90.000000
_cell_angle_beta 90.000000
_cell_angle_gamma 90.000000
_cell_volume 3369.759505
_symmetry_space_group_name_H-M "P B A M"
_symmetry_group_IT_number 55
_symmetry_cell_setting 'orthorhombic'
loop_
_space_group_symop_operation_xyz
x,y,z
-x,-y,z
1/2+x,1/2-y,-z
1/2-x,1/2+y,-z
-x,-y,-z
x,y,-z
1/2-x,1/2+y,z
1/2+x,1/2-y,z
loop_
_atom_site_type_symbol
_atom_site_label
_atom_site_fract_x
_atom_site_fract_y
_atom_site_fract_z
Si Si1 0.821679 0.848615 0.586516
Si Si2 0.753326 0.106849 0.665526
Si Si3 0.165589 0.433717 0.085470
Si Si4 0.048393 0.190691 0.313900
Si Si5 0.118023 0.448883 0.759421
Si Si6 0.923269 0.003785 0.174077
Si Si7 0.103116 0.762436 0.723701
Si Si8 0.205126 0.125356 0.085020
O O1 0.819463 0.872698 0.500000
O O2 0.787080 0.703754 0.607926
O O3 0.901504 0.844819 0.618124
O O4 0.778465 0.965389 0.629932
O O5 0.698668 0.083022 0.732742
O O6 0.823088 0.185830 0.691686
O O7 0.110629 0.434138 0.152602
O O8 0.220400 0.555105 0.102338
O O9 0.205203 0.288170 0.091944
O O10 0.141202 0.445399 0.000000
O O11 0.070579 0.338057 0.282068
O O12 0.066790 0.084950 0.248592
O O13 0.964397 0.193571 0.325512
O O14 0.102425 0.601869 0.735240
O O15 0.907312 0.156854 0.199680
O O16 0.858194 0.937940 0.131904
O O17 0.000000 0.000000 0.135320
O O18 0.190697 0.092238 0.000000
#
# Coordination Sequence:
#
# PCOD9427172 Si02
#       8
#     8   8   8   8   8   8   8   8
#     4  11  23  41  62  91 126 156 192 246 300 353
#     4  11  22  38  63  93 117 156 200 244 291 358
#     4  10  22  35  56  86 117 150 195 247 299 353
#     4  10  22  40  62  86 119 153 200 241 293 356
#     4  11  22  37  64  86 119 160 201 244 304 348
#     4  10  20  36  58  83 110 147 195 243 280 345
#     4  11  22  38  61  91 118 149 204 248 285 348
#     4  10  21  37  54  81 116 150 189 244 304 350
#
# _framework density 18.992453000000001
#
# number of rings (size 3 to 8) (size 9 to 14) (size 15 to 20)
#    0.000    1.500    3.750    1.500    3.500    0.250 
#    0.000    1.875    0.000    3.750    0.000    0.000 
#    0.000    0.000    0.000    0.000    0.000    0.000 
#
# Total GULP energy -357309.557275 kJ/mol
# GULP energy per Si atom -5582.961832 kJ/mol
# Density = 1.894923 g / cm^3
# Si number density = 18.992453 Si / 1000 Ang^3
#
#
#
# Elastic Constant Matrix: (Units=GPa)
#
#
# Indices 1 2 3 4 5 6 
#
# 1 65.0296 -2.9014 4.9595 0.0000 0.0000 0.0000
# 2 -2.9014 84.4010 -3.8989 0.0000 0.0000 0.0000
# 3 4.9595 -3.8989 52.2788 0.0000 0.0000 0.0000
# 4 0.0000 0.0000 0.0000 20.5972 0.0000 0.0000
# 5 0.0000 0.0000 0.0000 0.0000 16.9204 0.0000
# 6 0.0000 0.0000 0.0000 0.0000 0.0000 25.4248
#
#
#
# Elastic Compliance Matrix: (Units=1/GPa)
#
#
# Indices 1 2 3 4 5 6 
#
# 1 0.015508 0.000467 -0.001436 0.000000 0.000000 0.000000
# 2 0.000467 0.011903 0.000843 0.000000 0.000000 0.000000
# 3 -0.001436 0.000843 0.019327 0.000000 0.000000 0.000000
# 4 0.000000 0.000000 0.000000 0.048550 0.000000 0.000000
# 5 0.000000 0.000000 0.000000 0.000000 0.059100 0.000000
# 6 0.000000 0.000000 0.000000 0.000000 0.000000 0.039332
#
#
# Mechanical properties :
#
#
# Convention : Reuss Voigt Hill
#
# Bulk Modulus (GPa) = 21.51175 22.00310 21.75743
# Shear Modulus (GPa) = 23.86995 26.15851 25.01423
#
# Velocity S-wave (km/s) = 3.54900 3.71524 3.63307
# Velocity P-wave (km/s) = 5.30518 5.47853 5.39255
#
# Compressibility (1/GPa) = 0.04648621
#
# Stress axis : x y z
#
# Youngs Moduli (GPa) = 64.48295 84.01098 51.74008
#
# Poissons Ratio (x) = -0.03921 0.07432
# Poissons Ratio (y) = -0.03010 -0.04364
# Poissons Ratio (z) = 0.09262 -0.07086
#
# Static dielectric constant tensor:
#      x y z
#    x 1.685250 0.000000 0.000000 
#    y 0.000000 1.665680 0.000000 
#    z 0.000000 0.000000 1.643750 
# 
# From -- ./inp_files/21955.got.cif
#   From: 2010.05.17/outbox.cif.g08.bks.cpg/sg55_11_cif.got.tgz:21955.got - 2010.06.03 13:27:54.
