data_PCOD9427280
_publ_section_title
;
Structure prediction by ZEFSAII (Michael W. Deem and Ramdas Pophale) SiO2 
 PCOD9427280
Probable space group: P B A M
;
_chemical_formula_sum "Si O2"
_cell_formula_units_Z 64
_cell_length_a 23.734970
_cell_length_b 15.611372
_cell_length_c 8.604516
_cell_angle_alpha 90.000000
_cell_angle_beta 90.000000
_cell_angle_gamma 90.000000
_cell_volume 3188.278174
_symmetry_space_group_name_H-M "P B A M"
_symmetry_group_IT_number 55
_symmetry_cell_setting 'orthorhombic'
loop_
_space_group_symop_operation_xyz
x,y,z
-x,-y,z
1/2+x,1/2-y,-z
1/2-x,1/2+y,-z
-x,-y,-z
x,y,-z
1/2-x,1/2+y,z
1/2+x,1/2-y,z
loop_
_atom_site_type_symbol
_atom_site_label
_atom_site_fract_x
_atom_site_fract_y
_atom_site_fract_z
Si Si1 0.692459 0.295817 0.818001
Si Si2 0.626076 0.148792 0.321460
Si Si3 0.809088 0.312899 0.683013
Si Si4 0.795848 0.503605 0.813656
Si Si5 0.496943 0.096873 0.681671
Si Si6 0.330440 0.509935 0.811702
Si Si7 0.923334 0.251639 0.185197
Si Si8 0.549721 0.564144 0.810201
O O1 0.645568 0.225941 0.786515
O O2 0.749023 0.272346 0.726201
O O3 0.671331 0.389693 0.769098
O O4 0.706812 0.300276 0.000000
O O5 0.639893 0.169384 0.500000
O O6 0.660189 0.065090 0.269289
O O7 0.559979 0.132468 0.310495
O O8 0.813674 0.326961 0.500000
O O9 0.808281 0.405323 0.768303
O O10 0.861301 0.257422 0.742003
O O11 0.731180 0.524769 0.764819
O O12 0.799838 0.512944 0.000000
O O13 0.479147 0.091567 0.500000
O O14 0.456015 0.162762 0.765917
O O15 0.500000 0.000000 0.744165
O O16 0.388165 0.466885 0.757399
O O17 0.331397 0.504941 0.000000
O O18 0.955094 0.164145 0.234603
O O19 0.917590 0.249049 0.000000
O O20 0.500000 0.500000 0.757665
O O21 0.549040 0.561074 0.000000
#
# Coordination Sequence:
#
# PCOD9427280 Si02
#       8
#     8   8   8   8   8   8   8   8
#     4  10  21  37  60  87 119 157 203 256 303 360
#     4  11  23  37  58  89 123 161 203 248 309 375
#     4  11  22  39  61  86 124 162 197 247 311 374
#     4  10  20  36  60  90 121 158 200 249 303 365
#     4  10  23  43  63  84 120 167 207 250 311 374
#     4   8  17  34  56  83 116 154 194 241 303 358
#     4  11  23  37  63  96 124 157 207 259 304 370
#     4   9  19  35  57  87 122 156 196 250 308 362
#
# _framework density 20.073530999999999
#
# number of rings (size 3 to 8) (size 9 to 14) (size 15 to 20)
#    0.000    2.000    0.000    4.125    3.500    2.250 
#    0.000    0.000    0.000    3.750    0.000    0.000 
#    0.000    0.000    0.000    0.000    0.000    0.000 
#
# Total GULP energy -357447.786222 kJ/mol
# GULP energy per Si atom -5585.121660 kJ/mol
# Density = 2.002784 g / cm^3
# Si number density = 20.073531 Si / 1000 Ang^3
#
#
#
# Elastic Constant Matrix: (Units=GPa)
#
#
# Indices 1 2 3 4 5 6 
#
# 1 65.5780 24.2902 20.6608 0.0000 0.0000 0.0000
# 2 24.2902 66.9590 8.8304 0.0000 0.0000 0.0000
# 3 20.6608 8.8304 34.6736 0.0000 0.0000 0.0000
# 4 0.0000 0.0000 0.0000 14.8458 0.0000 0.0000
# 5 0.0000 0.0000 0.0000 0.0000 20.2900 0.0000
# 6 0.0000 0.0000 0.0000 0.0000 0.0000 29.7011
#
#
#
# Elastic Compliance Matrix: (Units=1/GPa)
#
#
# Indices 1 2 3 4 5 6 
#
# 1 0.020977 -0.006168 -0.010929 0.000000 0.000000 0.000000
# 2 -0.006168 0.017267 -0.000722 0.000000 0.000000 0.000000
# 3 -0.010929 -0.000722 0.035536 0.000000 0.000000 0.000000
# 4 0.000000 0.000000 0.000000 0.067359 0.000000 0.000000
# 5 0.000000 0.000000 0.000000 0.000000 0.049285 0.000000
# 6 0.000000 0.000000 0.000000 0.000000 0.000000 0.033669
#
#
# Mechanical properties :
#
#
# Convention : Reuss Voigt Hill
#
# Bulk Modulus (GPa) = 26.21733 30.53038 28.37386
# Shear Modulus (GPa) = 18.35228 20.52933 19.44081
#
# Velocity S-wave (km/s) = 3.02694 3.20145 3.11542
# Velocity P-wave (km/s) = 5.03046 5.37661 5.20641
#
# Compressibility (1/GPa) = 0.03814270
#
# Stress axis : x y z
#
# Youngs Moduli (GPa) = 47.67143 57.91261 28.14035
#
# Poissons Ratio (x) = 0.35723 0.30753
# Poissons Ratio (y) = 0.29406 0.02032
# Poissons Ratio (z) = 0.52098 0.04181
#
# Static dielectric constant tensor:
#      x y z
#    x 1.698930 0.000000 0.000000 
#    y 0.000000 1.713020 0.000000 
#    z 0.000000 0.000000 1.688830 
# 
# From -- ./inp_files/9746.got.cif
#   From: 2010.05.17/outbox.cif.g08.bks.cpg/sg55_5_cif.got.tgz:9746.got - 2010.06.03 13:27:54.
