data_PCOD9427583
_publ_section_title
;
Structure prediction by ZEFSAII (Michael W. Deem and Ramdas Pophale) SiO2 
 PCOD9427583
Probable space group: P B A M
;
_chemical_formula_sum "Si O2"
_cell_formula_units_Z 48
_cell_length_a 11.106775
_cell_length_b 14.552338
_cell_length_c 14.383319
_cell_angle_alpha 90.000000
_cell_angle_beta 90.000000
_cell_angle_gamma 90.000000
_cell_volume 2324.769290
_symmetry_space_group_name_H-M "P B A M"
_symmetry_group_IT_number 55
_symmetry_cell_setting 'orthorhombic'
loop_
_space_group_symop_operation_xyz
x,y,z
-x,-y,z
1/2+x,1/2-y,-z
1/2-x,1/2+y,-z
-x,-y,-z
x,y,-z
1/2-x,1/2+y,z
1/2+x,1/2-y,z
loop_
_atom_site_type_symbol
_atom_site_label
_atom_site_fract_x
_atom_site_fract_y
_atom_site_fract_z
Si Si1 0.142585 0.019012 0.234167
Si Si2 0.023492 0.596913 0.104486
Si Si3 0.252445 0.371251 0.104624
Si Si4 0.292841 0.200732 0.765933
Si Si5 0.186745 0.449949 0.607633
Si Si6 0.450223 0.146902 0.606190
O O1 0.202071 0.969240 0.143907
O O2 0.204744 0.968149 0.322191
O O3 0.182219 0.127126 0.239418
O O4 0.000000 0.000000 0.232585
O O5 0.112928 0.651653 0.166194
O O6 0.000000 0.500000 0.152686
O O7 0.891015 0.636045 0.096055
O O8 0.072747 0.581956 0.000000
O O9 0.277229 0.296836 0.183615
O O10 0.302580 0.354229 0.000000
O O11 0.364608 0.208809 0.669234
O O12 0.220671 0.431105 0.500000
O O13 0.115061 0.547251 0.607053
O O14 0.087687 0.373520 0.638240
O O15 0.456148 0.178961 0.500000
#
# Coordination Sequence:
#
# PCOD9427583 Si02
#       6
#     8   8   8   8   8   8
#     4  11  24  40  58  88 128 165 198 247 315 373
#     4  10  20  38  63  86 111 151 207 260 303 353
#     4  11  25  41  60  89 118 156 212 258 306 367
#     4  11  22  38  63  86 122 161 201 253 312 367
#     4   8  15  32  60  90 117 152 200 246 298 356
#     4   8  15  30  59  93 119 149 197 253 296 350
#
# _framework density 20.647210000000001
#
# number of rings (size 3 to 8) (size 9 to 14) (size 15 to 20)
#    0.000    2.167    1.667    2.500    4.667    1.333 
#    0.000    0.833    0.000    1.000    0.000    0.000 
#    0.000    0.000    0.000    0.000    0.000    0.000 
#
# Total GULP energy -267626.718684 kJ/mol
# GULP energy per Si atom -5575.556639 kJ/mol
# Density = 2.060022 g / cm^3
# Si number density = 20.647210 Si / 1000 Ang^3
#
#
#
# Elastic Constant Matrix: (Units=GPa)
#
#
# Indices 1 2 3 4 5 6 
#
# 1 74.4413 -18.4359 22.7091 0.0000 0.0000 0.0000
# 2 -18.4359 38.3124 10.8119 0.0000 0.0000 0.0000
# 3 22.7091 10.8119 94.5200 0.0000 0.0000 0.0000
# 4 0.0000 0.0000 0.0000 -108.5512 0.0000 0.0000
# 5 0.0000 0.0000 0.0000 0.0000 -267.6605 0.0000
# 6 0.0000 0.0000 0.0000 0.0000 0.0000 15.1654
#
#
#
# Elastic Compliance Matrix: (Units=1/GPa)
#
#
# Indices 1 2 3 4 5 6 
#
# 1 0.017528 0.009944 -0.005349 0.000000 0.000000 0.000000
# 2 0.009944 0.032613 -0.006120 0.000000 0.000000 0.000000
# 3 -0.005349 -0.006120 0.012565 0.000000 0.000000 0.000000
# 4 0.000000 0.000000 0.000000 -0.009212 0.000000 0.000000
# 5 0.000000 0.000000 0.000000 0.000000 -0.003736 0.000000
# 6 0.000000 0.000000 0.000000 0.000000 0.000000 0.065940
#
#
# Mechanical properties :
#
#
# Convention : Reuss Voigt Hill
#
# Bulk Modulus (GPa) = 16.76258 26.38263 21.57261
# Shear Modulus (GPa) = 36.06693 -59.39667 -11.66487
#
# Velocity S-wave (km/s) = 4.18403 -5.36934 -2.37947
# Velocity P-wave (km/s) = 5.61050 5.06303 1.70930
#
# Compressibility (1/GPa) = 0.05965667
#
# Stress axis : x y z
#
# Youngs Moduli (GPa) = 57.05264 30.66258 79.58743
#
# Poissons Ratio (x) = -0.30490 0.42568
# Poissons Ratio (y) = -0.56731 0.48704
# Poissons Ratio (z) = 0.30515 0.18764
#
# Static dielectric constant tensor:
#      x y z
#    x 3.512410 0.000000 0.000000 
#    y 0.000000 1.766870 0.000000 
#    z 0.000000 0.000000 1.798900 
# 
# From -- ./inp_files/18298.got.cif
#   From: 2010.05.17/outbox.cif.g08.bks.cpg/sg55_10_cif.got.tgz:18298.got - 2010.06.03 13:27:54.
