data_PCOD9427500
_publ_section_title
;
Structure prediction by ZEFSAII (Michael W. Deem and Ramdas Pophale) SiO2 
 PCOD9427500
Probable space group: P B A M
;
_chemical_formula_sum "Si O2"
_cell_formula_units_Z 64
_cell_length_a 12.273581
_cell_length_b 28.903079
_cell_length_c 8.867854
_cell_angle_alpha 90.000000
_cell_angle_beta 90.000000
_cell_angle_gamma 90.000000
_cell_volume 3145.820494
_symmetry_space_group_name_H-M "P B A M"
_symmetry_group_IT_number 55
_symmetry_cell_setting 'orthorhombic'
loop_
_space_group_symop_operation_xyz
x,y,z
-x,-y,z
1/2+x,1/2-y,-z
1/2-x,1/2+y,-z
-x,-y,-z
x,y,-z
1/2-x,1/2+y,z
1/2+x,1/2-y,z
loop_
_atom_site_type_symbol
_atom_site_label
_atom_site_fract_x
_atom_site_fract_y
_atom_site_fract_z
Si Si1 0.418386 0.786893 0.824470
Si Si2 0.864843 0.809951 0.323547
Si Si3 0.823499 0.621214 0.679247
Si Si4 0.648787 0.561470 0.179241
Si Si5 0.851686 0.330137 0.168937
Si Si6 0.974794 0.428519 0.174197
Si Si7 0.275077 0.025089 0.679898
Si Si8 0.071698 0.089321 0.680406
O O1 0.391394 0.736167 0.766645
O O2 0.360896 0.827794 0.730719
O O3 0.547658 0.795456 0.812479
O O4 0.388635 0.792872 0.000000
O O5 0.884664 0.802263 0.500000
O O6 0.738957 0.821999 0.292683
O O7 0.927731 0.856632 0.276482
O O8 0.812894 0.618692 0.500000
O O9 0.711972 0.606556 0.759584
O O10 0.916725 0.585049 0.735000
O O11 0.713899 0.519075 0.253136
O O12 0.524621 0.563042 0.235080
O O13 0.654241 0.558689 0.000000
O O14 0.905401 0.380728 0.175916
O O15 0.804198 0.324426 0.000000
O O16 0.892270 0.465457 0.245518
O O17 0.001627 0.439248 0.000000
O O18 0.287710 0.020860 0.500000
O O19 0.189977 0.067043 0.710960
O O20 0.054059 0.085730 0.500000
#
# Coordination Sequence:
#
# PCOD9427500 Si02
#       8
#     8   8   8   8   8   8   8   8
#     4  10  22  40  61  89 122 159 201 251 309 367
#     4  11  22  37  61  92 121 158 204 251 302 365
#     4  11  23  42  65  89 122 164 206 254 314 376
#     4  12  26  42  62  90 126 167 209 258 314 373
#     4   9  19  36  58  83 117 156 194 246 304 358
#     4  10  20  37  63  93 124 157 201 254 304 362
#     4  11  22  40  65  93 125 165 209 257 310 368
#     4  10  23  42  62  89 126 165 208 257 308 366
#
# _framework density 20.344453000000001
#
# number of rings (size 3 to 8) (size 9 to 14) (size 15 to 20)
#    0.000    1.500    1.250    4.875    0.000    7.500 
#    0.000    5.000    0.000    0.000    0.000    0.000 
#    0.000    0.000    0.000    0.000    0.000    0.000 
#
# Total GULP energy -357851.618323 kJ/mol
# GULP energy per Si atom -5591.431536 kJ/mol
# Density = 2.029815 g / cm^3
# Si number density = 20.344453 Si / 1000 Ang^3
#
#
#
# Elastic Constant Matrix: (Units=GPa)
#
#
# Indices 1 2 3 4 5 6 
#
# 1 51.8069 7.5793 23.5870 0.0000 0.0000 0.0000
# 2 7.5793 68.3132 10.1138 0.0000 0.0000 0.0000
# 3 23.5870 10.1138 55.2323 0.0000 0.0000 0.0000
# 4 0.0000 0.0000 0.0000 29.0157 0.0000 0.0000
# 5 0.0000 0.0000 0.0000 0.0000 67.8102 0.0000
# 6 0.0000 0.0000 0.0000 0.0000 0.0000 26.3957
#
#
#
# Elastic Compliance Matrix: (Units=1/GPa)
#
#
# Indices 1 2 3 4 5 6 
#
# 1 0.024053 -0.001180 -0.010056 0.000000 0.000000 0.000000
# 2 -0.001180 0.015104 -0.002262 0.000000 0.000000 0.000000
# 3 -0.010056 -0.002262 0.022814 0.000000 0.000000 0.000000
# 4 0.000000 0.000000 0.000000 0.034464 0.000000 0.000000
# 5 0.000000 0.000000 0.000000 0.000000 0.014747 0.000000
# 6 0.000000 0.000000 0.000000 0.000000 0.000000 0.037885
#
#
# Mechanical properties :
#
#
# Convention : Reuss Voigt Hill
#
# Bulk Modulus (GPa) = 28.59104 28.65697 28.62401
# Shear Modulus (GPa) = 26.63511 33.58246 30.10879
#
# Velocity S-wave (km/s) = 3.62222 4.06728 3.85119
# Velocity P-wave (km/s) = 5.61943 6.01444 5.82029
#
# Compressibility (1/GPa) = 0.03497599
#
# Stress axis : x y z
#
# Youngs Moduli (GPa) = 41.57410 66.20650 43.83279
#
# Poissons Ratio (x) = 0.07812 0.44078
# Poissons Ratio (y) = 0.04905 0.09915
# Poissons Ratio (z) = 0.41807 0.14975
#
# Static dielectric constant tensor:
#      x y z
#    x 1.708850 0.000000 0.000000 
#    y 0.000000 1.744090 0.000000 
#    z 0.000000 0.000000 1.687430 
# 
# From -- ./inp_files/4510.got.cif
#   From: 2010.05.17/outbox.cif.g08.bks.cpg/sg55_3_cif.got.tgz:4510.got - 2010.06.03 13:27:54.
