data_PCOD9427523
_publ_section_title
;
Structure prediction by ZEFSAII (Michael W. Deem and Ramdas Pophale) SiO2 
 PCOD9427523
Probable space group: P B A M
;
_chemical_formula_sum "Si O2"
_cell_formula_units_Z 64
_cell_length_a 28.701248
_cell_length_b 13.140608
_cell_length_c 7.516012
_cell_angle_alpha 90.000000
_cell_angle_beta 90.000000
_cell_angle_gamma 90.000000
_cell_volume 2834.677823
_symmetry_space_group_name_H-M "P B A M"
_symmetry_group_IT_number 55
_symmetry_cell_setting 'orthorhombic'
loop_
_space_group_symop_operation_xyz
x,y,z
-x,-y,z
1/2+x,1/2-y,-z
1/2-x,1/2+y,-z
-x,-y,-z
x,y,-z
1/2-x,1/2+y,z
1/2+x,1/2-y,z
loop_
_atom_site_type_symbol
_atom_site_label
_atom_site_fract_x
_atom_site_fract_y
_atom_site_fract_z
Si Si1 0.948571 0.465429 0.217316
Si Si2 0.296531 0.766281 0.206546
Si Si3 0.970640 0.903241 0.286079
Si Si4 0.052149 0.766063 0.791272
Si Si5 0.356069 0.361134 0.297544
Si Si6 0.297425 0.172330 0.796660
Si Si7 0.135530 0.083981 0.283235
Si Si8 0.651916 0.031810 0.218392
O O1 0.941141 0.348530 0.273472
O O2 0.902578 0.527823 0.272852
O O3 0.000000 0.500000 0.276358
O O4 0.949485 0.466759 0.000000
O O5 0.249315 0.719291 0.287177
O O6 0.334051 0.676759 0.216965
O O7 0.319706 0.869123 0.279904
O O8 0.285546 0.790339 0.000000
O O9 0.969435 0.909296 0.500000
O O10 0.917780 0.904144 0.223475
O O11 0.999788 0.803775 0.236280
O O12 0.000000 0.000000 0.218870
O O13 0.088310 0.843438 0.702631
O O14 0.062607 0.768118 0.000000
O O15 0.339167 0.357313 0.500000
O O16 0.333858 0.264937 0.202152
O O17 0.346205 0.473107 0.224393
O O18 0.321896 0.071467 0.721872
O O19 0.285267 0.144161 0.000000
O O20 0.136326 0.083642 0.500000
O O21 0.651062 0.032051 0.000000
#
# Coordination Sequence:
#
# PCOD9427523 Si02
#       8
#     8   8   8   8   8   8   8   8
#     4   9  18  32  53  80 114 152 184 227 288 348
#     4  10  23  38  62  90 116 153 194 245 298 351
#     4  10  20  38  57  77 116 162 190 227 290 351
#     4  11  21  34  57  88 114 148 196 246 290 345
#     4  11  22  39  61  85 116 157 198 242 295 355
#     4  10  21  39  62  89 117 149 192 245 299 349
#     4  10  23  41  59  81 119 163 199 239 294 352
#     4   9  18  36  56  82 121 153 184 234 300 352
#
# _framework density 22.577521999999998
#
# number of rings (size 3 to 8) (size 9 to 14) (size 15 to 20)
#    0.000    2.000    2.500    0.750    3.500    2.250 
#    0.000    0.625    0.000    1.500    0.000    0.000 
#    0.000    0.000    0.000    0.000    0.000    0.000 
#
# Total GULP energy -357545.850554 kJ/mol
# GULP energy per Si atom -5586.653915 kJ/mol
# Density = 2.252613 g / cm^3
# Si number density = 22.577522 Si / 1000 Ang^3
#
#
#
# Elastic Constant Matrix: (Units=GPa)
#
#
# Indices 1 2 3 4 5 6 
#
# 1 149.3400 69.5319 0.4686 0.0000 0.0000 0.0000
# 2 69.5319 144.5973 -1.7390 0.0000 0.0000 0.0000
# 3 0.4686 -1.7390 59.7876 0.0000 0.0000 0.0000
# 4 0.0000 0.0000 0.0000 16.4610 0.0000 0.0000
# 5 0.0000 0.0000 0.0000 0.0000 19.8270 0.0000
# 6 0.0000 0.0000 0.0000 0.0000 0.0000 34.7407
#
#
#
# Elastic Compliance Matrix: (Units=1/GPa)
#
#
# Indices 1 2 3 4 5 6 
#
# 1 0.008630 -0.004152 -0.000188 0.000000 0.000000 0.000000
# 2 -0.004152 0.008916 0.000292 0.000000 0.000000 0.000000
# 3 -0.000188 0.000292 0.016736 0.000000 0.000000 0.000000
# 4 0.000000 0.000000 0.000000 0.060750 0.000000 0.000000
# 5 0.000000 0.000000 0.000000 0.000000 0.050436 0.000000
# 6 0.000000 0.000000 0.000000 0.000000 0.000000 0.028785
#
#
# Mechanical properties :
#
#
# Convention : Reuss Voigt Hill
#
# Bulk Modulus (GPa) = 38.19075 54.47200 46.33138
# Shear Modulus (GPa) = 26.16738 33.23664 29.70201
#
# Velocity S-wave (km/s) = 3.40810 3.84097 3.63100
# Velocity P-wave (km/s) = 5.69553 6.62192 6.17612
#
# Compressibility (1/GPa) = 0.02618435
#
# Stress axis : x y z
#
# Youngs Moduli (GPa) = 115.87599 112.15955 59.75202
#
# Poissons Ratio (x) = 0.46570 0.01126
# Poissons Ratio (y) = 0.48113 -0.01744
# Poissons Ratio (z) = 0.02183 -0.03274
#
# Static dielectric constant tensor:
#      x y z
#    x 1.830210 0.000000 0.000000 
#    y 0.000000 1.802080 0.000000 
#    z 0.000000 0.000000 1.860210 
# 
# From -- ./inp_files/10731.got.cif
#   From: 2010.05.17/outbox.cif.g08.bks.cpg/sg55_6_cif.got.tgz:10731.got - 2010.06.03 13:27:54.
