data_PCOD9427873
_publ_section_title
;
Structure prediction by ZEFSAII (Michael W. Deem and Ramdas Pophale) SiO2 
 PCOD9427873
Probable space group: P B A M
;
_chemical_formula_sum "Si O2"
_cell_formula_units_Z 48
_cell_length_a 10.624533
_cell_length_b 21.606177
_cell_length_c 10.816269
_cell_angle_alpha 90.000000
_cell_angle_beta 90.000000
_cell_angle_gamma 90.000000
_cell_volume 2482.934477
_symmetry_space_group_name_H-M "P B A M"
_symmetry_group_IT_number 55
_symmetry_cell_setting 'orthorhombic'
loop_
_space_group_symop_operation_xyz
x,y,z
-x,-y,z
1/2+x,1/2-y,-z
1/2-x,1/2+y,-z
-x,-y,-z
x,y,-z
1/2-x,1/2+y,z
1/2+x,1/2-y,z
loop_
_atom_site_type_symbol
_atom_site_label
_atom_site_fract_x
_atom_site_fract_y
_atom_site_fract_z
Si Si1 0.155465 0.177097 0.142483
Si Si2 0.281305 0.390436 0.634682
Si Si3 0.043627 0.064841 0.286940
Si Si4 0.085961 0.604907 0.860276
Si Si5 0.670814 0.182372 0.855042
Si Si6 0.819537 0.474737 0.362941
O O1 0.073813 0.123571 0.203279
O O2 0.299768 0.153984 0.152237
O O3 0.143614 0.247332 0.186979
O O4 0.119682 0.179310 0.000000
O O5 0.253608 0.361633 0.500000
O O6 0.423859 0.415550 0.633629
O O7 0.262229 0.347939 0.754125
O O8 0.194150 0.451398 0.648614
O O9 0.175346 0.050183 0.353927
O O10 0.000000 0.000000 0.223644
O O11 0.106997 0.555739 0.751047
O O12 0.955804 0.641566 0.851892
O O13 0.096210 0.577735 0.000000
O O14 0.714652 0.183362 0.000000
O O15 0.869409 0.459325 0.500000
#
# Coordination Sequence:
#
# PCOD9427873 Si02
#       6
#     8   8   8   8   8   8
#     4   9  19  35  57  80 109 146 183 226 277 334
#     4  10  21  36  55  83 115 144 183 230 274 328
#     4   9  18  34  59  86 111 141 182 235 286 328
#     4   9  19  36  55  78 108 141 184 230 274 327
#     4  10  22  37  55  79 110 152 188 223 274 330
#     4   9  18  35  59  82 108 146 183 224 282 332
#
# _framework density 19.331965
#
# number of rings (size 3 to 8) (size 9 to 14) (size 15 to 20)
#    0.000    2.667    0.000    0.500    2.333    5.000 
#    0.000   10.833    0.000    0.000    0.000    0.000 
#    0.000    0.000    0.000    0.000    0.000    0.000 
#
# Total GULP energy -267481.979202 kJ/mol
# GULP energy per Si atom -5572.541233 kJ/mol
# Density = 1.928796 g / cm^3
# Si number density = 19.331965 Si / 1000 Ang^3
#
#
#
# Elastic Constant Matrix: (Units=GPa)
#
#
# Indices 1 2 3 4 5 6 
#
# 1 62.8613 18.5696 33.0247 0.0000 0.0000 0.0000
# 2 18.5696 99.9697 69.0409 0.0000 0.0000 0.0000
# 3 33.0247 69.0409 111.5045 0.0000 0.0000 0.0000
# 4 0.0000 0.0000 0.0000 -150.6990 0.0000 0.0000
# 5 0.0000 0.0000 0.0000 0.0000 3.5054 0.0000
# 6 0.0000 0.0000 0.0000 0.0000 0.0000 14.9383
#
#
#
# Elastic Compliance Matrix: (Units=1/GPa)
#
#
# Indices 1 2 3 4 5 6 
#
# 1 0.018861 0.000619 -0.005970 0.000000 0.000000 0.000000
# 2 0.000619 0.017496 -0.011017 0.000000 0.000000 0.000000
# 3 -0.005970 -0.011017 0.017558 0.000000 0.000000 0.000000
# 4 0.000000 0.000000 0.000000 -0.006636 0.000000 0.000000
# 5 0.000000 0.000000 0.000000 0.000000 0.285275 0.000000
# 6 0.000000 0.000000 0.000000 0.000000 0.000000 0.066942
#
#
# Mechanical properties :
#
#
# Convention : Reuss Voigt Hill
#
# Bulk Modulus (GPa) = 47.21220 57.28957 52.25088
# Shear Modulus (GPa) = 11.38198 -16.20438 -2.41120
#
# Velocity S-wave (km/s) = 2.42908 -2.89834 -1.11802
# Velocity P-wave (km/s) = 5.68701 4.30099 5.04185
#
# Compressibility (1/GPa) = 0.02118097
#
# Stress axis : x y z
#
# Youngs Moduli (GPa) = 53.01856 57.15470 56.95541
#
# Poissons Ratio (x) = -0.03539 0.34000
# Poissons Ratio (y) = -0.03283 0.62746
# Poissons Ratio (z) = 0.31650 0.62966
#
# Static dielectric constant tensor:
#      x y z
#    x 1.698790 0.000000 0.000000 
#    y 0.000000 1.666840 0.000000 
#    z 0.000000 0.000000 1.684630 
# 
# From -- ./inp_files/4048.got.cif
#   From: 2010.05.17/outbox.cif.g08.bks.cpg/sg55_3_cif.got.tgz:4048.got - 2010.06.03 13:27:54.
