data_PCOD9427061
_publ_section_title
;
Structure prediction by ZEFSAII (Michael W. Deem and Ramdas Pophale) SiO2 
 PCOD9427061
Probable space group: P B A M
;
_chemical_formula_sum "Si O2"
_cell_formula_units_Z 56
_cell_length_a 19.756915
_cell_length_b 14.242190
_cell_length_c 7.565642
_cell_angle_alpha 90.000000
_cell_angle_beta 90.000000
_cell_angle_gamma 90.000000
_cell_volume 2128.833489
_symmetry_space_group_name_H-M "P B A M"
_symmetry_group_IT_number 55
_symmetry_cell_setting 'orthorhombic'
loop_
_space_group_symop_operation_xyz
x,y,z
-x,-y,z
1/2+x,1/2-y,-z
1/2-x,1/2+y,-z
-x,-y,-z
x,y,-z
1/2-x,1/2+y,z
1/2+x,1/2-y,z
loop_
_atom_site_type_symbol
_atom_site_label
_atom_site_fract_x
_atom_site_fract_y
_atom_site_fract_z
Si Si1 0.787892 0.937618 0.285903
Si Si2 0.493912 0.708015 0.209018
Si Si3 0.142365 0.782315 0.713575
Si Si4 0.929488 0.973033 0.297268
Si Si5 0.069552 0.389655 0.200403
Si Si6 0.141310 0.569798 0.291441
Si Si7 0.292116 0.786229 0.287481
O O1 0.791226 0.949927 0.500000
O O2 0.855715 0.986436 0.216925
O O3 0.713888 0.969023 0.224463
O O4 0.791948 0.825720 0.251819
O O5 0.570774 0.673293 0.235485
O O6 0.441253 0.639540 0.302511
O O7 0.481816 0.813524 0.281310
O O8 0.479201 0.708092 0.000000
O O9 0.144552 0.783136 0.500000
O O10 0.133882 0.674620 0.781005
O O11 0.216440 0.817841 0.769725
O O12 0.929945 0.008863 0.500000
O O13 0.000000 0.000000 0.206311
O O14 0.083165 0.493601 0.269902
O O15 0.142684 0.337249 0.209372
O O16 0.048012 0.402519 0.000000
O O17 0.150472 0.582783 0.500000
O O18 0.296650 0.800111 0.500000
#
# Coordination Sequence:
#
# PCOD9427061 Si02
#       7
#     8   8   8   8   8   8   8
#     4   8  15  32  56  80 106 135 176 230 284 329
#     4  11  24  39  55  80 119 160 191 227 283 349
#     4   9  20  38  60  85 111 144 195 247 290 336
#     4  10  20  35  59  87 113 145 188 237 286 339
#     4  11  23  36  53  83 118 154 194 228 276 347
#     4   9  19  36  58  83 109 145 193 245 291 331
#     4   9  17  34  60  81 102 141 188 238 285 331
#
# _framework density 26.305486999999999
#
# number of rings (size 3 to 8) (size 9 to 14) (size 15 to 20)
#    0.000    2.429    1.429    2.571    0.000    4.857 
#    0.000    8.571    0.000    0.000    0.000    0.000 
#    0.000    0.000    0.000    0.000    0.000    0.000 
#
# Total GULP energy -313002.310060 kJ/mol
# GULP energy per Si atom -5589.326965 kJ/mol
# Density = 2.624561 g / cm^3
# Si number density = 26.305487 Si / 1000 Ang^3
#
#
#
# Elastic Constant Matrix: (Units=GPa)
#
#
# Indices 1 2 3 4 5 6 
#
# 1 152.2134 11.8289 -8.8290 0.0000 0.0000 0.0000
# 2 11.8289 58.3913 -0.0231 0.0000 0.0000 0.0000
# 3 -8.8290 -0.0231 71.1264 0.0000 0.0000 0.0000
# 4 0.0000 0.0000 0.0000 42.5403 0.0000 0.0000
# 5 0.0000 0.0000 0.0000 0.0000 10.2462 0.0000
# 6 0.0000 0.0000 0.0000 0.0000 0.0000 49.5014
#
#
#
# Elastic Compliance Matrix: (Units=1/GPa)
#
#
# Indices 1 2 3 4 5 6 
#
# 1 0.006724 -0.001362 0.000834 0.000000 0.000000 0.000000
# 2 -0.001362 0.017402 -0.000163 0.000000 0.000000 0.000000
# 3 0.000834 -0.000163 0.014163 0.000000 0.000000 0.000000
# 4 0.000000 0.000000 0.000000 0.023507 0.000000 0.000000
# 5 0.000000 0.000000 0.000000 0.000000 0.097597 0.000000
# 6 0.000000 0.000000 0.000000 0.000000 0.000000 0.020201
#
#
# Mechanical properties :
#
#
# Convention : Reuss Voigt Hill
#
# Bulk Modulus (GPa) = 27.09543 31.96497 29.53020
# Shear Modulus (GPa) = 25.86938 39.04120 32.45529
#
# Velocity S-wave (km/s) = 3.13936 3.85664 3.51634
# Velocity P-wave (km/s) = 4.84390 5.65769 5.26654
#
# Compressibility (1/GPa) = 0.03690659
#
# Stress axis : x y z
#
# Youngs Moduli (GPa) = 148.72238 57.46586 70.60665
#
# Poissons Ratio (x) = 0.07826 -0.05890
# Poissons Ratio (y) = 0.20253 0.01154
# Poissons Ratio (z) = -0.12406 0.00939
#
# Static dielectric constant tensor:
#      x y z
#    x 2.055840 0.000000 0.000000 
#    y 0.000000 2.184900 0.000000 
#    z 0.000000 0.000000 1.966870 
# 
# From -- ./inp_files/8743.got.cif
#   From: 2010.05.17/outbox.cif.g08.bks.cpg/sg55_5_cif.got.tgz:8743.got - 2010.06.03 13:27:54.
