data_PCOD9427196
_publ_section_title
;
Structure prediction by ZEFSAII (Michael W. Deem and Ramdas Pophale) SiO2 
 PCOD9427196
Probable space group: P B A M
;
_chemical_formula_sum "Si O2"
_cell_formula_units_Z 48
_cell_length_a 9.792371
_cell_length_b 27.769125
_cell_length_c 7.479257
_cell_angle_alpha 90.000000
_cell_angle_beta 90.000000
_cell_angle_gamma 90.000000
_cell_volume 2033.801255
_symmetry_space_group_name_H-M "P B A M"
_symmetry_group_IT_number 55
_symmetry_cell_setting 'orthorhombic'
loop_
_space_group_symop_operation_xyz
x,y,z
-x,-y,z
1/2+x,1/2-y,-z
1/2-x,1/2+y,-z
-x,-y,-z
x,y,-z
1/2-x,1/2+y,z
1/2+x,1/2-y,z
loop_
_atom_site_type_symbol
_atom_site_label
_atom_site_fract_x
_atom_site_fract_y
_atom_site_fract_z
Si Si1 0.811652 0.203996 0.281107
Si Si2 0.373723 0.707118 0.714102
Si Si3 0.827194 0.604180 0.716837
Si Si4 0.341921 0.599642 0.212134
Si Si5 0.580451 0.954063 0.790874
Si Si6 0.910216 0.042019 0.296199
O O1 0.813887 0.203720 0.500000
O O2 0.720743 0.249293 0.221741
O O3 0.736937 0.154662 0.225090
O O4 0.969097 0.207408 0.220544
O O5 0.380905 0.711884 0.500000
O O6 0.309253 0.655168 0.754431
O O7 0.823213 0.603579 0.500000
O O8 0.978958 0.591337 0.774450
O O9 0.729775 0.560775 0.784278
O O10 0.487307 0.587261 0.297579
O O11 0.226181 0.563075 0.282212
O O12 0.355243 0.592960 0.000000
O O13 0.500000 0.000000 0.711619
O O14 0.602621 0.964401 0.000000
O O15 0.881181 0.027100 0.500000
O O16 0.000000 0.000000 0.209423
#
# Coordination Sequence:
#
# PCOD9427196 Si02
#       6
#     8   8   8   8   8   8
#     4   9  19  35  59  87 111 144 187 234 288 341
#     4  10  20  38  61  85 115 148 189 239 289 343
#     4  10  20  36  58  87 115 141 189 242 286 341
#     4  11  23  38  57  84 117 154 195 235 286 348
#     4  10  23  41  57  79 116 158 196 234 281 341
#     4  10  20  36  60  87 115 148 188 240 294 344
#
# _framework density 23.601123999999999
#
# number of rings (size 3 to 8) (size 9 to 14) (size 15 to 20)
#    0.000    2.000    1.667    1.500    2.333    2.667 
#    0.000    1.667    0.000    0.000    0.000    0.000 
#    0.000    0.000    0.000    0.000    0.000    0.000 
#
# Total GULP energy -268356.491089 kJ/mol
# GULP energy per Si atom -5590.760231 kJ/mol
# Density = 2.354741 g / cm^3
# Si number density = 23.601124 Si / 1000 Ang^3
#
#
#
# Elastic Constant Matrix: (Units=GPa)
#
#
# Indices 1 2 3 4 5 6 
#
# 1 111.8097 21.9148 5.3494 0.0000 0.0000 0.0000
# 2 21.9148 111.6100 6.7765 0.0000 0.0000 0.0000
# 3 5.3494 6.7765 74.7121 0.0000 0.0000 0.0000
# 4 0.0000 0.0000 0.0000 33.0524 0.0000 0.0000
# 5 0.0000 0.0000 0.0000 0.0000 25.5722 0.0000
# 6 0.0000 0.0000 0.0000 0.0000 0.0000 47.6208
#
#
#
# Elastic Compliance Matrix: (Units=1/GPa)
#
#
# Indices 1 2 3 4 5 6 
#
# 1 0.009321 -0.001800 -0.000504 0.000000 0.000000 0.000000
# 2 -0.001800 0.009357 -0.000720 0.000000 0.000000 0.000000
# 3 -0.000504 -0.000720 0.013486 0.000000 0.000000 0.000000
# 4 0.000000 0.000000 0.000000 0.030255 0.000000 0.000000
# 5 0.000000 0.000000 0.000000 0.000000 0.039105 0.000000
# 6 0.000000 0.000000 0.000000 0.000000 0.000000 0.020999
#
#
# Mechanical properties :
#
#
# Convention : Reuss Voigt Hill
#
# Bulk Modulus (GPa) = 38.28990 40.69036 39.49013
# Shear Modulus (GPa) = 36.42318 38.85513 37.63916
#
# Velocity S-wave (km/s) = 3.93272 4.06190 3.99783
# Velocity P-wave (km/s) = 6.07295 6.26713 6.17081
#
# Compressibility (1/GPa) = 0.02611655
#
# Stress axis : x y z
#
# Youngs Moduli (GPa) = 107.28927 106.87400 74.15044
#
# Poissons Ratio (x) = 0.19232 0.03738
# Poissons Ratio (y) = 0.19307 0.05338
# Poissons Ratio (z) = 0.05409 0.07693
#
# Static dielectric constant tensor:
#      x y z
#    x 1.853090 0.000000 0.000000 
#    y 0.000000 1.903930 0.000000 
#    z 0.000000 0.000000 1.917540 
# 
# From -- ./inp_files/2817.got.cif
#   From: 2010.05.17/outbox.cif.g08.bks.cpg/sg55_2_cif.got.tgz:2817.got - 2010.06.03 13:27:54.
