data_PCOD9427081
_publ_section_title
;
Structure prediction by ZEFSAII (Michael W. Deem and Ramdas Pophale) SiO2 
 PCOD9427081
Probable space group: P B A M
;
_chemical_formula_sum "Si O2"
_cell_formula_units_Z 64
_cell_length_a 9.562372
_cell_length_b 24.873063
_cell_length_c 13.880195
_cell_angle_alpha 90.000000
_cell_angle_beta 90.000000
_cell_angle_gamma 90.000000
_cell_volume 3301.341659
_symmetry_space_group_name_H-M "P B A M"
_symmetry_group_IT_number 55
_symmetry_cell_setting 'orthorhombic'
loop_
_space_group_symop_operation_xyz
x,y,z
-x,-y,z
1/2+x,1/2-y,-z
1/2-x,1/2+y,-z
-x,-y,-z
x,y,-z
1/2-x,1/2+y,z
1/2+x,1/2-y,z
loop_
_atom_site_type_symbol
_atom_site_label
_atom_site_fract_x
_atom_site_fract_y
_atom_site_fract_z
Si Si1 0.603847 0.158053 0.390714
Si Si2 0.041578 0.251683 0.761402
Si Si3 0.563210 0.667997 0.393301
Si Si4 0.589072 0.444799 0.396423
Si Si5 0.834474 0.988264 0.794800
Si Si6 0.705543 0.785392 0.887616
Si Si7 0.419489 0.945366 0.268881
Si Si8 0.137074 0.590683 0.108459
O O1 0.551252 0.165676 0.500000
O O2 0.539225 0.197790 0.311407
O O3 0.769742 0.169716 0.390489
O O4 0.585928 0.097278 0.354348
O O5 0.188473 0.239570 0.810820
O O6 0.997542 0.201973 0.694175
O O7 0.941626 0.262708 0.851554
O O8 0.517570 0.688280 0.500000
O O9 0.510603 0.606590 0.387501
O O10 0.500000 0.500000 0.398174
O O11 0.663636 0.440819 0.500000
O O12 0.678052 0.450622 0.300598
O O13 0.756730 0.954249 0.876329
O O14 0.736213 0.039191 0.769064
O O15 0.000000 0.000000 0.811290
O O16 0.700384 0.850028 0.877569
O O17 0.733895 0.772782 0.000000
O O18 0.512468 0.920895 0.182647
O O19 0.500000 0.000000 0.296826
O O20 0.081997 0.587615 0.000000
#
# Coordination Sequence:
#
# PCOD9427081 Si02
#       8
#     8   8   8   8   8   8   8   8
#     4  11  22  38  61  91 126 167 209 258 316 375
#     4  12  22  42  65  90 129 160 208 264 312 376
#     4  10  21  37  61  92 124 168 207 247 313 373
#     4   9  17  32  55  84 120 158 194 240 298 365
#     4  10  20  35  60  91 122 158 211 259 313 363
#     4  11  24  42  67  92 122 162 210 264 320 377
#     4  10  22  39  62  87 122 170 210 256 316 374
#     4  10  22  42  62  85 121 165 209 258 323 382
#
# _framework density 19.386058999999999
#
# number of rings (size 3 to 8) (size 9 to 14) (size 15 to 20)
#    0.000    1.625    2.500    3.000    0.000    4.250 
#    0.000    1.875    0.000    0.000    0.000    0.000 
#    0.000    0.000    0.000    0.000    0.000    0.000 
#
# Total GULP energy -357036.462752 kJ/mol
# GULP energy per Si atom -5578.694730 kJ/mol
# Density = 1.934194 g / cm^3
# Si number density = 19.386059 Si / 1000 Ang^3
#
#
#
# Elastic Constant Matrix: (Units=GPa)
#
#
# Indices 1 2 3 4 5 6 
#
# 1 58.8224 -3.4817 3.9558 0.0000 0.0000 0.0000
# 2 -3.4817 71.2049 19.6977 0.0000 0.0000 0.0000
# 3 3.9558 19.6977 89.3105 0.0000 0.0000 0.0000
# 4 0.0000 0.0000 0.0000 13.0972 0.0000 0.0000
# 5 0.0000 0.0000 0.0000 0.0000 20.0363 0.0000
# 6 0.0000 0.0000 0.0000 0.0000 0.0000 271.9422
#
#
#
# Elastic Compliance Matrix: (Units=1/GPa)
#
#
# Indices 1 2 3 4 5 6 
#
# 1 0.017134 0.001116 -0.001005 0.000000 0.000000 0.000000
# 2 0.001116 0.015029 -0.003364 0.000000 0.000000 0.000000
# 3 -0.001005 -0.003364 0.011983 0.000000 0.000000 0.000000
# 4 0.000000 0.000000 0.000000 0.076352 0.000000 0.000000
# 5 0.000000 0.000000 0.000000 0.000000 0.049909 0.000000
# 6 0.000000 0.000000 0.000000 0.000000 0.000000 0.003677
#
#
# Mechanical properties :
#
#
# Convention : Reuss Voigt Hill
#
# Bulk Modulus (GPa) = 26.56760 28.85350 27.71055
# Shear Modulus (GPa) = 25.88812 74.29287 50.09050
#
# Velocity S-wave (km/s) = 3.65828 6.19726 5.08866
# Velocity P-wave (km/s) = 5.61945 8.13167 6.98936
#
# Compressibility (1/GPa) = 0.03763983
#
# Stress axis : x y z
#
# Youngs Moduli (GPa) = 58.36360 66.53724 83.44893
#
# Poissons Ratio (x) = -0.07424 0.08387
# Poissons Ratio (y) = -0.06512 0.28073
# Poissons Ratio (z) = 0.05866 0.22384
#
# Static dielectric constant tensor:
#      x y z
#    x 1.684700 0.000000 0.000000 
#    y 0.000000 1.673350 0.000000 
#    z 0.000000 0.000000 1.695250 
# 
# From -- ./inp_files/17815.got.cif
#   From: 2010.05.17/outbox.cif.g08.bks.cpg/sg55_9_cif.got.tgz:17815.got - 2010.06.03 13:27:54.
