data_PCOD9427001
_publ_section_title
;
Structure prediction by ZEFSAII (Michael W. Deem and Ramdas Pophale) SiO2 
 PCOD9427001
Probable space group: P B A M
;
_chemical_formula_sum "Si O2"
_cell_formula_units_Z 64
_cell_length_a 27.789728
_cell_length_b 12.735753
_cell_length_c 9.505131
_cell_angle_alpha 90.000000
_cell_angle_beta 90.000000
_cell_angle_gamma 90.000000
_cell_volume 3364.085541
_symmetry_space_group_name_H-M "P B A M"
_symmetry_group_IT_number 55
_symmetry_cell_setting 'orthorhombic'
loop_
_space_group_symop_operation_xyz
x,y,z
-x,-y,z
1/2+x,1/2-y,-z
1/2-x,1/2+y,-z
-x,-y,-z
x,y,-z
1/2-x,1/2+y,z
1/2+x,1/2-y,z
loop_
_atom_site_type_symbol
_atom_site_label
_atom_site_fract_x
_atom_site_fract_y
_atom_site_fract_z
Si Si1 0.873729 0.029541 0.162207
Si Si2 0.720103 0.147688 0.667585
Si Si3 0.811894 0.226167 0.832527
Si Si4 0.830576 0.819247 0.156317
Si Si5 0.341633 0.064704 0.667546
Si Si6 0.944024 0.534268 0.663402
Si Si7 0.059431 0.258707 0.842691
Si Si8 0.545047 0.425119 0.655288
O O1 0.830430 0.944411 0.177953
O O2 0.913682 0.991660 0.269386
O O3 0.857009 0.147724 0.183281
O O4 0.890436 0.017096 0.000000
O O5 0.728618 0.149615 0.500000
O O6 0.768862 0.163140 0.755807
O O7 0.691393 0.250512 0.720426
O O8 0.688576 0.042679 0.698884
O O9 0.821819 0.337522 0.757519
O O10 0.803249 0.238981 0.000000
O O11 0.886534 0.786925 0.151013
O O12 0.810115 0.795462 0.000000
O O13 0.335738 0.085753 0.500000
O O14 0.398987 0.044088 0.692812
O O15 0.937072 0.566404 0.500000
O O16 0.938102 0.630640 0.767755
O O17 0.000000 0.500000 0.676316
O O18 0.031698 0.175523 0.747645
O O19 0.040077 0.266071 0.000000
O O20 0.500000 0.500000 0.644753
O O21 0.560983 0.390603 0.500000
#
# Coordination Sequence:
#
# PCOD9427001 Si02
#       8
#     8   8   8   8   8   8   8   8
#     4   9  21  40  59  86 120 154 197 247 303 358
#     4  11  23  39  62  90 119 155 203 253 303 362
#     4  11  25  42  62  89 124 165 204 251 311 374
#     4   9  18  35  59  85 113 149 193 246 302 356
#     4  10  23  43  63  91 128 164 208 258 309 371
#     4  10  21  39  63  90 124 166 209 257 312 369
#     4  10  20  35  57  85 117 154 199 252 305 360
#     4  10  21  36  58  87 118 157 203 249 303 363
#
# _framework density 19.024486
#
# number of rings (size 3 to 8) (size 9 to 14) (size 15 to 20)
#    0.000    2.000    1.250    2.250    1.750    6.750 
#    0.000    3.750    0.000    0.000    0.000    0.000 
#    0.000    0.000    0.000    0.000    0.000    0.000 
#
# Total GULP energy -356734.869800 kJ/mol
# GULP energy per Si atom -5573.982341 kJ/mol
# Density = 1.898119 g / cm^3
# Si number density = 19.024486 Si / 1000 Ang^3
#
#
#
# Elastic Constant Matrix: (Units=GPa)
#
#
# Indices 1 2 3 4 5 6 
#
# 1 63.5812 28.4862 45.0116 0.0000 0.0000 0.0000
# 2 28.4862 99.0575 68.7590 0.0000 0.0000 0.0000
# 3 45.0116 68.7590 111.5580 0.0000 0.0000 0.0000
# 4 0.0000 0.0000 0.0000 44.2696 0.0000 0.0000
# 5 0.0000 0.0000 0.0000 0.0000 2.8151 0.0000
# 6 0.0000 0.0000 0.0000 0.0000 0.0000 21.1493
#
#
#
# Elastic Compliance Matrix: (Units=1/GPa)
#
#
# Indices 1 2 3 4 5 6 
#
# 1 0.022022 -0.000289 -0.008707 0.000000 0.000000 0.000000
# 2 -0.000289 0.017647 -0.010761 0.000000 0.000000 0.000000
# 3 -0.008707 -0.010761 0.019109 0.000000 0.000000 0.000000
# 4 0.000000 0.000000 0.000000 0.022589 0.000000 0.000000
# 5 0.000000 0.000000 0.000000 0.000000 0.355227 0.000000
# 6 0.000000 0.000000 0.000000 0.000000 0.000000 0.047283
#
#
# Mechanical properties :
#
#
# Convention : Reuss Voigt Hill
#
# Bulk Modulus (GPa) = 51.90694 62.07891 56.99292
# Shear Modulus (GPa) = 9.43731 22.44279 15.94005
#
# Velocity S-wave (km/s) = 2.22966 3.43837 2.89774
# Velocity P-wave (km/s) = 5.82855 6.96169 6.42017
#
# Compressibility (1/GPa) = 0.01926525
#
# Stress axis : x y z
#
# Youngs Moduli (GPa) = 45.41008 56.66556 52.33018
#
# Poissons Ratio (x) = 0.01636 0.45565
# Poissons Ratio (y) = 0.01311 0.56310
# Poissons Ratio (z) = 0.39540 0.60975
#
# Static dielectric constant tensor:
#      x y z
#    x 1.715190 0.000000 0.000000 
#    y 0.000000 1.660410 0.000000 
#    z 0.000000 0.000000 1.685760 
# 
# From -- ./inp_files/10717.got.cif
#   From: 2010.05.17/outbox.cif.g08.bks.cpg/sg55_6_cif.got.tgz:10717.got - 2010.06.03 13:27:54.
