data_PCOD9427889
_publ_section_title
;
Structure prediction by ZEFSAII (Michael W. Deem and Ramdas Pophale) SiO2 
 PCOD9427889
Probable space group: P B A M
;
_chemical_formula_sum "Si O2"
_cell_formula_units_Z 58
_cell_length_a 12.545494
_cell_length_b 26.671126
_cell_length_c 7.619673
_cell_angle_alpha 90.000000
_cell_angle_beta 90.000000
_cell_angle_gamma 90.000000
_cell_volume 2549.561263
_symmetry_space_group_name_H-M "P B A M"
_symmetry_group_IT_number 55
_symmetry_cell_setting 'orthorhombic'
loop_
_space_group_symop_operation_xyz
x,y,z
-x,-y,z
1/2+x,1/2-y,-z
1/2-x,1/2+y,-z
-x,-y,-z
x,y,-z
1/2-x,1/2+y,z
1/2+x,1/2-y,z
loop_
_atom_site_type_symbol
_atom_site_label
_atom_site_fract_x
_atom_site_fract_y
_atom_site_fract_z
Si Si1 0.872675 0.579619 0.789914
Si Si2 0.000000 0.000000 0.500000
Si Si3 0.922889 0.213296 0.710878
Si Si4 0.649476 0.299312 0.807567
Si Si5 0.697442 0.498925 0.783958
Si Si6 0.627830 0.824376 0.697317
Si Si7 0.099989 0.564661 0.800897
Si Si8 0.808211 0.689408 0.706342
O O1 0.765102 0.549846 0.746152
O O2 0.865130 0.637356 0.735876
O O3 0.982649 0.555444 0.720095
O O4 0.880800 0.578870 0.000000
O O5 0.094801 0.003707 0.342345
O O6 0.925674 0.216420 0.500000
O O7 0.912582 0.271211 0.772831
O O8 0.815075 0.185543 0.763445
O O9 0.029390 0.185801 0.767876
O O10 0.744562 0.317410 0.687255
O O11 0.647778 0.238864 0.797774
O O12 0.680317 0.316370 0.000000
O O13 0.788091 0.457226 0.733787
O O14 0.676196 0.495996 0.000000
O O15 0.584348 0.829770 0.500000
O O16 0.606079 0.875027 0.798733
O O17 0.096493 0.544956 0.000000
O O18 0.810643 0.701278 0.500000
#
# Coordination Sequence:
#
# PCOD9427889 Si02
#       8
#     8   2   8   8   8   8   8   8
#     4  10  21  40  67  97 128 164 206 264 330 385
#     4  12  26  48  74  98 128 180 226 250 328 386
#     4   9  19  36  53  76 114 160 203 255 311 366
#     4  11  21  34  54  80 114 160 209 257 311 377
#     4  10  24  47  71 100 136 170 214 269 321 385
#     4  10  21  36  56  84 120 158 205 258 314 373
#     4  10  21  40  66  96 129 165 206 263 329 386
#     4  10  21  36  56  84 120 158 204 257 315 375
#
# _framework density 22.749012
#
# number of rings (size 3 to 8) (size 9 to 14) (size 15 to 20)
#    0.000    1.931    0.000    4.345    1.931    7.724 
#    2.483    0.690    0.000    0.000    0.000    0.000 
#    0.000    0.000    0.000    0.000    0.000    0.000 
#
# Total GULP energy -323148.551671 kJ/mol
# GULP energy per Si atom -5571.526753 kJ/mol
# Density = 2.269723 g / cm^3
# Si number density = 22.749012 Si / 1000 Ang^3
#
#
#
# Elastic Constant Matrix: (Units=GPa)
#
#
# Indices 1 2 3 4 5 6 
#
# 1 178.6166 -1.0074 37.0546 0.0000 0.0000 0.0000
# 2 -1.0074 46.4518 6.1717 0.0000 0.0000 0.0000
# 3 37.0546 6.1717 90.2429 0.0000 0.0000 0.0000
# 4 0.0000 0.0000 0.0000 29.7375 0.0000 0.0000
# 5 0.0000 0.0000 0.0000 0.0000 23.0540 0.0000
# 6 0.0000 0.0000 0.0000 0.0000 0.0000 12.2842
#
#
#
# Elastic Compliance Matrix: (Units=1/GPa)
#
#
# Indices 1 2 3 4 5 6 
#
# 1 0.006130 0.000472 -0.002549 0.000000 0.000000 0.000000
# 2 0.000472 0.021761 -0.001682 0.000000 0.000000 0.000000
# 3 -0.002549 -0.001682 0.012243 0.000000 0.000000 0.000000
# 4 0.000000 0.000000 0.000000 0.033628 0.000000 0.000000
# 5 0.000000 0.000000 0.000000 0.000000 0.043376 0.000000
# 6 0.000000 0.000000 0.000000 0.000000 0.000000 0.081406
#
#
# Mechanical properties :
#
#
# Convention : Reuss Voigt Hill
#
# Bulk Modulus (GPa) = 30.66048 44.41656 37.53852
# Shear Modulus (GPa) = 23.04836 31.22128 27.13482
#
# Velocity S-wave (km/s) = 3.18647 3.70864 3.45743
# Velocity P-wave (km/s) = 5.20049 6.15676 5.69872
#
# Compressibility (1/GPa) = 0.03261527
#
# Stress axis : x y z
#
# Youngs Moduli (GPa) = 163.12913 45.95298 81.67921
#
# Poissons Ratio (x) = -0.02167 0.20823
# Poissons Ratio (y) = -0.07694 0.13738
# Poissons Ratio (z) = 0.41587 0.07729
#
# Static dielectric constant tensor:
#      x y z
#    x 1.884690 0.000000 0.000000 
#    y 0.000000 1.836410 0.000000 
#    z 0.000000 0.000000 1.863240 
# 
# From -- ./inp_files/4338.got.cif
#   From: 2010.05.17/outbox.cif.g08.bks.cpg/sg55_3_cif.got.tgz:4338.got - 2010.06.03 13:27:54.
