data_PCOD9427911
_publ_section_title
;
Structure prediction by ZEFSAII (Michael W. Deem and Ramdas Pophale) SiO2 
 PCOD9427911
Probable space group: P B A M
;
_chemical_formula_sum "Si O2"
_cell_formula_units_Z 48
_cell_length_a 14.629635
_cell_length_b 20.569244
_cell_length_c 8.852326
_cell_angle_alpha 90.000000
_cell_angle_beta 90.000000
_cell_angle_gamma 90.000000
_cell_volume 2663.846649
_symmetry_space_group_name_H-M "P B A M"
_symmetry_group_IT_number 55
_symmetry_cell_setting 'orthorhombic'
loop_
_space_group_symop_operation_xyz
x,y,z
-x,-y,z
1/2+x,1/2-y,-z
1/2-x,1/2+y,-z
-x,-y,-z
x,y,-z
1/2-x,1/2+y,z
1/2+x,1/2-y,z
loop_
_atom_site_type_symbol
_atom_site_label
_atom_site_fract_x
_atom_site_fract_y
_atom_site_fract_z
Si Si1 0.830285 0.572800 0.180541
Si Si2 0.014841 0.621027 0.318715
Si Si3 0.020352 0.773577 0.680737
Si Si4 0.786420 0.436898 0.319046
Si Si5 0.216626 0.797801 0.818496
Si Si6 0.838236 0.827918 0.818933
O O1 0.933345 0.582592 0.239362
O O2 0.786517 0.509647 0.256117
O O3 0.774103 0.637939 0.220259
O O4 0.830440 0.565857 0.000000
O O5 0.004267 0.614947 0.500000
O O6 0.009063 0.697237 0.278114
O O7 0.114696 0.594046 0.278345
O O8 0.016154 0.778406 0.500000
O O9 0.118844 0.795964 0.739364
O O10 0.938351 0.813771 0.754394
O O11 0.778921 0.436661 0.500000
O O12 0.708480 0.391873 0.248199
O O13 0.274605 0.733849 0.775890
O O14 0.204166 0.796598 0.000000
O O15 0.841402 0.831439 0.000000
#
# Coordination Sequence:
#
# PCOD9427911 Si02
#       6
#     8   8   8   8   8   8
#     4  11  23  39  59  88 121 159 200 243 296 355
#     4  10  21  36  57  87 123 157 191 241 297 352
#     4  11  22  37  61  91 120 153 197 245 294 348
#     4  11  23  40  59  87 123 160 199 244 297 354
#     4  10  22  39  60  86 119 155 197 243 292 349
#     4  11  22  39  62  88 119 157 198 245 295 350
#
# _framework density 18.019055999999999
#
# number of rings (size 3 to 8) (size 9 to 14) (size 15 to 20)
#    0.000    1.333    3.333    2.500    0.000    6.000 
#    0.000    0.833    0.000    5.000    0.000    0.000 
#    0.000    0.000    0.000    0.000    0.000    0.000 
#
# Total GULP energy -268368.479285 kJ/mol
# GULP energy per Si atom -5591.009985 kJ/mol
# Density = 1.797804 g / cm^3
# Si number density = 18.019056 Si / 1000 Ang^3
#
#
#
# Elastic Constant Matrix: (Units=GPa)
#
#
# Indices 1 2 3 4 5 6 
#
# 1 72.4931 -9.5916 17.8576 0.0000 0.0000 0.0000
# 2 -9.5916 43.2533 9.4412 0.0000 0.0000 0.0000
# 3 17.8576 9.4412 26.0428 0.0000 0.0000 0.0000
# 4 0.0000 0.0000 0.0000 31.2219 0.0000 0.0000
# 5 0.0000 0.0000 0.0000 0.0000 32.8218 0.0000
# 6 0.0000 0.0000 0.0000 0.0000 0.0000 26.9518
#
#
#
# Elastic Compliance Matrix: (Units=1/GPa)
#
#
# Indices 1 2 3 4 5 6 
#
# 1 0.018598 0.007502 -0.015472 0.000000 0.000000 0.000000
# 2 0.007502 0.028132 -0.015342 0.000000 0.000000 0.000000
# 3 -0.015472 -0.015342 0.054570 0.000000 0.000000 0.000000
# 4 0.000000 0.000000 0.000000 0.032029 0.000000 0.000000
# 5 0.000000 0.000000 0.000000 0.000000 0.030468 0.000000
# 6 0.000000 0.000000 0.000000 0.000000 0.000000 0.037103
#
#
# Mechanical properties :
#
#
# Convention : Reuss Voigt Hill
#
# Bulk Modulus (GPa) = 18.29035 19.68927 18.98981
# Shear Modulus (GPa) = 18.81464 26.47125 22.64295
#
# Velocity S-wave (km/s) = 3.23484 3.83700 3.54872
# Velocity P-wave (km/s) = 4.91171 5.52999 5.22999
#
# Compressibility (1/GPa) = 0.05467365
#
# Stress axis : x y z
#
# Youngs Moduli (GPa) = 53.76824 35.54672 18.32519
#
# Poissons Ratio (x) = -0.26665 0.28353
# Poissons Ratio (y) = -0.40334 0.28115
# Poissons Ratio (z) = 0.83192 0.54537
#
# Static dielectric constant tensor:
#      x y z
#    x 1.580550 0.000000 0.000000 
#    y 0.000000 1.603110 0.000000 
#    z 0.000000 0.000000 1.599580 
# 
# From -- ./inp_files/4086.got.cif
#   From: 2010.05.17/outbox.cif.g08.bks.cpg/sg55_3_cif.got.tgz:4086.got - 2010.06.03 13:27:54.
