data_PCOD9427513
_publ_section_title
;
Structure prediction by ZEFSAII (Michael W. Deem and Ramdas Pophale) SiO2 
 PCOD9427513
Probable space group: P B A M
;
_chemical_formula_sum "Si O2"
_cell_formula_units_Z 48
_cell_length_a 20.128149
_cell_length_b 14.319702
_cell_length_c 9.016869
_cell_angle_alpha 90.000000
_cell_angle_beta 90.000000
_cell_angle_gamma 90.000000
_cell_volume 2598.923996
_symmetry_space_group_name_H-M "P B A M"
_symmetry_group_IT_number 55
_symmetry_cell_setting 'orthorhombic'
loop_
_space_group_symop_operation_xyz
x,y,z
-x,-y,z
1/2+x,1/2-y,-z
1/2-x,1/2+y,-z
-x,-y,-z
x,y,-z
1/2-x,1/2+y,z
1/2+x,1/2-y,z
loop_
_atom_site_type_symbol
_atom_site_label
_atom_site_fract_x
_atom_site_fract_y
_atom_site_fract_z
Si Si1 0.430345 0.053963 0.828983
Si Si2 0.013873 0.758056 0.176365
Si Si3 0.432363 0.440677 0.670681
Si Si4 0.812495 0.551079 0.324204
Si Si5 0.857583 0.742130 0.821566
Si Si6 0.813248 0.950863 0.177321
O O1 0.447297 0.161537 0.800518
O O2 0.500000 0.000000 0.818663
O O3 0.377207 0.008530 0.721378
O O4 0.406536 0.043807 0.000000
O O5 0.048942 0.840110 0.265170
O O6 0.936126 0.746621 0.218386
O O7 0.014682 0.779349 0.000000
O O8 0.500000 0.500000 0.675169
O O9 0.409707 0.434884 0.500000
O O10 0.377644 0.492702 0.768251
O O11 0.805398 0.557272 0.500000
O O12 0.823282 0.654194 0.255978
O O13 0.749952 0.498018 0.253492
O O14 0.824313 0.841606 0.784059
O O15 0.854312 0.729408 0.000000
O O16 0.807147 0.956757 0.000000
#
# Coordination Sequence:
#
# PCOD9427513 Si02
#       6
#     8   8   8   8   8   8
#     4  10  20  39  65  91 121 159 208 260 302 358
#     4  10  20  37  65  95 123 162 214 262 302 358
#     4  11  23  38  60  93 131 163 198 252 314 372
#     4  12  26  41  62  93 132 167 201 254 319 381
#     4  10  21  41  67  92 119 162 214 259 307 366
#     4  11  24  43  68  91 121 165 215 261 304 366
#
# _framework density 18.469183000000001
#
# number of rings (size 3 to 8) (size 9 to 14) (size 15 to 20)
#    0.000    1.333    3.333    2.500    0.000    5.000 
#    0.000    1.667    0.000    0.000    0.000    0.000 
#    0.000    0.000    0.000    0.000    0.000    0.000 
#
# Total GULP energy -268303.079411 kJ/mol
# GULP energy per Si atom -5589.647488 kJ/mol
# Density = 1.842715 g / cm^3
# Si number density = 18.469183 Si / 1000 Ang^3
#
#
#
# Elastic Constant Matrix: (Units=GPa)
#
#
# Indices 1 2 3 4 5 6 
#
# 1 92.7174 58.2138 54.1954 0.0000 0.0000 0.0000
# 2 58.2138 138.6075 79.9336 0.0000 0.0000 0.0000
# 3 54.1954 79.9336 88.6968 0.0000 0.0000 0.0000
# 4 0.0000 0.0000 0.0000 11.3372 0.0000 0.0000
# 5 0.0000 0.0000 0.0000 0.0000 -3.0982 0.0000
# 6 0.0000 0.0000 0.0000 0.0000 0.0000 25.0414
#
#
#
# Elastic Compliance Matrix: (Units=1/GPa)
#
#
# Indices 1 2 3 4 5 6 
#
# 1 0.017158 -0.002416 -0.008307 0.000000 0.000000 0.000000
# 2 -0.002416 0.015362 -0.012368 0.000000 0.000000 0.000000
# 3 -0.008307 -0.012368 0.027496 0.000000 0.000000 0.000000
# 4 0.000000 0.000000 0.000000 0.088205 0.000000 0.000000
# 5 0.000000 0.000000 0.000000 0.000000 -0.322771 0.000000
# 6 0.000000 0.000000 0.000000 0.000000 0.000000 0.039934
#
#
# Mechanical properties :
#
#
# Convention : Reuss Voigt Hill
#
# Bulk Modulus (GPa) = 72.28208 78.30081 75.29144
# Shear Modulus (GPa) = -59.64795 15.16802 -22.23996
#
# Velocity S-wave (km/s) = -5.68912 2.86887 -3.47387
# Velocity P-wave (km/s) = 1.98322 7.31173 4.97635
#
# Compressibility (1/GPa) = 0.01383469
#
# Stress axis : x y z
#
# Youngs Moduli (GPa) = 58.28337 65.09748 36.36932
#
# Poissons Ratio (x) = 0.15726 0.30210
# Poissons Ratio (y) = 0.14079 0.44981
# Poissons Ratio (z) = 0.48413 0.80511
#
# Static dielectric constant tensor:
#      x y z
#    x 1.699350 0.000000 0.000000 
#    y 0.000000 1.613930 0.000000 
#    z 0.000000 0.000000 1.620950 
# 
# From -- ./inp_files/7422.got.cif
#   From: 2010.05.17/outbox.cif.g08.bks.cpg/sg55_4_cif.got.tgz:7422.got - 2010.06.03 13:27:54.
