data_PCOD9427527
_publ_section_title
;
Structure prediction by ZEFSAII (Michael W. Deem and Ramdas Pophale) SiO2 
 PCOD9427527
Probable space group: P B A M
;
_chemical_formula_sum "Si O2"
_cell_formula_units_Z 64
_cell_length_a 14.833696
_cell_length_b 24.982770
_cell_length_c 8.875905
_cell_angle_alpha 90.000000
_cell_angle_beta 90.000000
_cell_angle_gamma 90.000000
_cell_volume 3289.293368
_symmetry_space_group_name_H-M "P B A M"
_symmetry_group_IT_number 55
_symmetry_cell_setting 'orthorhombic'
loop_
_space_group_symop_operation_xyz
x,y,z
-x,-y,z
1/2+x,1/2-y,-z
1/2-x,1/2+y,-z
-x,-y,-z
x,y,-z
1/2-x,1/2+y,z
1/2+x,1/2-y,z
loop_
_atom_site_type_symbol
_atom_site_label
_atom_site_fract_x
_atom_site_fract_y
_atom_site_fract_z
Si Si1 0.242627 0.064850 0.321691
Si Si2 0.375187 0.256792 0.679182
Si Si3 0.007857 0.331680 0.179678
Si Si4 0.164578 0.265898 0.678913
Si Si5 0.862864 0.843634 0.826394
Si Si6 0.453400 0.055417 0.680287
Si Si7 0.435596 0.365356 0.825363
Si Si8 0.398117 0.483268 0.181505
O O1 0.229790 0.072512 0.500000
O O2 0.215339 0.119290 0.237395
O O3 0.346435 0.051420 0.293345
O O4 0.176069 0.019156 0.261795
O O5 0.381010 0.248082 0.500000
O O6 0.431747 0.209579 0.757997
O O7 0.269666 0.260619 0.722004
O O8 0.414060 0.314482 0.724762
O O9 0.104320 0.310208 0.239112
O O10 0.989247 0.391281 0.239498
O O11 0.006129 0.330154 0.000000
O O12 0.158754 0.274085 0.500000
O O13 0.124609 0.208806 0.726927
O O14 0.956960 0.875592 0.820897
O O15 0.846583 0.828466 0.000000
O O16 0.467864 0.061608 0.500000
O O17 0.500000 0.000000 0.728336
O O18 0.387373 0.420387 0.782694
O O19 0.413950 0.352251 0.000000
O O20 0.500000 0.500000 0.223995
O O21 0.390712 0.489755 0.000000
#
# Coordination Sequence:
#
# PCOD9427527 Si02
#       8
#     8   8   8   8   8   8   8   8
#     4  11  23  38  62  94 123 161 212 262 312 370
#     4  11  24  41  63  92 128 167 208 256 310 371
#     4  12  25  42  67  97 128 164 209 261 315 375
#     4  11  24  41  63  92 126 167 210 255 312 372
#     4  11  21  37  61  90 124 163 205 253 311 369
#     4  10  24  47  69  89 122 165 210 263 317 368
#     4  10  21  37  59  87 122 163 203 250 310 368
#     4  10  20  38  59  83 122 164 200 244 305 371
#
# _framework density 19.457066999999999
#
# number of rings (size 3 to 8) (size 9 to 14) (size 15 to 20)
#    0.000    1.250    2.500    3.375    0.000    8.500 
#    0.000    3.750    0.000    0.000    0.000    0.000 
#    0.000    0.000    0.000    0.000    0.000    0.000 
#
# Total GULP energy -357716.469268 kJ/mol
# GULP energy per Si atom -5589.319832 kJ/mol
# Density = 1.941278 g / cm^3
# Si number density = 19.457067 Si / 1000 Ang^3
#
#
#
# Elastic Constant Matrix: (Units=GPa)
#
#
# Indices 1 2 3 4 5 6 
#
# 1 78.1034 44.5242 43.9277 0.0000 0.0000 0.0000
# 2 44.5242 113.7272 38.5776 0.0000 0.0000 0.0000
# 3 43.9277 38.5776 55.7889 0.0000 0.0000 0.0000
# 4 0.0000 0.0000 0.0000 46.3341 0.0000 0.0000
# 5 0.0000 0.0000 0.0000 0.0000 42.1597 0.0000
# 6 0.0000 0.0000 0.0000 0.0000 0.0000 32.3951
#
#
#
# Elastic Compliance Matrix: (Units=1/GPa)
#
#
# Indices 1 2 3 4 5 6 
#
# 1 0.024263 -0.003943 -0.016377 0.000000 0.000000 0.000000
# 2 -0.003943 0.012128 -0.005282 0.000000 0.000000 0.000000
# 3 -0.016377 -0.005282 0.034472 0.000000 0.000000 0.000000
# 4 0.000000 0.000000 0.000000 0.021582 0.000000 0.000000
# 5 0.000000 0.000000 0.000000 0.000000 0.023719 0.000000
# 6 0.000000 0.000000 0.000000 0.000000 0.000000 0.030869
#
#
# Mechanical properties :
#
#
# Convention : Reuss Voigt Hill
#
# Bulk Modulus (GPa) = 50.86864 55.74205 53.30535
# Shear Modulus (GPa) = 24.41505 32.21712 28.31609
#
# Velocity S-wave (km/s) = 3.54618 4.07357 3.81899
# Velocity P-wave (km/s) = 6.55500 7.12996 6.84851
#
# Compressibility (1/GPa) = 0.01965848
#
# Stress axis : x y z
#
# Youngs Moduli (GPa) = 41.21559 82.45088 29.00880
#
# Poissons Ratio (x) = 0.32514 0.47509
# Poissons Ratio (y) = 0.16253 0.15322
# Poissons Ratio (z) = 0.67500 0.43548
#
# Static dielectric constant tensor:
#      x y z
#    x 1.716540 0.000000 0.000000 
#    y 0.000000 1.661300 0.000000 
#    z 0.000000 0.000000 1.661230 
# 
# From -- ./inp_files/6582.got.cif
#   From: 2010.05.17/outbox.cif.g08.bks.cpg/sg55_4_cif.got.tgz:6582.got - 2010.06.03 13:27:54.
