data_PCOD9427949
_publ_section_title
;
Structure prediction by ZEFSAII (Michael W. Deem and Ramdas Pophale) SiO2 
 PCOD9427949
Probable space group: P B A M
;
_chemical_formula_sum "Si O2"
_cell_formula_units_Z 64
_cell_length_a 9.394839
_cell_length_b 28.378731
_cell_length_c 14.425794
_cell_angle_alpha 90.000000
_cell_angle_beta 90.000000
_cell_angle_gamma 90.000000
_cell_volume 3846.112998
_symmetry_space_group_name_H-M "P B A M"
_symmetry_group_IT_number 55
_symmetry_cell_setting 'orthorhombic'
loop_
_space_group_symop_operation_xyz
x,y,z
-x,-y,z
1/2+x,1/2-y,-z
1/2-x,1/2+y,-z
-x,-y,-z
x,y,-z
1/2-x,1/2+y,z
1/2+x,1/2-y,z
loop_
_atom_site_type_symbol
_atom_site_label
_atom_site_fract_x
_atom_site_fract_y
_atom_site_fract_z
Si Si1 0.167178 0.708354 0.111687
Si Si2 0.941439 0.051132 0.110385
Si Si3 0.904284 0.073048 0.608410
Si Si4 0.723302 0.392388 0.111072
Si Si5 0.289186 0.533732 0.391666
Si Si6 0.832591 0.697452 0.112139
Si Si7 0.273606 0.895121 0.770655
Si Si8 0.438304 0.051099 0.764866
O O1 0.244693 0.660650 0.144409
O O2 0.242946 0.756537 0.140553
O O3 0.999598 0.705949 0.132295
O O4 0.179130 0.708044 0.000000
O O5 0.802756 0.065486 0.165884
O O6 0.064931 0.089114 0.130486
O O7 0.915158 0.050338 0.000000
O O8 0.000000 0.000000 0.138148
O O9 0.894115 0.086182 0.500000
O O10 0.822262 0.107048 0.678376
O O11 0.070294 0.064382 0.631668
O O12 0.832942 0.021150 0.618546
O O13 0.836842 0.427231 0.156766
O O14 0.740855 0.393691 0.000000
O O15 0.256734 0.541340 0.500000
O O16 0.158797 0.545194 0.325871
O O17 0.781665 0.652099 0.168848
O O18 0.817756 0.690045 0.000000
O O19 0.430830 0.913629 0.748355
O O20 0.500000 0.000000 0.790263
#
# Coordination Sequence:
#
# PCOD9427949 Si02
#       8
#     8   8   8   8   8   8   8   8
#     4   9  19  36  56  76 103 138 182 231 277 318
#     4  10  22  36  50  72 108 155 197 220 252 316
#     4   9  19  36  57  78 105 144 185 224 267 318
#     4  10  21  37  53  73 107 149 188 225 263 319
#     4   9  19  36  55  75 105 145 186 224 263 315
#     4  10  21  37  56  80 108 140 181 231 281 323
#     4  12  22  32  54  82 112 140 179 230 274 324
#     4  12  22  32  50  79 114 149 177 216 271 325
#
# _framework density 16.640177000000001
#
# number of rings (size 3 to 8) (size 9 to 14) (size 15 to 20)
#    0.000    1.875    2.500    2.625    3.500    1.500 
#    0.000    0.000    0.000    0.000    0.000    1.750 
#    0.000    0.000    0.000    0.000    0.000    0.000 
#
# Total GULP energy -357266.914140 kJ/mol
# GULP energy per Si atom -5582.295533 kJ/mol
# Density = 1.660230 g / cm^3
# Si number density = 16.640177 Si / 1000 Ang^3
#
#
#
# Elastic Constant Matrix: (Units=GPa)
#
#
# Indices 1 2 3 4 5 6 
#
# 1 85.1507 36.0186 40.8693 0.0000 0.0000 0.0000
# 2 36.0186 81.3832 38.0624 0.0000 0.0000 0.0000
# 3 40.8693 38.0624 56.3764 0.0000 0.0000 0.0000
# 4 0.0000 0.0000 0.0000 14.1381 0.0000 0.0000
# 5 0.0000 0.0000 0.0000 0.0000 5.3465 0.0000
# 6 0.0000 0.0000 0.0000 0.0000 0.0000 27.0251
#
#
#
# Elastic Compliance Matrix: (Units=1/GPa)
#
#
# Indices 1 2 3 4 5 6 
#
# 1 0.018434 -0.002789 -0.011480 0.000000 0.000000 0.000000
# 2 -0.002789 0.018380 -0.010387 0.000000 0.000000 0.000000
# 3 -0.011480 -0.010387 0.033073 0.000000 0.000000 0.000000
# 4 0.000000 0.000000 0.000000 0.070731 0.000000 0.000000
# 5 0.000000 0.000000 0.000000 0.000000 0.187037 0.000000
# 6 0.000000 0.000000 0.000000 0.000000 0.000000 0.037003
#
#
# Mechanical properties :
#
#
# Convention : Reuss Voigt Hill
#
# Bulk Modulus (GPa) = 48.60553 50.31232 49.45893
# Shear Modulus (GPa) = 11.88131 16.49928 14.19030
#
# Velocity S-wave (km/s) = 2.67500 3.15228 2.92340
# Velocity P-wave (km/s) = 6.23009 6.59926 6.41733
#
# Compressibility (1/GPa) = 0.02057379
#
# Stress axis : x y z
#
# Youngs Moduli (GPa) = 54.24812 54.40681 30.23589
#
# Poissons Ratio (x) = 0.15175 0.34711
# Poissons Ratio (y) = 0.15131 0.31407
# Poissons Ratio (z) = 0.62278 0.56514
#
# Static dielectric constant tensor:
#      x y z
#    x 1.568470 0.000000 0.000000 
#    y 0.000000 1.556610 0.000000 
#    z 0.000000 0.000000 1.558190 
# 
# From -- ./inp_files/17799.got.cif
#   From: 2010.05.17/outbox.cif.g08.bks.cpg/sg55_9_cif.got.tgz:17799.got - 2010.06.03 13:27:54.
