data_PCOD9427567
_publ_section_title
;
Structure prediction by ZEFSAII (Michael W. Deem and Ramdas Pophale) SiO2 
 PCOD9427567
Probable space group: P B A M
;
_chemical_formula_sum "Si O2"
_cell_formula_units_Z 64
_cell_length_a 17.976123
_cell_length_b 14.445232
_cell_length_c 12.419820
_cell_angle_alpha 90.000000
_cell_angle_beta 90.000000
_cell_angle_gamma 90.000000
_cell_volume 3225.045558
_symmetry_space_group_name_H-M "P B A M"
_symmetry_group_IT_number 55
_symmetry_cell_setting 'orthorhombic'
loop_
_space_group_symop_operation_xyz
x,y,z
-x,-y,z
1/2+x,1/2-y,-z
1/2-x,1/2+y,-z
-x,-y,-z
x,y,-z
1/2-x,1/2+y,z
1/2+x,1/2-y,z
loop_
_atom_site_type_symbol
_atom_site_label
_atom_site_fract_x
_atom_site_fract_y
_atom_site_fract_z
Si Si1 0.409396 0.835395 0.879126
Si Si2 0.781784 0.729281 0.721748
Si Si3 0.079763 0.032685 0.761382
Si Si4 0.272271 0.598498 0.124673
Si Si5 0.921640 0.787238 0.382500
Si Si6 0.464462 0.201246 0.258309
Si Si7 0.108680 0.545277 0.877237
Si Si8 0.136095 0.857979 0.369587
O O1 0.340559 0.817936 0.801681
O O2 0.482215 0.778162 0.844345
O O3 0.427149 0.944161 0.870681
O O4 0.388313 0.813549 0.000000
O O5 0.755726 0.816944 0.793250
O O6 0.834673 0.765507 0.626316
O O7 0.718657 0.664084 0.674467
O O8 0.149972 0.051453 0.839874
O O9 0.065451 0.128800 0.699328
O O10 0.106744 0.955837 0.675039
O O11 0.000000 0.000000 0.808214
O O12 0.198403 0.535467 0.130781
O O13 0.278275 0.628976 0.000000
O O14 0.944238 0.817641 0.500000
O O15 0.970427 0.697787 0.348557
O O16 0.419135 0.113191 0.216504
O O17 0.411892 0.278963 0.308369
O O18 0.094296 0.581669 0.000000
O O19 0.132347 0.852065 0.500000
#
# Coordination Sequence:
#
# PCOD9427567 Si02
#       8
#     8   8   8   8   8   8   8   8
#     4  10  21  38  62  89 121 159 196 246 311 371
#     4  10  21  39  62  89 122 157 203 254 301 369
#     4  11  23  39  61  91 123 162 208 257 299 368
#     4  10  21  39  62  90 126 161 196 247 311 372
#     4  10  21  39  62  86 117 160 206 251 306 358
#     4  11  21  35  58  88 118 153 200 255 297 365
#     4  10  20  38  62  88 119 158 199 245 305 375
#     4  12  24  40  62  87 121 163 210 261 306 354
#
# _framework density 19.844681999999999
#
# number of rings (size 3 to 8) (size 9 to 14) (size 15 to 20)
#    0.000    1.500    2.500    3.000    0.000    1.750 
#    0.000    2.500    0.000   15.000    0.000    0.000 
#    0.000    0.000    0.000    0.000    0.000    0.000 
#
# Total GULP energy -356550.304531 kJ/mol
# GULP energy per Si atom -5571.098508 kJ/mol
# Density = 1.979951 g / cm^3
# Si number density = 19.844682 Si / 1000 Ang^3
#
#
#
# Elastic Constant Matrix: (Units=GPa)
#
#
# Indices 1 2 3 4 5 6 
#
# 1 106.3890 13.8651 29.0723 0.0000 0.0000 0.0000
# 2 13.8651 45.2030 29.4841 0.0000 0.0000 0.0000
# 3 29.0723 29.4841 94.1697 0.0000 0.0000 0.0000
# 4 0.0000 0.0000 0.0000 20.1284 0.0000 0.0000
# 5 0.0000 0.0000 0.0000 0.0000 11.8135 0.0000
# 6 0.0000 0.0000 0.0000 0.0000 0.0000 36.8104
#
#
#
# Elastic Compliance Matrix: (Units=1/GPa)
#
#
# Indices 1 2 3 4 5 6 
#
# 1 0.010332 -0.001368 -0.002762 0.000000 0.000000 0.000000
# 2 -0.001368 0.027981 -0.008338 0.000000 0.000000 0.000000
# 3 -0.002762 -0.008338 0.014082 0.000000 0.000000 0.000000
# 4 0.000000 0.000000 0.000000 0.049681 0.000000 0.000000
# 5 0.000000 0.000000 0.000000 0.000000 0.084649 0.000000
# 6 0.000000 0.000000 0.000000 0.000000 0.000000 0.027166
#
#
# Mechanical properties :
#
#
# Convention : Reuss Voigt Hill
#
# Bulk Modulus (GPa) = 36.41684 43.40053 39.90868
# Shear Modulus (GPa) = 20.16286 25.30647 22.73467
#
# Velocity S-wave (km/s) = 3.19099 3.57491 3.38839
# Velocity P-wave (km/s) = 5.65396 6.24160 5.95503
#
# Compressibility (1/GPa) = 0.02745982
#
# Stress axis : x y z
#
# Youngs Moduli (GPa) = 96.78314 35.73876 71.01082
#
# Poissons Ratio (x) = 0.04889 0.19610
# Poissons Ratio (y) = 0.13240 0.59211
# Poissons Ratio (z) = 0.26727 0.29800
#
# Static dielectric constant tensor:
#      x y z
#    x 1.783250 0.000000 0.000000 
#    y 0.000000 1.699380 0.000000 
#    z 0.000000 0.000000 1.690130 
# 
# From -- ./inp_files/15002.got.cif
#   From: 2010.05.17/outbox.cif.g08.bks.cpg/sg55_8_cif.got.tgz:15002.got - 2010.06.03 13:27:54.
