data_PCOD9427894
_publ_section_title
;
Structure prediction by ZEFSAII (Michael W. Deem and Ramdas Pophale) SiO2 
 PCOD9427894
Probable space group: P B A M
;
_chemical_formula_sum "Si O2"
_cell_formula_units_Z 58
_cell_length_a 4.953718
_cell_length_b 30.767687
_cell_length_c 17.118681
_cell_angle_alpha 90.000000
_cell_angle_beta 90.000000
_cell_angle_gamma 90.000000
_cell_volume 2609.134262
_symmetry_space_group_name_H-M "P B A M"
_symmetry_group_IT_number 55
_symmetry_cell_setting 'orthorhombic'
loop_
_space_group_symop_operation_xyz
x,y,z
-x,-y,z
1/2+x,1/2-y,-z
1/2-x,1/2+y,-z
-x,-y,-z
x,y,-z
1/2-x,1/2+y,z
1/2+x,1/2-y,z
loop_
_atom_site_type_symbol
_atom_site_label
_atom_site_fract_x
_atom_site_fract_y
_atom_site_fract_z
Si Si1 0.242558 0.971944 0.277731
Si Si2 0.000000 0.500000 0.000000
Si Si3 0.532884 0.372529 0.911489
Si Si4 0.729560 0.277060 0.872854
Si Si5 0.485489 0.411608 0.409407
Si Si6 0.023962 0.422595 0.132060
Si Si7 0.013516 0.645178 0.409096
Si Si8 0.266130 0.723706 0.684717
O O1 0.105056 0.948099 0.350071
O O2 0.360928 0.939773 0.213159
O O3 0.500000 0.000000 0.303311
O O4 0.000000 0.000000 0.240077
O O5 0.973570 0.538293 0.068920
O O6 0.617594 0.322704 0.902518
O O7 0.223323 0.383782 0.894706
O O8 0.726396 0.402735 0.859536
O O9 0.591279 0.386485 0.000000
O O10 0.525917 0.238407 0.896497
O O11 0.735594 0.280706 0.778455
O O12 0.442246 0.423717 0.500000
O O13 0.792914 0.396704 0.399362
O O14 0.290369 0.370159 0.393598
O O15 0.034410 0.658846 0.500000
O O16 0.135941 0.681929 0.354496
O O17 0.569609 0.736173 0.662383
#
# Coordination Sequence:
#
# PCOD9427894 Si02
#       8
#     8   2   8   8   8   8   8   8
#     4  12  26  43  65  96 124 162 216 253 314 386
#     4  12  24  50  68  90 146 166 204 278 328 378
#     4  12  25  44  66  99 127 168 225 257 319 396
#     4  10  23  41  63  92 129 168 209 265 323 371
#     4  10  23  41  63  91 124 163 205 258 320 369
#     4  12  27  42  68  98 130 173 210 272 324 382
#     4  10  21  38  60  89 122 163 207 253 315 374
#     4  10  21  36  56  87 122 164 207 251 312 368
#
# _framework density 22.229596999999998
#
# number of rings (size 3 to 8) (size 9 to 14) (size 15 to 20)
#    0.000    1.103    2.069    3.310    3.862    2.207 
#    0.000    0.000    0.000    0.000    0.000    0.000 
#    0.000    0.000    0.000    0.000    0.000    0.000 
#
# Total GULP energy -323952.970414 kJ/mol
# GULP energy per Si atom -5585.396042 kJ/mol
# Density = 2.217900 g / cm^3
# Si number density = 22.229597 Si / 1000 Ang^3
#
#
#
# Elastic Constant Matrix: (Units=GPa)
#
#
# Indices 1 2 3 4 5 6 
#
# 1 74.9649 -9.0832 -7.4373 0.0000 0.0000 0.0000
# 2 -9.0832 46.6095 13.7385 0.0000 0.0000 0.0000
# 3 -7.4373 13.7385 28.9611 0.0000 0.0000 0.0000
# 4 0.0000 0.0000 0.0000 31.2183 0.0000 0.0000
# 5 0.0000 0.0000 0.0000 0.0000 11.0830 0.0000
# 6 0.0000 0.0000 0.0000 0.0000 0.0000 26.8219
#
#
#
# Elastic Compliance Matrix: (Units=1/GPa)
#
#
# Indices 1 2 3 4 5 6 
#
# 1 0.013834 0.001917 0.002643 0.000000 0.000000 0.000000
# 2 0.001917 0.025208 -0.011466 0.000000 0.000000 0.000000
# 3 0.002643 -0.011466 0.040647 0.000000 0.000000 0.000000
# 4 0.000000 0.000000 0.000000 0.032033 0.000000 0.000000
# 5 0.000000 0.000000 0.000000 0.000000 0.090228 0.000000
# 6 0.000000 0.000000 0.000000 0.000000 0.000000 0.037283
#
#
# Mechanical properties :
#
#
# Convention : Reuss Voigt Hill
#
# Bulk Modulus (GPa) = 15.17966 16.10795 15.64381
# Shear Modulus (GPa) = 18.18159 24.04581 21.11370
#
# Velocity S-wave (km/s) = 2.86300 3.29249 3.08523
# Velocity P-wave (km/s) = 4.21573 4.66003 4.44344
#
# Compressibility (1/GPa) = 0.06587764
#
# Stress axis : x y z
#
# Youngs Moduli (GPa) = 72.28531 39.66983 24.60208
#
# Poissons Ratio (x) = -0.07604 -0.06503
# Poissons Ratio (y) = -0.13856 0.28208
# Poissons Ratio (z) = -0.19107 0.45485
#
# Static dielectric constant tensor:
#      x y z
#    x 1.797940 0.000000 0.000000 
#    y 0.000000 1.814950 0.000000 
#    z 0.000000 0.000000 1.786940 
# 
# From -- ./inp_files/20508.got.cif
#   From: 2010.05.17/outbox.cif.g08.bks.cpg/sg55_11_cif.got.tgz:20508.got - 2010.06.03 13:27:54.
