data_PCOD9427877
_publ_section_title
;
Structure prediction by ZEFSAII (Michael W. Deem and Ramdas Pophale) SiO2 
 PCOD9427877
Probable space group: P B A M
;
_chemical_formula_sum "Si O2"
_cell_formula_units_Z 56
_cell_length_a 12.682609
_cell_length_b 8.262545
_cell_length_c 21.802907
_cell_angle_alpha 90.000000
_cell_angle_beta 90.000000
_cell_angle_gamma 90.000000
_cell_volume 2284.740308
_symmetry_space_group_name_H-M "P B A M"
_symmetry_group_IT_number 55
_symmetry_cell_setting 'orthorhombic'
loop_
_space_group_symop_operation_xyz
x,y,z
-x,-y,z
1/2+x,1/2-y,-z
1/2-x,1/2+y,-z
-x,-y,-z
x,y,-z
1/2-x,1/2+y,z
1/2+x,1/2-y,z
loop_
_atom_site_type_symbol
_atom_site_label
_atom_site_fract_x
_atom_site_fract_y
_atom_site_fract_z
Si Si1 0.578655 0.747748 0.231087
Si Si2 0.810092 0.479192 0.864550
Si Si3 0.591417 0.336502 0.000000
Si Si4 0.587234 0.186802 0.335282
Si Si5 0.440926 0.326120 0.568780
Si Si6 0.807785 0.483738 0.000000
Si Si7 0.200548 0.963867 0.326998
Si Si8 0.588959 0.334742 0.133378
O O1 0.640315 0.878319 0.190640
O O2 0.499181 0.817239 0.282186
O O3 0.656700 0.628012 0.267151
O O4 0.499495 0.663657 0.183908
O O5 0.851134 0.661731 0.860447
O O6 0.684098 0.462055 0.861701
O O7 0.841913 0.416395 0.933376
O O8 0.537949 0.339737 0.934344
O O9 0.655572 0.168127 0.000000
O O10 0.681729 0.472261 0.000000
O O11 0.522376 0.204626 0.398357
O O12 0.673921 0.047314 0.330861
O O13 0.652244 0.356369 0.327617
O O14 0.500000 0.500000 0.565724
O O15 0.410764 0.277675 0.500000
O O16 0.345089 0.364265 0.614702
#
# Coordination Sequence:
#
# PCOD9427877 Si02
#       8
#     8   8   4   8   8   4   8   8
#     4  11  22  34  53  79 109 145 189 229 270 328
#     4  10  21  36  56  80 107 142 184 232 287 342
#     4   8  16  33  53  75 104 136 175 227 285 343
#     4  10  22  39  59  84 115 152 189 229 277 327
#     4   8  16  35  62  89 117 150 187 224 269 328
#     4   8  16  33  53  75 104 136 175 227 285 343
#     4  10  22  39  59  84 115 152 189 229 277 327
#     4  10  21  36  56  80 107 142 184 232 287 342
#
# _framework density 24.510445000000001
#
# number of rings (size 3 to 8) (size 9 to 14) (size 15 to 20)
#    0.000    2.429    0.000    2.571    0.000    8.000 
#    0.000    4.286    0.000    0.857    0.000   14.000 
#    0.000    0.000    0.000    0.000    0.000    0.000 
#
# Total GULP energy -313624.447705 kJ/mol
# GULP energy per Si atom -5600.436566 kJ/mol
# Density = 2.445466 g / cm^3
# Si number density = 24.510445 Si / 1000 Ang^3
#
#
#
# Elastic Constant Matrix: (Units=GPa)
#
#
# Indices 1 2 3 4 5 6 
#
# 1 111.0975 37.5431 54.4218 0.0000 0.0000 0.0000
# 2 37.5431 82.0271 34.3322 0.0000 0.0000 0.0000
# 3 54.4218 34.3322 201.0861 0.0000 0.0000 0.0000
# 4 0.0000 0.0000 0.0000 -12.2141 0.0000 0.0000
# 5 0.0000 0.0000 0.0000 0.0000 22.0397 0.0000
# 6 0.0000 0.0000 0.0000 0.0000 0.0000 47.1350
#
#
#
# Elastic Compliance Matrix: (Units=1/GPa)
#
#
# Indices 1 2 3 4 5 6 
#
# 1 0.011643 -0.004319 -0.002414 0.000000 0.000000 0.000000
# 2 -0.004319 0.014731 -0.001346 0.000000 0.000000 0.000000
# 3 -0.002414 -0.001346 0.005856 0.000000 0.000000 0.000000
# 4 0.000000 0.000000 0.000000 -0.081873 0.000000 0.000000
# 5 0.000000 0.000000 0.000000 0.000000 0.045373 0.000000
# 6 0.000000 0.000000 0.000000 0.000000 0.000000 0.021216
#
#
# Mechanical properties :
#
#
# Convention : Reuss Voigt Hill
#
# Bulk Modulus (GPa) = 62.21650 71.86723 67.04187
# Shear Modulus (GPa) = 130.00333 29.25303 79.62818
#
# Velocity S-wave (km/s) = 7.29076 3.45844 5.70596
# Velocity P-wave (km/s) = 9.81388 6.73294 8.41560
#
# Compressibility (1/GPa) = 0.01607291
#
# Stress axis : x y z
#
# Youngs Moduli (GPa) = 85.88965 67.88318 170.76224
#
# Poissons Ratio (x) = 0.29316 0.41217
# Poissons Ratio (y) = 0.37092 0.22990
# Poissons Ratio (z) = 0.20731 0.09139
#
# Static dielectric constant tensor:
#      x y z
#    x 1.819380 0.000000 0.000000 
#    y 0.000000 1.990870 0.000000 
#    z 0.000000 0.000000 1.948160 
# 
# From -- ./inp_files/23005.got.cif
#   From: 2010.05.17/outbox.cif.g08.bks.cpg/sg55_12_cif.got.tgz:23005.got - 2010.06.03 13:27:54.
