data_PCOD9427662
_publ_section_title
;
Structure prediction by ZEFSAII (Michael W. Deem and Ramdas Pophale) SiO2 
 PCOD9427662
Probable space group: P B A M
;
_chemical_formula_sum "Si O2"
_cell_formula_units_Z 48
_cell_length_a 16.522121
_cell_length_b 10.619655
_cell_length_c 13.326126
_cell_angle_alpha 90.000000
_cell_angle_beta 90.000000
_cell_angle_gamma 90.000000
_cell_volume 2338.191739
_symmetry_space_group_name_H-M "P B A M"
_symmetry_group_IT_number 55
_symmetry_cell_setting 'orthorhombic'
loop_
_space_group_symop_operation_xyz
x,y,z
-x,-y,z
1/2+x,1/2-y,-z
1/2-x,1/2+y,-z
-x,-y,-z
x,y,-z
1/2-x,1/2+y,z
1/2+x,1/2-y,z
loop_
_atom_site_type_symbol
_atom_site_label
_atom_site_fract_x
_atom_site_fract_y
_atom_site_fract_z
Si Si1 0.089183 0.447566 0.690476
Si Si2 0.392160 0.410117 0.612576
Si Si3 0.257091 0.060950 0.387858
Si Si4 0.697147 0.075456 0.113121
Si Si5 0.048831 0.169697 0.308764
Si Si6 0.195156 0.149265 0.816501
O O1 0.149636 0.525619 0.621538
O O2 0.131121 0.449309 0.800252
O O3 0.079643 0.303939 0.655638
O O4 0.000000 0.500000 0.695597
O O5 0.403348 0.360622 0.500000
O O6 0.297136 0.433708 0.630871
O O7 0.451070 0.336934 0.688631
O O8 0.423195 0.555044 0.620775
O O9 0.238903 0.106027 0.500000
O O10 0.233357 0.149848 0.295761
O O11 0.718996 0.222613 0.128081
O O12 0.769543 0.976233 0.132978
O O13 0.667248 0.057200 0.000000
O O14 0.098303 0.145212 0.205323
#
# Coordination Sequence:
#
# PCOD9427662 Si02
#       6
#     8   8   8   8   8   8
#     4  10  22  39  55  85 121 159 195 247 307 361
#     4   9  17  33  55  81 108 155 209 240 280 340
#     4   9  19  37  57  86 124 163 203 241 290 359
#     4  10  20  39  65  90 118 155 202 256 312 362
#     4   9  17  33  54  78 114 153 190 246 291 345
#     4   9  19  36  59  91 123 156 197 248 301 357
#
# _framework density 20.528683999999998
#
# number of rings (size 3 to 8) (size 9 to 14) (size 15 to 20)
#    0.000    2.667    0.000    1.500    0.000    2.667 
#   33.000    8.333    0.000    0.000    0.000   43.167 
#    0.000    0.000    0.000    0.000    0.000    0.000 
#
# Total GULP energy -267428.468523 kJ/mol
# GULP energy per Si atom -5571.426428 kJ/mol
# Density = 2.048196 g / cm^3
# Si number density = 20.528684 Si / 1000 Ang^3
#
#
#
# Elastic Constant Matrix: (Units=GPa)
#
#
# Indices 1 2 3 4 5 6 
#
# 1 95.8510 22.1252 9.9675 0.0000 0.0000 0.0000
# 2 22.1252 61.5142 14.6789 0.0000 0.0000 0.0000
# 3 9.9675 14.6789 80.0825 0.0000 0.0000 0.0000
# 4 0.0000 0.0000 0.0000 8.0237 0.0000 0.0000
# 5 0.0000 0.0000 0.0000 0.0000 8.8584 0.0000
# 6 0.0000 0.0000 0.0000 0.0000 0.0000 25.8144
#
#
#
# Elastic Compliance Matrix: (Units=1/GPa)
#
#
# Indices 1 2 3 4 5 6 
#
# 1 0.011415 -0.003939 -0.000699 0.000000 0.000000 0.000000
# 2 -0.003939 0.018359 -0.002875 0.000000 0.000000 0.000000
# 3 -0.000699 -0.002875 0.013101 0.000000 0.000000 0.000000
# 4 0.000000 0.000000 0.000000 0.124631 0.000000 0.000000
# 5 0.000000 0.000000 0.000000 0.000000 0.112887 0.000000
# 6 0.000000 0.000000 0.000000 0.000000 0.000000 0.038738
#
#
# Mechanical properties :
#
#
# Convention : Reuss Voigt Hill
#
# Bulk Modulus (GPa) = 35.90684 36.77676 36.34180
# Shear Modulus (GPa) = 14.55861 21.25104 17.90483
#
# Velocity S-wave (km/s) = 2.66594 3.22092 2.95648
# Velocity P-wave (km/s) = 5.19667 5.63792 5.42179
#
# Compressibility (1/GPa) = 0.02784985
#
# Stress axis : x y z
#
# Youngs Moduli (GPa) = 87.60613 54.46877 76.32973
#
# Poissons Ratio (x) = 0.21454 0.05334
# Poissons Ratio (y) = 0.34507 0.21944
# Poissons Ratio (z) = 0.06122 0.15659
#
# Static dielectric constant tensor:
#      x y z
#    x 1.836140 0.000000 0.000000 
#    y 0.000000 1.760910 0.000000 
#    z 0.000000 0.000000 1.695060 
# 
# From -- ./inp_files/18871.got.cif
#   From: 2010.05.17/outbox.cif.g08.bks.cpg/sg55_10_cif.got.tgz:18871.got - 2010.06.03 13:27:54.
