data_PCOD9427256
_publ_section_title
;
Structure prediction by ZEFSAII (Michael W. Deem and Ramdas Pophale) SiO2 
 PCOD9427256
Probable space group: P B A M
;
_chemical_formula_sum "Si O2"
_cell_formula_units_Z 48
_cell_length_a 14.194151
_cell_length_b 14.803437
_cell_length_c 12.638870
_cell_angle_alpha 90.000000
_cell_angle_beta 90.000000
_cell_angle_gamma 90.000000
_cell_volume 2655.707424
_symmetry_space_group_name_H-M "P B A M"
_symmetry_group_IT_number 55
_symmetry_cell_setting 'orthorhombic'
loop_
_space_group_symop_operation_xyz
x,y,z
-x,-y,z
1/2+x,1/2-y,-z
1/2-x,1/2+y,-z
-x,-y,-z
x,y,-z
1/2-x,1/2+y,z
1/2+x,1/2-y,z
loop_
_atom_site_type_symbol
_atom_site_label
_atom_site_fract_x
_atom_site_fract_y
_atom_site_fract_z
Si Si1 0.793978 0.217412 0.771279
Si Si2 0.167657 0.961798 0.118277
Si Si3 0.030956 0.811129 0.619360
Si Si4 0.122017 0.347792 0.376749
Si Si5 0.159059 0.596436 0.875917
Si Si6 0.000000 0.500000 0.739714
Si Si7 0.500000 0.500000 0.721496
O O1 0.809402 0.142652 0.861410
O O2 0.885765 0.215073 0.697558
O O3 0.707517 0.183162 0.698884
O O4 0.792553 0.316005 0.823007
O O5 0.263741 0.017315 0.129947
O O6 0.091456 0.991929 0.204280
O O7 0.130814 0.976552 0.000000
O O8 0.067480 0.814932 0.500000
O O9 0.950840 0.735545 0.624784
O O10 0.993957 0.909503 0.652660
O O11 0.150307 0.362936 0.500000
O O12 0.067793 0.435604 0.330604
O O13 0.066733 0.563394 0.812486
O O14 0.137329 0.613282 0.000000
#
# Coordination Sequence:
#
# PCOD9427256 Si02
#       7
#     8   8   8   8   8   4   4
#     4  11  21  39  62  87 121 155 202 248 306 366
#     4  10  21  37  58  85 117 154 196 246 301 361
#     4  10  21  37  58  85 117 154 196 246 301 361
#     4  11  23  40  63  91 123 162 205 253 310 369
#     4  11  23  40  63  91 123 162 205 253 310 369
#     4  12  22  44  64  90 128 164 214 256 312 366
#     4  10  20  36  60  82 118 154 194 248 300 362
#
# _framework density 18.074280000000002
#
# number of rings (size 3 to 8) (size 9 to 14) (size 15 to 20)
#    0.000    1.333    3.333    3.000    0.000    0.000 
#    0.000    0.000    0.000    0.000    0.000    0.000 
#    0.000    0.000    0.000    0.000    0.000    0.000 
#
# Total GULP energy -267933.892037 kJ/mol
# GULP energy per Si atom -5581.956084 kJ/mol
# Density = 1.803314 g / cm^3
# Si number density = 18.074280 Si / 1000 Ang^3
#
#
#
# Elastic Constant Matrix: (Units=GPa)
#
#
# Indices 1 2 3 4 5 6 
#
# 1 40.3607 1.1338 0.7054 0.0000 0.0000 0.0000
# 2 1.1338 75.7686 19.3148 0.0000 0.0000 0.0000
# 3 0.7054 19.3148 66.9404 0.0000 0.0000 0.0000
# 4 0.0000 0.0000 0.0000 22.1442 0.0000 0.0000
# 5 0.0000 0.0000 0.0000 0.0000 12.5015 0.0000
# 6 0.0000 0.0000 0.0000 0.0000 0.0000 31.2892
#
#
#
# Elastic Compliance Matrix: (Units=1/GPa)
#
#
# Indices 1 2 3 4 5 6 
#
# 1 0.024789 -0.000329 -0.000166 0.000000 0.000000 0.000000
# 2 -0.000329 0.014250 -0.004108 0.000000 0.000000 0.000000
# 3 -0.000166 -0.004108 0.016126 0.000000 0.000000 0.000000
# 4 0.000000 0.000000 0.000000 0.045159 0.000000 0.000000
# 5 0.000000 0.000000 0.000000 0.000000 0.079991 0.000000
# 6 0.000000 0.000000 0.000000 0.000000 0.000000 0.031960
#
#
# Mechanical properties :
#
#
# Convention : Reuss Voigt Hill
#
# Bulk Modulus (GPa) = 21.75882 25.04197 23.40040
# Shear Modulus (GPa) = 21.11490 23.98137 22.54814
#
# Velocity S-wave (km/s) = 3.42164 3.64651 3.53587
# Velocity P-wave (km/s) = 5.26069 5.62268 5.44469
#
# Compressibility (1/GPa) = 0.04595837
#
# Stress axis : x y z
#
# Youngs Moduli (GPa) = 40.34096 70.17410 62.01240
#
# Poissons Ratio (x) = 0.02305 0.01032
# Poissons Ratio (y) = 0.01325 0.25476
# Poissons Ratio (z) = 0.00671 0.28829
#
# Static dielectric constant tensor:
#      x y z
#    x 1.590090 0.000000 0.000000 
#    y 0.000000 1.602480 0.000000 
#    z 0.000000 0.000000 1.618900 
# 
# From -- ./inp_files/14171.got.cif
#   From: 2010.05.17/outbox.cif.g08.bks.cpg/sg55_8_cif.got.tgz:14171.got - 2010.06.03 13:27:54.
