data_PCOD9427534
_publ_section_title
;
Structure prediction by ZEFSAII (Michael W. Deem and Ramdas Pophale) SiO2 
 PCOD9427534
Probable space group: P B A M
;
_chemical_formula_sum "Si O2"
_cell_formula_units_Z 64
_cell_length_a 13.463150
_cell_length_b 27.453585
_cell_length_c 7.767043
_cell_angle_alpha 90.000000
_cell_angle_beta 90.000000
_cell_angle_gamma 90.000000
_cell_volume 2870.790223
_symmetry_space_group_name_H-M "P B A M"
_symmetry_group_IT_number 55
_symmetry_cell_setting 'orthorhombic'
loop_
_space_group_symop_operation_xyz
x,y,z
-x,-y,z
1/2+x,1/2-y,-z
1/2-x,1/2+y,-z
-x,-y,-z
x,y,-z
1/2-x,1/2+y,z
1/2+x,1/2-y,z
loop_
_atom_site_type_symbol
_atom_site_label
_atom_site_fract_x
_atom_site_fract_y
_atom_site_fract_z
Si Si1 0.698116 0.717699 0.799771
Si Si2 0.730255 0.054905 0.796706
Si Si3 0.138177 0.119584 0.199413
Si Si4 0.545928 0.791397 0.290288
Si Si5 0.680828 0.946906 0.209310
Si Si6 0.412701 0.379382 0.211508
Si Si7 0.872635 0.773088 0.302201
Si Si8 0.976378 0.603244 0.703677
O O1 0.648903 0.770623 0.774918
O O2 0.630498 0.673483 0.734979
O O3 0.800490 0.726460 0.703804
O O4 0.718419 0.708811 0.000000
O O5 0.828911 0.082086 0.730480
O O6 0.628844 0.085545 0.775824
O O7 0.709652 0.000836 0.728210
O O8 0.747833 0.049424 0.000000
O O9 0.233267 0.090533 0.271293
O O10 0.156034 0.177401 0.209037
O O11 0.026001 0.111713 0.271148
O O12 0.132404 0.104426 0.000000
O O13 0.547450 0.791530 0.500000
O O14 0.472175 0.749391 0.227004
O O15 0.512215 0.844090 0.229431
O O16 0.569809 0.932236 0.264247
O O17 0.679013 0.946383 0.000000
O O18 0.415754 0.378969 0.000000
O O19 0.886346 0.787258 0.500000
O O20 0.962003 0.607552 0.500000
#
# Coordination Sequence:
#
# PCOD9427534 Si02
#       8
#     8   8   8   8   8   8   8   8
#     4  11  21  34  56  84 114 149 189 234 282 334
#     4  10  21  39  61  86 116 151 193 241 297 350
#     4  10  20  38  60  86 119 152 194 239 287 346
#     4  10  22  38  55  80 113 150 189 227 279 341
#     4  10  22  38  60  87 115 152 194 241 294 350
#     4   9  19  36  59  87 118 150 190 240 287 341
#     4  11  22  36  55  81 115 153 191 231 280 339
#     4  11  23  39  59  84 116 152 194 245 295 347
#
# _framework density 22.293512
#
# number of rings (size 3 to 8) (size 9 to 14) (size 15 to 20)
#    0.000    1.750    1.250    3.000    0.000    6.500 
#    0.000    3.750    0.000    0.000    0.000    2.625 
#    0.000    0.000    0.000    0.000    0.000    0.000 
#
# Total GULP energy -357261.070554 kJ/mol
# GULP energy per Si atom -5582.204227 kJ/mol
# Density = 2.224277 g / cm^3
# Si number density = 22.293512 Si / 1000 Ang^3
#
#
#
# Elastic Constant Matrix: (Units=GPa)
#
#
# Indices 1 2 3 4 5 6 
#
# 1 72.1703 -21.0602 -8.4283 0.0000 0.0000 0.0000
# 2 -21.0602 42.1281 -0.8849 0.0000 0.0000 0.0000
# 3 -8.4283 -0.8849 28.2685 0.0000 0.0000 0.0000
# 4 0.0000 0.0000 0.0000 46.7866 0.0000 0.0000
# 5 0.0000 0.0000 0.0000 0.0000 7.0060 0.0000
# 6 0.0000 0.0000 0.0000 0.0000 0.0000 36.5109
#
#
#
# Elastic Compliance Matrix: (Units=1/GPa)
#
#
# Indices 1 2 3 4 5 6 
#
# 1 0.016990 0.008606 0.005335 0.000000 0.000000 0.000000
# 2 0.008606 0.028112 0.003446 0.000000 0.000000 0.000000
# 3 0.005335 0.003446 0.037074 0.000000 0.000000 0.000000
# 4 0.000000 0.000000 0.000000 0.021374 0.000000 0.000000
# 5 0.000000 0.000000 0.000000 0.000000 0.142735 0.000000
# 6 0.000000 0.000000 0.000000 0.000000 0.000000 0.027389
#
#
# Mechanical properties :
#
#
# Convention : Reuss Voigt Hill
#
# Bulk Modulus (GPa) = 8.55074 9.09113 8.82094
# Shear Modulus (GPa) = 17.99317 29.59005 23.79161
#
# Velocity S-wave (km/s) = 2.84404 3.64716 3.27035
# Velocity P-wave (km/s) = 3.82474 4.67145 4.26914
#
# Compressibility (1/GPa) = 0.11694888
#
# Stress axis : x y z
#
# Youngs Moduli (GPa) = 58.85675 35.57258 26.97332
#
# Poissons Ratio (x) = -0.30613 -0.14391
# Poissons Ratio (y) = -0.50650 -0.09295
# Poissons Ratio (z) = -0.31401 -0.12258
#
# Static dielectric constant tensor:
#      x y z
#    x 1.835260 0.000000 0.000000 
#    y 0.000000 1.814650 0.000000 
#    z 0.000000 0.000000 1.815250 
# 
# From -- ./inp_files/4673.got.cif
#   From: 2010.05.17/outbox.cif.g08.bks.cpg/sg55_3_cif.got.tgz:4673.got - 2010.06.03 13:27:54.
