data_PCOD9427041
_publ_section_title
;
Structure prediction by ZEFSAII (Michael W. Deem and Ramdas Pophale) SiO2 
 PCOD9427041
Probable space group: P B A M
;
_chemical_formula_sum "Si O2"
_cell_formula_units_Z 48
_cell_length_a 23.970544
_cell_length_b 12.327446
_cell_length_c 8.553544
_cell_angle_alpha 90.000000
_cell_angle_beta 90.000000
_cell_angle_gamma 90.000000
_cell_volume 2527.534503
_symmetry_space_group_name_H-M "P B A M"
_symmetry_group_IT_number 55
_symmetry_cell_setting 'orthorhombic'
loop_
_space_group_symop_operation_xyz
x,y,z
-x,-y,z
1/2+x,1/2-y,-z
1/2-x,1/2+y,-z
-x,-y,-z
x,y,-z
1/2-x,1/2+y,z
1/2+x,1/2-y,z
loop_
_atom_site_type_symbol
_atom_site_label
_atom_site_fract_x
_atom_site_fract_y
_atom_site_fract_z
Si Si1 0.629357 0.999730 0.189133
Si Si2 0.080022 0.274506 0.810828
Si Si3 0.845402 0.913320 0.312928
Si Si4 0.222715 0.657817 0.312856
Si Si5 0.046180 0.687740 0.810243
Si Si6 0.145715 0.844214 0.187334
O O1 0.683199 0.941700 0.260331
O O2 0.575967 0.925178 0.233433
O O3 0.617869 0.122750 0.237473
O O4 0.634191 0.995590 0.000000
O O5 0.105994 0.163565 0.750524
O O6 0.016694 0.294994 0.755549
O O7 0.079356 0.272762 0.000000
O O8 0.846357 0.912714 0.500000
O O9 0.785737 0.864628 0.260624
O O10 0.850503 0.035988 0.254480
O O11 0.221487 0.666005 0.500000
O O12 0.195903 0.766440 0.242054
O O13 0.088839 0.782684 0.762268
O O14 0.044320 0.687962 0.000000
O O15 0.146022 0.848714 0.000000
#
# Coordination Sequence:
#
# PCOD9427041 Si02
#       6
#     8   8   8   8   8   8
#     4   9  18  34  59  89 114 145 188 235 280 330
#     4  10  20  35  58  87 116 148 189 235 279 328
#     4  11  25  40  54  79 117 157 189 227 284 339
#     4  10  22  39  58  79 112 153 186 227 285 341
#     4   8  16  34  59  86 115 145 181 232 289 332
#     4  10  21  39  63  85 108 143 191 238 278 332
#
# _framework density 18.990838
#
# number of rings (size 3 to 8) (size 9 to 14) (size 15 to 20)
#    0.000    2.333    0.000    3.000    2.333    6.000 
#    0.000    7.500    0.000    5.000    0.000    0.000 
#    0.000    0.000    0.000    0.000    0.000    0.000 
#
# Total GULP energy -268006.414052 kJ/mol
# GULP energy per Si atom -5583.466959 kJ/mol
# Density = 1.894761 g / cm^3
# Si number density = 18.990838 Si / 1000 Ang^3
#
#
#
# Elastic Constant Matrix: (Units=GPa)
#
#
# Indices 1 2 3 4 5 6 
#
# 1 29.9510 3.0011 5.8831 0.0000 0.0000 0.0000
# 2 3.0011 101.4517 9.7731 0.0000 0.0000 0.0000
# 3 5.8831 9.7731 18.7308 0.0000 0.0000 0.0000
# 4 0.0000 0.0000 0.0000 20.2911 0.0000 0.0000
# 5 0.0000 0.0000 0.0000 0.0000 39.1698 0.0000
# 6 0.0000 0.0000 0.0000 0.0000 0.0000 10.0160
#
#
#
# Elastic Compliance Matrix: (Units=1/GPa)
#
#
# Indices 1 2 3 4 5 6 
#
# 1 0.035583 0.000025 -0.011189 0.000000 0.000000 0.000000
# 2 0.000025 0.010379 -0.005423 0.000000 0.000000 0.000000
# 3 -0.011189 -0.005423 0.059732 0.000000 0.000000 0.000000
# 4 0.000000 0.000000 0.000000 0.049283 0.000000 0.000000
# 5 0.000000 0.000000 0.000000 0.000000 0.025530 0.000000
# 6 0.000000 0.000000 0.000000 0.000000 0.000000 0.099840
#
#
# Mechanical properties :
#
#
# Convention : Reuss Voigt Hill
#
# Bulk Modulus (GPa) = 13.78943 20.82758 17.30850
# Shear Modulus (GPa) = 14.80631 22.66046 18.73338
#
# Velocity S-wave (km/s) = 2.79526 3.45807 3.14418
# Velocity P-wave (km/s) = 4.20652 5.18992 4.72388
#
# Compressibility (1/GPa) = 0.07251930
#
# Stress axis : x y z
#
# Youngs Moduli (GPa) = 28.10318 96.35234 16.74144
#
# Poissons Ratio (x) = -0.00244 0.18733
# Poissons Ratio (y) = -0.00071 0.09079
# Poissons Ratio (z) = 0.31446 0.52253
#
# Static dielectric constant tensor:
#      x y z
#    x 1.656470 0.000000 0.000000 
#    y 0.000000 1.630980 0.000000 
#    z 0.000000 0.000000 1.649180 
# 
# From -- ./inp_files/4029.got.cif
#   From: 2010.05.17/outbox.cif.g08.bks.cpg/sg55_3_cif.got.tgz:4029.got - 2010.06.03 13:27:54.
