data_PCOD9427213
_publ_section_title
;
Structure prediction by ZEFSAII (Michael W. Deem and Ramdas Pophale) SiO2 
 PCOD9427213
Probable space group: P B A M
;
_chemical_formula_sum "Si O2"
_cell_formula_units_Z 64
_cell_length_a 31.997799
_cell_length_b 12.249062
_cell_length_c 7.663638
_cell_angle_alpha 90.000000
_cell_angle_beta 90.000000
_cell_angle_gamma 90.000000
_cell_volume 3003.709451
_symmetry_space_group_name_H-M "P B A M"
_symmetry_group_IT_number 55
_symmetry_cell_setting 'orthorhombic'
loop_
_space_group_symop_operation_xyz
x,y,z
-x,-y,z
1/2+x,1/2-y,-z
1/2-x,1/2+y,-z
-x,-y,-z
x,y,-z
1/2-x,1/2+y,z
1/2+x,1/2-y,z
loop_
_atom_site_type_symbol
_atom_site_label
_atom_site_fract_x
_atom_site_fract_y
_atom_site_fract_z
Si Si1 0.927115 0.508970 0.286853
Si Si2 0.300557 0.757850 0.210448
Si Si3 0.951535 0.752800 0.711062
Si Si4 0.042115 0.720794 0.709306
Si Si5 0.373249 0.350174 0.210566
Si Si6 0.292228 0.221755 0.797212
Si Si7 0.127013 0.097941 0.207390
Si Si8 0.668573 0.000018 0.292374
O O1 0.928456 0.510514 0.500000
O O2 0.940569 0.629422 0.230383
O O3 0.953694 0.404609 0.228148
O O4 0.879312 0.488700 0.232691
O O5 0.253589 0.741909 0.279504
O O6 0.334619 0.670825 0.277811
O O7 0.316034 0.879147 0.250830
O O8 0.299406 0.745737 0.000000
O O9 0.950551 0.753360 0.500000
O O10 0.916119 0.837060 0.767268
O O11 0.998951 0.774923 0.771033
O O12 0.039045 0.714559 0.500000
O O13 0.084256 0.785996 0.748178
O O14 0.331972 0.287233 0.277751
O O15 0.374550 0.474619 0.276368
O O16 0.370803 0.351804 0.000000
O O17 0.303311 0.094351 0.787945
O O18 0.289527 0.255022 0.000000
O O19 0.133591 0.088671 0.000000
O O20 0.669099 0.984412 0.500000
#
# Coordination Sequence:
#
# PCOD9427213 Si02
#       8
#     8   8   8   8   8   8   8   8
#     4   9  17  33  56  83 115 145 177 224 280 332
#     4  10  22  39  62  86 113 151 195 237 279 335
#     4  10  20  36  59  84 111 147 189 230 278 339
#     4  10  20  36  59  84 111 147 189 230 278 339
#     4  10  22  39  57  80 112 149 189 235 284 332
#     4  10  22  39  62  86 113 151 195 237 279 335
#     4  10  22  39  57  80 112 149 189 235 284 332
#     4  11  21  36  61  89 120 150 183 232 289 342
#
# _framework density 21.306989000000002
#
# number of rings (size 3 to 8) (size 9 to 14) (size 15 to 20)
#    0.000    2.000    2.500    0.750    1.750    3.500 
#    0.000    3.125    0.000    1.500    0.000    0.000 
#    0.000    0.000    0.000    0.000    0.000    0.000 
#
# Total GULP energy -357489.407445 kJ/mol
# GULP energy per Si atom -5585.771991 kJ/mol
# Density = 2.125849 g / cm^3
# Si number density = 21.306989 Si / 1000 Ang^3
#
#
#
# Elastic Constant Matrix: (Units=GPa)
#
#
# Indices 1 2 3 4 5 6 
#
# 1 109.6744 25.8549 -2.5951 0.0000 0.0000 0.0000
# 2 25.8549 113.5196 -10.3951 0.0000 0.0000 0.0000
# 3 -2.5951 -10.3951 36.6964 0.0000 0.0000 0.0000
# 4 0.0000 0.0000 0.0000 24.0855 0.0000 0.0000
# 5 0.0000 0.0000 0.0000 0.0000 39.0724 0.0000
# 6 0.0000 0.0000 0.0000 0.0000 0.0000 3.2832
#
#
#
# Elastic Compliance Matrix: (Units=1/GPa)
#
#
# Indices 1 2 3 4 5 6 
#
# 1 0.009635 -0.002189 0.000061 0.000000 0.000000 0.000000
# 2 -0.002189 0.009541 0.002548 0.000000 0.000000 0.000000
# 3 0.000061 0.002548 0.027977 0.000000 0.000000 0.000000
# 4 0.000000 0.000000 0.000000 0.041519 0.000000 0.000000
# 5 0.000000 0.000000 0.000000 0.000000 0.025593 0.000000
# 6 0.000000 0.000000 0.000000 0.000000 0.000000 0.304579
#
#
# Mechanical properties :
#
#
# Convention : Reuss Voigt Hill
#
# Bulk Modulus (GPa) = 20.83609 31.73553 26.28581
# Shear Modulus (GPa) = 11.52070 29.75662 20.63866
#
# Velocity S-wave (km/s) = 2.32782 3.74112 3.11566
# Velocity P-wave (km/s) = 4.12616 5.79552 5.03057
#
# Compressibility (1/GPa) = 0.04799366
#
# Stress axis : x y z
#
# Youngs Moduli (GPa) = 103.78434 104.81189 35.74396
#
# Poissons Ratio (x) = 0.22942 -0.00219
# Poissons Ratio (y) = 0.22717 -0.09107
# Poissons Ratio (z) = -0.00637 -0.26705
#
# Static dielectric constant tensor:
#      x y z
#    x 1.768920 0.000000 0.000000 
#    y 0.000000 1.729850 0.000000 
#    z 0.000000 0.000000 1.809070 
# 
# From -- ./inp_files/4655.got.cif
#   From: 2010.05.17/outbox.cif.g08.bks.cpg/sg55_3_cif.got.tgz:4655.got - 2010.06.03 13:27:54.
