data_PCOD9427939
_publ_section_title
;
Structure prediction by ZEFSAII (Michael W. Deem and Ramdas Pophale) SiO2 
 PCOD9427939
Probable space group: P B A M
;
_chemical_formula_sum "Si O2"
_cell_formula_units_Z 40
_cell_length_a 10.526095
_cell_length_b 12.723110
_cell_length_c 13.593599
_cell_angle_alpha 90.000000
_cell_angle_beta 90.000000
_cell_angle_gamma 90.000000
_cell_volume 1820.518186
_symmetry_space_group_name_H-M "P B A M"
_symmetry_group_IT_number 55
_symmetry_cell_setting 'orthorhombic'
loop_
_space_group_symop_operation_xyz
x,y,z
-x,-y,z
1/2+x,1/2-y,-z
1/2-x,1/2+y,-z
-x,-y,-z
x,y,-z
1/2-x,1/2+y,z
1/2+x,1/2-y,z
loop_
_atom_site_type_symbol
_atom_site_label
_atom_site_fract_x
_atom_site_fract_y
_atom_site_fract_z
Si Si1 0.784986 0.209140 0.388002
Si Si2 0.148702 0.786282 0.115755
Si Si3 0.661891 0.525622 0.255335
Si Si4 0.391740 0.706889 0.220874
Si Si5 0.629671 0.937466 0.608522
O O1 0.745580 0.191946 0.500000
O O2 0.859792 0.111203 0.342354
O O3 0.664385 0.236927 0.318443
O O4 0.873570 0.311905 0.384176
O O5 0.174464 0.903942 0.158073
O O6 0.272772 0.720400 0.146481
O O7 0.020490 0.749998 0.172330
O O8 0.128421 0.785775 0.000000
O O9 0.585665 0.417713 0.239099
O O10 0.792920 0.478077 0.298475
O O11 0.692309 0.955531 0.500000
O O12 0.500000 0.000000 0.606933
#
# Coordination Sequence:
#
# PCOD9427939 Si02
#       5
#     8   8   8   8   8
#     4   9  19  36  60  93 131 172 215 259 315 386
#     4  11  24  43  67  92 123 167 217 270 328 388
#     4  10  21  36  60  93 126 161 209 262 318 381
#     4  10  23  43  65  93 129 166 212 268 325 387
#     4   9  18  35  60  92 134 179 217 260 317 378
#
# _framework density 21.971765000000001
#
# number of rings (size 3 to 8) (size 9 to 14) (size 15 to 20)
#    0.000    2.200    0.000    1.800    0.000   12.800 
#    0.000    9.000    0.000   21.000    0.000    0.000 
#    0.000    0.000    0.000    0.000    0.000    0.000 
#
# Total GULP energy -223187.514016 kJ/mol
# GULP energy per Si atom -5579.687850 kJ/mol
# Density = 2.192176 g / cm^3
# Si number density = 21.971765 Si / 1000 Ang^3
#
#
#
# Elastic Constant Matrix: (Units=GPa)
#
#
# Indices 1 2 3 4 5 6 
#
# 1 93.9488 22.6980 42.9063 0.0000 0.0000 0.0000
# 2 22.6980 115.0559 19.9955 0.0000 0.0000 0.0000
# 3 42.9063 19.9955 175.7995 0.0000 0.0000 0.0000
# 4 0.0000 0.0000 0.0000 25.4521 0.0000 0.0000
# 5 0.0000 0.0000 0.0000 0.0000 16.0560 0.0000
# 6 0.0000 0.0000 0.0000 0.0000 0.0000 27.9370
#
#
#
# Elastic Compliance Matrix: (Units=1/GPa)
#
#
# Indices 1 2 3 4 5 6 
#
# 1 0.012397 -0.001959 -0.002803 0.000000 0.000000 0.000000
# 2 -0.001959 0.009176 -0.000566 0.000000 0.000000 0.000000
# 3 -0.002803 -0.000566 0.006437 0.000000 0.000000 0.000000
# 4 0.000000 0.000000 0.000000 0.039290 0.000000 0.000000
# 5 0.000000 0.000000 0.000000 0.000000 0.062282 0.000000
# 6 0.000000 0.000000 0.000000 0.000000 0.000000 0.035795
#
#
# Mechanical properties :
#
#
# Convention : Reuss Voigt Hill
#
# Bulk Modulus (GPa) = 57.61780 61.77822 59.69801
# Shear Modulus (GPa) = 27.50024 33.83596 30.66810
#
# Velocity S-wave (km/s) = 3.54166 3.92851 3.74009
# Velocity P-wave (km/s) = 6.55782 6.98253 6.77350
#
# Compressibility (1/GPa) = 0.01735575
#
# Stress axis : x y z
#
# Youngs Moduli (GPa) = 80.66193 108.97849 155.35796
#
# Poissons Ratio (x) = 0.21345 0.43547
# Poissons Ratio (y) = 0.15799 0.08788
# Poissons Ratio (z) = 0.22609 0.06165
#
# Static dielectric constant tensor:
#      x y z
#    x 1.895890 0.000000 0.000000 
#    y 0.000000 1.864180 0.000000 
#    z 0.000000 0.000000 1.790160 
# 
# From -- ./inp_files/18194.got.cif
#   From: 2010.05.17/outbox.cif.g08.bks.cpg/sg55_10_cif.got.tgz:18194.got - 2010.06.03 13:27:54.
