data_PCOD9427377
_publ_section_title
;
Structure prediction by ZEFSAII (Michael W. Deem and Ramdas Pophale) SiO2 
 PCOD9427377
Probable space group: P B A M
;
_chemical_formula_sum "Si O2"
_cell_formula_units_Z 64
_cell_length_a 33.885516
_cell_length_b 11.750662
_cell_length_c 8.867649
_cell_angle_alpha 90.000000
_cell_angle_beta 90.000000
_cell_angle_gamma 90.000000
_cell_volume 3530.896050
_symmetry_space_group_name_H-M "P B A M"
_symmetry_group_IT_number 55
_symmetry_cell_setting 'orthorhombic'
loop_
_space_group_symop_operation_xyz
x,y,z
-x,-y,z
1/2+x,1/2-y,-z
1/2-x,1/2+y,-z
-x,-y,-z
x,y,-z
1/2-x,1/2+y,z
1/2+x,1/2-y,z
loop_
_atom_site_type_symbol
_atom_site_label
_atom_site_fract_x
_atom_site_fract_y
_atom_site_fract_z
Si Si1 0.594283 0.812862 0.320689
Si Si2 0.634905 0.288954 0.817844
Si Si3 0.198961 0.053546 0.678912
Si Si4 0.971072 0.167710 0.817721
Si Si5 0.832484 0.179309 0.179046
Si Si6 0.443972 0.583382 0.182838
Si Si7 0.282910 0.095762 0.178151
Si Si8 0.135283 0.475472 0.819292
O O1 0.595201 0.807954 0.500000
O O2 0.552697 0.769295 0.257361
O O3 0.627897 0.729277 0.252719
O O4 0.606094 0.938041 0.263253
O O5 0.673481 0.342059 0.743403
O O6 0.596717 0.360875 0.766875
O O7 0.629586 0.156211 0.782121
O O8 0.638364 0.298581 0.000000
O O9 0.195790 0.048207 0.500000
O O10 0.244152 0.068203 0.728959
O O11 0.181081 0.938923 0.750967
O O12 0.016903 0.153722 0.773701
O O13 0.950502 0.047727 0.772931
O O14 0.968972 0.177022 0.000000
O O15 0.799033 0.276099 0.201136
O O16 0.839108 0.166439 0.000000
O O17 0.443542 0.583451 0.000000
O O18 0.320019 0.015074 0.216367
O O19 0.274193 0.081676 0.000000
O O20 0.130478 0.490924 0.000000
#
# Coordination Sequence:
#
# PCOD9427377 Si02
#       8
#     8   8   8   8   8   8   8   8
#     4  11  21  34  55  83 112 143 181 228 284 335
#     4  10  20  37  59  82 109 146 192 235 276 329
#     4  12  25  36  53  84 116 145 176 222 284 339
#     4   9  16  31  56  83 113 147 184 226 278 336
#     4  10  21  39  60  79 104 141 187 231 268 319
#     4   8  16  31  55  85 111 141 185 236 278 319
#     4   9  20  38  57  77 101 139 189 234 272 322
#     4   9  20  38  59  79 104 146 193 233 276 329
#
# _framework density 18.125710000000002
#
# number of rings (size 3 to 8) (size 9 to 14) (size 15 to 20)
#    0.000    2.250    0.000    4.875    1.750    4.000 
#    0.000    2.500    0.000    3.750    0.000    0.000 
#    0.000    0.000    0.000    0.000    0.000    0.000 
#
# Total GULP energy -357357.123262 kJ/mol
# GULP energy per Si atom -5583.705051 kJ/mol
# Density = 1.808446 g / cm^3
# Si number density = 18.125710 Si / 1000 Ang^3
#
#
#
# Elastic Constant Matrix: (Units=GPa)
#
#
# Indices 1 2 3 4 5 6 
#
# 1 49.7343 11.5974 14.5604 0.0000 0.0000 0.0000
# 2 11.5974 44.3042 22.0719 0.0000 0.0000 0.0000
# 3 14.5604 22.0719 45.6443 0.0000 0.0000 0.0000
# 4 0.0000 0.0000 0.0000 13.8514 0.0000 0.0000
# 5 0.0000 0.0000 0.0000 0.0000 -22.7195 0.0000
# 6 0.0000 0.0000 0.0000 0.0000 0.0000 8.4029
#
#
#
# Elastic Compliance Matrix: (Units=1/GPa)
#
#
# Indices 1 2 3 4 5 6 
#
# 1 0.022486 -0.003047 -0.005700 0.000000 0.000000 0.000000
# 2 -0.003047 0.030147 -0.013606 0.000000 0.000000 0.000000
# 3 -0.005700 -0.013606 0.030306 0.000000 0.000000 0.000000
# 4 0.000000 0.000000 0.000000 0.072195 0.000000 0.000000
# 5 0.000000 0.000000 0.000000 0.000000 -0.044015 0.000000
# 6 0.000000 0.000000 0.000000 0.000000 0.000000 0.119006
#
#
# Mechanical properties :
#
#
# Convention : Reuss Voigt Hill
#
# Bulk Modulus (GPa) = 26.15454 26.23804 26.19629
# Shear Modulus (GPa) = 17.38677 6.00384 11.69531
#
# Velocity S-wave (km/s) = 3.10051 1.82196 2.54290
# Velocity P-wave (km/s) = 5.22287 4.35121 4.80684
#
# Compressibility (1/GPa) = 0.03823428
#
# Stress axis : x y z
#
# Youngs Moduli (GPa) = 44.47225 33.17058 32.99652
#
# Poissons Ratio (x) = 0.10106 0.18807
# Poissons Ratio (y) = 0.13549 0.44896
# Poissons Ratio (z) = 0.25348 0.45133
#
# Static dielectric constant tensor:
#      x y z
#    x 1.612560 0.000000 0.000000 
#    y 0.000000 1.609230 0.000000 
#    z 0.000000 0.000000 1.598310 
# 
# From -- ./inp_files/10844.got.cif
#   From: 2010.05.17/outbox.cif.g08.bks.cpg/sg55_6_cif.got.tgz:10844.got - 2010.06.03 13:27:54.
