data_PCOD9427532
_publ_section_title
;
Structure prediction by ZEFSAII (Michael W. Deem and Ramdas Pophale) SiO2 
 PCOD9427532
Probable space group: P B A M
;
_chemical_formula_sum "Si O2"
_cell_formula_units_Z 64
_cell_length_a 11.232272
_cell_length_b 18.890919
_cell_length_c 12.897609
_cell_angle_alpha 90.000000
_cell_angle_beta 90.000000
_cell_angle_gamma 90.000000
_cell_volume 2736.717092
_symmetry_space_group_name_H-M "P B A M"
_symmetry_group_IT_number 55
_symmetry_cell_setting 'orthorhombic'
loop_
_space_group_symop_operation_xyz
x,y,z
-x,-y,z
1/2+x,1/2-y,-z
1/2-x,1/2+y,-z
-x,-y,-z
x,y,-z
1/2-x,1/2+y,z
1/2+x,1/2-y,z
loop_
_atom_site_type_symbol
_atom_site_label
_atom_site_fract_x
_atom_site_fract_y
_atom_site_fract_z
Si Si1 0.167477 0.023311 0.706216
Si Si2 0.315237 0.261277 0.623931
Si Si3 0.292629 0.109829 0.114305
Si Si4 0.537693 0.616749 0.279069
Si Si5 0.576346 0.114777 0.882477
Si Si6 0.899847 0.781235 0.119680
Si Si7 0.885861 0.548414 0.666281
Si Si8 0.439595 0.793625 0.617642
O O1 0.234786 0.065809 0.795005
O O2 0.072651 0.079370 0.661014
O O3 0.104941 0.954187 0.756375
O O4 0.268055 0.992340 0.631732
O O5 0.304779 0.254771 0.500000
O O6 0.369775 0.337420 0.654884
O O7 0.425743 0.212352 0.661880
O O8 0.178348 0.253848 0.661972
O O9 0.433776 0.108060 0.120191
O O10 0.233941 0.187496 0.122900
O O11 0.257518 0.082949 0.000000
O O12 0.482889 0.668956 0.191935
O O13 0.600648 0.197439 0.859849
O O14 0.624470 0.066823 0.789692
O O15 0.616712 0.097638 0.000000
O O16 0.941990 0.788576 0.000000
O O17 0.904901 0.624687 0.617049
O O18 0.000000 0.500000 0.649325
O O19 0.451875 0.766830 0.500000
#
# Coordination Sequence:
#
# PCOD9427532 Si02
#       8
#     8   8   8   8   8   8   8   8
#     4  10  21  36  54  84 117 155 197 239 292 353
#     4  10  21  42  69  94 122 156 198 250 304 360
#     4   9  18  35  55  77 113 156 200 251 297 350
#     4  10  20  38  60  83 118 154 197 246 290 355
#     4  10  21  36  55  82 115 154 199 245 299 358
#     4   9  19  35  55  82 113 150 197 250 301 349
#     4  12  23  38  59  87 121 158 199 244 302 359
#     4  10  23  43  67  95 123 155 200 251 304 364
#
# _framework density 23.385684000000001
#
# number of rings (size 3 to 8) (size 9 to 14) (size 15 to 20)
#    0.000    2.000    2.500    0.750    0.000    3.500 
#    6.750    5.625    0.000    0.000    0.000    0.000 
#    0.000    0.000    0.000    0.000    0.000    0.000 
#
# Total GULP energy -357246.619947 kJ/mol
# GULP energy per Si atom -5581.978437 kJ/mol
# Density = 2.333246 g / cm^3
# Si number density = 23.385684 Si / 1000 Ang^3
#
#
#
# Elastic Constant Matrix: (Units=GPa)
#
#
# Indices 1 2 3 4 5 6 
#
# 1 111.6303 21.5057 7.1401 0.0000 0.0000 0.0000
# 2 21.5057 67.0317 -15.0992 0.0000 0.0000 0.0000
# 3 7.1401 -15.0992 53.4760 0.0000 0.0000 0.0000
# 4 0.0000 0.0000 0.0000 8.5931 0.0000 0.0000
# 5 0.0000 0.0000 0.0000 0.0000 16.4987 0.0000
# 6 0.0000 0.0000 0.0000 0.0000 0.0000 44.1262
#
#
#
# Elastic Compliance Matrix: (Units=1/GPa)
#
#
# Indices 1 2 3 4 5 6 
#
# 1 0.009817 -0.003679 -0.002350 0.000000 0.000000 0.000000
# 2 -0.003679 0.017310 0.005379 0.000000 0.000000 0.000000
# 3 -0.002350 0.005379 0.020532 0.000000 0.000000 0.000000
# 4 0.000000 0.000000 0.000000 0.116372 0.000000 0.000000
# 5 0.000000 0.000000 0.000000 0.000000 0.060611 0.000000
# 6 0.000000 0.000000 0.000000 0.000000 0.000000 0.022662
#
#
# Mechanical properties :
#
#
# Convention : Reuss Voigt Hill
#
# Bulk Modulus (GPa) = 21.57006 28.80349 25.18677
# Shear Modulus (GPa) = 18.93524 28.41635 23.67580
#
# Velocity S-wave (km/s) = 2.84860 3.48963 3.18528
# Velocity P-wave (km/s) = 4.47917 5.34604 4.93169
#
# Compressibility (1/GPa) = 0.04636056
#
# Stress axis : x y z
#
# Youngs Moduli (GPa) = 101.86237 57.76942 48.70349
#
# Poissons Ratio (x) = 0.21253 0.11443
# Poissons Ratio (y) = 0.37474 -0.26197
# Poissons Ratio (z) = 0.23933 -0.31073
#
# Static dielectric constant tensor:
#      x y z
#    x 1.930180 0.000000 0.000000 
#    y 0.000000 1.872890 0.000000 
#    z 0.000000 0.000000 1.912690 
# 
# From -- ./inp_files/18582.got.cif
#   From: 2010.05.17/outbox.cif.g08.bks.cpg/sg55_10_cif.got.tgz:18582.got - 2010.06.03 13:27:54.
