data_PCOD9427684
_publ_section_title
;
Structure prediction by ZEFSAII (Michael W. Deem and Ramdas Pophale) SiO2 
 PCOD9427684
Probable space group: P B A M
;
_chemical_formula_sum "Si O2"
_cell_formula_units_Z 56
_cell_length_a 31.841661
_cell_length_b 5.825234
_cell_length_c 12.513083
_cell_angle_alpha 90.000000
_cell_angle_beta 90.000000
_cell_angle_gamma 90.000000
_cell_volume 2320.990780
_symmetry_space_group_name_H-M "P B A M"
_symmetry_group_IT_number 55
_symmetry_cell_setting 'orthorhombic'
loop_
_space_group_symop_operation_xyz
x,y,z
-x,-y,z
1/2+x,1/2-y,-z
1/2-x,1/2+y,-z
-x,-y,-z
x,y,-z
1/2-x,1/2+y,z
1/2+x,1/2-y,z
loop_
_atom_site_type_symbol
_atom_site_label
_atom_site_fract_x
_atom_site_fract_y
_atom_site_fract_z
Si Si1 0.147007 0.006802 0.186344
Si Si2 0.350974 0.167550 0.379466
Si Si3 0.591908 0.109105 0.244853
Si Si4 0.265389 0.896107 0.375500
Si Si5 0.559493 0.728051 0.880578
Si Si6 0.737153 0.390649 0.878774
Si Si7 0.993715 0.762567 0.317502
O O1 0.158153 0.857833 0.290637
O O2 0.103507 0.908121 0.136884
O O3 0.188918 0.027110 0.119481
O O4 0.133792 0.259657 0.218689
O O5 0.354061 0.256655 0.500000
O O6 0.395215 0.065293 0.338723
O O7 0.313666 0.980705 0.377197
O O8 0.554927 0.267095 0.285260
O O9 0.575143 0.987396 0.138917
O O10 0.250955 0.873926 0.500000
O O11 0.258560 0.631247 0.336470
O O12 0.524177 0.714020 0.787418
O O13 0.543554 0.686274 0.000000
O O14 0.739366 0.123738 0.836710
O O15 0.753670 0.363113 0.000000
O O16 0.000000 0.500000 0.358788
O O17 0.000000 0.000000 0.380220
#
# Coordination Sequence:
#
# PCOD9427684 Si02
#       7
#     8   8   8   8   8   8   8
#     4  11  23  41  64  94 128 172 220 279 326 390
#     4  10  24  42  63  91 127 174 224 279 341 399
#     4  10  23  40  62  94 131 171 214 264 332 399
#     4   9  19  36  58  87 120 154 202 266 329 385
#     4  10  22  39  64  99 133 168 211 266 332 399
#     4  10  24  44  66  94 133 181 226 267 320 392
#     4  10  20  40  63  93 132 173 206 260 326 396
#
# _framework density 24.127624999999998
#
# number of rings (size 3 to 8) (size 9 to 14) (size 15 to 20)
#    0.000    2.000    1.429    0.429    6.000    5.714 
#    0.000    0.000    0.000   11.143    0.000    0.000 
#    0.000    0.000    0.000    0.000    0.000    0.000 
#
# Total GULP energy -312128.389974 kJ/mol
# GULP energy per Si atom -5573.721250 kJ/mol
# Density = 2.407271 g / cm^3
# Si number density = 24.127625 Si / 1000 Ang^3
#
#
#
# Elastic Constant Matrix: (Units=GPa)
#
#
# Indices 1 2 3 4 5 6 
#
# 1 102.4072 12.3111 21.5993 0.0000 0.0000 0.0000
# 2 12.3111 140.6250 50.7596 0.0000 0.0000 0.0000
# 3 21.5993 50.7596 88.4727 0.0000 0.0000 0.0000
# 4 0.0000 0.0000 0.0000 -1.0716 0.0000 0.0000
# 5 0.0000 0.0000 0.0000 0.0000 -30.4360 0.0000
# 6 0.0000 0.0000 0.0000 0.0000 0.0000 56.1098
#
#
#
# Elastic Compliance Matrix: (Units=1/GPa)
#
#
# Indices 1 2 3 4 5 6 
#
# 1 0.010295 0.000007 -0.002518 0.000000 0.000000 0.000000
# 2 0.000007 0.008968 -0.005147 0.000000 0.000000 0.000000
# 3 -0.002518 -0.005147 0.014871 0.000000 0.000000 0.000000
# 4 0.000000 0.000000 0.000000 -0.933157 0.000000 0.000000
# 5 0.000000 0.000000 0.000000 0.000000 -0.032856 0.000000
# 6 0.000000 0.000000 0.000000 0.000000 0.000000 0.017822
#
#
# Mechanical properties :
#
#
# Convention : Reuss Voigt Hill
#
# Bulk Modulus (GPa) = 53.13711 55.64943 54.39327
# Shear Modulus (GPa) = -5.60244 21.37609 7.88682
#
# Velocity S-wave (km/s) = -1.52546 2.97974 1.80994
# Velocity P-wave (km/s) = 4.35528 5.91212 5.19238
#
# Compressibility (1/GPa) = 0.01881924
#
# Stress axis : x y z
#
# Youngs Moduli (GPa) = 97.13398 111.50254 67.24617
#
# Poissons Ratio (x) = -0.00084 0.16930
# Poissons Ratio (y) = -0.00073 0.34614
# Poissons Ratio (z) = 0.24455 0.57394
#
# Static dielectric constant tensor:
#      x y z
#    x 1.915840 0.000000 0.000000 
#    y 0.000000 2.007820 0.000000 
#    z 0.000000 0.000000 1.971890 
# 
# From -- ./inp_files/16779.got.cif
#   From: 2010.05.17/outbox.cif.g08.bks.cpg/sg55_9_cif.got.tgz:16779.got - 2010.06.03 13:27:54.
