data_PCOD9427072
_publ_section_title
;
Structure prediction by ZEFSAII (Michael W. Deem and Ramdas Pophale) SiO2 
 PCOD9427072
Probable space group: P B A M
;
_chemical_formula_sum "Si O2"
_cell_formula_units_Z 56
_cell_length_a 8.629042
_cell_length_b 20.789874
_cell_length_c 13.626710
_cell_angle_alpha 90.000000
_cell_angle_beta 90.000000
_cell_angle_gamma 90.000000
_cell_volume 2444.586750
_symmetry_space_group_name_H-M "P B A M"
_symmetry_group_IT_number 55
_symmetry_cell_setting 'orthorhombic'
loop_
_space_group_symop_operation_xyz
x,y,z
-x,-y,z
1/2+x,1/2-y,-z
1/2-x,1/2+y,-z
-x,-y,-z
x,y,-z
1/2-x,1/2+y,z
1/2+x,1/2-y,z
loop_
_atom_site_type_symbol
_atom_site_label
_atom_site_fract_x
_atom_site_fract_y
_atom_site_fract_z
Si Si1 0.161287 0.921626 0.752294
Si Si2 0.648686 0.156954 0.617687
Si Si3 0.659285 0.962355 0.233371
Si Si4 0.443821 0.305470 0.114938
Si Si5 0.810447 0.330837 0.114743
Si Si6 0.321001 0.217407 0.617724
Si Si7 0.634370 0.405108 0.383712
O O1 0.304764 0.903952 0.680808
O O2 0.135636 0.864037 0.828229
O O3 0.013809 0.924160 0.679942
O O4 0.206305 0.988532 0.802997
O O5 0.651927 0.145843 0.500000
O O6 0.484006 0.186901 0.646292
O O7 0.777553 0.210580 0.644748
O O8 0.655584 0.895799 0.173723
O O9 0.500000 0.000000 0.225089
O O10 0.718188 0.944410 0.343105
O O11 0.627859 0.315578 0.122429
O O12 0.396708 0.233981 0.149755
O O13 0.399395 0.308068 0.000000
O O14 0.849597 0.340649 0.000000
O O15 0.329355 0.219166 0.500000
O O16 0.180111 0.168878 0.639317
O O17 0.610044 0.412498 0.500000
#
# Coordination Sequence:
#
# PCOD9427072 Si02
#       7
#     8   8   8   8   8   8   8
#     4  12  25  41  68 102 137 190 237 290 352 417
#     4  10  20  35  59  94 136 182 234 292 352 414
#     4  12  28  46  67 106 149 188 239 283 356 432
#     4  10  24  46  75 108 139 178 234 293 355 420
#     4  10  24  49  78 109 143 181 229 290 358 426
#     4   9  19  36  58  90 129 175 234 295 355 406
#     4  11  24  44  67  95 137 187 243 297 346 413
#
# _framework density 22.907758000000001
#
# number of rings (size 3 to 8) (size 9 to 14) (size 15 to 20)
#    0.000    1.429    1.429    2.571    4.000    6.286 
#    0.000    1.429    0.000    0.000    0.000    0.000 
#    0.000    0.000    0.000    0.000    0.000    0.000 
#
# Total GULP energy -313393.124995 kJ/mol
# GULP energy per Si atom -5596.305803 kJ/mol
# Density = 2.285562 g / cm^3
# Si number density = 22.907758 Si / 1000 Ang^3
#
#
#
# Elastic Constant Matrix: (Units=GPa)
#
#
# Indices 1 2 3 4 5 6 
#
# 1 65.1396 33.2805 21.8732 0.0000 0.0000 0.0000
# 2 33.2805 158.3862 59.1918 0.0000 0.0000 0.0000
# 3 21.8732 59.1918 117.3492 0.0000 0.0000 0.0000
# 4 0.0000 0.0000 0.0000 26.5296 0.0000 0.0000
# 5 0.0000 0.0000 0.0000 0.0000 18.8608 0.0000
# 6 0.0000 0.0000 0.0000 0.0000 0.0000 39.4902
#
#
#
# Elastic Compliance Matrix: (Units=1/GPa)
#
#
# Indices 1 2 3 4 5 6 
#
# 1 0.017479 -0.003025 -0.001732 0.000000 0.000000 0.000000
# 2 -0.003025 0.008304 -0.003625 0.000000 0.000000 0.000000
# 3 -0.001732 -0.003625 0.010673 0.000000 0.000000 0.000000
# 4 0.000000 0.000000 0.000000 0.037694 0.000000 0.000000
# 5 0.000000 0.000000 0.000000 0.000000 0.053020 0.000000
# 6 0.000000 0.000000 0.000000 0.000000 0.000000 0.025323
#
#
# Mechanical properties :
#
#
# Convention : Reuss Voigt Hill
#
# Bulk Modulus (GPa) = 50.78313 63.28507 57.03410
# Shear Modulus (GPa) = 28.43814 32.07808 30.25811
#
# Velocity S-wave (km/s) = 3.52720 3.74614 3.63832
# Velocity P-wave (km/s) = 6.22935 6.81156 6.52695
#
# Compressibility (1/GPa) = 0.01969158
#
# Stress axis : x y z
#
# Youngs Moduli (GPa) = 57.21166 120.42376 93.69696
#
# Poissons Ratio (x) = 0.36434 0.16227
# Poissons Ratio (y) = 0.17309 0.33962
# Poissons Ratio (z) = 0.09908 0.43650
#
# Static dielectric constant tensor:
#      x y z
#    x 1.874940 0.000000 0.000000 
#    y 0.000000 1.878210 0.000000 
#    z 0.000000 0.000000 1.851370 
# 
# From -- ./inp_files/17607.got.cif
#   From: 2010.05.17/outbox.cif.g08.bks.cpg/sg55_9_cif.got.tgz:17607.got - 2010.06.03 13:27:54.
