data_PCOD9427126
_publ_section_title
;
Structure prediction by ZEFSAII (Michael W. Deem and Ramdas Pophale) SiO2 
 PCOD9427126
Probable space group: P B A M
;
_chemical_formula_sum "Si O2"
_cell_formula_units_Z 56
_cell_length_a 18.949729
_cell_length_b 14.704501
_cell_length_c 7.364817
_cell_angle_alpha 90.000000
_cell_angle_beta 90.000000
_cell_angle_gamma 90.000000
_cell_volume 2052.179074
_symmetry_space_group_name_H-M "P B A M"
_symmetry_group_IT_number 55
_symmetry_cell_setting 'orthorhombic'
loop_
_space_group_symop_operation_xyz
x,y,z
-x,-y,z
1/2+x,1/2-y,-z
1/2-x,1/2+y,-z
-x,-y,-z
x,y,-z
1/2-x,1/2+y,z
1/2+x,1/2-y,z
loop_
_atom_site_type_symbol
_atom_site_label
_atom_site_fract_x
_atom_site_fract_y
_atom_site_fract_z
Si Si1 0.073540 0.218251 0.778289
Si Si2 0.135067 0.604895 0.279311
Si Si3 0.981591 0.597970 0.789959
Si Si4 0.216291 0.767714 0.710480
Si Si5 0.793866 0.565913 0.290348
Si Si6 0.072462 0.875756 0.780811
Si Si7 0.845639 0.951271 0.781141
O O1 0.136594 0.151155 0.721178
O O2 0.068946 0.323026 0.714951
O O3 0.001369 0.166960 0.721441
O O4 0.074085 0.221410 0.000000
O O5 0.136060 0.606069 0.500000
O O6 0.060239 0.641404 0.215681
O O7 0.197532 0.669913 0.210889
O O8 0.147024 0.501447 0.215385
O O9 0.000000 0.500000 0.702227
O O10 0.964316 0.584199 0.000000
O O11 0.234947 0.755768 0.500000
O O12 0.271476 0.838459 0.795087
O O13 0.140668 0.819475 0.715796
O O14 0.810448 0.581347 0.500000
O O15 0.724226 0.501470 0.287211
O O16 0.090025 0.980289 0.732057
O O17 0.072531 0.871954 0.000000
O O18 0.841049 0.950734 0.000000
#
# Coordination Sequence:
#
# PCOD9427126 Si02
#       7
#     8   8   8   8   8   8   8
#     4   9  16  29  49  73 102 133 162 201 252 300
#     4  10  20  36  57  76  99 135 175 213 254 303
#     4  10  21  37  56  77 103 135 172 213 257 304
#     4   9  17  31  51  72  97 130 168 208 251 302
#     4   9  19  35  51  73 105 136 169 212 259 302
#     4   9  15  26  48  74  97 127 163 199 245 301
#     4   9  17  29  48  75 104 130 163 204 248 304
#
# _framework density 27.288067999999999
#
# number of rings (size 3 to 8) (size 9 to 14) (size 15 to 20)
#    0.000    2.714    1.429    0.429    0.000    2.571 
#    2.571    1.429    0.000    3.429    0.000    0.000 
#    0.000    0.000    0.000    0.000    0.000    0.000 
#
# Total GULP energy -313246.574886 kJ/mol
# GULP energy per Si atom -5593.688837 kJ/mol
# Density = 2.722596 g / cm^3
# Si number density = 27.288068 Si / 1000 Ang^3
#
#
#
# Elastic Constant Matrix: (Units=GPa)
#
#
# Indices 1 2 3 4 5 6 
#
# 1 106.0810 21.7539 18.7577 0.0000 0.0000 0.0000
# 2 21.7539 174.1164 32.6846 0.0000 0.0000 0.0000
# 3 18.7577 32.6846 123.0470 0.0000 0.0000 0.0000
# 4 0.0000 0.0000 0.0000 3.7366 0.0000 0.0000
# 5 0.0000 0.0000 0.0000 0.0000 19.6702 0.0000
# 6 0.0000 0.0000 0.0000 0.0000 0.0000 55.9165
#
#
#
# Elastic Compliance Matrix: (Units=1/GPa)
#
#
# Indices 1 2 3 4 5 6 
#
# 1 0.009850 -0.000999 -0.001236 0.000000 0.000000 0.000000
# 2 -0.000999 0.006146 -0.001480 0.000000 0.000000 0.000000
# 3 -0.001236 -0.001480 0.008709 0.000000 0.000000 0.000000
# 4 0.000000 0.000000 0.000000 0.267623 0.000000 0.000000
# 5 0.000000 0.000000 0.000000 0.000000 0.050838 0.000000
# 6 0.000000 0.000000 0.000000 0.000000 0.000000 0.017884
#
#
# Mechanical properties :
#
#
# Convention : Reuss Voigt Hill
#
# Bulk Modulus (GPa) = 57.88951 61.07076 59.48014
# Shear Modulus (GPa) = 13.36048 37.86787 25.61418
#
# Velocity S-wave (km/s) = 2.21511 3.72924 3.06708
# Velocity P-wave (km/s) = 5.27281 6.40090 5.86405
#
# Compressibility (1/GPa) = 0.01727429
#
# Stress axis : x y z
#
# Youngs Moduli (GPa) = 101.52127 162.70955 114.82832
#
# Poissons Ratio (x) = 0.16248 0.14197
# Poissons Ratio (y) = 0.10138 0.16998
# Poissons Ratio (z) = 0.12552 0.24086
#
# Static dielectric constant tensor:
#      x y z
#    x 2.150490 0.000000 0.000000 
#    y 0.000000 2.186600 0.000000 
#    z 0.000000 0.000000 1.977010 
# 
# From -- ./inp_files/8732.got.cif
#   From: 2010.05.17/outbox.cif.g08.bks.cpg/sg55_5_cif.got.tgz:8732.got - 2010.06.03 13:27:54.
