data_PCOD9427561
_publ_section_title
;
Structure prediction by ZEFSAII (Michael W. Deem and Ramdas Pophale) SiO2 
 PCOD9427561
Probable space group: P B A M
;
_chemical_formula_sum "Si O2"
_cell_formula_units_Z 48
_cell_length_a 12.241151
_cell_length_b 23.478825
_cell_length_c 8.954705
_cell_angle_alpha 90.000000
_cell_angle_beta 90.000000
_cell_angle_gamma 90.000000
_cell_volume 2573.652441
_symmetry_space_group_name_H-M "P B A M"
_symmetry_group_IT_number 55
_symmetry_cell_setting 'orthorhombic'
loop_
_space_group_symop_operation_xyz
x,y,z
-x,-y,z
1/2+x,1/2-y,-z
1/2-x,1/2+y,-z
-x,-y,-z
x,y,-z
1/2-x,1/2+y,z
1/2+x,1/2-y,z
loop_
_atom_site_type_symbol
_atom_site_label
_atom_site_fract_x
_atom_site_fract_y
_atom_site_fract_z
Si Si1 0.424839 0.344414 0.677642
Si Si2 0.817488 0.451044 0.679093
Si Si3 0.151375 0.729246 0.177215
Si Si4 0.781826 0.582720 0.321045
Si Si5 0.496618 0.877922 0.822625
Si Si6 0.839301 0.858225 0.178505
O O1 0.442993 0.344765 0.500000
O O2 0.371118 0.285081 0.728349
O O3 0.337947 0.393783 0.715360
O O4 0.539257 0.351922 0.760868
O O5 0.818885 0.446399 0.500000
O O6 0.798081 0.516688 0.719671
O O7 0.930422 0.426448 0.743960
O O8 0.722933 0.411042 0.745794
O O9 0.057733 0.681879 0.206030
O O10 0.265433 0.697598 0.211341
O O11 0.149188 0.742746 0.000000
O O12 0.796405 0.587865 0.500000
O O13 0.875117 0.619043 0.240160
O O14 0.497861 0.887098 0.000000
O O15 0.838000 0.865578 0.000000
#
# Coordination Sequence:
#
# PCOD9427561 Si02
#       6
#     8   8   8   8   8   8
#     4  11  24  39  58  86 117 153 196 240 287 344
#     4  10  20  38  62  85 117 156 194 240 293 345
#     4   9  21  40  59  82 114 151 190 239 293 344
#     4  10  23  39  56  86 122 155 194 242 292 344
#     4  10  21  37  60  89 118 153 195 242 295 347
#     4  10  22  41  62  85 116 152 194 239 291 349
#
# _framework density 18.650538000000001
#
# number of rings (size 3 to 8) (size 9 to 14) (size 15 to 20)
#    0.000    2.000    0.000    3.500    2.333    9.333 
#    0.000    3.333    0.000    0.000    0.000    0.000 
#    0.000    0.000    0.000    0.000    0.000    0.000 
#
# Total GULP energy -268211.267161 kJ/mol
# GULP energy per Si atom -5587.734733 kJ/mol
# Density = 1.860809 g / cm^3
# Si number density = 18.650538 Si / 1000 Ang^3
#
#
#
# Elastic Constant Matrix: (Units=GPa)
#
#
# Indices 1 2 3 4 5 6 
#
# 1 91.8474 -0.6069 19.4188 0.0000 0.0000 0.0000
# 2 -0.6069 22.0596 7.6378 0.0000 0.0000 0.0000
# 3 19.4188 7.6378 27.5505 0.0000 0.0000 0.0000
# 4 0.0000 0.0000 0.0000 44.1342 0.0000 0.0000
# 5 0.0000 0.0000 0.0000 0.0000 33.4503 0.0000
# 6 0.0000 0.0000 0.0000 0.0000 0.0000 8.5127
#
#
#
# Elastic Compliance Matrix: (Units=1/GPa)
#
#
# Indices 1 2 3 4 5 6 
#
# 1 0.013096 0.003934 -0.010321 0.000000 0.000000 0.000000
# 2 0.003934 0.051327 -0.017002 0.000000 0.000000 0.000000
# 3 -0.010321 -0.017002 0.048285 0.000000 0.000000 0.000000
# 4 0.000000 0.000000 0.000000 0.022658 0.000000 0.000000
# 5 0.000000 0.000000 0.000000 0.000000 0.029895 0.000000
# 6 0.000000 0.000000 0.000000 0.000000 0.000000 0.117471
#
#
# Mechanical properties :
#
#
# Convention : Reuss Voigt Hill
#
# Bulk Modulus (GPa) = 15.16778 21.59520 18.38149
# Shear Modulus (GPa) = 14.22528 24.88663 19.55595
#
# Velocity S-wave (km/s) = 2.76475 3.65686 3.24164
# Velocity P-wave (km/s) = 4.28276 5.42533 4.88755
#
# Compressibility (1/GPa) = 0.06592921
#
# Stress axis : x y z
#
# Youngs Moduli (GPa) = 76.36078 19.48301 20.71032
#
# Poissons Ratio (x) = -0.07664 0.21375
# Poissons Ratio (y) = -0.30039 0.35212
# Poissons Ratio (z) = 0.78812 0.33125
#
# Static dielectric constant tensor:
#      x y z
#    x 1.630740 0.000000 0.000000 
#    y 0.000000 1.626480 0.000000 
#    z 0.000000 0.000000 1.618170 
# 
# From -- ./inp_files/4043.got.cif
#   From: 2010.05.17/outbox.cif.g08.bks.cpg/sg55_3_cif.got.tgz:4043.got - 2010.06.03 13:27:54.
