data_PCOD9427942
_publ_section_title
;
Structure prediction by ZEFSAII (Michael W. Deem and Ramdas Pophale) SiO2 
 PCOD9427942
Probable space group: P B A M
;
_chemical_formula_sum "Si O2"
_cell_formula_units_Z 64
_cell_length_a 15.771636
_cell_length_b 24.723649
_cell_length_c 8.213352
_cell_angle_alpha 90.000000
_cell_angle_beta 90.000000
_cell_angle_gamma 90.000000
_cell_volume 3202.651997
_symmetry_space_group_name_H-M "P B A M"
_symmetry_group_IT_number 55
_symmetry_cell_setting 'orthorhombic'
loop_
_space_group_symop_operation_xyz
x,y,z
-x,-y,z
1/2+x,1/2-y,-z
1/2-x,1/2+y,-z
-x,-y,-z
x,y,-z
1/2-x,1/2+y,z
1/2+x,1/2-y,z
loop_
_atom_site_type_symbol
_atom_site_label
_atom_site_fract_x
_atom_site_fract_y
_atom_site_fract_z
Si Si1 0.245331 0.068797 0.699546
Si Si2 0.596036 0.742207 0.689321
Si Si3 0.147911 0.384023 0.809393
Si Si4 0.595737 0.512612 0.696946
Si Si5 0.348460 0.369809 0.812627
Si Si6 0.404737 0.999490 0.307874
Si Si7 0.261915 0.693251 0.695844
Si Si8 0.412469 0.770316 0.191257
O O1 0.245879 0.068416 0.500000
O O2 0.165878 0.031401 0.750629
O O3 0.236044 0.130990 0.752817
O O4 0.333418 0.041061 0.756259
O O5 0.584152 0.756337 0.500000
O O6 0.616720 0.679014 0.706158
O O7 0.677163 0.775685 0.754180
O O8 0.508703 0.753779 0.779315
O O9 0.247070 0.370655 0.801730
O O10 0.129592 0.439016 0.715648
O O11 0.101112 0.331032 0.742338
O O12 0.125283 0.392901 0.000000
O O13 0.500000 0.500000 0.749997
O O14 0.597138 0.512879 0.500000
O O15 0.620184 0.571712 0.758389
O O16 0.372684 0.359656 0.000000
O O17 0.412014 0.011795 0.500000
O O18 0.500000 0.000000 0.237370
O O19 0.257096 0.691977 0.500000
O O20 0.345219 0.727573 0.739126
O O21 0.394000 0.773684 0.000000
#
# Coordination Sequence:
#
# PCOD9427942 Si02
#       8
#     8   8   8   8   8   8   8   8
#     4   9  19  37  56  83 122 154 188 242 297 343
#     4  11  24  40  63  92 120 157 207 254 302 359
#     4  10  22  40  61  85 120 159 197 244 297 357
#     4  10  21  37  60  89 119 156 198 242 298 358
#     4  11  22  40  63  87 120 157 201 252 302 359
#     4  10  21  36  61  90 117 152 197 246 294 347
#     4  10  22  40  62  88 121 160 202 250 300 359
#     4  11  24  42  62  88 123 161 200 246 306 363
#
# _framework density 19.983439000000001
#
# number of rings (size 3 to 8) (size 9 to 14) (size 15 to 20)
#    0.000    1.750    2.500    1.125    3.500    2.500 
#    0.000    1.250    0.000    0.000    0.000    0.000 
#    0.000    0.000    0.000    0.000    0.000    0.000 
#
# Total GULP energy -357418.153449 kJ/mol
# GULP energy per Si atom -5584.658648 kJ/mol
# Density = 1.993796 g / cm^3
# Si number density = 19.983439 Si / 1000 Ang^3
#
#
#
# Elastic Constant Matrix: (Units=GPa)
#
#
# Indices 1 2 3 4 5 6 
#
# 1 96.0828 17.6796 8.0128 0.0000 0.0000 0.0000
# 2 17.6796 84.6567 -0.9578 0.0000 0.0000 0.0000
# 3 8.0128 -0.9578 6.6996 0.0000 0.0000 0.0000
# 4 0.0000 0.0000 0.0000 28.7216 0.0000 0.0000
# 5 0.0000 0.0000 0.0000 0.0000 -3.4774 0.0000
# 6 0.0000 0.0000 0.0000 0.0000 0.0000 28.5803
#
#
#
# Elastic Compliance Matrix: (Units=1/GPa)
#
#
# Indices 1 2 3 4 5 6 
#
# 1 0.012150 -0.002706 -0.014918 0.000000 0.000000 0.000000
# 2 -0.002706 0.012434 0.005014 0.000000 0.000000 0.000000
# 3 -0.014918 0.005014 0.167822 0.000000 0.000000 0.000000
# 4 0.000000 0.000000 0.000000 0.034817 0.000000 0.000000
# 5 0.000000 0.000000 0.000000 0.000000 -0.287568 0.000000
# 6 0.000000 0.000000 0.000000 0.000000 0.000000 0.034989
#
#
# Mechanical properties :
#
#
# Convention : Reuss Voigt Hill
#
# Bulk Modulus (GPa) = 5.98138 26.32315 16.15226
# Shear Modulus (GPa) = 89.93953 21.61187 55.77570
#
# Velocity S-wave (km/s) = 6.71601 3.29217 5.28881
# Velocity P-wave (km/s) = 7.94603 5.25854 6.73764
#
# Compressibility (1/GPa) = 0.16718564
#
# Stress axis : x y z
#
# Youngs Moduli (GPa) = 82.30641 80.42288 5.95870
#
# Poissons Ratio (x) = 0.21763 0.08889
# Poissons Ratio (y) = 0.22273 -0.02988
# Poissons Ratio (z) = 1.22786 -0.40325
#
# Static dielectric constant tensor:
#      x y z
#    x 1.696730 0.000000 0.000000 
#    y 0.000000 1.751070 0.000000 
#    z 0.000000 0.000000 1.702220 
# 
# From -- ./inp_files/6736.got.cif
#   From: 2010.05.17/outbox.cif.g08.bks.cpg/sg55_4_cif.got.tgz:6736.got - 2010.06.03 13:27:54.
