data_PCOD9427575
_publ_section_title
;
Structure prediction by ZEFSAII (Michael W. Deem and Ramdas Pophale) SiO2 
 PCOD9427575
Probable space group: P B A M
;
_chemical_formula_sum "Si O2"
_cell_formula_units_Z 56
_cell_length_a 14.986309
_cell_length_b 21.887310
_cell_length_c 8.582530
_cell_angle_alpha 90.000000
_cell_angle_beta 90.000000
_cell_angle_gamma 90.000000
_cell_volume 2815.155587
_symmetry_space_group_name_H-M "P B A M"
_symmetry_group_IT_number 55
_symmetry_cell_setting 'orthorhombic'
loop_
_space_group_symop_operation_xyz
x,y,z
-x,-y,z
1/2+x,1/2-y,-z
1/2-x,1/2+y,-z
-x,-y,-z
x,y,-z
1/2-x,1/2+y,z
1/2+x,1/2-y,z
loop_
_atom_site_type_symbol
_atom_site_label
_atom_site_fract_x
_atom_site_fract_y
_atom_site_fract_z
Si Si1 0.599954 0.880259 0.810489
Si Si2 0.423136 0.676332 0.186942
Si Si3 0.585459 0.460795 0.313599
Si Si4 0.773971 0.487762 0.188661
Si Si5 0.400300 0.900017 0.811677
Si Si6 0.890498 0.239290 0.811613
Si Si7 0.300867 0.781626 0.685129
O O1 0.679351 0.924494 0.760021
O O2 0.503407 0.906353 0.763874
O O3 0.606779 0.810130 0.759988
O O4 0.601887 0.879982 0.000000
O O5 0.416323 0.607124 0.243636
O O6 0.518638 0.705206 0.235502
O O7 0.344643 0.719152 0.251819
O O8 0.418097 0.677994 0.000000
O O9 0.500000 0.500000 0.261761
O O10 0.583694 0.456376 0.500000
O O11 0.676379 0.492707 0.259283
O O12 0.838747 0.543210 0.234240
O O13 0.767442 0.487341 0.000000
O O14 0.360539 0.837366 0.746952
O O15 0.399151 0.896557 0.000000
O O16 0.799758 0.211052 0.746765
O O17 0.886994 0.238173 0.000000
O O18 0.301089 0.780836 0.500000
#
# Coordination Sequence:
#
# PCOD9427575 Si02
#       7
#     8   8   8   8   8   8   8
#     4   9  17  36  63  94 124 153 197 254 311 360
#     4  11  23  43  69  94 121 160 214 265 310 367
#     4  11  26  45  63  88 128 170 208 257 321 382
#     4  10  21  37  65  95 121 162 212 262 308 365
#     4  10  20  38  62  92 126 161 209 259 310 366
#     4  10  21  38  64  92 122 161 207 261 310 364
#     4  12  25  39  60  92 131 169 206 253 319 383
#
# _framework density 19.892327999999999
#
# number of rings (size 3 to 8) (size 9 to 14) (size 15 to 20)
#    0.000    1.571    1.429    3.429    2.000    5.714 
#    0.000    0.714    0.000    1.714    0.000    0.000 
#    0.000    0.000    0.000    0.000    0.000    0.000 
#
# Total GULP energy -313106.894002 kJ/mol
# GULP energy per Si atom -5591.194536 kJ/mol
# Density = 1.984705 g / cm^3
# Si number density = 19.892328 Si / 1000 Ang^3
#
#
#
# Elastic Constant Matrix: (Units=GPa)
#
#
# Indices 1 2 3 4 5 6 
#
# 1 100.2826 -12.2183 11.5948 0.0000 0.0000 0.0000
# 2 -12.2183 36.0373 2.0269 0.0000 0.0000 0.0000
# 3 11.5948 2.0269 16.4452 0.0000 0.0000 0.0000
# 4 0.0000 0.0000 0.0000 16.6665 0.0000 0.0000
# 5 0.0000 0.0000 0.0000 0.0000 264.4066 0.0000
# 6 0.0000 0.0000 0.0000 0.0000 0.0000 28.9088
#
#
#
# Elastic Compliance Matrix: (Units=1/GPa)
#
#
# Indices 1 2 3 4 5 6 
#
# 1 0.011507 0.004388 -0.008654 0.000000 0.000000 0.000000
# 2 0.004388 0.029616 -0.006744 0.000000 0.000000 0.000000
# 3 -0.008654 -0.006744 0.067741 0.000000 0.000000 0.000000
# 4 0.000000 0.000000 0.000000 0.060000 0.000000 0.000000
# 5 0.000000 0.000000 0.000000 0.000000 0.003782 0.000000
# 6 0.000000 0.000000 0.000000 0.000000 0.000000 0.034592
#
#
# Mechanical properties :
#
#
# Convention : Reuss Voigt Hill
#
# Bulk Modulus (GPa) = 11.51487 17.28575 14.40031
# Shear Modulus (GPa) = 19.36439 72.08718 45.72578
#
# Velocity S-wave (km/s) = 3.12342 6.02639 4.79964
# Velocity P-wave (km/s) = 4.33691 7.55855 6.16200
#
# Compressibility (1/GPa) = 0.08684421
#
# Stress axis : x y z
#
# Youngs Moduli (GPa) = 86.90326 33.76540 14.76215
#
# Poissons Ratio (x) = -0.14817 0.12775
# Poissons Ratio (y) = -0.38135 0.09956
# Poissons Ratio (z) = 0.75206 0.22772
#
# Static dielectric constant tensor:
#      x y z
#    x 1.683540 0.000000 0.000000 
#    y 0.000000 1.678630 0.000000 
#    z 0.000000 0.000000 1.674650 
# 
# From -- ./inp_files/6113.got.cif
#   From: 2010.05.17/outbox.cif.g08.bks.cpg/sg55_4_cif.got.tgz:6113.got - 2010.06.03 13:27:54.
