data_PCOD9427506
_publ_section_title
;
Structure prediction by ZEFSAII (Michael W. Deem and Ramdas Pophale) SiO2 
 PCOD9427506
Probable space group: P B A M
;
_chemical_formula_sum "Si O2"
_cell_formula_units_Z 58
_cell_length_a 28.087003
_cell_length_b 11.381213
_cell_length_c 9.502814
_cell_angle_alpha 90.000000
_cell_angle_beta 90.000000
_cell_angle_gamma 90.000000
_cell_volume 3037.709090
_symmetry_space_group_name_H-M "P B A M"
_symmetry_group_IT_number 55
_symmetry_cell_setting 'orthorhombic'
loop_
_space_group_symop_operation_xyz
x,y,z
-x,-y,z
1/2+x,1/2-y,-z
1/2-x,1/2+y,-z
-x,-y,-z
x,y,-z
1/2-x,1/2+y,z
1/2+x,1/2-y,z
loop_
_atom_site_type_symbol
_atom_site_label
_atom_site_fract_x
_atom_site_fract_y
_atom_site_fract_z
Si Si1 0.184423 0.975036 0.830835
Si Si2 0.500000 0.000000 0.500000
Si Si3 0.841386 0.806254 0.655099
Si Si4 0.563415 0.161457 0.282358
Si Si5 0.607298 0.719505 0.829896
Si Si6 0.505232 0.635409 0.170300
Si Si7 0.219353 0.418483 0.665290
Si Si8 0.632048 0.980224 0.162309
O O1 0.149426 0.868175 0.792067
O O2 0.233831 0.951755 0.751470
O O3 0.160881 0.095154 0.774237
O O4 0.190398 0.978969 0.000000
O O5 0.529968 0.078624 0.379241
O O6 0.837519 0.861703 0.500000
O O7 0.889517 0.727920 0.655820
O O8 0.796741 0.718056 0.674888
O O9 0.532377 0.268738 0.222506
O O10 0.588834 0.072161 0.174147
O O11 0.556852 0.675196 0.777384
O O12 0.615355 0.852831 0.787916
O O13 0.605008 0.718325 0.000000
O O14 0.500000 0.500000 0.215118
O O15 0.503697 0.636397 0.000000
O O16 0.223980 0.447059 0.500000
O O17 0.175163 0.483447 0.737949
O O18 0.648052 0.974236 0.000000
#
# Coordination Sequence:
#
# PCOD9427506 Si02
#       8
#     8   2   8   8   8   8   8   8
#     4  11  23  39  65  93 126 169 216 269 330 392
#     4  12  24  40  64  92 128 184 214 278 328 404
#     4  10  22  42  63  87 128 169 210 268 320 389
#     4  11  22  39  67  92 130 171 224 267 334 391
#     4   9  20  37  56  89 129 162 202 265 321 374
#     4  10  20  37  63  95 130 166 213 271 330 392
#     4  10  23  41  63  92 127 167 208 262 327 394
#     4  10  21  39  65  96 129 164 219 276 327 391
#
# _framework density 19.093335
#
# number of rings (size 3 to 8) (size 9 to 14) (size 15 to 20)
#    0.000    1.793    0.690    2.897    2.897    4.414 
#    0.000    3.793    6.069    0.000    0.000    0.000 
#    0.000    0.000    0.000    0.000    0.000    0.000 
#
# Total GULP energy -322881.307900 kJ/mol
# GULP energy per Si atom -5566.919102 kJ/mol
# Density = 1.904988 g / cm^3
# Si number density = 19.093335 Si / 1000 Ang^3
#
#
#
# Elastic Constant Matrix: (Units=GPa)
#
#
# Indices 1 2 3 4 5 6 
#
# 1 125.7540 69.7022 44.7776 0.0000 0.0000 0.0000
# 2 69.7022 131.4581 52.4127 0.0000 0.0000 0.0000
# 3 44.7776 52.4127 85.2739 0.0000 0.0000 0.0000
# 4 0.0000 0.0000 0.0000 14.6883 0.0000 0.0000
# 5 0.0000 0.0000 0.0000 0.0000 3.6261 0.0000
# 6 0.0000 0.0000 0.0000 0.0000 0.0000 29.9939
#
#
#
# Elastic Compliance Matrix: (Units=1/GPa)
#
#
# Indices 1 2 3 4 5 6 
#
# 1 0.011860 -0.005041 -0.003130 0.000000 0.000000 0.000000
# 2 -0.005041 0.012219 -0.004863 0.000000 0.000000 0.000000
# 3 -0.003130 -0.004863 0.016359 0.000000 0.000000 0.000000
# 4 0.000000 0.000000 0.000000 0.068081 0.000000 0.000000
# 5 0.000000 0.000000 0.000000 0.000000 0.275781 0.000000
# 6 0.000000 0.000000 0.000000 0.000000 0.000000 0.033340
#
#
# Mechanical properties :
#
#
# Convention : Reuss Voigt Hill
#
# Bulk Modulus (GPa) = 69.58337 75.14122 72.36230
# Shear Modulus (GPa) = 11.14831 21.36790 16.25810
#
# Velocity S-wave (km/s) = 2.41899 3.34897 2.92122
# Velocity P-wave (km/s) = 6.65770 7.37524 7.02564
#
# Compressibility (1/GPa) = 0.01437125
#
# Stress axis : x y z
#
# Youngs Moduli (GPa) = 84.31383 81.84163 61.12714
#
# Poissons Ratio (x) = 0.41256 0.19131
# Poissons Ratio (y) = 0.42502 0.29727
# Poissons Ratio (z) = 0.26387 0.39800
#
# Static dielectric constant tensor:
#      x y z
#    x 1.659010 0.000000 0.000000 
#    y 0.000000 1.682680 0.000000 
#    z 0.000000 0.000000 1.658500 
# 
# From -- ./inp_files/10181.got.cif
#   From: 2010.05.17/outbox.cif.g08.bks.cpg/sg55_6_cif.got.tgz:10181.got - 2010.06.03 13:27:54.
