data_PCOD9427201
_publ_section_title
;
Structure prediction by ZEFSAII (Michael W. Deem and Ramdas Pophale) SiO2 
 PCOD9427201
Probable space group: P B A M
;
_chemical_formula_sum "Si O2"
_cell_formula_units_Z 58
_cell_length_a 9.337680
_cell_length_b 26.264501
_cell_length_c 12.464865
_cell_angle_alpha 90.000000
_cell_angle_beta 90.000000
_cell_angle_gamma 90.000000
_cell_volume 3057.001980
_symmetry_space_group_name_H-M "P B A M"
_symmetry_group_IT_number 55
_symmetry_cell_setting 'orthorhombic'
loop_
_space_group_symop_operation_xyz
x,y,z
-x,-y,z
1/2+x,1/2-y,-z
1/2-x,1/2+y,-z
-x,-y,-z
x,y,-z
1/2-x,1/2+y,z
1/2+x,1/2-y,z
loop_
_atom_site_type_symbol
_atom_site_label
_atom_site_fract_x
_atom_site_fract_y
_atom_site_fract_z
Si Si1 0.302975 0.834645 0.880076
Si Si2 0.342629 0.593088 0.221819
Si Si3 0.620043 0.833986 0.120184
Si Si4 0.500000 0.000000 0.500000
Si Si5 0.157360 0.499807 0.720119
Si Si6 0.802346 0.246946 0.285014
Si Si7 0.937234 0.816994 0.622296
Si Si8 0.366328 0.437368 0.124365
O O1 0.462034 0.857891 0.869388
O O2 0.281463 0.792310 0.790868
O O3 0.185815 0.878611 0.872779
O O4 0.294259 0.811943 0.000000
O O5 0.244890 0.625854 0.141440
O O6 0.234219 0.554772 0.281055
O O7 0.412042 0.634294 0.302123
O O8 0.468998 0.562788 0.162284
O O9 0.630442 0.788988 0.205919
O O10 0.633500 0.813353 0.000000
O O11 0.383839 0.985270 0.402434
O O12 0.264659 0.465611 0.790229
O O13 0.000000 0.500000 0.774987
O O14 0.695158 0.278290 0.360100
O O15 0.922414 0.214628 0.345165
O O16 0.945219 0.833560 0.500000
O O17 0.351150 0.454791 0.000000
#
# Coordination Sequence:
#
# PCOD9427201 Si02
#       8
#     8   8   8   2   8   8   8   8
#     4  10  20  36  58  88 124 162 202 245 305 380
#     4  11  23  40  64  95 130 161 210 261 323 381
#     4  10  21  36  60  89 124 168 206 247 309 383
#     4   8  24  48  68  88 124 160 230 262 304 376
#     4  10  23  45  69  92 126 171 212 263 321 381
#     4  11  20  40  57  84 122 160 208 256 310 370
#     4  11  24  39  61  85 120 162 212 261 313 368
#     4  11  23  40  66 101 135 164 205 263 326 391
#
# _framework density 18.972837999999999
#
# number of rings (size 3 to 8) (size 9 to 14) (size 15 to 20)
#    0.414    1.103    2.759    2.483    0.966    1.931 
#    1.241    0.690    3.034    0.000    0.000    0.000 
#    0.000    0.000    0.000    0.000    0.000    0.000 
#
# Total GULP energy -322936.903968 kJ/mol
# GULP energy per Si atom -5567.877655 kJ/mol
# Density = 1.892965 g / cm^3
# Si number density = 18.972838 Si / 1000 Ang^3
#
#
#
# Elastic Constant Matrix: (Units=GPa)
#
#
# Indices 1 2 3 4 5 6 
#
# 1 112.3767 15.2360 35.7286 0.0000 0.0000 0.0000
# 2 15.2360 44.2790 13.9986 0.0000 0.0000 0.0000
# 3 35.7286 13.9986 97.9011 0.0000 0.0000 0.0000
# 4 0.0000 0.0000 0.0000 6.2719 0.0000 0.0000
# 5 0.0000 0.0000 0.0000 0.0000 50.6219 0.0000
# 6 0.0000 0.0000 0.0000 0.0000 0.0000 29.4835
#
#
#
# Elastic Compliance Matrix: (Units=1/GPa)
#
#
# Indices 1 2 3 4 5 6 
#
# 1 0.010319 -0.002472 -0.003412 0.000000 0.000000 0.000000
# 2 -0.002472 0.024245 -0.002565 0.000000 0.000000 0.000000
# 3 -0.003412 -0.002565 0.011826 0.000000 0.000000 0.000000
# 4 0.000000 0.000000 0.000000 0.159440 0.000000 0.000000
# 5 0.000000 0.000000 0.000000 0.000000 0.019754 0.000000
# 6 0.000000 0.000000 0.000000 0.000000 0.000000 0.033917
#
#
# Mechanical properties :
#
#
# Convention : Reuss Voigt Hill
#
# Bulk Modulus (GPa) = 33.90650 42.72035 38.31343
# Shear Modulus (GPa) = 17.46841 29.91504 23.69173
#
# Velocity S-wave (km/s) = 3.03761 3.97511 3.53755
# Velocity P-wave (km/s) = 5.49660 6.60562 6.07646
#
# Compressibility (1/GPa) = 0.02949287
#
# Stress axis : x y z
#
# Youngs Moduli (GPa) = 96.91179 41.24497 84.55638
#
# Poissons Ratio (x) = 0.10195 0.28853
# Poissons Ratio (y) = 0.23954 0.21686
# Poissons Ratio (z) = 0.33069 0.10578
#
# Static dielectric constant tensor:
#      x y z
#    x 1.675870 0.000000 0.000000 
#    y 0.000000 1.650590 0.000000 
#    z 0.000000 0.000000 1.628350 
# 
# From -- ./inp_files/12484.got.cif
#   From: 2010.05.17/outbox.cif.g08.bks.cpg/sg55_7_cif.got.tgz:12484.got - 2010.06.03 13:27:54.
