data_PCOD9427559
_publ_section_title
;
Structure prediction by ZEFSAII (Michael W. Deem and Ramdas Pophale) SiO2 
 PCOD9427559
Probable space group: P B A M
;
_chemical_formula_sum "Si O2"
_cell_formula_units_Z 48
_cell_length_a 9.504565
_cell_length_b 31.519059
_cell_length_c 8.365641
_cell_angle_alpha 90.000000
_cell_angle_beta 90.000000
_cell_angle_gamma 90.000000
_cell_volume 2506.136443
_symmetry_space_group_name_H-M "P B A M"
_symmetry_group_IT_number 55
_symmetry_cell_setting 'orthorhombic'
loop_
_space_group_symop_operation_xyz
x,y,z
-x,-y,z
1/2+x,1/2-y,-z
1/2-x,1/2+y,-z
-x,-y,-z
x,y,-z
1/2-x,1/2+y,z
1/2+x,1/2-y,z
loop_
_atom_site_type_symbol
_atom_site_label
_atom_site_fract_x
_atom_site_fract_y
_atom_site_fract_z
Si Si1 0.919509 0.786102 0.814067
Si Si2 0.589831 0.133745 0.305958
Si Si3 0.104755 0.710453 0.311079
Si Si4 0.099527 0.461406 0.306428
Si Si5 0.584685 0.541218 0.190079
Si Si6 0.584042 0.634252 0.309582
O O1 0.755278 0.784565 0.771140
O O2 0.007775 0.751428 0.716032
O O3 0.983513 0.832029 0.773454
O O4 0.939155 0.776684 0.000000
O O5 0.591366 0.135936 0.500000
O O6 0.483719 0.169878 0.249548
O O7 0.546702 0.085792 0.262191
O O8 0.752642 0.140365 0.255972
O O9 0.130360 0.704943 0.500000
O O10 0.114233 0.462109 0.500000
O O11 0.252338 0.466069 0.230443
O O12 0.000000 0.500000 0.258835
O O13 0.500000 0.500000 0.246629
O O14 0.544238 0.585757 0.270868
O O15 0.565138 0.545581 0.000000
O O16 0.578694 0.640797 0.500000
#
# Coordination Sequence:
#
# PCOD9427559 Si02
#       6
#     8   8   8   8   8   8
#     4  12  25  40  58  86 120 150 186 237 294 343
#     4   8  17  34  57  83 109 140 186 240 282 323
#     4  11  22  39  61  84 113 153 197 235 279 342
#     4   9  18  34  56  82 111 146 192 239 280 330
#     4  10  21  36  54  81 117 152 187 232 287 341
#     4  10  20  38  62  85 110 147 194 238 284 342
#
# _framework density 19.152985999999999
#
# number of rings (size 3 to 8) (size 9 to 14) (size 15 to 20)
#    0.000    2.000    0.000    5.000    0.000    4.333 
#    0.000    9.167    0.000    0.000    0.000    0.000 
#    0.000    0.000    0.000    0.000    0.000    0.000 
#
# Total GULP energy -268073.923389 kJ/mol
# GULP energy per Si atom -5584.873404 kJ/mol
# Density = 1.910939 g / cm^3
# Si number density = 19.152986 Si / 1000 Ang^3
#
#
#
# Elastic Constant Matrix: (Units=GPa)
#
#
# Indices 1 2 3 4 5 6 
#
# 1 76.9857 54.9149 -8.9953 0.0000 0.0000 0.0000
# 2 54.9149 99.3134 -14.8582 0.0000 0.0000 0.0000
# 3 -8.9953 -14.8582 19.6964 0.0000 0.0000 0.0000
# 4 0.0000 0.0000 0.0000 19.9590 0.0000 0.0000
# 5 0.0000 0.0000 0.0000 0.0000 24.8195 0.0000
# 6 0.0000 0.0000 0.0000 0.0000 0.0000 41.3119
#
#
#
# Elastic Compliance Matrix: (Units=1/GPa)
#
#
# Indices 1 2 3 4 5 6 
#
# 1 0.021466 -0.011726 0.000958 0.000000 0.000000 0.000000
# 2 -0.011726 0.017756 0.008039 0.000000 0.000000 0.000000
# 3 0.000958 0.008039 0.057272 0.000000 0.000000 0.000000
# 4 0.000000 0.000000 0.000000 0.050103 0.000000 0.000000
# 5 0.000000 0.000000 0.000000 0.000000 0.040291 0.000000
# 6 0.000000 0.000000 0.000000 0.000000 0.000000 0.024206
#
#
# Mechanical properties :
#
#
# Convention : Reuss Voigt Hill
#
# Bulk Modulus (GPa) = 10.98480 28.67982 19.83231
# Shear Modulus (GPa) = 20.25130 28.21367 24.23248
#
# Velocity S-wave (km/s) = 3.25521 3.84222 3.56083
# Velocity P-wave (km/s) = 4.45828 5.88983 5.22333
#
# Compressibility (1/GPa) = 0.09103486
#
# Stress axis : x y z
#
# Youngs Moduli (GPa) = 46.58590 56.31978 17.46040
#
# Poissons Ratio (x) = 0.66041 -0.01672
# Poissons Ratio (y) = 0.54627 -0.14036
# Poissons Ratio (z) = -0.04461 -0.45275
#
# Static dielectric constant tensor:
#      x y z
#    x 1.629570 0.000000 0.000000 
#    y 0.000000 1.667340 0.000000 
#    z 0.000000 0.000000 1.655390 
# 
# From -- ./inp_files/2868.got.cif
#   From: 2010.05.17/outbox.cif.g08.bks.cpg/sg55_2_cif.got.tgz:2868.got - 2010.06.03 13:27:54.
