data_PCOD9427455
_publ_section_title
;
Structure prediction by ZEFSAII (Michael W. Deem and Ramdas Pophale) SiO2 
 PCOD9427455
Probable space group: P B A M
;
_chemical_formula_sum "Si O2"
_cell_formula_units_Z 58
_cell_length_a 28.397351
_cell_length_b 9.253538
_cell_length_c 10.769589
_cell_angle_alpha 90.000000
_cell_angle_beta 90.000000
_cell_angle_gamma 90.000000
_cell_volume 2829.989159
_symmetry_space_group_name_H-M "P B A M"
_symmetry_group_IT_number 55
_symmetry_cell_setting 'orthorhombic'
loop_
_space_group_symop_operation_xyz
x,y,z
-x,-y,z
1/2+x,1/2-y,-z
1/2-x,1/2+y,-z
-x,-y,-z
x,y,-z
1/2-x,1/2+y,z
1/2+x,1/2-y,z
loop_
_atom_site_type_symbol
_atom_site_label
_atom_site_fract_x
_atom_site_fract_y
_atom_site_fract_z
Si Si1 0.317574 0.023214 0.635367
Si Si2 0.388283 0.954014 0.858697
Si Si3 0.957632 0.346143 0.262349
Si Si4 0.253843 0.765611 0.282953
Si Si5 0.500000 0.000000 0.500000
Si Si6 0.592102 0.599169 0.855418
Si Si7 0.698327 0.492824 0.142591
Si Si8 0.546848 0.298064 0.143231
O O1 0.341397 0.026793 0.500000
O O2 0.283452 0.882533 0.639365
O O3 0.352126 0.004360 0.753121
O O4 0.286168 0.167857 0.651659
O O5 0.437318 0.038846 0.836301
O O6 0.404087 0.788385 0.840765
O O7 0.371234 0.975922 0.000000
O O8 0.919257 0.219699 0.245972
O O9 0.966727 0.426011 0.390583
O O10 0.006320 0.268824 0.226386
O O11 0.287844 0.645429 0.223722
O O12 0.229189 0.868527 0.181410
O O13 0.644516 0.539861 0.842778
O O14 0.556823 0.465817 0.837270
O O15 0.586824 0.650790 0.000000
O O16 0.707215 0.455724 0.000000
O O17 0.532764 0.277584 0.000000
#
# Coordination Sequence:
#
# PCOD9427455 Si02
#       8
#     8   8   8   8   2   8   8   8
#     4  11  24  41  64  88 126 170 213 264 317 381
#     4  11  23  39  65  97 127 162 213 263 320 379
#     4  12  23  42  63  87 126 164 212 257 310 371
#     4  10  22  39  61  90 125 173 219 253 321 387
#     4  12  28  44  64  88 124 176 220 256 300 384
#     4  10  21  37  63  95 128 161 207 264 328 379
#     4  10  20  37  61  96 134 167 209 273 322 375
#     4  10  20  38  64  93 124 160 201 257 322 378
#
# _framework density 20.494779000000001
#
# number of rings (size 3 to 8) (size 9 to 14) (size 15 to 20)
#    0.000    1.379    1.379    4.138    0.966    7.724 
#    0.000    1.379    6.069    0.000    0.000    0.000 
#    0.000    0.000    0.000    0.000    0.000    0.000 
#
# Total GULP energy -323299.309489 kJ/mol
# GULP energy per Si atom -5574.126026 kJ/mol
# Density = 2.044813 g / cm^3
# Si number density = 20.494779 Si / 1000 Ang^3
#
#
#
# Elastic Constant Matrix: (Units=GPa)
#
#
# Indices 1 2 3 4 5 6 
#
# 1 67.1356 11.6991 33.1242 0.0000 0.0000 0.0000
# 2 11.6991 81.6453 13.4444 0.0000 0.0000 0.0000
# 3 33.1242 13.4444 103.7360 0.0000 0.0000 0.0000
# 4 0.0000 0.0000 0.0000 -0.7858 0.0000 0.0000
# 5 0.0000 0.0000 0.0000 0.0000 26.5078 0.0000
# 6 0.0000 0.0000 0.0000 0.0000 0.0000 30.5505
#
#
#
# Elastic Compliance Matrix: (Units=1/GPa)
#
#
# Indices 1 2 3 4 5 6 
#
# 1 0.017898 -0.001659 -0.005500 0.000000 0.000000 0.000000
# 2 -0.001659 0.012669 -0.001112 0.000000 0.000000 0.000000
# 3 -0.005500 -0.001112 0.011540 0.000000 0.000000 0.000000
# 4 0.000000 0.000000 0.000000 -1.272580 0.000000 0.000000
# 5 0.000000 0.000000 0.000000 0.000000 0.037725 0.000000
# 6 0.000000 0.000000 0.000000 0.000000 0.000000 0.032733
#
#
# Mechanical properties :
#
#
# Convention : Reuss Voigt Hill
#
# Bulk Modulus (GPa) = 39.11630 41.00581 40.06106
# Shear Modulus (GPa) = -4.40548 24.20446 9.89949
#
# Velocity S-wave (km/s) = -1.46773 3.44031 2.20017
# Velocity P-wave (km/s) = 4.03176 5.98601 5.10330
#
# Compressibility (1/GPa) = 0.02556479
#
# Stress axis : x y z
#
# Youngs Moduli (GPa) = 55.87222 78.93311 86.65341
#
# Poissons Ratio (x) = 0.13095 0.47660
# Poissons Ratio (y) = 0.09269 0.09638
# Poissons Ratio (z) = 0.30730 0.08779
#
# Static dielectric constant tensor:
#      x y z
#    x 1.764800 0.000000 0.000000 
#    y 0.000000 1.759970 0.000000 
#    z 0.000000 0.000000 1.704110 
# 
# From -- ./inp_files/16017.got.cif
#   From: 2010.05.17/outbox.cif.g08.bks.cpg/sg55_9_cif.got.tgz:16017.got - 2010.06.03 13:27:54.
