data_PCOD9427063
_publ_section_title
;
Structure prediction by ZEFSAII (Michael W. Deem and Ramdas Pophale) SiO2 
 PCOD9427063
Probable space group: P B A M
;
_chemical_formula_sum "Si O2"
_cell_formula_units_Z 56
_cell_length_a 20.322530
_cell_length_b 15.616181
_cell_length_c 9.297070
_cell_angle_alpha 90.000000
_cell_angle_beta 90.000000
_cell_angle_gamma 90.000000
_cell_volume 2950.520988
_symmetry_space_group_name_H-M "P B A M"
_symmetry_group_IT_number 55
_symmetry_cell_setting 'orthorhombic'
loop_
_space_group_symop_operation_xyz
x,y,z
-x,-y,z
1/2+x,1/2-y,-z
1/2-x,1/2+y,-z
-x,-y,-z
x,y,-z
1/2-x,1/2+y,z
1/2+x,1/2-y,z
loop_
_atom_site_type_symbol
_atom_site_label
_atom_site_fract_x
_atom_site_fract_y
_atom_site_fract_z
Si Si1 0.821190 0.502163 0.825407
Si Si2 0.095556 0.839719 0.328142
Si Si3 0.462162 0.746026 0.670648
Si Si4 0.817349 0.303342 0.826880
Si Si5 0.334747 0.685252 0.834141
Si Si6 0.043713 0.415747 0.170507
Si Si7 0.325694 0.479723 0.167948
O O1 0.830445 0.402468 0.784410
O O2 0.882289 0.560194 0.781872
O O3 0.749464 0.534973 0.780343
O O4 0.819922 0.501360 0.000000
O O5 0.103621 0.838682 0.500000
O O6 0.137544 0.763167 0.256474
O O7 0.123261 0.926816 0.261147
O O8 0.018919 0.822709 0.294864
O O9 0.458312 0.754605 0.500000
O O10 0.391833 0.721357 0.735455
O O11 0.482445 0.835629 0.742110
O O12 0.739770 0.286842 0.799114
O O13 0.827437 0.296468 0.000000
O O14 0.335504 0.581849 0.826531
O O15 0.347517 0.710406 0.000000
O O16 0.000000 0.500000 0.190187
O O17 0.043960 0.395949 0.000000
O O18 0.330497 0.453403 0.000000
#
# Coordination Sequence:
#
# PCOD9427063 Si02
#       7
#     8   8   8   8   8   8   8
#     4   8  16  33  57  85 111 137 179 233 286 334
#     4  11  24  38  53  80 117 154 192 230 278 342
#     4  11  25  40  54  79 119 160 192 231 284 343
#     4   9  18  36  62  86 111 144 184 235 287 335
#     4   9  20  39  62  87 112 143 190 243 290 339
#     4  10  20  35  59  87 115 148 190 237 283 339
#     4   9  19  37  60  84 109 142 188 242 290 332
#
# _framework density 18.979697999999999
#
# number of rings (size 3 to 8) (size 9 to 14) (size 15 to 20)
#    0.000    2.429    0.000    3.429    2.000    5.429 
#    0.000    5.714    0.000    0.000    0.000    0.000 
#    0.000    0.000    0.000    0.000    0.000    0.000 
#
# Total GULP energy -312677.576017 kJ/mol
# GULP energy per Si atom -5583.528143 kJ/mol
# Density = 1.893650 g / cm^3
# Si number density = 18.979698 Si / 1000 Ang^3
#
#
#
# Elastic Constant Matrix: (Units=GPa)
#
#
# Indices 1 2 3 4 5 6 
#
# 1 57.2145 6.2943 30.5392 0.0000 0.0000 0.0000
# 2 6.2943 14.3624 8.0321 0.0000 0.0000 0.0000
# 3 30.5392 8.0321 38.1488 0.0000 0.0000 0.0000
# 4 0.0000 0.0000 0.0000 -136.5799 0.0000 0.0000
# 5 0.0000 0.0000 0.0000 0.0000 20.0743 0.0000
# 6 0.0000 0.0000 0.0000 0.0000 0.0000 29.7046
#
#
#
# Elastic Compliance Matrix: (Units=1/GPa)
#
#
# Indices 1 2 3 4 5 6 
#
# 1 0.030520 0.000327 -0.024501 0.000000 0.000000 0.000000
# 2 0.000327 0.078922 -0.016878 0.000000 0.000000 0.000000
# 3 -0.024501 -0.016878 0.049380 0.000000 0.000000 0.000000
# 4 0.000000 0.000000 0.000000 -0.007322 0.000000 0.000000
# 5 0.000000 0.000000 0.000000 0.000000 0.049815 0.000000
# 6 0.000000 0.000000 0.000000 0.000000 0.000000 0.033665
#
#
# Mechanical properties :
#
#
# Convention : Reuss Voigt Hill
#
# Bulk Modulus (GPa) = 13.03480 22.16187 17.59834
# Shear Modulus (GPa) = 14.59179 -13.03620 0.77780
#
# Velocity S-wave (km/s) = 2.77575 -2.62362 0.64085
# Velocity P-wave (km/s) = 4.14195 1.58874 3.13686
#
# Compressibility (1/GPa) = 0.07671771
#
# Stress axis : x y z
#
# Youngs Moduli (GPa) = 32.76555 12.67066 20.25094
#
# Poissons Ratio (x) = -0.00414 0.49616
# Poissons Ratio (y) = -0.01070 0.34180
# Poissons Ratio (z) = 0.80278 0.21386
#
# Static dielectric constant tensor:
#      x y z
#    x 1.669950 0.000000 0.000000 
#    y 0.000000 1.660030 0.000000 
#    z 0.000000 0.000000 1.624160 
# 
# From -- ./inp_files/8679.got.cif
#   From: 2010.05.17/outbox.cif.g08.bks.cpg/sg55_5_cif.got.tgz:8679.got - 2010.06.03 13:27:54.
