data_PCOD9427533
_publ_section_title
;
Structure prediction by ZEFSAII (Michael W. Deem and Ramdas Pophale) SiO2 
 PCOD9427533
Probable space group: P B A M
;
_chemical_formula_sum "Si O2"
_cell_formula_units_Z 64
_cell_length_a 17.880816
_cell_length_b 14.071904
_cell_length_c 13.887880
_cell_angle_alpha 90.000000
_cell_angle_beta 90.000000
_cell_angle_gamma 90.000000
_cell_volume 3494.428455
_symmetry_space_group_name_H-M "P B A M"
_symmetry_group_IT_number 55
_symmetry_cell_setting 'orthorhombic'
loop_
_space_group_symop_operation_xyz
x,y,z
-x,-y,z
1/2+x,1/2-y,-z
1/2-x,1/2+y,-z
-x,-y,-z
x,y,-z
1/2-x,1/2+y,z
1/2+x,1/2-y,z
loop_
_atom_site_type_symbol
_atom_site_label
_atom_site_fract_x
_atom_site_fract_y
_atom_site_fract_z
Si Si1 0.664018 0.529763 0.608243
Si Si2 0.346425 0.120212 0.253012
Si Si3 0.920301 0.053325 0.888977
Si Si4 0.673565 0.398457 0.786242
Si Si5 0.661366 0.063117 0.385815
Si Si6 0.519619 0.889921 0.892887
Si Si7 0.921623 0.720334 0.259221
Si Si8 0.577411 0.689387 0.294187
O O1 0.659021 0.494815 0.500000
O O2 0.653276 0.446153 0.683932
O O3 0.748241 0.570476 0.623055
O O4 0.603954 0.610482 0.631076
O O5 0.262264 0.113773 0.214950
O O6 0.402919 0.115339 0.163962
O O7 0.366834 0.221127 0.300408
O O8 0.359289 0.033701 0.328096
O O9 0.916532 0.138266 0.811110
O O10 0.857838 0.974171 0.863049
O O11 0.913873 0.084340 0.000000
O O12 0.000000 0.000000 0.876570
O O13 0.632775 0.297941 0.787421
O O14 0.643673 0.057731 0.500000
O O15 0.620560 0.150783 0.333328
O O16 0.458024 0.840236 0.826713
O O17 0.500000 0.000000 0.899735
O O18 0.523198 0.848336 0.000000
O O19 0.993068 0.773538 0.306147
#
# Coordination Sequence:
#
# PCOD9427533 Si02
#       8
#     8   8   8   8   8   8   8   8
#     4   9  20  38  58  82 117 157 196 240 293 345
#     4  10  21  39  60  85 117 154 197 240 288 346
#     4  10  20  38  60  84 114 153 193 234 288 348
#     4  10  21  37  61  86 118 151 196 243 290 339
#     4  10  21  38  59  84 117 157 196 240 293 348
#     4  10  21  39  60  81 113 153 190 231 287 346
#     4  11  21  36  59  89 119 150 193 242 293 346
#     4  10  21  35  58  86 114 154 190 241 294 347
#
# _framework density 18.314869000000002
#
# number of rings (size 3 to 8) (size 9 to 14) (size 15 to 20)
#    0.000    2.000    2.500    0.750    0.000    4.500 
#    0.000    7.500    0.000    0.000    0.000    0.000 
#    0.000    0.000    0.000    0.000    0.000    0.000 
#
# Total GULP energy -357087.379878 kJ/mol
# GULP energy per Si atom -5579.490311 kJ/mol
# Density = 1.827318 g / cm^3
# Si number density = 18.314869 Si / 1000 Ang^3
#
#
#
# Elastic Constant Matrix: (Units=GPa)
#
#
# Indices 1 2 3 4 5 6 
#
# 1 41.5145 30.2464 17.2621 0.0000 0.0000 0.0000
# 2 30.2464 82.6176 17.0310 0.0000 0.0000 0.0000
# 3 17.2621 17.0310 80.0836 0.0000 0.0000 0.0000
# 4 0.0000 0.0000 0.0000 12.9610 0.0000 0.0000
# 5 0.0000 0.0000 0.0000 0.0000 14.5435 0.0000
# 6 0.0000 0.0000 0.0000 0.0000 0.0000 31.9407
#
#
#
# Elastic Compliance Matrix: (Units=1/GPa)
#
#
# Indices 1 2 3 4 5 6 
#
# 1 0.034658 -0.011660 -0.004991 0.000000 0.000000 0.000000
# 2 -0.011660 0.016581 -0.001013 0.000000 0.000000 0.000000
# 3 -0.004991 -0.001013 0.013778 0.000000 0.000000 0.000000
# 4 0.000000 0.000000 0.000000 0.077155 0.000000 0.000000
# 5 0.000000 0.000000 0.000000 0.000000 0.068759 0.000000
# 6 0.000000 0.000000 0.000000 0.000000 0.000000 0.031308
#
#
# Mechanical properties :
#
#
# Convention : Reuss Voigt Hill
#
# Bulk Modulus (GPa) = 33.68081 37.03275 35.35678
# Shear Modulus (GPa) = 17.39350 21.20077 19.29713
#
# Velocity S-wave (km/s) = 3.08505 3.40600 3.24949
# Velocity P-wave (km/s) = 5.57852 5.97760 5.78150
#
# Compressibility (1/GPa) = 0.02969050
#
# Stress axis : x y z
#
# Youngs Moduli (GPa) = 28.85324 60.30866 72.57831
#
# Poissons Ratio (x) = 0.70317 0.36224
# Poissons Ratio (y) = 0.33642 0.07353
# Poissons Ratio (z) = 0.14401 0.06110
#
# Static dielectric constant tensor:
#      x y z
#    x 1.617680 0.000000 0.000000 
#    y 0.000000 1.655000 0.000000 
#    z 0.000000 0.000000 1.612830 
# 
# From -- ./inp_files/19490.got.cif
#   From: 2010.05.17/outbox.cif.g08.bks.cpg/sg55_10_cif.got.tgz:19490.got - 2010.06.03 13:27:54.
