data_PCOD9427833
_publ_section_title
;
Structure prediction by ZEFSAII (Michael W. Deem and Ramdas Pophale) SiO2 
 PCOD9427833
Probable space group: P B A M
;
_chemical_formula_sum "Si O2"
_cell_formula_units_Z 64
_cell_length_a 22.753510
_cell_length_b 9.446806
_cell_length_c 16.081839
_cell_angle_alpha 90.000000
_cell_angle_beta 90.000000
_cell_angle_gamma 90.000000
_cell_volume 3456.759046
_symmetry_space_group_name_H-M "P B A M"
_symmetry_group_IT_number 55
_symmetry_cell_setting 'orthorhombic'
loop_
_space_group_symop_operation_xyz
x,y,z
-x,-y,z
1/2+x,1/2-y,-z
1/2-x,1/2+y,-z
-x,-y,-z
x,y,-z
1/2-x,1/2+y,z
1/2+x,1/2-y,z
loop_
_atom_site_type_symbol
_atom_site_label
_atom_site_fract_x
_atom_site_fract_y
_atom_site_fract_z
Si Si1 0.835984 0.995343 0.591197
Si Si2 0.782102 0.506393 0.693192
Si Si3 0.183402 0.989238 0.901490
Si Si4 0.930008 0.799028 0.655719
Si Si5 0.061797 0.802303 0.646866
Si Si6 0.399131 0.994726 0.401652
Si Si7 0.247752 0.242363 0.806034
Si Si8 0.565550 0.512560 0.193975
O O1 0.809364 0.001345 0.500000
O O2 0.784469 0.008216 0.658109
O O3 0.874648 0.854724 0.603394
O O4 0.885894 0.114415 0.601535
O O5 0.830169 0.500119 0.621305
O O6 0.788807 0.650515 0.746632
O O7 0.786307 0.363980 0.748742
O O8 0.210184 0.132013 0.860497
O O9 0.215442 0.851943 0.861993
O O10 0.115988 0.980836 0.873251
O O11 0.190686 0.991741 0.000000
O O12 0.926396 0.631835 0.652056
O O13 0.994780 0.840042 0.622286
O O14 0.924380 0.878794 0.743893
O O15 0.072134 0.639987 0.627850
O O16 0.067490 0.853811 0.742602
O O17 0.408534 0.973176 0.500000
O O18 0.500000 0.500000 0.159547
#
# Coordination Sequence:
#
# PCOD9427833 Si02
#       8
#     8   8   8   8   8   8   8   8
#     4  11  21  34  53  75 101 137 183 230 266 293
#     4  11  21  37  55  75 105 142 181 212 255 313
#     4  11  21  36  58  87 112 129 162 210 263 314
#     4  10  21  36  53  73 101 140 182 218 258 309
#     4  10  21  36  53  73 101 140 182 218 258 309
#     4  12  23  33  49  77 110 139 176 227 271 299
#     4  10  21  36  57  78 106 142 172 206 253 316
#     4   9  19  38  59  77 102 139 178 210 250 313
#
# _framework density 18.514451000000001
#
# number of rings (size 3 to 8) (size 9 to 14) (size 15 to 20)
#    0.000    1.500    0.000    9.000    0.000    3.250 
#    0.000    3.750    0.000    0.000    0.000    0.000 
#    0.000   17.000    0.000    0.000    0.000    0.000 
#
# Total GULP energy -357253.842992 kJ/mol
# GULP energy per Si atom -5582.091297 kJ/mol
# Density = 1.847231 g / cm^3
# Si number density = 18.514451 Si / 1000 Ang^3
#
#
#
# Elastic Constant Matrix: (Units=GPa)
#
#
# Indices 1 2 3 4 5 6 
#
# 1 94.0795 7.8759 27.7691 0.0000 0.0000 0.0000
# 2 7.8759 85.2358 19.4967 0.0000 0.0000 0.0000
# 3 27.7691 19.4967 66.1295 0.0000 0.0000 0.0000
# 4 0.0000 0.0000 0.0000 -0.9928 0.0000 0.0000
# 5 0.0000 0.0000 0.0000 0.0000 10.7119 0.0000
# 6 0.0000 0.0000 0.0000 0.0000 0.0000 15.1049
#
#
#
# Elastic Compliance Matrix: (Units=1/GPa)
#
#
# Indices 1 2 3 4 5 6 
#
# 1 0.012133 0.000047 -0.005109 0.000000 0.000000 0.000000
# 2 0.000047 0.012581 -0.003729 0.000000 0.000000 0.000000
# 3 -0.005109 -0.003729 0.018367 0.000000 0.000000 0.000000
# 4 0.000000 0.000000 0.000000 -1.007277 0.000000 0.000000
# 5 0.000000 0.000000 0.000000 0.000000 0.093355 0.000000
# 6 0.000000 0.000000 0.000000 0.000000 0.000000 0.066204
#
#
# Mechanical properties :
#
#
# Convention : Reuss Voigt Hill
#
# Bulk Modulus (GPa) = 39.21644 39.52537 39.37090
# Shear Modulus (GPa) = -6.42214 17.65166 5.61476
#
# Velocity S-wave (km/s) = -1.86447 3.09107 1.74334
# Velocity P-wave (km/s) = 4.07339 5.84246 5.03621
#
# Compressibility (1/GPa) = 0.02549951
#
# Stress axis : x y z
#
# Youngs Moduli (GPa) = 82.41743 79.48648 54.44647
#
# Poissons Ratio (x) = -0.00378 0.27817
# Poissons Ratio (y) = -0.00391 0.20304
# Poissons Ratio (z) = 0.42107 0.29641
#
# Static dielectric constant tensor:
#      x y z
#    x 1.647870 0.000000 0.000000 
#    y 0.000000 1.661310 0.000000 
#    z 0.000000 0.000000 1.623560 
# 
# From -- ./inp_files/17840.got.cif
#   From: 2010.05.17/outbox.cif.g08.bks.cpg/sg55_9_cif.got.tgz:17840.got - 2010.06.03 13:27:54.
