data_PCOD9427052
_publ_section_title
;
Structure prediction by ZEFSAII (Michael W. Deem and Ramdas Pophale) SiO2 
 PCOD9427052
Probable space group: P B A M
;
_chemical_formula_sum "Si O2"
_cell_formula_units_Z 40
_cell_length_a 20.209406
_cell_length_b 5.141519
_cell_length_c 18.736522
_cell_angle_alpha 90.000000
_cell_angle_beta 90.000000
_cell_angle_gamma 90.000000
_cell_volume 1946.856633
_symmetry_space_group_name_H-M "P B A M"
_symmetry_group_IT_number 55
_symmetry_cell_setting 'orthorhombic'
loop_
_space_group_symop_operation_xyz
x,y,z
-x,-y,z
1/2+x,1/2-y,-z
1/2-x,1/2+y,-z
-x,-y,-z
x,y,-z
1/2-x,1/2+y,z
1/2+x,1/2-y,z
loop_
_atom_site_type_symbol
_atom_site_label
_atom_site_fract_x
_atom_site_fract_y
_atom_site_fract_z
Si Si1 0.208274 0.051867 0.378030
Si Si2 0.432128 0.338587 0.419539
Si Si3 0.855644 0.897412 0.769157
Si Si4 0.070687 0.605031 0.272910
Si Si5 0.705574 0.386377 0.921976
O O1 0.243079 0.318597 0.398936
O O2 0.198508 0.040026 0.291740
O O3 0.134696 0.008644 0.409162
O O4 0.500000 0.500000 0.407109
O O5 0.433988 0.236898 0.500000
O O6 0.427059 0.120628 0.358782
O O7 0.876631 0.601574 0.754948
O O8 0.835127 0.930963 0.850516
O O9 0.913482 0.104399 0.752498
O O10 0.000000 0.500000 0.249915
O O11 0.764366 0.597622 0.919611
O O12 0.672416 0.420795 0.000000
#
# Coordination Sequence:
#
# PCOD9427052 Si02
#       5
#     8   8   8   8   8
#     4  11  22  38  60  88 120 154 196 248 305 360
#     4  10  23  43  65  89 121 162 208 257 310 371
#     4  11  21  37  61  87 121 158 196 245 300 364
#     4  11  22  39  61  87 115 153 206 253 296 353
#     4  10  20  35  58  89 122 155 194 241 296 361
#
# _framework density 20.545940000000002
#
# number of rings (size 3 to 8) (size 9 to 14) (size 15 to 20)
#    0.000    1.400    0.000    7.800    0.000    1.200 
#    0.000   10.000    0.000    3.600    0.000    0.000 
#    0.000    0.000    0.000    0.000    0.000    0.000 
#
# Total GULP energy -223581.928051 kJ/mol
# GULP energy per Si atom -5589.548201 kJ/mol
# Density = 2.049918 g / cm^3
# Si number density = 20.545940 Si / 1000 Ang^3
#
#
#
# Elastic Constant Matrix: (Units=GPa)
#
#
# Indices 1 2 3 4 5 6 
#
# 1 71.6874 -7.2541 14.7144 0.0000 0.0000 0.0000
# 2 -7.2541 36.2834 -2.1369 0.0000 0.0000 0.0000
# 3 14.7144 -2.1369 146.5250 0.0000 0.0000 0.0000
# 4 0.0000 0.0000 0.0000 25.8125 0.0000 0.0000
# 5 0.0000 0.0000 0.0000 0.0000 17.0746 0.0000
# 6 0.0000 0.0000 0.0000 0.0000 0.0000 35.6869
#
#
#
# Elastic Compliance Matrix: (Units=1/GPa)
#
#
# Indices 1 2 3 4 5 6 
#
# 1 0.014526 0.002821 -0.001418 0.000000 0.000000 0.000000
# 2 0.002821 0.028132 0.000127 0.000000 0.000000 0.000000
# 3 -0.001418 0.000127 0.006969 0.000000 0.000000 0.000000
# 4 0.000000 0.000000 0.000000 0.038741 0.000000 0.000000
# 5 0.000000 0.000000 0.000000 0.000000 0.058567 0.000000
# 6 0.000000 0.000000 0.000000 0.000000 0.000000 0.028021
#
#
# Mechanical properties :
#
#
# Convention : Reuss Voigt Hill
#
# Bulk Modulus (GPa) = 18.97996 29.46030 24.22013
# Shear Modulus (GPa) = 26.39104 32.32629 29.35866
#
# Velocity S-wave (km/s) = 3.58787 3.97087 3.78422
# Velocity P-wave (km/s) = 5.14019 5.94925 5.55946
#
# Compressibility (1/GPa) = 0.05268716
#
# Stress axis : x y z
#
# Youngs Moduli (GPa) = 68.84281 35.54645 143.49293
#
# Poissons Ratio (x) = -0.10026 0.20341
# Poissons Ratio (y) = -0.19418 -0.01823
# Poissons Ratio (z) = 0.09759 -0.00452
#
# Static dielectric constant tensor:
#      x y z
#    x 1.746540 0.000000 0.000000 
#    y 0.000000 1.722820 0.000000 
#    z 0.000000 0.000000 1.747430 
# 
# From -- ./inp_files/20338.got.cif
#   From: 2010.05.17/outbox.cif.g08.bks.cpg/sg55_11_cif.got.tgz:20338.got - 2010.06.03 13:27:54.
