data_PCOD9427721
_publ_section_title
;
Structure prediction by ZEFSAII (Michael W. Deem and Ramdas Pophale) SiO2 
 PCOD9427721
Probable space group: P B A M
;
_chemical_formula_sum "Si O2"
_cell_formula_units_Z 42
_cell_length_a 7.616912
_cell_length_b 22.751202
_cell_length_c 12.791986
_cell_angle_alpha 90.000000
_cell_angle_beta 90.000000
_cell_angle_gamma 90.000000
_cell_volume 2216.773188
_symmetry_space_group_name_H-M "P B A M"
_symmetry_group_IT_number 55
_symmetry_cell_setting 'orthorhombic'
loop_
_space_group_symop_operation_xyz
x,y,z
-x,-y,z
1/2+x,1/2-y,-z
1/2-x,1/2+y,-z
-x,-y,-z
x,y,-z
1/2-x,1/2+y,z
1/2+x,1/2-y,z
loop_
_atom_site_type_symbol
_atom_site_label
_atom_site_fract_x
_atom_site_fract_y
_atom_site_fract_z
Si Si1 0.979895 0.292134 0.619132
Si Si2 0.500000 0.000000 0.000000
Si Si3 0.740230 0.036027 0.824247
Si Si4 0.105754 0.173127 0.300277
Si Si5 0.387248 0.587690 0.879010
Si Si6 0.230415 0.894115 0.618800
O O1 0.977821 0.268526 0.500000
O O2 0.792404 0.320991 0.642757
O O3 0.019162 0.237527 0.694518
O O4 0.135230 0.339443 0.626429
O O5 0.413828 0.958540 0.092712
O O6 0.714419 0.060067 0.708164
O O7 0.908446 0.070143 0.871240
O O8 0.790593 0.967123 0.824591
O O9 0.138660 0.146868 0.185399
O O10 0.965056 0.129621 0.354700
O O11 0.330307 0.588120 0.000000
O O12 0.236235 0.916580 0.500000
#
# Coordination Sequence:
#
# PCOD9427721 Si02
#       6
#     8   2   8   8   8   8
#     4  11  21  37  59  85 116 157 201 239 293 364
#     4  12  20  34  66  88 112 154 204 238 284 350
#     4  10  21  37  63  89 116 156 203 242 295 360
#     4  11  22  36  63  86 115 158 202 243 297 361
#     4  10  20  42  60  83 116 156 198 248 300 353
#     4  10  22  39  59  89 127 157 194 250 302 353
#
# _framework density 18.946459000000001
#
# number of rings (size 3 to 8) (size 9 to 14) (size 15 to 20)
#    0.000    1.524    3.810    2.286    2.667    0.000 
#    0.000   10.952    2.095    0.000    0.000    0.000 
#    0.000    0.000    0.000    0.000    0.000    0.000 
#
# Total GULP energy -233866.029317 kJ/mol
# GULP energy per Si atom -5568.238793 kJ/mol
# Density = 1.890334 g / cm^3
# Si number density = 18.946459 Si / 1000 Ang^3
#
#
#
# Elastic Constant Matrix: (Units=GPa)
#
#
# Indices 1 2 3 4 5 6 
#
# 1 34.6768 12.6231 10.1374 0.0000 0.0000 0.0000
# 2 12.6231 80.8090 84.4099 0.0000 0.0000 0.0000
# 3 10.1374 84.4099 156.1871 0.0000 0.0000 0.0000
# 4 0.0000 0.0000 0.0000 7.4273 0.0000 0.0000
# 5 0.0000 0.0000 0.0000 0.0000 17.3523 0.0000
# 6 0.0000 0.0000 0.0000 0.0000 0.0000 13.6804
#
#
#
# Elastic Compliance Matrix: (Units=1/GPa)
#
#
# Indices 1 2 3 4 5 6 
#
# 1 0.030705 -0.006234 0.001376 0.000000 0.000000 0.000000
# 2 -0.006234 0.029682 -0.015637 0.000000 0.000000 0.000000
# 3 0.001376 -0.015637 0.014764 0.000000 0.000000 0.000000
# 4 0.000000 0.000000 0.000000 0.134638 0.000000 0.000000
# 5 0.000000 0.000000 0.000000 0.000000 0.057629 0.000000
# 6 0.000000 0.000000 0.000000 0.000000 0.000000 0.073097
#
#
# Mechanical properties :
#
#
# Convention : Reuss Voigt Hill
#
# Bulk Modulus (GPa) = 29.27240 54.00151 41.63696
# Shear Modulus (GPa) = 12.72612 18.65883 15.69248
#
# Velocity S-wave (km/s) = 2.59451 3.14159 2.88106
# Velocity P-wave (km/s) = 4.94559 6.45937 5.75249
#
# Compressibility (1/GPa) = 0.03416187
#
# Stress axis : x y z
#
# Youngs Moduli (GPa) = 32.56837 33.68996 67.73170
#
# Poissons Ratio (x) = 0.21001 -0.09320
# Poissons Ratio (y) = 0.20302 1.05912
# Poissons Ratio (z) = -0.04482 0.52681
#
# Static dielectric constant tensor:
#      x y z
#    x 1.733090 0.000000 0.000000 
#    y 0.000000 1.640990 0.000000 
#    z 0.000000 0.000000 1.651920 
# 
# From -- ./inp_files/12171.got.cif
#   From: 2010.05.17/outbox.cif.g08.bks.cpg/sg55_7_cif.got.tgz:12171.got - 2010.06.03 13:27:54.
