data_PCOD9427614
_publ_section_title
;
Structure prediction by ZEFSAII (Michael W. Deem and Ramdas Pophale) SiO2 
 PCOD9427614
Probable space group: P B A M
;
_chemical_formula_sum "Si O2"
_cell_formula_units_Z 56
_cell_length_a 8.898433
_cell_length_b 18.622695
_cell_length_c 16.354044
_cell_angle_alpha 90.000000
_cell_angle_beta 90.000000
_cell_angle_gamma 90.000000
_cell_volume 2710.074484
_symmetry_space_group_name_H-M "P B A M"
_symmetry_group_IT_number 55
_symmetry_cell_setting 'orthorhombic'
loop_
_space_group_symop_operation_xyz
x,y,z
-x,-y,z
1/2+x,1/2-y,-z
1/2-x,1/2+y,-z
-x,-y,-z
x,y,-z
1/2-x,1/2+y,z
1/2+x,1/2-y,z
loop_
_atom_site_type_symbol
_atom_site_label
_atom_site_fract_x
_atom_site_fract_y
_atom_site_fract_z
Si Si1 0.299503 0.327191 0.235192
Si Si2 0.384027 0.159648 0.911695
Si Si3 0.416183 0.715127 0.857044
Si Si4 0.577840 0.876890 0.594994
Si Si5 0.547556 0.079632 0.764866
Si Si6 0.407904 0.568903 0.405195
Si Si7 0.373940 0.293420 0.410725
O O1 0.196486 0.268844 0.189824
O O2 0.471103 0.323093 0.206360
O O3 0.282196 0.307332 0.329675
O O4 0.220472 0.402273 0.216748
O O5 0.470557 0.236541 0.910439
O O6 0.204071 0.166971 0.904298
O O7 0.445915 0.125007 0.828110
O O8 0.421308 0.125306 0.000000
O O9 0.546333 0.898867 0.500000
O O10 0.475235 0.902956 0.669081
O O11 0.740921 0.909020 0.622084
O O12 0.577099 0.789775 0.594157
O O13 0.500000 0.000000 0.779527
O O14 0.500000 0.500000 0.369004
O O15 0.384206 0.548765 0.500000
O O16 0.501229 0.643577 0.405452
O O17 0.298498 0.301814 0.500000
#
# Coordination Sequence:
#
# PCOD9427614 Si02
#       7
#     8   8   8   8   8   8   8
#     4  10  21  37  58  86 123 157 196 255 308 369
#     4  10  20  38  66  94 123 154 195 253 314 380
#     4   9  19  37  63  94 120 149 192 248 318 379
#     4  10  22  39  60  86 122 164 215 267 310 369
#     4  11  26  42  57  87 125 171 217 255 314 371
#     4   9  20  37  56  84 117 159 209 262 322 379
#     4  10  21  34  57  86 117 158 208 258 316 372
#
# _framework density 20.663639
#
# number of rings (size 3 to 8) (size 9 to 14) (size 15 to 20)
#    0.000    2.143    0.000    3.000    8.000    1.143 
#    0.000    1.429    0.000    0.857    0.000    0.000 
#    0.000    0.000    0.000    0.000    0.000    0.000 
#
# Total GULP energy -311841.665457 kJ/mol
# GULP energy per Si atom -5568.601169 kJ/mol
# Density = 2.061661 g / cm^3
# Si number density = 20.663639 Si / 1000 Ang^3
#
#
#
# Elastic Constant Matrix: (Units=GPa)
#
#
# Indices 1 2 3 4 5 6 
#
# 1 74.9425 -7.0654 17.8499 0.0000 0.0000 0.0000
# 2 -7.0654 32.0360 2.1133 0.0000 0.0000 0.0000
# 3 17.8499 2.1133 91.7363 0.0000 0.0000 0.0000
# 4 0.0000 0.0000 0.0000 -9.1143 0.0000 0.0000
# 5 0.0000 0.0000 0.0000 0.0000 -36.3785 0.0000
# 6 0.0000 0.0000 0.0000 0.0000 0.0000 13.3901
#
#
#
# Elastic Compliance Matrix: (Units=1/GPa)
#
#
# Indices 1 2 3 4 5 6 
#
# 1 0.014343 0.003352 -0.002868 0.000000 0.000000 0.000000
# 2 0.003352 0.032046 -0.001391 0.000000 0.000000 0.000000
# 3 -0.002868 -0.001391 0.011491 0.000000 0.000000 0.000000
# 4 0.000000 0.000000 0.000000 -0.109718 0.000000 0.000000
# 5 0.000000 0.000000 0.000000 0.000000 -0.027489 0.000000
# 6 0.000000 0.000000 0.000000 0.000000 0.000000 0.074682
#
#
# Mechanical properties :
#
#
# Convention : Reuss Voigt Hill
#
# Bulk Modulus (GPa) = 17.83568 24.94559 21.39063
# Shear Modulus (GPa) = 315.33679 5.96726 160.65202
#
# Velocity S-wave (km/s) = 12.36673 1.70120 8.82695
# Velocity P-wave (km/s) = 14.57960 3.99465 10.68929
#
# Compressibility (1/GPa) = 0.05606739
#
# Stress axis : x y z
#
# Youngs Moduli (GPa) = 69.72174 31.20512 87.02537
#
# Poissons Ratio (x) = -0.10461 0.24959
# Poissons Ratio (y) = -0.23374 0.12101
# Poissons Ratio (z) = 0.19996 0.04339
#
# Static dielectric constant tensor:
#      x y z
#    x 1.770510 0.000000 0.000000 
#    y 0.000000 1.783160 0.000000 
#    z 0.000000 0.000000 1.775960 
# 
# From -- ./inp_files/21046.got.cif
#   From: 2010.05.17/outbox.cif.g08.bks.cpg/sg55_11_cif.got.tgz:21046.got - 2010.06.03 13:27:54.
