data_PCOD9427553
_publ_section_title
;
Structure prediction by ZEFSAII (Michael W. Deem and Ramdas Pophale) SiO2 
 PCOD9427553
Probable space group: P B A M
;
_chemical_formula_sum "Si O2"
_cell_formula_units_Z 64
_cell_length_a 29.993175
_cell_length_b 9.293561
_cell_length_c 11.763053
_cell_angle_alpha 90.000000
_cell_angle_beta 90.000000
_cell_angle_gamma 90.000000
_cell_volume 3278.873405
_symmetry_space_group_name_H-M "P B A M"
_symmetry_group_IT_number 55
_symmetry_cell_setting 'orthorhombic'
loop_
_space_group_symop_operation_xyz
x,y,z
-x,-y,z
1/2+x,1/2-y,-z
1/2-x,1/2+y,-z
-x,-y,-z
x,y,-z
1/2-x,1/2+y,z
1/2+x,1/2-y,z
loop_
_atom_site_type_symbol
_atom_site_label
_atom_site_fract_x
_atom_site_fract_y
_atom_site_fract_z
Si Si1 0.389428 0.019821 0.367510
Si Si2 0.753997 0.917077 0.258245
Si Si3 0.694076 0.155637 0.633052
Si Si4 0.801374 0.175832 0.130506
Si Si5 0.010927 0.668973 0.875852
Si Si6 0.967769 0.691043 0.370567
Si Si7 0.600372 0.713999 0.793168
Si Si8 0.445813 0.502165 0.625556
O O1 0.379761 0.044796 0.500000
O O2 0.386917 0.165622 0.299148
O O3 0.353271 0.904723 0.323557
O O4 0.438795 0.952666 0.359626
O O5 0.788197 0.801466 0.310531
O O6 0.718061 0.814536 0.196500
O O7 0.728449 0.023586 0.344998
O O8 0.779325 0.029913 0.177698
O O9 0.690232 0.183473 0.500000
O O10 0.854515 0.169229 0.145497
O O11 0.789260 0.192849 0.000000
O O12 0.062706 0.712198 0.870552
O O13 0.000000 0.500000 0.879479
O O14 0.993936 0.711599 0.748369
O O15 0.993502 0.726974 0.000000
O O16 0.988996 0.689805 0.500000
O O17 0.935212 0.828854 0.373648
O O18 0.577770 0.583087 0.724931
O O19 0.500000 0.500000 0.634370
O O20 0.434420 0.443029 0.500000
#
# Coordination Sequence:
#
# PCOD9427553 Si02
#       8
#     8   8   8   8   8   8   8   8
#     4  10  21  36  59  90 122 156 201 252 300 369
#     4  10  22  41  66  88 120 161 201 249 315 379
#     4  10  20  38  61  94 127 154 192 246 316 387
#     4  11  24  43  65  89 120 161 213 262 309 369
#     4  11  23  39  60  88 125 163 206 257 315 369
#     4  10  21  39  62  87 120 164 211 253 301 362
#     4  12  22  39  61  91 125 161 208 256 313 369
#     4  10  21  37  60  90 125 161 203 258 308 364
#
# _framework density 19.518898
#
# number of rings (size 3 to 8) (size 9 to 14) (size 15 to 20)
#    0.000    1.500    3.750    1.500    1.750    0.750 
#    0.000    3.125    0.000    0.000    0.000    0.000 
#    0.000    0.000    0.000    0.000    0.000    0.000 
#
# Total GULP energy -356740.027275 kJ/mol
# GULP energy per Si atom -5574.062926 kJ/mol
# Density = 1.947447 g / cm^3
# Si number density = 19.518898 Si / 1000 Ang^3
#
#
#
# Elastic Constant Matrix: (Units=GPa)
#
#
# Indices 1 2 3 4 5 6 
#
# 1 56.9296 7.3914 22.4600 0.0000 0.0000 0.0000
# 2 7.3914 82.3247 16.1014 0.0000 0.0000 0.0000
# 3 22.4600 16.1014 90.0664 0.0000 0.0000 0.0000
# 4 0.0000 0.0000 0.0000 -45.4674 0.0000 0.0000
# 5 0.0000 0.0000 0.0000 0.0000 37.2776 0.0000
# 6 0.0000 0.0000 0.0000 0.0000 0.0000 30.4661
#
#
#
# Elastic Compliance Matrix: (Units=1/GPa)
#
#
# Indices 1 2 3 4 5 6 
#
# 1 0.019537 -0.000830 -0.004724 0.000000 0.000000 0.000000
# 2 -0.000830 0.012622 -0.002050 0.000000 0.000000 0.000000
# 3 -0.004724 -0.002050 0.012647 0.000000 0.000000 0.000000
# 4 0.000000 0.000000 0.000000 -0.021994 0.000000 0.000000
# 5 0.000000 0.000000 0.000000 0.000000 0.026826 0.000000
# 6 0.000000 0.000000 0.000000 0.000000 0.000000 0.032823
#
#
# Mechanical properties :
#
#
# Convention : Reuss Voigt Hill
#
# Bulk Modulus (GPa) = 33.78380 35.69181 34.73781
# Shear Modulus (GPa) = 46.49646 16.67979 31.58813
#
# Velocity S-wave (km/s) = 4.88600 2.92643 4.02722
# Velocity P-wave (km/s) = 7.01259 5.45382 6.28174
#
# Compressibility (1/GPa) = 0.02959999
#
# Stress axis : x y z
#
# Youngs Moduli (GPa) = 51.18525 79.22412 79.06868
#
# Poissons Ratio (x) = 0.06578 0.37348
# Poissons Ratio (y) = 0.04250 0.16205
# Poissons Ratio (z) = 0.24178 0.16237
#
# Static dielectric constant tensor:
#      x y z
#    x 1.711830 0.000000 0.000000 
#    y 0.000000 1.689540 0.000000 
#    z 0.000000 0.000000 1.697490 
# 
# From -- ./inp_files/16230.got.cif
#   From: 2010.05.17/outbox.cif.g08.bks.cpg/sg55_9_cif.got.tgz:16230.got - 2010.06.03 13:27:54.
