data_PCOD9427112
_publ_section_title
;
Structure prediction by ZEFSAII (Michael W. Deem and Ramdas Pophale) SiO2 
 PCOD9427112
Probable space group: P B A M
;
_chemical_formula_sum "Si O2"
_cell_formula_units_Z 48
_cell_length_a 11.010308
_cell_length_b 14.572961
_cell_length_c 14.840065
_cell_angle_alpha 90.000000
_cell_angle_beta 90.000000
_cell_angle_gamma 90.000000
_cell_volume 2381.129819
_symmetry_space_group_name_H-M "P B A M"
_symmetry_group_IT_number 55
_symmetry_cell_setting 'orthorhombic'
loop_
_space_group_symop_operation_xyz
x,y,z
-x,-y,z
1/2+x,1/2-y,-z
1/2-x,1/2+y,-z
-x,-y,-z
x,y,-z
1/2-x,1/2+y,z
1/2+x,1/2-y,z
loop_
_atom_site_type_symbol
_atom_site_label
_atom_site_fract_x
_atom_site_fract_y
_atom_site_fract_z
Si Si1 0.195777 0.174958 0.398412
Si Si2 0.034672 0.606225 0.099634
Si Si3 0.895657 0.077631 0.212167
Si Si4 0.583472 0.680026 0.602666
Si Si5 0.251626 0.586551 0.783400
Si Si6 0.056499 0.201924 0.104027
O O1 0.201428 0.137509 0.500000
O O2 0.306966 0.246715 0.389535
O O3 0.217379 0.101073 0.320698
O O4 0.057629 0.214116 0.387213
O O5 0.119889 0.615435 0.185734
O O6 0.000000 0.500000 0.097268
O O7 0.938325 0.688077 0.108386
O O8 0.906346 0.375321 0.000000
O O9 0.897650 0.110956 0.314945
O O10 0.932306 0.161624 0.147898
O O11 0.776225 0.019199 0.190574
O O12 0.000000 0.000000 0.201073
O O13 0.591014 0.642552 0.500000
O O14 0.339602 0.654086 0.838418
O O15 0.063014 0.173690 0.000000
#
# Coordination Sequence:
#
# PCOD9427112 Si02
#       6
#     8   8   8   8   8   8
#     4  10  21  37  61  89 122 161 208 257 307 369
#     4  10  23  41  60  88 121 157 202 255 316 374
#     4  10  20  36  55  89 116 156 205 251 302 364
#     4  10  20  37  60  88 120 160 206 255 310 366
#     4  11  22  37  60  87 122 160 208 251 309 368
#     4  10  21  38  60  85 116 155 202 254 307 367
#
# _framework density 20.158498999999999
#
# number of rings (size 3 to 8) (size 9 to 14) (size 15 to 20)
#    0.000    1.833    3.333    1.500    0.000    7.333 
#    0.000    3.333    0.000    0.500    0.000    0.000 
#    0.000    0.000    0.000    0.000    0.000    0.000 
#
# Total GULP energy -267367.333895 kJ/mol
# GULP energy per Si atom -5570.152789 kJ/mol
# Density = 2.011262 g / cm^3
# Si number density = 20.158499 Si / 1000 Ang^3
#
#
#
# Elastic Constant Matrix: (Units=GPa)
#
#
# Indices 1 2 3 4 5 6 
#
# 1 52.9577 7.8487 20.3197 0.0000 0.0000 0.0000
# 2 7.8487 81.3988 35.6354 0.0000 0.0000 0.0000
# 3 20.3197 35.6354 97.6021 0.0000 0.0000 0.0000
# 4 0.0000 0.0000 0.0000 11.5593 0.0000 0.0000
# 5 0.0000 0.0000 0.0000 0.0000 19.0901 0.0000
# 6 0.0000 0.0000 0.0000 0.0000 0.0000 15.5700
#
#
#
# Elastic Compliance Matrix: (Units=1/GPa)
#
#
# Indices 1 2 3 4 5 6 
#
# 1 0.020523 -0.000129 -0.004226 0.000000 0.000000 0.000000
# 2 -0.000129 0.014623 -0.005312 0.000000 0.000000 0.000000
# 3 -0.004226 -0.005312 0.013065 0.000000 0.000000 0.000000
# 4 0.000000 0.000000 0.000000 0.086511 0.000000 0.000000
# 5 0.000000 0.000000 0.000000 0.000000 0.052383 0.000000
# 6 0.000000 0.000000 0.000000 0.000000 0.000000 0.064226
#
#
# Mechanical properties :
#
#
# Convention : Reuss Voigt Hill
#
# Bulk Modulus (GPa) = 34.62850 39.95179 37.29015
# Shear Modulus (GPa) = 17.83858 20.45419 19.14639
#
# Velocity S-wave (km/s) = 2.97798 3.18884 3.08521
# Velocity P-wave (km/s) = 5.38887 5.78102 5.58838
#
# Compressibility (1/GPa) = 0.02887795
#
# Stress axis : x y z
#
# Youngs Moduli (GPa) = 48.72464 68.38417 76.54052
#
# Poissons Ratio (x) = 0.00882 0.32344
# Poissons Ratio (y) = 0.00628 0.40660
# Poissons Ratio (z) = 0.20590 0.36327
#
# Static dielectric constant tensor:
#      x y z
#    x 1.781070 0.000000 0.000000 
#    y 0.000000 1.712000 0.000000 
#    z 0.000000 0.000000 1.708580 
# 
# From -- ./inp_files/18294.got.cif
#   From: 2010.05.17/outbox.cif.g08.bks.cpg/sg55_10_cif.got.tgz:18294.got - 2010.06.03 13:27:54.
