data_PCOD9427586
_publ_section_title
;
Structure prediction by ZEFSAII (Michael W. Deem and Ramdas Pophale) SiO2 
 PCOD9427586
Probable space group: P B A M
;
_chemical_formula_sum "Si O2"
_cell_formula_units_Z 58
_cell_length_a 9.459470
_cell_length_b 32.444122
_cell_length_c 10.123886
_cell_angle_alpha 90.000000
_cell_angle_beta 90.000000
_cell_angle_gamma 90.000000
_cell_volume 3107.063121
_symmetry_space_group_name_H-M "P B A M"
_symmetry_group_IT_number 55
_symmetry_cell_setting 'orthorhombic'
loop_
_space_group_symop_operation_xyz
x,y,z
-x,-y,z
1/2+x,1/2-y,-z
1/2-x,1/2+y,-z
-x,-y,-z
x,y,-z
1/2-x,1/2+y,z
1/2+x,1/2-y,z
loop_
_atom_site_type_symbol
_atom_site_label
_atom_site_fract_x
_atom_site_fract_y
_atom_site_fract_z
Si Si1 0.892925 0.120299 0.653581
Si Si2 0.659170 0.499604 0.154411
Si Si3 0.000000 0.500000 0.500000
Si Si4 0.494190 0.792400 0.343247
Si Si5 0.837678 0.213145 0.344560
Si Si6 0.637702 0.406823 0.152239
Si Si7 0.564175 0.868441 0.154591
Si Si8 0.128115 0.436433 0.714827
O O1 0.939004 0.120062 0.500000
O O2 0.875863 0.167385 0.703483
O O3 0.742516 0.096706 0.658133
O O4 0.010008 0.099729 0.746939
O O5 0.500000 0.500000 0.212713
O O6 0.703214 0.452320 0.169498
O O7 0.769178 0.531232 0.212718
O O8 0.646166 0.509522 0.000000
O O9 0.957781 0.535060 0.613298
O O10 0.525889 0.800431 0.500000
O O11 0.329432 0.781587 0.333836
O O12 0.582092 0.753070 0.292249
O O13 0.522344 0.832023 0.253701
O O14 0.874228 0.212236 0.500000
O O15 0.768110 0.376137 0.170444
O O16 0.586386 0.404387 0.000000
O O17 0.476978 0.909302 0.195889
O O18 0.536200 0.859300 0.000000
#
# Coordination Sequence:
#
# PCOD9427586 Si02
#       8
#     8   8   2   8   8   8   8   8
#     4  11  22  41  65  93 127 166 213 262 323 390
#     4  10  20  38  63  88 118 163 214 261 312 379
#     4  12  28  40  64 100 128 172 216 276 332 376
#     4  10  21  40  67  94 128 166 213 266 324 386
#     4   9  20  38  63  94 126 166 208 262 321 391
#     4  10  23  42  61  90 125 164 216 269 316 380
#     4  11  25  43  66  95 131 173 219 266 326 395
#     4  12  23  43  64  91 131 170 216 268 325 389
#
# _framework density 18.667145999999999
#
# number of rings (size 3 to 8) (size 9 to 14) (size 15 to 20)
#    0.000    1.517    3.448    1.241    2.897    1.103 
#    3.724    5.172    0.000    0.000    0.000    0.000 
#    0.000    0.000    0.000    0.000    0.000    0.000 
#
# Total GULP energy -322879.327674 kJ/mol
# GULP energy per Si atom -5566.884960 kJ/mol
# Density = 1.862466 g / cm^3
# Si number density = 18.667146 Si / 1000 Ang^3
#
#
#
# Elastic Constant Matrix: (Units=GPa)
#
#
# Indices 1 2 3 4 5 6 
#
# 1 57.8154 41.3284 42.1052 0.0000 0.0000 0.0000
# 2 41.3284 108.8594 56.7652 0.0000 0.0000 0.0000
# 3 42.1052 56.7652 81.0271 0.0000 0.0000 0.0000
# 4 0.0000 0.0000 0.0000 17.2270 0.0000 0.0000
# 5 0.0000 0.0000 0.0000 0.0000 3.6999 0.0000
# 6 0.0000 0.0000 0.0000 0.0000 0.0000 41.6739
#
#
#
# Elastic Compliance Matrix: (Units=1/GPa)
#
#
# Indices 1 2 3 4 5 6 
#
# 1 0.029490 -0.005050 -0.011787 0.000000 0.000000 0.000000
# 2 -0.005050 0.015338 -0.008122 0.000000 0.000000 0.000000
# 3 -0.011787 -0.008122 0.024156 0.000000 0.000000 0.000000
# 4 0.000000 0.000000 0.000000 0.058048 0.000000 0.000000
# 5 0.000000 0.000000 0.000000 0.000000 0.270280 0.000000
# 6 0.000000 0.000000 0.000000 0.000000 0.000000 0.023996
#
#
# Mechanical properties :
#
#
# Convention : Reuss Voigt Hill
#
# Bulk Modulus (GPa) = 52.44196 58.67775 55.55985
# Shear Modulus (GPa) = 10.46945 19.68702 15.07824
#
# Velocity S-wave (km/s) = 2.37079 3.25104 2.84516
# Velocity P-wave (km/s) = 5.97063 6.75235 6.37349
#
# Compressibility (1/GPa) = 0.01906870
#
# Stress axis : x y z
#
# Youngs Moduli (GPa) = 33.90988 65.19648 41.39745
#
# Poissons Ratio (x) = 0.32922 0.48794
# Poissons Ratio (y) = 0.17123 0.33621
# Poissons Ratio (z) = 0.39968 0.52949
#
# Static dielectric constant tensor:
#      x y z
#    x 1.647820 0.000000 0.000000 
#    y 0.000000 1.668970 0.000000 
#    z 0.000000 0.000000 1.634960 
# 
# From -- ./inp_files/12486.got.cif
#   From: 2010.05.17/outbox.cif.g08.bks.cpg/sg55_7_cif.got.tgz:12486.got - 2010.06.03 13:27:54.
