data_PCOD9427356
_publ_section_title
;
Structure prediction by ZEFSAII (Michael W. Deem and Ramdas Pophale) SiO2 
 PCOD9427356
Probable space group: P B A M
;
_chemical_formula_sum "Si O2"
_cell_formula_units_Z 64
_cell_length_a 15.229682
_cell_length_b 25.200836
_cell_length_c 7.600543
_cell_angle_alpha 90.000000
_cell_angle_beta 90.000000
_cell_angle_gamma 90.000000
_cell_volume 2917.093864
_symmetry_space_group_name_H-M "P B A M"
_symmetry_group_IT_number 55
_symmetry_cell_setting 'orthorhombic'
loop_
_space_group_symop_operation_xyz
x,y,z
-x,-y,z
1/2+x,1/2-y,-z
1/2-x,1/2+y,-z
-x,-y,-z
x,y,-z
1/2-x,1/2+y,z
1/2+x,1/2-y,z
loop_
_atom_site_type_symbol
_atom_site_label
_atom_site_fract_x
_atom_site_fract_y
_atom_site_fract_z
Si Si1 0.122509 0.849863 0.707027
Si Si2 0.564974 0.365381 0.199779
Si Si3 0.009623 0.667693 0.711857
Si Si4 0.673338 0.767381 0.285241
Si Si5 0.753012 0.059694 0.211647
Si Si6 0.444772 0.949868 0.211361
Si Si7 0.095905 0.020521 0.215580
Si Si8 0.870052 0.753476 0.297475
O O1 0.104683 0.851176 0.500000
O O2 0.131852 0.789249 0.762608
O O3 0.210624 0.882326 0.742010
O O4 0.039387 0.876117 0.799882
O O5 0.608429 0.418570 0.273420
O O6 0.581053 0.310015 0.294964
O O7 0.594937 0.357630 0.000000
O O8 0.010413 0.673587 0.500000
O O9 0.988321 0.607024 0.752542
O O10 0.933185 0.707846 0.779397
O O11 0.105297 0.687641 0.774994
O O12 0.676807 0.770721 0.500000
O O13 0.773574 0.765038 0.220536
O O14 0.655198 0.050370 0.278971
O O15 0.825945 0.017734 0.274630
O O16 0.751293 0.055926 0.000000
O O17 0.500000 0.000000 0.278627
O O18 0.439817 0.955153 0.000000
O O19 0.095098 0.021218 0.000000
O O20 0.000000 0.000000 0.272160
O O21 0.854651 0.737234 0.500000
#
# Coordination Sequence:
#
# PCOD9427356 Si02
#       8
#     8   8   8   8   8   8   8   8
#     4  11  20  35  58  84 114 149 192 236 283 337
#     4  11  21  34  55  83 115 150 187 228 280 342
#     4  10  20  38  61  84 113 151 192 233 284 345
#     4   9  19  35  57  82 110 150 189 225 279 340
#     4  10  20  37  59  81 110 151 195 239 286 342
#     4  10  23  41  60  84 114 148 191 244 294 334
#     4   9  17  32  53  76 107 148 184 217 273 342
#     4  10  20  37  58  82 115 149 186 233 283 334
#
# _framework density 21.939643
#
# number of rings (size 3 to 8) (size 9 to 14) (size 15 to 20)
#    0.000    2.000    2.500    1.500    0.000    3.250 
#    0.000    5.000    0.000    0.000    0.000    0.000 
#    0.000    0.000    0.000    0.000    0.000    0.000 
#
# Total GULP energy -357457.915989 kJ/mol
# GULP energy per Si atom -5585.279937 kJ/mol
# Density = 2.188971 g / cm^3
# Si number density = 21.939643 Si / 1000 Ang^3
#
#
#
# Elastic Constant Matrix: (Units=GPa)
#
#
# Indices 1 2 3 4 5 6 
#
# 1 133.2153 70.2280 4.2308 0.0000 0.0000 0.0000
# 2 70.2280 151.0131 -1.9537 0.0000 0.0000 0.0000
# 3 4.2308 -1.9537 47.7212 0.0000 0.0000 0.0000
# 4 0.0000 0.0000 0.0000 17.5477 0.0000 0.0000
# 5 0.0000 0.0000 0.0000 0.0000 9.7078 0.0000
# 6 0.0000 0.0000 0.0000 0.0000 0.0000 32.3096
#
#
#
# Elastic Compliance Matrix: (Units=1/GPa)
#
#
# Indices 1 2 3 4 5 6 
#
# 1 0.010000 -0.004664 -0.001078 0.000000 0.000000 0.000000
# 2 -0.004664 0.008801 0.000774 0.000000 0.000000 0.000000
# 3 -0.001078 0.000774 0.021082 0.000000 0.000000 0.000000
# 4 0.000000 0.000000 0.000000 0.056987 0.000000 0.000000
# 5 0.000000 0.000000 0.000000 0.000000 0.103010 0.000000
# 6 0.000000 0.000000 0.000000 0.000000 0.000000 0.030951
#
#
# Mechanical properties :
#
#
# Convention : Reuss Voigt Hill
#
# Bulk Modulus (GPa) = 33.39212 52.99553 43.19383
# Shear Modulus (GPa) = 19.94027 29.20933 24.57480
#
# Velocity S-wave (km/s) = 3.01802 3.65272 3.35043
# Velocity P-wave (km/s) = 5.23427 6.48054 5.89046
#
# Compressibility (1/GPa) = 0.02994719
#
# Stress axis : x y z
#
# Youngs Moduli (GPa) = 100.00222 113.62264 47.43321
#
# Poissons Ratio (x) = 0.52997 0.05111
# Poissons Ratio (y) = 0.46644 -0.03671
# Poissons Ratio (z) = 0.10775 -0.08793
#
# Static dielectric constant tensor:
#      x y z
#    x 1.822260 0.000000 0.000000 
#    y 0.000000 1.772560 0.000000 
#    z 0.000000 0.000000 1.815980 
# 
# From -- ./inp_files/6674.got.cif
#   From: 2010.05.17/outbox.cif.g08.bks.cpg/sg55_4_cif.got.tgz:6674.got - 2010.06.03 13:27:54.
