data_PCOD9427091
_publ_section_title
;
Structure prediction by ZEFSAII (Michael W. Deem and Ramdas Pophale) SiO2 
 PCOD9427091
Probable space group: P B A M
;
_chemical_formula_sum "Si O2"
_cell_formula_units_Z 64
_cell_length_a 31.129726
_cell_length_b 12.049778
_cell_length_c 7.846192
_cell_angle_alpha 90.000000
_cell_angle_beta 90.000000
_cell_angle_gamma 90.000000
_cell_volume 2943.155952
_symmetry_space_group_name_H-M "P B A M"
_symmetry_group_IT_number 55
_symmetry_cell_setting 'orthorhombic'
loop_
_space_group_symop_operation_xyz
x,y,z
-x,-y,z
1/2+x,1/2-y,-z
1/2-x,1/2+y,-z
-x,-y,-z
x,y,-z
1/2-x,1/2+y,z
1/2+x,1/2-y,z
loop_
_atom_site_type_symbol
_atom_site_label
_atom_site_fract_x
_atom_site_fract_y
_atom_site_fract_z
Si Si1 0.688164 0.743947 0.302156
Si Si2 0.944860 0.789422 0.205949
Si Si3 0.664197 0.508668 0.802938
Si Si4 0.616234 0.916393 0.295824
Si Si5 0.465234 0.223716 0.205792
Si Si6 0.932365 0.035304 0.791578
Si Si7 0.281496 0.693405 0.800102
Si Si8 0.640483 0.161087 0.298087
O O1 0.677973 0.721797 0.500000
O O2 0.686017 0.627703 0.206024
O O3 0.652311 0.829203 0.233683
O O4 0.736140 0.789311 0.288311
O O5 0.953602 0.917854 0.255888
O O6 0.899162 0.744945 0.267758
O O7 0.985209 0.714535 0.262141
O O8 0.943029 0.787955 0.000000
O O9 0.616665 0.522704 0.731115
O O10 0.693647 0.413467 0.726370
O O11 0.657564 0.475047 0.000000
O O12 0.620469 0.921011 0.500000
O O13 0.569141 0.868411 0.257679
O O14 0.626026 0.040176 0.231567
O O15 0.449588 0.345719 0.266042
O O16 0.465362 0.225006 0.000000
O O17 0.933860 0.040081 0.000000
O O18 0.315655 0.793024 0.781838
O O19 0.272103 0.676446 0.000000
O O20 0.648020 0.153812 0.500000
#
# Coordination Sequence:
#
# PCOD9427091 Si02
#       8
#     8   8   8   8   8   8   8   8
#     4  11  24  41  62  89 121 157 197 245 296 355
#     4  10  20  37  60  90 121 153 195 244 296 351
#     4  10  20  38  64  91 120 155 195 242 297 354
#     4  10  24  43  59  81 119 160 199 243 294 350
#     4  10  20  35  62  91 117 153 198 244 293 351
#     4   9  16  33  59  88 121 151 186 237 296 351
#     4  11  24  42  64  92 121 153 196 248 297 352
#     4  11  24  42  61  84 117 161 203 243 296 354
#
# _framework density 21.745365
#
# number of rings (size 3 to 8) (size 9 to 14) (size 15 to 20)
#    0.000    1.750    2.500    1.500    1.750    5.000 
#    0.000    3.125    0.000    1.500    0.000    0.000 
#    0.000    0.000    0.000    0.000    0.000    0.000 
#
# Total GULP energy -357512.091957 kJ/mol
# GULP energy per Si atom -5586.126437 kJ/mol
# Density = 2.169587 g / cm^3
# Si number density = 21.745365 Si / 1000 Ang^3
#
#
#
# Elastic Constant Matrix: (Units=GPa)
#
#
# Indices 1 2 3 4 5 6 
#
# 1 56.5203 -23.5140 -6.9195 0.0000 0.0000 0.0000
# 2 -23.5140 45.8786 -3.1803 0.0000 0.0000 0.0000
# 3 -6.9195 -3.1803 28.2031 0.0000 0.0000 0.0000
# 4 0.0000 0.0000 0.0000 18.4088 0.0000 0.0000
# 5 0.0000 0.0000 0.0000 0.0000 69.0711 0.0000
# 6 0.0000 0.0000 0.0000 0.0000 0.0000 23.8261
#
#
#
# Elastic Compliance Matrix: (Units=1/GPa)
#
#
# Indices 1 2 3 4 5 6 
#
# 1 0.023891 0.012751 0.007299 0.000000 0.000000 0.000000
# 2 0.012751 0.028774 0.006373 0.000000 0.000000 0.000000
# 3 0.007299 0.006373 0.037967 0.000000 0.000000 0.000000
# 4 0.000000 0.000000 0.000000 0.054322 0.000000 0.000000
# 5 0.000000 0.000000 0.000000 0.000000 0.014478 0.000000
# 6 0.000000 0.000000 0.000000 0.000000 0.000000 0.041971
#
#
# Mechanical properties :
#
#
# Convention : Reuss Voigt Hill
#
# Bulk Modulus (GPa) = 6.96972 7.04159 7.00566
# Shear Modulus (GPa) = 25.46067 33.20892 29.33480
#
# Velocity S-wave (km/s) = 3.42549 3.91214 3.67688
# Velocity P-wave (km/s) = 4.34251 4.86331 4.61027
#
# Compressibility (1/GPa) = 0.14347773
#
# Stress axis : x y z
#
# Youngs Moduli (GPa) = 41.85659 34.75409 26.33892
#
# Poissons Ratio (x) = -0.44314 -0.19226
# Poissons Ratio (y) = -0.53371 -0.16786
# Poissons Ratio (z) = -0.30553 -0.22149
#
# Static dielectric constant tensor:
#      x y z
#    x 1.783880 0.000000 0.000000 
#    y 0.000000 1.797110 0.000000 
#    z 0.000000 0.000000 1.809110 
# 
# From -- ./inp_files/4531.got.cif
#   From: 2010.05.17/outbox.cif.g08.bks.cpg/sg55_3_cif.got.tgz:4531.got - 2010.06.03 13:27:54.
