data_PCOD9427538
_publ_section_title
;
Structure prediction by ZEFSAII (Michael W. Deem and Ramdas Pophale) SiO2 
 PCOD9427538
Probable space group: P B A M
;
_chemical_formula_sum "Si O2"
_cell_formula_units_Z 64
_cell_length_a 24.154506
_cell_length_b 15.755251
_cell_length_c 8.765171
_cell_angle_alpha 90.000000
_cell_angle_beta 90.000000
_cell_angle_gamma 90.000000
_cell_volume 3335.676147
_symmetry_space_group_name_H-M "P B A M"
_symmetry_group_IT_number 55
_symmetry_cell_setting 'orthorhombic'
loop_
_space_group_symop_operation_xyz
x,y,z
-x,-y,z
1/2+x,1/2-y,-z
1/2-x,1/2+y,-z
-x,-y,-z
x,y,-z
1/2-x,1/2+y,z
1/2+x,1/2-y,z
loop_
_atom_site_type_symbol
_atom_site_label
_atom_site_fract_x
_atom_site_fract_y
_atom_site_fract_z
Si Si1 0.571579 0.563417 0.681749
Si Si2 0.453897 0.790031 0.318003
Si Si3 0.226104 0.513619 0.818769
Si Si4 0.693142 0.625205 0.683265
Si Si5 0.306022 0.186449 0.316434
Si Si6 0.454360 0.611281 0.180784
Si Si7 0.570187 0.870598 0.683139
Si Si8 0.898793 0.544747 0.818274
O O1 0.561019 0.568720 0.500000
O O2 0.628268 0.611512 0.716434
O O3 0.576365 0.465391 0.732708
O O4 0.518594 0.600040 0.769503
O O5 0.450598 0.778606 0.500000
O O6 0.436266 0.703944 0.235225
O O7 0.517712 0.812861 0.278033
O O8 0.418828 0.871071 0.265742
O O9 0.271430 0.449631 0.755112
O O10 0.228033 0.608085 0.750267
O O11 0.165155 0.476433 0.780947
O O12 0.230431 0.519226 0.000000
O O13 0.699125 0.621213 0.500000
O O14 0.710655 0.719416 0.734824
O O15 0.302677 0.183700 0.500000
O O16 0.370760 0.170737 0.275733
O O17 0.448782 0.601055 0.000000
O O18 0.569599 0.883154 0.500000
O O19 0.567544 0.962126 0.762560
O O20 0.904445 0.554616 0.000000
#
# Coordination Sequence:
#
# PCOD9427538 Si02
#       8
#     8   8   8   8   8   8   8   8
#     4  10  20  38  61  84 112 145 185 230 278 332
#     4  11  21  34  54  81 111 149 192 229 276 335
#     4  10  22  39  57  81 115 151 186 233 289 339
#     4  10  21  38  63  89 110 144 193 239 281 332
#     4   9  18  36  60  84 110 142 184 234 282 333
#     4  11  22  36  55  83 118 151 183 224 280 335
#     4   9  18  33  55  81 109 142 184 231 279 332
#     4  10  21  36  52  76 112 149 186 230 284 338
#
# _framework density 19.186513999999999
#
# number of rings (size 3 to 8) (size 9 to 14) (size 15 to 20)
#    0.000    2.000    0.000    4.500    0.000    7.500 
#    2.250    2.500    0.000    0.000    0.000    0.000 
#    0.000    0.000    0.000    0.000    0.000    0.000 
#
# Total GULP energy -357542.603358 kJ/mol
# GULP energy per Si atom -5586.603177 kJ/mol
# Density = 1.914284 g / cm^3
# Si number density = 19.186514 Si / 1000 Ang^3
#
#
#
# Elastic Constant Matrix: (Units=GPa)
#
#
# Indices 1 2 3 4 5 6 
#
# 1 21.9425 21.9486 10.5063 0.0000 0.0000 0.0000
# 2 21.9486 134.0143 17.5176 0.0000 0.0000 0.0000
# 3 10.5063 17.5176 21.8699 0.0000 0.0000 0.0000
# 4 0.0000 0.0000 0.0000 -46.7667 0.0000 0.0000
# 5 0.0000 0.0000 0.0000 0.0000 18.6803 0.0000
# 6 0.0000 0.0000 0.0000 0.0000 0.0000 21.1919
#
#
#
# Elastic Compliance Matrix: (Units=1/GPa)
#
#
# Indices 1 2 3 4 5 6 
#
# 1 0.065067 -0.007339 -0.025380 0.000000 0.000000 0.000000
# 2 -0.007339 0.009162 -0.003813 0.000000 0.000000 0.000000
# 3 -0.025380 -0.003813 0.060972 0.000000 0.000000 0.000000
# 4 0.000000 0.000000 0.000000 -0.021383 0.000000 0.000000
# 5 0.000000 0.000000 0.000000 0.000000 0.053532 0.000000
# 6 0.000000 0.000000 0.000000 0.000000 0.000000 0.047188
#
#
# Mechanical properties :
#
#
# Convention : Reuss Voigt Hill
#
# Bulk Modulus (GPa) = 16.09347 30.86353 23.47850
# Shear Modulus (GPa) = 16.21723 7.14473 11.68098
#
# Velocity S-wave (km/s) = 2.91046 1.93182 2.47009
# Velocity P-wave (km/s) = 4.43852 4.59313 4.51649
#
# Compressibility (1/GPa) = 0.06213699
#
# Stress axis : x y z
#
# Youngs Moduli (GPa) = 15.36881 109.14268 16.40109
#
# Poissons Ratio (x) = 0.80101 0.41625
# Poissons Ratio (y) = 0.11279 0.06254
# Poissons Ratio (z) = 0.39005 0.41619
#
# Static dielectric constant tensor:
#      x y z
#    x 1.662640 0.000000 0.000000 
#    y 0.000000 1.665740 0.000000 
#    z 0.000000 0.000000 1.638030 
# 
# From -- ./inp_files/9695.got.cif
#   From: 2010.05.17/outbox.cif.g08.bks.cpg/sg55_5_cif.got.tgz:9695.got - 2010.06.03 13:27:54.
