data_PCOD9427245
_publ_section_title
;
Structure prediction by ZEFSAII (Michael W. Deem and Ramdas Pophale) SiO2 
 PCOD9427245
Probable space group: P B A M
;
_chemical_formula_sum "Si O2"
_cell_formula_units_Z 64
_cell_length_a 11.764075
_cell_length_b 17.684680
_cell_length_c 14.514476
_cell_angle_alpha 90.000000
_cell_angle_beta 90.000000
_cell_angle_gamma 90.000000
_cell_volume 3019.648221
_symmetry_space_group_name_H-M "P B A M"
_symmetry_group_IT_number 55
_symmetry_cell_setting 'orthorhombic'
loop_
_space_group_symop_operation_xyz
x,y,z
-x,-y,z
1/2+x,1/2-y,-z
1/2-x,1/2+y,-z
-x,-y,-z
x,y,-z
1/2-x,1/2+y,z
1/2+x,1/2-y,z
loop_
_atom_site_type_symbol
_atom_site_label
_atom_site_fract_x
_atom_site_fract_y
_atom_site_fract_z
Si Si1 0.249203 0.378610 0.750678
Si Si2 0.003410 0.778681 0.901860
Si Si3 0.873351 0.025796 0.391710
Si Si4 0.103906 0.947012 0.104250
Si Si5 0.010924 0.584176 0.722462
Si Si6 0.274813 0.125513 0.391467
Si Si7 0.193946 0.213165 0.771130
Si Si8 0.646772 0.873603 0.895785
O O1 0.327980 0.404013 0.666460
O O2 0.287158 0.437801 0.830409
O O3 0.264632 0.291045 0.777244
O O4 0.116593 0.385453 0.727010
O O5 0.927945 0.769249 0.812275
O O6 0.057541 0.861332 0.899740
O O7 0.088299 0.708690 0.904755
O O8 0.936020 0.774010 0.000000
O O9 0.877596 0.043559 0.500000
O O10 0.785106 0.956357 0.378716
O O11 0.000000 0.000000 0.363567
O O12 0.132065 0.971379 0.000000
O O13 0.000000 0.000000 0.137245
O O14 0.102145 0.626520 0.658115
O O15 0.065878 0.581760 0.825063
O O16 0.000000 0.500000 0.684467
O O17 0.281026 0.140947 0.500000
O O18 0.199685 0.183913 0.332649
O O19 0.240259 0.146183 0.837971
O O20 0.661402 0.903169 0.000000
#
# Coordination Sequence:
#
# PCOD9427245 Si02
#       8
#     8   8   8   8   8   8   8   8
#     4  12  23  38  64  91 124 162 207 260 304 365
#     4  10  20  36  59  87 123 166 205 247 302 364
#     4  10  23  43  68  95 118 153 202 257 325 380
#     4  10  23  39  60  93 128 166 210 257 311 363
#     4  11  23  41  63  94 123 167 212 253 309 370
#     4  10  24  45  66  90 126 164 204 259 318 381
#     4  11  23  37  62  91 124 160 212 255 312 364
#     4  10  21  38  58  87 125 165 208 252 301 360
#
# _framework density 21.194521000000002
#
# number of rings (size 3 to 8) (size 9 to 14) (size 15 to 20)
#    0.000    1.500    3.750    0.750    3.500    2.500 
#    0.000    1.250    0.000    0.000    0.000    0.000 
#    0.000    0.000    0.000    0.000    0.000    0.000 
#
# Total GULP energy -357215.959735 kJ/mol
# GULP energy per Si atom -5581.499371 kJ/mol
# Density = 2.114628 g / cm^3
# Si number density = 21.194521 Si / 1000 Ang^3
#
#
#
# Elastic Constant Matrix: (Units=GPa)
#
#
# Indices 1 2 3 4 5 6 
#
# 1 84.4486 6.7498 44.7538 0.0000 0.0000 0.0000
# 2 6.7498 26.3206 4.1402 0.0000 0.0000 0.0000
# 3 44.7538 4.1402 130.8136 0.0000 0.0000 0.0000
# 4 0.0000 0.0000 0.0000 40.6873 0.0000 0.0000
# 5 0.0000 0.0000 0.0000 0.0000 36.8781 0.0000
# 6 0.0000 0.0000 0.0000 0.0000 0.0000 24.6901
#
#
#
# Elastic Compliance Matrix: (Units=1/GPa)
#
#
# Indices 1 2 3 4 5 6 
#
# 1 0.014695 -0.002992 -0.004933 0.000000 0.000000 0.000000
# 2 -0.002992 0.038793 -0.000204 0.000000 0.000000 0.000000
# 3 -0.004933 -0.000204 0.009338 0.000000 0.000000 0.000000
# 4 0.000000 0.000000 0.000000 0.024578 0.000000 0.000000
# 5 0.000000 0.000000 0.000000 0.000000 0.027116 0.000000
# 6 0.000000 0.000000 0.000000 0.000000 0.000000 0.040502
#
#
# Mechanical properties :
#
#
# Convention : Reuss Voigt Hill
#
# Bulk Modulus (GPa) = 21.47415 39.20781 30.34098
# Shear Modulus (GPa) = 26.76620 32.84703 29.80662
#
# Velocity S-wave (km/s) = 3.55756 3.94101 3.75418
# Velocity P-wave (km/s) = 5.19894 6.26481 5.75660
#
# Compressibility (1/GPa) = 0.04656761
#
# Stress axis : x y z
#
# Youngs Moduli (GPa) = 68.05140 25.77810 107.08390
#
# Poissons Ratio (x) = 0.07714 0.52821
# Poissons Ratio (y) = 0.20364 0.02184
# Poissons Ratio (z) = 0.33567 0.00526
#
# Static dielectric constant tensor:
#      x y z
#    x 1.802760 0.000000 0.000000 
#    y 0.000000 1.764870 0.000000 
#    z 0.000000 0.000000 1.796480 
# 
# From -- ./inp_files/18581.got.cif
#   From: 2010.05.17/outbox.cif.g08.bks.cpg/sg55_10_cif.got.tgz:18581.got - 2010.06.03 13:27:54.
