data_PCOD9427819
_publ_section_title
;
Structure prediction by ZEFSAII (Michael W. Deem and Ramdas Pophale) SiO2 
 PCOD9427819
Probable space group: P B A M
;
_chemical_formula_sum "Si O2"
_cell_formula_units_Z 58
_cell_length_a 11.081827
_cell_length_b 28.027158
_cell_length_c 9.361799
_cell_angle_alpha 90.000000
_cell_angle_beta 90.000000
_cell_angle_gamma 90.000000
_cell_volume 2907.700963
_symmetry_space_group_name_H-M "P B A M"
_symmetry_group_IT_number 55
_symmetry_cell_setting 'orthorhombic'
loop_
_space_group_symop_operation_xyz
x,y,z
-x,-y,z
1/2+x,1/2-y,-z
1/2-x,1/2+y,-z
-x,-y,-z
x,y,-z
1/2-x,1/2+y,z
1/2+x,1/2-y,z
loop_
_atom_site_type_symbol
_atom_site_label
_atom_site_fract_x
_atom_site_fract_y
_atom_site_fract_z
Si Si1 0.239786 0.616071 0.337130
Si Si2 0.004425 0.603249 0.827494
Si Si3 0.279172 0.938063 0.334157
Si Si4 0.358268 0.359256 0.832101
Si Si5 0.885625 0.808406 0.829365
Si Si6 0.120759 0.299791 0.170774
Si Si7 0.617326 0.474450 0.291218
Si Si8 0.500000 0.500000 0.000000
O O1 0.201511 0.624708 0.500000
O O2 0.285041 0.663462 0.258105
O O3 0.349283 0.578275 0.337801
O O4 0.132279 0.593637 0.243842
O O5 0.898239 0.571482 0.759455
O O6 0.968592 0.657856 0.784462
O O7 0.005201 0.599418 0.000000
O O8 0.299634 0.925703 0.500000
O O9 0.175502 0.904381 0.264483
O O10 0.230333 0.991440 0.322595
O O11 0.488144 0.336151 0.811621
O O12 0.255082 0.319860 0.802464
O O13 0.347232 0.373805 0.000000
O O14 0.897758 0.753811 0.777356
O O15 0.857125 0.808478 0.000000
O O16 0.106772 0.297027 0.000000
O O17 0.500000 0.500000 0.356464
O O18 0.583419 0.475394 0.124920
#
# Coordination Sequence:
#
# PCOD9427819 Si02
#       8
#     8   8   8   8   8   8   8   2
#     4  12  26  42  58  89 131 164 199 250 313 376
#     4  10  23  41  67  89 120 160 211 260 305 359
#     4  11  22  39  62  88 123 165 201 245 307 373
#     4   9  19  34  58  88 118 152 204 256 298 353
#     4  10  21  35  62  88 117 157 208 256 303 359
#     4   8  17  36  59  89 115 150 201 259 308 352
#     4  10  24  40  66  90 127 159 206 255 308 349
#     4   8  24  40  66  94 120 148 210 268 290 344
#
# _framework density 19.947030999999999
#
# number of rings (size 3 to 8) (size 9 to 14) (size 15 to 20)
#    0.414    1.655    0.000    3.310    5.793    3.310 
#    0.000    5.517    0.000    0.000    0.000    0.000 
#    0.000    0.000    0.000    0.000    0.000    0.000 
#
# Total GULP energy -323146.045409 kJ/mol
# GULP energy per Si atom -5571.483542 kJ/mol
# Density = 1.990163 g / cm^3
# Si number density = 19.947031 Si / 1000 Ang^3
#
#
#
# Elastic Constant Matrix: (Units=GPa)
#
#
# Indices 1 2 3 4 5 6 
#
# 1 60.6096 8.0090 27.4319 0.0000 0.0000 0.0000
# 2 8.0090 62.9297 6.7978 0.0000 0.0000 0.0000
# 3 27.4319 6.7978 119.8384 0.0000 0.0000 0.0000
# 4 0.0000 0.0000 0.0000 -52.6365 0.0000 0.0000
# 5 0.0000 0.0000 0.0000 0.0000 -34.4828 0.0000
# 6 0.0000 0.0000 0.0000 0.0000 0.0000 9.6270
#
#
#
# Elastic Compliance Matrix: (Units=1/GPa)
#
#
# Indices 1 2 3 4 5 6 
#
# 1 0.018634 -0.001923 -0.004156 0.000000 0.000000 0.000000
# 2 -0.001923 0.016187 -0.000478 0.000000 0.000000 0.000000
# 3 -0.004156 -0.000478 0.009323 0.000000 0.000000 0.000000
# 4 0.000000 0.000000 0.000000 -0.018998 0.000000 0.000000
# 5 0.000000 0.000000 0.000000 0.000000 -0.029000 0.000000
# 6 0.000000 0.000000 0.000000 0.000000 0.000000 0.103875
#
#
# Mechanical properties :
#
#
# Convention : Reuss Voigt Hill
#
# Bulk Modulus (GPa) = 32.22667 36.42834 34.32751
# Shear Modulus (GPa) = 40.49275 -2.08920 19.20177
#
# Velocity S-wave (km/s) = 4.51046 -1.02452 3.10601
# Velocity P-wave (km/s) = 6.58155 4.11128 5.48723
#
# Compressibility (1/GPa) = 0.03103020
#
# Stress axis : x y z
#
# Youngs Moduli (GPa) = 53.66445 61.77766 107.26001
#
# Poissons Ratio (x) = 0.11877 0.44582
# Poissons Ratio (y) = 0.10317 0.05128
# Poissons Ratio (z) = 0.22305 0.02954
#
# Static dielectric constant tensor:
#      x y z
#    x 1.724180 0.000000 0.000000 
#    y 0.000000 1.739940 0.000000 
#    z 0.000000 0.000000 1.684560 
# 
# From -- ./inp_files/4337.got.cif
#   From: 2010.05.17/outbox.cif.g08.bks.cpg/sg55_3_cif.got.tgz:4337.got - 2010.06.03 13:27:54.
