data_PCOD9427318
_publ_section_title
;
Structure prediction by ZEFSAII (Michael W. Deem and Ramdas Pophale) SiO2 
 PCOD9427318
Probable space group: P B A M
;
_chemical_formula_sum "Si O2"
_cell_formula_units_Z 64
_cell_length_a 22.190607
_cell_length_b 7.620233
_cell_length_c 16.930032
_cell_angle_alpha 90.000000
_cell_angle_beta 90.000000
_cell_angle_gamma 90.000000
_cell_volume 2862.827707
_symmetry_space_group_name_H-M "P B A M"
_symmetry_group_IT_number 55
_symmetry_cell_setting 'orthorhombic'
loop_
_space_group_symop_operation_xyz
x,y,z
-x,-y,z
1/2+x,1/2-y,-z
1/2-x,1/2+y,-z
-x,-y,-z
x,y,-z
1/2-x,1/2+y,z
1/2+x,1/2-y,z
loop_
_atom_site_type_symbol
_atom_site_label
_atom_site_fract_x
_atom_site_fract_y
_atom_site_fract_z
Si Si1 0.348150 0.480727 0.910262
Si Si2 0.069133 0.550591 0.279548
Si Si3 0.069904 0.967455 0.757570
Si Si4 0.615422 0.438609 0.412120
Si Si5 0.760004 0.884049 0.667992
Si Si6 0.359183 0.166441 0.414833
Si Si7 0.720579 0.889460 0.088145
Si Si8 0.317231 0.863959 0.771343
O O1 0.392862 0.512002 0.837289
O O2 0.293188 0.618940 0.912431
O O3 0.314689 0.292241 0.897830
O O4 0.374610 0.478116 0.000000
O O5 0.079785 0.755750 0.255774
O O6 0.095886 0.541218 0.367940
O O7 0.113035 0.416610 0.234468
O O8 0.000000 0.500000 0.272764
O O9 0.084746 0.076108 0.675775
O O10 0.000000 0.000000 0.772969
O O11 0.597883 0.364189 0.500000
O O12 0.685795 0.396432 0.394574
O O13 0.608645 0.647434 0.421977
O O14 0.702478 0.787453 0.630291
O O15 0.793760 0.828001 0.749222
O O16 0.720689 0.050473 0.697887
O O17 0.343347 0.092695 0.500000
O O18 0.703065 0.030797 0.152687
O O19 0.703773 0.949447 0.000000
#
# Coordination Sequence:
#
# PCOD9427318 Si02
#       8
#     8   8   8   8   8   8   8   8
#     4  10  21  40  66 100 132 163 206 256 319 384
#     4  10  23  41  58  88 118 163 219 259 306 372
#     4  11  24  43  65  87 125 176 219 263 310 370
#     4  10  21  38  59  88 124 161 211 261 313 374
#     4  11  20  34  58  92 118 157 198 252 317 382
#     4   9  19  37  59  84 122 158 195 260 317 368
#     4  10  20  36  62  95 130 158 194 255 320 383
#     4  11  21  35  62  87 125 156 203 254 311 381
#
# _framework density 22.355519000000001
#
# number of rings (size 3 to 8) (size 9 to 14) (size 15 to 20)
#    0.000    1.750    2.500    1.875    3.500    0.750 
#    0.000    0.625    0.000    1.500    0.000    0.000 
#    0.000    0.000    0.000    0.000    0.000    0.000 
#
# Total GULP energy -356317.234067 kJ/mol
# GULP energy per Si atom -5567.456782 kJ/mol
# Density = 2.230464 g / cm^3
# Si number density = 22.355519 Si / 1000 Ang^3
#
#
#
# Elastic Constant Matrix: (Units=GPa)
#
#
# Indices 1 2 3 4 5 6 
#
# 1 148.5017 7.6416 67.0289 0.0000 0.0000 0.0000
# 2 7.6416 30.5801 16.7194 0.0000 0.0000 0.0000
# 3 67.0289 16.7194 164.4022 0.0000 0.0000 0.0000
# 4 0.0000 0.0000 0.0000 19.5262 0.0000 0.0000
# 5 0.0000 0.0000 0.0000 0.0000 -7.5857 0.0000
# 6 0.0000 0.0000 0.0000 0.0000 0.0000 27.3089
#
#
#
# Elastic Compliance Matrix: (Units=1/GPa)
#
#
# Indices 1 2 3 4 5 6 
#
# 1 0.008254 -0.000236 -0.003341 0.000000 0.000000 0.000000
# 2 -0.000236 0.034633 -0.003426 0.000000 0.000000 0.000000
# 3 -0.003341 -0.003426 0.007793 0.000000 0.000000 0.000000
# 4 0.000000 0.000000 0.000000 0.051213 0.000000 0.000000
# 5 0.000000 0.000000 0.000000 0.000000 -0.131826 0.000000
# 6 0.000000 0.000000 0.000000 0.000000 0.000000 0.036618
#
#
# Mechanical properties :
#
#
# Convention : Reuss Voigt Hill
#
# Bulk Modulus (GPa) = 27.26697 58.47375 42.87036
# Shear Modulus (GPa) = 151.89808 24.65615 88.27712
#
# Velocity S-wave (km/s) = 8.25191 3.32461 6.29075
# Velocity P-wave (km/s) = 10.14966 6.39926 8.48428
#
# Compressibility (1/GPa) = 0.03667441
#
# Stress axis : x y z
#
# Youngs Moduli (GPa) = 121.14961 28.87414 128.31390
#
# Poissons Ratio (x) = 0.00681 0.42875
# Poissons Ratio (y) = 0.02856 0.43960
# Poissons Ratio (z) = 0.40481 0.09892
#
# Static dielectric constant tensor:
#      x y z
#    x 1.793720 0.000000 0.000000 
#    y 0.000000 2.073140 0.000000 
#    z 0.000000 0.000000 1.932670 
# 
# From -- ./inp_files/21948.got.cif
#   From: 2010.05.17/outbox.cif.g08.bks.cpg/sg55_11_cif.got.tgz:21948.got - 2010.06.03 13:27:54.
