data_PCOD9427399
_publ_section_title
;
Structure prediction by ZEFSAII (Michael W. Deem and Ramdas Pophale) SiO2 
 PCOD9427399
Probable space group: P B A M
;
_chemical_formula_sum "Si O2"
_cell_formula_units_Z 64
_cell_length_a 12.915992
_cell_length_b 28.666515
_cell_length_c 8.894055
_cell_angle_alpha 90.000000
_cell_angle_beta 90.000000
_cell_angle_gamma 90.000000
_cell_volume 3293.081483
_symmetry_space_group_name_H-M "P B A M"
_symmetry_group_IT_number 55
_symmetry_cell_setting 'orthorhombic'
loop_
_space_group_symop_operation_xyz
x,y,z
-x,-y,z
1/2+x,1/2-y,-z
1/2-x,1/2+y,-z
-x,-y,-z
x,y,-z
1/2-x,1/2+y,z
1/2+x,1/2-y,z
loop_
_atom_site_type_symbol
_atom_site_label
_atom_site_fract_x
_atom_site_fract_y
_atom_site_fract_z
Si Si1 0.298364 0.459701 0.179722
Si Si2 0.618537 0.907760 0.180618
Si Si3 0.648904 0.438118 0.819703
Si Si4 0.455036 0.387215 0.321357
Si Si5 0.651574 0.165210 0.826262
Si Si6 0.148352 0.792546 0.677425
Si Si7 0.426404 0.199621 0.174039
Si Si8 0.592479 0.068147 0.677837
O O1 0.359499 0.507126 0.217445
O O2 0.361278 0.416270 0.246556
O O3 0.182037 0.462287 0.244324
O O4 0.292890 0.455949 0.000000
O O5 0.733696 0.923872 0.219724
O O6 0.608639 0.852645 0.217707
O O7 0.524034 0.935150 0.258394
O O8 0.604536 0.912034 0.000000
O O9 0.562030 0.407358 0.741112
O O10 0.637344 0.433081 0.000000
O O11 0.449704 0.394110 0.500000
O O12 0.437431 0.332424 0.290223
O O13 0.751464 0.191881 0.769949
O O14 0.550698 0.197627 0.819547
O O15 0.628248 0.120597 0.722874
O O16 0.662409 0.149277 0.000000
O O17 0.170805 0.794449 0.500000
O O18 0.114864 0.741218 0.725506
O O19 0.395091 0.207126 0.000000
O O20 0.593185 0.061288 0.500000
#
# Coordination Sequence:
#
# PCOD9427399 Si02
#       8
#     8   8   8   8   8   8   8   8
#     4  11  22  38  62  89 116 155 202 247 296 353
#     4   9  20  41  62  84 118 158 200 247 298 356
#     4  10  23  41  62  87 118 158 202 246 296 356
#     4  11  24  40  58  85 121 157 197 247 302 358
#     4  10  20  37  60  83 111 151 194 242 292 345
#     4  11  23  37  57  87 119 153 193 240 297 355
#     4   9  20  37  59  86 113 149 196 240 292 350
#     4  11  21  35  59  89 119 151 193 244 296 351
#
# _framework density 19.434684000000001
#
# number of rings (size 3 to 8) (size 9 to 14) (size 15 to 20)
#    0.000    1.750    1.250    3.750    0.000    8.500 
#    0.000    6.250    0.000    0.000    0.000    0.000 
#    0.000    0.000    0.000    0.000    0.000    0.000 
#
# Total GULP energy -357575.329733 kJ/mol
# GULP energy per Si atom -5587.114527 kJ/mol
# Density = 1.939045 g / cm^3
# Si number density = 19.434684 Si / 1000 Ang^3
#
#
#
# Elastic Constant Matrix: (Units=GPa)
#
#
# Indices 1 2 3 4 5 6 
#
# 1 76.5587 14.1382 24.7657 0.0000 0.0000 0.0000
# 2 14.1382 37.5605 12.5172 0.0000 0.0000 0.0000
# 3 24.7657 12.5172 50.9797 0.0000 0.0000 0.0000
# 4 0.0000 0.0000 0.0000 35.6163 0.0000 0.0000
# 5 0.0000 0.0000 0.0000 0.0000 10.8194 0.0000
# 6 0.0000 0.0000 0.0000 0.0000 0.0000 19.4883
#
#
#
# Elastic Compliance Matrix: (Units=1/GPa)
#
#
# Indices 1 2 3 4 5 6 
#
# 1 0.015963 -0.003730 -0.006839 0.000000 0.000000 0.000000
# 2 -0.003730 0.029868 -0.005522 0.000000 0.000000 0.000000
# 3 -0.006839 -0.005522 0.024294 0.000000 0.000000 0.000000
# 4 0.000000 0.000000 0.000000 0.028077 0.000000 0.000000
# 5 0.000000 0.000000 0.000000 0.000000 0.092426 0.000000
# 6 0.000000 0.000000 0.000000 0.000000 0.000000 0.051313
#
#
# Mechanical properties :
#
#
# Convention : Reuss Voigt Hill
#
# Bulk Modulus (GPa) = 26.35469 29.77124 28.06296
# Shear Modulus (GPa) = 17.43563 20.76331 19.09947
#
# Velocity S-wave (km/s) = 2.99848 3.27213 3.13829
# Velocity P-wave (km/s) = 5.05746 5.44313 5.25383
#
# Compressibility (1/GPa) = 0.03794392
#
# Stress axis : x y z
#
# Youngs Moduli (GPa) = 62.64509 33.48101 41.16287
#
# Poissons Ratio (x) = 0.12487 0.28151
# Poissons Ratio (y) = 0.23364 0.22729
# Poissons Ratio (z) = 0.42843 0.18487
#
# Static dielectric constant tensor:
#      x y z
#    x 1.669950 0.000000 0.000000 
#    y 0.000000 1.672910 0.000000 
#    z 0.000000 0.000000 1.650530 
# 
# From -- ./inp_files/4642.got.cif
#   From: 2010.05.17/outbox.cif.g08.bks.cpg/sg55_3_cif.got.tgz:4642.got - 2010.06.03 13:27:54.
