data_PCOD9427943
_publ_section_title
;
Structure prediction by ZEFSAII (Michael W. Deem and Ramdas Pophale) SiO2 
 PCOD9427943
Probable space group: P B A M
;
_chemical_formula_sum "Si O2"
_cell_formula_units_Z 64
_cell_length_a 18.449635
_cell_length_b 9.131133
_cell_length_c 18.916457
_cell_angle_alpha 90.000000
_cell_angle_beta 90.000000
_cell_angle_gamma 90.000000
_cell_volume 3186.781188
_symmetry_space_group_name_H-M "P B A M"
_symmetry_group_IT_number 55
_symmetry_cell_setting 'orthorhombic'
loop_
_space_group_symop_operation_xyz
x,y,z
-x,-y,z
1/2+x,1/2-y,-z
1/2-x,1/2+y,-z
-x,-y,-z
x,y,-z
1/2-x,1/2+y,z
1/2+x,1/2-y,z
loop_
_atom_site_type_symbol
_atom_site_label
_atom_site_fract_x
_atom_site_fract_y
_atom_site_fract_z
Si Si1 0.679508 0.288741 0.316647
Si Si2 0.416887 0.986978 0.294641
Si Si3 0.934585 0.403626 0.135477
Si Si4 0.697281 0.063019 0.081585
Si Si5 0.179912 0.123806 0.156719
Si Si6 0.085722 0.003759 0.418184
Si Si7 0.567538 0.591866 0.796556
Si Si8 0.157277 0.772644 0.336425
O O1 0.617338 0.169937 0.303876
O O2 0.697761 0.355868 0.239751
O O3 0.640473 0.398642 0.370807
O O4 0.755914 0.218483 0.340155
O O5 0.500000 0.000000 0.319190
O O6 0.417515 0.024562 0.211783
O O7 0.365665 0.104492 0.331225
O O8 0.865989 0.441715 0.088209
O O9 0.950201 0.234877 0.155767
O O10 0.000000 0.500000 0.105712
O O11 0.678459 0.217080 0.120015
O O12 0.763135 0.984079 0.120664
O O13 0.713233 0.093883 0.000000
O O14 0.106232 0.031722 0.156642
O O15 0.090257 0.047167 0.500000
O O16 0.117637 0.843772 0.402896
O O17 0.000000 0.000000 0.399044
O O18 0.500000 0.500000 0.765587
O O19 0.620491 0.651434 0.733813
#
# Coordination Sequence:
#
# PCOD9427943 Si02
#       8
#     8   8   8   8   8   8   8   8
#     4  12  23  40  67  99 133 173 228 291 337 405
#     4  10  21  36  62  95 131 167 220 283 341 396
#     4  10  21  39  62  94 128 169 223 277 339 413
#     4  12  25  43  65  93 135 177 221 285 360 427
#     4  12  24  40  66  97 130 174 232 283 341 415
#     4  11  25  44  67  97 139 188 229 273 348 432
#     4  11  23  38  66 100 131 171 224 286 347 408
#     4  11  22  38  63  96 133 171 224 284 345 400
#
# _framework density 20.082958999999999
#
# number of rings (size 3 to 8) (size 9 to 14) (size 15 to 20)
#    0.000    0.875    2.500    6.000    3.500    0.750 
#    0.000    1.250    0.000    4.875    0.000    0.000 
#    0.000    0.000    0.000    0.000    0.000    0.000 
#
# Total GULP energy -357229.820804 kJ/mol
# GULP energy per Si atom -5581.715950 kJ/mol
# Density = 2.003725 g / cm^3
# Si number density = 20.082959 Si / 1000 Ang^3
#
#
#
# Elastic Constant Matrix: (Units=GPa)
#
#
# Indices 1 2 3 4 5 6 
#
# 1 109.8637 10.2962 41.1679 0.0000 0.0000 0.0000
# 2 10.2962 80.3588 35.5278 0.0000 0.0000 0.0000
# 3 41.1679 35.5278 94.0100 0.0000 0.0000 0.0000
# 4 0.0000 0.0000 0.0000 43.0046 0.0000 0.0000
# 5 0.0000 0.0000 0.0000 0.0000 28.5640 0.0000
# 6 0.0000 0.0000 0.0000 0.0000 0.0000 38.3225
#
#
#
# Elastic Compliance Matrix: (Units=1/GPa)
#
#
# Indices 1 2 3 4 5 6 
#
# 1 0.010938 0.000860 -0.005115 0.000000 0.000000 0.000000
# 2 0.000860 0.015008 -0.006048 0.000000 0.000000 0.000000
# 3 -0.005115 -0.006048 0.015163 0.000000 0.000000 0.000000
# 4 0.000000 0.000000 0.000000 0.023253 0.000000 0.000000
# 5 0.000000 0.000000 0.000000 0.000000 0.035009 0.000000
# 6 0.000000 0.000000 0.000000 0.000000 0.000000 0.026094
#
#
# Mechanical properties :
#
#
# Convention : Reuss Voigt Hill
#
# Bulk Modulus (GPa) = 48.77483 50.91292 49.84388
# Shear Modulus (GPa) = 32.69968 35.12760 33.91364
#
# Velocity S-wave (km/s) = 4.03951 4.18679 4.11381
# Velocity P-wave (km/s) = 6.78942 6.98417 6.88749
#
# Compressibility (1/GPa) = 0.02050238
#
# Stress axis : x y z
#
# Youngs Moduli (GPa) = 91.42228 66.63085 65.95090
#
# Poissons Ratio (x) = -0.05729 0.33733
# Poissons Ratio (y) = -0.07861 0.39889
# Poissons Ratio (z) = 0.46762 0.40300
#
# Static dielectric constant tensor:
#      x y z
#    x 2.074940 0.000000 0.000000 
#    y 0.000000 1.696950 0.000000 
#    z 0.000000 0.000000 1.712520 
# 
# From -- ./inp_files/23065.got.cif
#   From: 2010.05.17/outbox.cif.g08.bks.cpg/sg55_12_cif.got.tgz:23065.got - 2010.06.03 13:27:54.
