data_PCOD9427851
_publ_section_title
;
Structure prediction by ZEFSAII (Michael W. Deem and Ramdas Pophale) SiO2 
 PCOD9427851
Probable space group: P B A M
;
_chemical_formula_sum "Si O2"
_cell_formula_units_Z 64
_cell_length_a 15.765052
_cell_length_b 24.052856
_cell_length_c 7.530129
_cell_angle_alpha 90.000000
_cell_angle_beta 90.000000
_cell_angle_gamma 90.000000
_cell_volume 2855.383694
_symmetry_space_group_name_H-M "P B A M"
_symmetry_group_IT_number 55
_symmetry_cell_setting 'orthorhombic'
loop_
_space_group_symop_operation_xyz
x,y,z
-x,-y,z
1/2+x,1/2-y,-z
1/2-x,1/2+y,-z
-x,-y,-z
x,y,-z
1/2-x,1/2+y,z
1/2+x,1/2-y,z
loop_
_atom_site_type_symbol
_atom_site_label
_atom_site_fract_x
_atom_site_fract_y
_atom_site_fract_z
Si Si1 0.483159 0.832375 0.286558
Si Si2 0.372733 0.382706 0.793462
Si Si3 0.290547 0.815184 0.284144
Si Si4 0.592447 0.496304 0.299163
Si Si5 0.250894 0.072891 0.718427
Si Si6 0.490481 0.706822 0.789645
Si Si7 0.205267 0.193615 0.295012
Si Si8 0.938769 0.449536 0.717100
O O1 0.483637 0.835102 0.500000
O O2 0.385153 0.831190 0.226401
O O3 0.517498 0.770875 0.241708
O O4 0.528937 0.888410 0.224376
O O5 0.280176 0.357013 0.777479
O O6 0.376402 0.440739 0.695163
O O7 0.440443 0.337423 0.725173
O O8 0.391980 0.393419 0.000000
O O9 0.291376 0.813953 0.500000
O O10 0.269310 0.753075 0.217352
O O11 0.500000 0.500000 0.212201
O O12 0.578866 0.474054 0.500000
O O13 0.667130 0.459390 0.219328
O O14 0.249505 0.072201 0.500000
O O15 0.242284 0.136718 0.779525
O O16 0.340267 0.045856 0.770858
O O17 0.397578 0.694847 0.709829
O O18 0.481015 0.699888 0.000000
O O19 0.232767 0.194174 0.500000
O O20 0.940572 0.449966 0.500000
O O21 0.000000 0.500000 0.774824
#
# Coordination Sequence:
#
# PCOD9427851 Si02
#       8
#     8   8   8   8   8   8   8   8
#     4   9  19  35  58  84 108 140 182 226 280 333
#     4  11  24  37  53  79 112 151 190 225 271 333
#     4   9  19  33  54  83 110 139 177 227 276 329
#     4  10  21  37  59  85 112 147 186 232 285 330
#     4   9  18  32  55  85 115 143 180 229 280 333
#     4  10  21  36  54  79 111 148 182 223 277 331
#     4   9  18  35  58  85 111 139 181 228 279 332
#     4   9  18  31  53  84 113 140 175 228 282 328
#
# _framework density 22.413799000000001
#
# number of rings (size 3 to 8) (size 9 to 14) (size 15 to 20)
#    0.000    2.500    0.000    2.250    3.500    5.250 
#    0.000    0.625    0.000    1.125    0.000    0.000 
#    0.000    0.000    0.000    0.000    0.000    0.000 
#
# Total GULP energy -357402.304499 kJ/mol
# GULP energy per Si atom -5584.411008 kJ/mol
# Density = 2.236278 g / cm^3
# Si number density = 22.413799 Si / 1000 Ang^3
#
#
#
# Elastic Constant Matrix: (Units=GPa)
#
#
# Indices 1 2 3 4 5 6 
#
# 1 93.9598 46.9902 0.9924 0.0000 0.0000 0.0000
# 2 46.9902 98.4243 2.3931 0.0000 0.0000 0.0000
# 3 0.9924 2.3931 58.6799 0.0000 0.0000 0.0000
# 4 0.0000 0.0000 0.0000 74.1103 0.0000 0.0000
# 5 0.0000 0.0000 0.0000 0.0000 -4.2195 0.0000
# 6 0.0000 0.0000 0.0000 0.0000 0.0000 38.8546
#
#
#
# Elastic Compliance Matrix: (Units=1/GPa)
#
#
# Indices 1 2 3 4 5 6 
#
# 1 0.013981 -0.006676 0.000036 0.000000 0.000000 0.000000
# 2 -0.006676 0.013358 -0.000432 0.000000 0.000000 0.000000
# 3 0.000036 -0.000432 0.017059 0.000000 0.000000 0.000000
# 4 0.000000 0.000000 0.000000 0.013493 0.000000 0.000000
# 5 0.000000 0.000000 0.000000 0.000000 -0.236994 0.000000
# 6 0.000000 0.000000 0.000000 0.000000 0.000000 0.025737
#
#
# Mechanical properties :
#
#
# Convention : Reuss Voigt Hill
#
# Bulk Modulus (GPa) = 33.05370 39.09060 36.07215
# Shear Modulus (GPa) = -38.71834 35.12830 -1.79502
#
# Velocity S-wave (km/s) = -4.16075 3.96316 -0.89588
# Velocity P-wave (km/s) = 2.88156 6.19842 3.88053
#
# Compressibility (1/GPa) = 0.03025380
#
# Stress axis : x y z
#
# Youngs Moduli (GPa) = 71.52517 74.86273 58.62141
#
# Poissons Ratio (x) = 0.49977 -0.00210
# Poissons Ratio (y) = 0.47749 0.02532
# Poissons Ratio (z) = -0.00256 0.03233
#
# Static dielectric constant tensor:
#      x y z
#    x 1.790230 0.000000 0.000000 
#    y 0.000000 1.801190 0.000000 
#    z 0.000000 0.000000 1.853230 
# 
# From -- ./inp_files/6671.got.cif
#   From: 2010.05.17/outbox.cif.g08.bks.cpg/sg55_4_cif.got.tgz:6671.got - 2010.06.03 13:27:54.
