data_PCOD9427998
_publ_section_title
;
Structure prediction by ZEFSAII (Michael W. Deem and Ramdas Pophale) SiO2 
 PCOD9427998
Probable space group: P B A M
;
_chemical_formula_sum "Si O2"
_cell_formula_units_Z 58
_cell_length_a 12.684300
_cell_length_b 8.604514
_cell_length_c 25.485590
_cell_angle_alpha 90.000000
_cell_angle_beta 90.000000
_cell_angle_gamma 90.000000
_cell_volume 2781.554302
_symmetry_space_group_name_H-M "P B A M"
_symmetry_group_IT_number 55
_symmetry_cell_setting 'orthorhombic'
loop_
_space_group_symop_operation_xyz
x,y,z
-x,-y,z
1/2+x,1/2-y,-z
1/2-x,1/2+y,-z
-x,-y,-z
x,y,-z
1/2-x,1/2+y,z
1/2+x,1/2-y,z
loop_
_atom_site_type_symbol
_atom_site_label
_atom_site_fract_x
_atom_site_fract_y
_atom_site_fract_z
Si Si1 0.248377 0.795936 0.280737
Si Si2 0.171386 0.416087 0.562063
Si Si3 0.316615 0.179501 0.943186
Si Si4 0.500000 0.000000 0.000000
Si Si5 0.885582 0.450582 0.338056
Si Si6 0.118011 0.037916 0.222549
Si Si7 0.880323 0.006420 0.899064
Si Si8 0.392326 0.568092 0.562770
O O1 0.160002 0.704502 0.313361
O O2 0.306170 0.916444 0.318428
O O3 0.191784 0.891845 0.235182
O O4 0.331682 0.679161 0.254709
O O5 0.149175 0.435591 0.500000
O O6 0.115738 0.542827 0.598881
O O7 0.295182 0.451153 0.569977
O O8 0.138319 0.242686 0.579626
O O9 0.346333 0.313235 0.902252
O O10 0.209729 0.090791 0.928603
O O11 0.299108 0.260984 0.000000
O O12 0.414900 0.064724 0.954948
O O13 0.000000 0.500000 0.318844
O O14 0.115466 0.059194 0.160016
O O15 0.000000 0.000000 0.240457
O O16 0.000000 0.000000 0.921348
O O17 0.500000 0.500000 0.585927
O O18 0.406033 0.583034 0.500000
#
# Coordination Sequence:
#
# PCOD9427998 Si02
#       8
#     8   8   8   2   8   8   8   8
#     4  10  22  41  63  86 119 152 195 248 306 368
#     4  10  21  37  57  85 119 152 194 239 282 345
#     4  10  23  40  60  88 132 172 213 254 298 360
#     4   8  24  40  60  84 130 182 212 250 302 352
#     4  11  23  39  61  88 115 154 197 236 296 365
#     4  10  21  41  64  91 120 154 197 259 313 358
#     4  11  24  38  65  94 124 163 217 261 315 368
#     4   9  19  36  56  78 111 150 185 227 279 328
#
# _framework density 20.851649999999999
#
# number of rings (size 3 to 8) (size 9 to 14) (size 15 to 20)
#    0.414    1.517    0.000    2.897    1.931    3.586 
#    0.000    6.207    3.034    0.000    0.000    0.000 
#    0.000    0.552    0.000    0.000    0.000    0.000 
#
# Total GULP energy -323239.245285 kJ/mol
# GULP energy per Si atom -5573.090436 kJ/mol
# Density = 2.080419 g / cm^3
# Si number density = 20.851650 Si / 1000 Ang^3
#
#
#
# Elastic Constant Matrix: (Units=GPa)
#
#
# Indices 1 2 3 4 5 6 
#
# 1 65.8775 -9.4656 -7.3040 0.0000 0.0000 0.0000
# 2 -9.4656 30.7208 -10.5422 0.0000 0.0000 0.0000
# 3 -7.3040 -10.5422 38.9600 0.0000 0.0000 0.0000
# 4 0.0000 0.0000 0.0000 23.8028 0.0000 0.0000
# 5 0.0000 0.0000 0.0000 0.0000 16.5768 0.0000
# 6 0.0000 0.0000 0.0000 0.0000 0.0000 21.7056
#
#
#
# Elastic Compliance Matrix: (Units=1/GPa)
#
#
# Indices 1 2 3 4 5 6 
#
# 1 0.016720 0.006865 0.004992 0.000000 0.000000 0.000000
# 2 0.006865 0.038702 0.011759 0.000000 0.000000 0.000000
# 3 0.004992 0.011759 0.029785 0.000000 0.000000 0.000000
# 4 0.000000 0.000000 0.000000 0.042012 0.000000 0.000000
# 5 0.000000 0.000000 0.000000 0.000000 0.060325 0.000000
# 6 0.000000 0.000000 0.000000 0.000000 0.000000 0.046071
#
#
# Mechanical properties :
#
#
# Convention : Reuss Voigt Hill
#
# Bulk Modulus (GPa) = 7.55070 8.99274 8.27172
# Shear Modulus (GPa) = 21.68924 23.27503 22.48214
#
# Velocity S-wave (km/s) = 3.22866 3.34461 3.28715
# Velocity P-wave (km/s) = 4.18665 4.38604 4.28750
#
# Compressibility (1/GPa) = 0.13243796
#
# Stress axis : x y z
#
# Youngs Moduli (GPa) = 59.81037 25.83867 33.57379
#
# Poissons Ratio (x) = -0.17737 -0.16760
# Poissons Ratio (y) = -0.41058 -0.39480
# Poissons Ratio (z) = -0.29857 -0.30384
#
# Static dielectric constant tensor:
#      x y z
#    x 1.795960 0.000000 0.000000 
#    y 0.000000 1.746880 0.000000 
#    z 0.000000 0.000000 1.750160 
# 
# From -- ./inp_files/23954.got.cif
#   From: 2010.05.17/outbox.cif.g08.bks.cpg/sg55_12_cif.got.tgz:23954.got - 2010.06.03 13:27:54.
