data_PCOD9427673
_publ_section_title
;
Structure prediction by ZEFSAII (Michael W. Deem and Ramdas Pophale) SiO2 
 PCOD9427673
Probable space group: P B A M
;
_chemical_formula_sum "Si O2"
_cell_formula_units_Z 32
_cell_length_a 8.864689
_cell_length_b 14.489067
_cell_length_c 11.446938
_cell_angle_alpha 90.000000
_cell_angle_beta 90.000000
_cell_angle_gamma 90.000000
_cell_volume 1470.256998
_symmetry_space_group_name_H-M "P B A M"
_symmetry_group_IT_number 55
_symmetry_cell_setting 'orthorhombic'
loop_
_space_group_symop_operation_xyz
x,y,z
-x,-y,z
1/2+x,1/2-y,-z
1/2-x,1/2+y,-z
-x,-y,-z
x,y,-z
1/2-x,1/2+y,z
1/2+x,1/2-y,z
loop_
_atom_site_type_symbol
_atom_site_label
_atom_site_fract_x
_atom_site_fract_y
_atom_site_fract_z
Si Si1 0.172784 0.535400 0.256491
Si Si2 0.830318 0.470796 0.000000
Si Si3 0.320641 0.701735 0.632592
Si Si4 0.577723 0.601930 0.000000
Si Si5 0.371441 0.352328 0.747329
O O1 0.211448 0.614302 0.347811
O O2 0.293415 0.452303 0.267890
O O3 0.000000 0.500000 0.264875
O O4 0.200785 0.575336 0.124552
O O5 0.750145 0.570023 0.000000
O O6 0.000000 0.500000 0.000000
O O7 0.312753 0.735751 0.500000
O O8 0.489324 0.668871 0.662412
O O9 0.260084 0.779814 0.719879
O O10 0.500000 0.500000 0.000000
O O11 0.558108 0.652588 0.877864
#
# Coordination Sequence:
#
# PCOD9427673 Si02
#       5
#     8   4   8   4   8
#     4  10  21  40  66  94 126 167 215 273 339 399
#     4   8  16  33  59  90 122 152 194 255 321 390
#     4  12  26  42  62  90 128 175 224 268 322 398
#     4  10  20  39  67  98 128 160 208 269 336 402
#     4  11  24  42  65  95 131 172 220 281 337 395
#
# _framework density 21.764904000000001
#
# number of rings (size 3 to 8) (size 9 to 14) (size 15 to 20)
#    0.000    1.500    0.000    6.000    0.000    5.500 
#    0.000    2.500    0.000    0.000    0.000    0.000 
#    0.000    0.000    0.000    0.000    0.000    0.000 
#
# Total GULP energy -178633.143213 kJ/mol
# GULP energy per Si atom -5582.285725 kJ/mol
# Density = 2.171537 g / cm^3
# Si number density = 21.764904 Si / 1000 Ang^3
#
#
#
# Elastic Constant Matrix: (Units=GPa)
#
#
# Indices 1 2 3 4 5 6 
#
# 1 96.0127 7.2702 9.0823 0.0000 0.0000 0.0000
# 2 7.2702 58.0083 26.9448 0.0000 0.0000 0.0000
# 3 9.0823 26.9448 95.1070 0.0000 0.0000 0.0000
# 4 0.0000 0.0000 0.0000 23.4296 0.0000 0.0000
# 5 0.0000 0.0000 0.0000 0.0000 -16.0168 0.0000
# 6 0.0000 0.0000 0.0000 0.0000 0.0000 37.2327
#
#
#
# Elastic Compliance Matrix: (Units=1/GPa)
#
#
# Indices 1 2 3 4 5 6 
#
# 1 0.010559 -0.000985 -0.000729 0.000000 0.000000 0.000000
# 2 -0.000985 0.019943 -0.005556 0.000000 0.000000 0.000000
# 3 -0.000729 -0.005556 0.012158 0.000000 0.000000 0.000000
# 4 0.000000 0.000000 0.000000 0.042681 0.000000 0.000000
# 5 0.000000 0.000000 0.000000 0.000000 -0.062434 0.000000
# 6 0.000000 0.000000 0.000000 0.000000 0.000000 0.026858
#
#
# Mechanical properties :
#
#
# Convention : Reuss Voigt Hill
#
# Bulk Modulus (GPa) = 35.56168 37.30250 36.43209
# Shear Modulus (GPa) = 67.86269 22.65116 45.25692
#
# Velocity S-wave (km/s) = 5.58995 3.22952 4.56494
# Velocity P-wave (km/s) = 7.61826 5.57516 6.67534
#
# Compressibility (1/GPa) = 0.02812016
#
# Stress axis : x y z
#
# Youngs Moduli (GPa) = 94.70742 50.14273 82.24891
#
# Poissons Ratio (x) = 0.04937 0.05999
# Poissons Ratio (y) = 0.09324 0.45698
# Poissons Ratio (z) = 0.06908 0.27860
#
# Static dielectric constant tensor:
#      x y z
#    x 1.715250 0.000000 0.000000 
#    y 0.000000 1.757050 0.000000 
#    z 0.000000 0.000000 1.885870 
# 
# From -- ./inp_files/11732.got.cif
#   From: 2010.05.17/outbox.cif.g08.bks.cpg/sg55_6_cif.got.tgz:11732.got - 2010.06.03 13:27:54.
