data_PCOD9427056
_publ_section_title
;
Structure prediction by ZEFSAII (Michael W. Deem and Ramdas Pophale) SiO2 
 PCOD9427056
Probable space group: P B A M
;
_chemical_formula_sum "Si O2"
_cell_formula_units_Z 56
_cell_length_a 11.840938
_cell_length_b 21.785311
_cell_length_c 11.899121
_cell_angle_alpha 90.000000
_cell_angle_beta 90.000000
_cell_angle_gamma 90.000000
_cell_volume 3069.479605
_symmetry_space_group_name_H-M "P B A M"
_symmetry_group_IT_number 55
_symmetry_cell_setting 'orthorhombic'
loop_
_space_group_symop_operation_xyz
x,y,z
-x,-y,z
1/2+x,1/2-y,-z
1/2-x,1/2+y,-z
-x,-y,-z
x,y,-z
1/2-x,1/2+y,z
1/2+x,1/2-y,z
loop_
_atom_site_type_symbol
_atom_site_label
_atom_site_fract_x
_atom_site_fract_y
_atom_site_fract_z
Si Si1 0.383771 0.677848 0.695789
Si Si2 0.769176 0.116199 0.204720
Si Si3 0.653296 0.048623 0.000000
Si Si4 0.090990 0.319128 0.630527
Si Si5 0.549963 0.567894 0.627267
Si Si6 0.892588 0.410956 0.000000
Si Si7 0.630870 0.836741 0.234437
Si Si8 0.946457 0.212157 0.125922
O O1 0.403721 0.744228 0.637178
O O2 0.457433 0.622055 0.645418
O O3 0.252594 0.660889 0.706295
O O4 0.437628 0.689424 0.818923
O O5 0.704124 0.076421 0.113674
O O6 0.686299 0.155540 0.284530
O O7 0.849221 0.077518 0.286211
O O8 0.853779 0.159520 0.135411
O O9 0.523403 0.069409 0.000000
O O10 0.671496 0.975753 0.000000
O O11 0.107502 0.336278 0.500000
O O12 0.973332 0.346933 0.679473
O O13 0.500000 0.500000 0.641747
O O14 0.592143 0.573624 0.500000
O O15 0.870524 0.375350 0.882280
O O16 0.605571 0.767437 0.196188
O O17 0.966222 0.232901 0.000000
#
# Coordination Sequence:
#
# PCOD9427056 Si02
#       8
#     8   8   4   8   8   4   8   8
#     4  10  23  38  59  93 124 159 201 253 303 369
#     4  11  21  41  63  90 120 159 202 249 306 370
#     4  11  24  41  64  85 124 163 200 255 309 367
#     4  11  23  39  63  92 122 160 204 255 310 367
#     4  10  23  43  64  87 122 168 210 252 301 360
#     4  11  24  39  61  90 123 164 200 252 308 372
#     4  11  22  39  61  92 121 158 203 249 310 364
#     4  10  20  35  58  90 121 153 190 243 308 364
#
# _framework density 18.244135
#
# number of rings (size 3 to 8) (size 9 to 14) (size 15 to 20)
#    0.000    1.429    4.286    0.857    3.000    1.143 
#    0.000    0.357    0.000    0.857    0.000    0.000 
#    0.000    0.000    0.000    0.000    0.000    0.000 
#
# Total GULP energy -312322.698774 kJ/mol
# GULP energy per Si atom -5577.191050 kJ/mol
# Density = 1.820261 g / cm^3
# Si number density = 18.244135 Si / 1000 Ang^3
#
#
#
# Elastic Constant Matrix: (Units=GPa)
#
#
# Indices 1 2 3 4 5 6 
#
# 1 73.0622 6.8290 31.0366 0.0000 0.0000 0.0000
# 2 6.8290 73.9530 27.8448 0.0000 0.0000 0.0000
# 3 31.0366 27.8448 103.0212 0.0000 0.0000 0.0000
# 4 0.0000 0.0000 0.0000 16.8335 0.0000 0.0000
# 5 0.0000 0.0000 0.0000 0.0000 5.1288 0.0000
# 6 0.0000 0.0000 0.0000 0.0000 0.0000 14.3871
#
#
#
# Elastic Compliance Matrix: (Units=1/GPa)
#
#
# Indices 1 2 3 4 5 6 
#
# 1 0.015705 0.000369 -0.004831 0.000000 0.000000 0.000000
# 2 0.000369 0.015063 -0.004182 0.000000 0.000000 0.000000
# 3 -0.004831 -0.004182 0.012293 0.000000 0.000000 0.000000
# 4 0.000000 0.000000 0.000000 0.059405 0.000000 0.000000
# 5 0.000000 0.000000 0.000000 0.000000 0.194977 0.000000
# 6 0.000000 0.000000 0.000000 0.000000 0.000000 0.069507
#
#
# Mechanical properties :
#
#
# Convention : Reuss Voigt Hill
#
# Bulk Modulus (GPa) = 38.80327 42.38412 40.59369
# Shear Modulus (GPa) = 12.72821 19.55828 16.14325
#
# Velocity S-wave (km/s) = 2.64419 3.27774 2.97786
# Velocity P-wave (km/s) = 5.53511 6.13244 5.84142
#
# Compressibility (1/GPa) = 0.02577102
#
# Stress axis : x y z
#
# Youngs Moduli (GPa) = 63.67539 66.38886 81.35027
#
# Poissons Ratio (x) = -0.02448 0.39300
# Poissons Ratio (y) = -0.02348 0.34023
# Poissons Ratio (z) = 0.30761 0.27766
#
# Static dielectric constant tensor:
#      x y z
#    x 1.623560 0.000000 0.000000 
#    y 0.000000 1.617920 0.000000 
#    z 0.000000 0.000000 1.602770 
# 
# From -- ./inp_files/13544.got.cif
#   From: 2010.05.17/outbox.cif.g08.bks.cpg/sg55_7_cif.got.tgz:13544.got - 2010.06.03 13:27:54.
