data_PCOD9427271
_publ_section_title
;
Structure prediction by ZEFSAII (Michael W. Deem and Ramdas Pophale) SiO2 
 PCOD9427271
Probable space group: P B A M
;
_chemical_formula_sum "Si O2"
_cell_formula_units_Z 48
_cell_length_a 10.492419
_cell_length_b 28.790512
_cell_length_c 8.716342
_cell_angle_alpha 90.000000
_cell_angle_beta 90.000000
_cell_angle_gamma 90.000000
_cell_volume 2633.051028
_symmetry_space_group_name_H-M "P B A M"
_symmetry_group_IT_number 55
_symmetry_cell_setting 'orthorhombic'
loop_
_space_group_symop_operation_xyz
x,y,z
-x,-y,z
1/2+x,1/2-y,-z
1/2-x,1/2+y,-z
-x,-y,-z
x,y,-z
1/2-x,1/2+y,z
1/2+x,1/2-y,z
loop_
_atom_site_type_symbol
_atom_site_label
_atom_site_fract_x
_atom_site_fract_y
_atom_site_fract_z
Si Si1 0.489979 0.692682 0.184794
Si Si2 0.747995 0.140773 0.815887
Si Si3 0.641334 0.049237 0.317313
Si Si4 0.642760 0.950145 0.816856
Si Si5 0.243473 0.642622 0.681936
Si Si6 0.494214 0.198756 0.184575
O O1 0.621595 0.666845 0.223747
O O2 0.371052 0.668196 0.264130
O O3 0.498507 0.747041 0.225470
O O4 0.472884 0.690237 0.000000
O O5 0.729578 0.091700 0.733449
O O6 0.626399 0.172992 0.777996
O O7 0.746175 0.133441 0.000000
O O8 0.630262 0.046552 0.500000
O O9 0.500703 0.057982 0.246387
O O10 0.684862 0.999684 0.250837
O O11 0.727846 0.907425 0.761606
O O12 0.637818 0.952307 0.000000
O O13 0.241489 0.636743 0.500000
O O14 0.122767 0.673292 0.734734
O O15 0.475350 0.195458 0.000000
#
# Coordination Sequence:
#
# PCOD9427271 Si02
#       6
#     8   8   8   8   8   8
#     4  10  22  40  61  86 118 160 204 244 287 345
#     4  10  20  36  60  88 118 155 201 244 288 347
#     4  11  21  35  58  89 121 149 187 242 301 353
#     4  11  21  37  61  86 114 151 198 244 286 346
#     4  12  24  38  58  89 124 157 193 243 302 351
#     4  10  20  38  64  88 113 154 205 249 286 342
#
# _framework density 18.229803
#
# number of rings (size 3 to 8) (size 9 to 14) (size 15 to 20)
#    0.000    1.333    1.667    6.500    0.000    4.000 
#    0.000    2.500    0.000    5.000    0.000    0.000 
#    0.000    0.000    0.000    0.000    0.000    0.000 
#
# Total GULP energy -268373.880379 kJ/mol
# GULP energy per Si atom -5591.122508 kJ/mol
# Density = 1.818831 g / cm^3
# Si number density = 18.229803 Si / 1000 Ang^3
#
#
#
# Elastic Constant Matrix: (Units=GPa)
#
#
# Indices 1 2 3 4 5 6 
#
# 1 112.9021 67.5672 63.2850 0.0000 0.0000 0.0000
# 2 67.5672 164.9235 75.5932 0.0000 0.0000 0.0000
# 3 63.2850 75.5932 106.5161 0.0000 0.0000 0.0000
# 4 0.0000 0.0000 0.0000 -16.9293 0.0000 0.0000
# 5 0.0000 0.0000 0.0000 0.0000 -38.9116 0.0000
# 6 0.0000 0.0000 0.0000 0.0000 0.0000 -3.3397
#
#
#
# Elastic Compliance Matrix: (Units=1/GPa)
#
#
# Indices 1 2 3 4 5 6 
#
# 1 0.014146 -0.002880 -0.006361 0.000000 0.000000 0.000000
# 2 -0.002880 0.009573 -0.005083 0.000000 0.000000 0.000000
# 3 -0.006361 -0.005083 0.016775 0.000000 0.000000 0.000000
# 4 0.000000 0.000000 0.000000 -0.059069 0.000000 0.000000
# 5 0.000000 0.000000 0.000000 0.000000 -0.025699 0.000000
# 6 0.000000 0.000000 0.000000 0.000000 0.000000 -0.299426
#
#
# Mechanical properties :
#
#
# Convention : Reuss Voigt Hill
#
# Bulk Modulus (GPa) = 84.41213 88.58141 86.49677
# Shear Modulus (GPa) = -16.07180 0.02362 -8.02409
#
# Velocity S-wave (km/s) = -2.97243 0.11396 -2.10028
# Velocity P-wave (km/s) = 5.88426 6.97957 6.45519
#
# Compressibility (1/GPa) = 0.01184664
#
# Stress axis : x y z
#
# Youngs Moduli (GPa) = 70.68998 104.46033 59.61380
#
# Poissons Ratio (x) = 0.30085 0.37920
# Poissons Ratio (y) = 0.20359 0.30300
# Poissons Ratio (z) = 0.44965 0.53094
#
# Static dielectric constant tensor:
#      x y z
#    x 1.592880 0.000000 0.000000 
#    y 0.000000 1.617850 0.000000 
#    z 0.000000 0.000000 1.608580 
# 
# From -- ./inp_files/2865.got.cif
#   From: 2010.05.17/outbox.cif.g08.bks.cpg/sg55_2_cif.got.tgz:2865.got - 2010.06.03 13:27:54.
