data_PCOD9427439
_publ_section_title
;
Structure prediction by ZEFSAII (Michael W. Deem and Ramdas Pophale) SiO2 
 PCOD9427439
Probable space group: P B A M
;
_chemical_formula_sum "Si O2"
_cell_formula_units_Z 48
_cell_length_a 17.037009
_cell_length_b 19.490573
_cell_length_c 7.552015
_cell_angle_alpha 90.000000
_cell_angle_beta 90.000000
_cell_angle_gamma 90.000000
_cell_volume 2507.730164
_symmetry_space_group_name_H-M "P B A M"
_symmetry_group_IT_number 55
_symmetry_cell_setting 'orthorhombic'
loop_
_space_group_symop_operation_xyz
x,y,z
-x,-y,z
1/2+x,1/2-y,-z
1/2-x,1/2+y,-z
-x,-y,-z
x,y,-z
1/2-x,1/2+y,z
1/2+x,1/2-y,z
loop_
_atom_site_type_symbol
_atom_site_label
_atom_site_fract_x
_atom_site_fract_y
_atom_site_fract_z
Si Si1 0.261089 0.554138 0.285498
Si Si2 0.436181 0.400521 0.000000
Si Si3 0.013254 0.423286 0.204616
Si Si4 0.659361 0.682026 0.284961
Si Si5 0.632422 0.836360 0.705387
Si Si6 0.390287 0.560486 0.000000
Si Si7 0.192369 0.405162 0.287997
O O1 0.271830 0.556338 0.500000
O O2 0.192568 0.606308 0.227410
O O3 0.338013 0.572196 0.174639
O O4 0.232687 0.477364 0.237735
O O5 0.399164 0.365648 0.173959
O O6 0.413198 0.480310 0.000000
O O7 0.530093 0.396418 0.000000
O O8 0.954697 0.367131 0.283114
O O9 0.000000 0.500000 0.282498
O O10 0.104165 0.403055 0.217158
O O11 0.989927 0.427565 0.000000
O O12 0.648917 0.675579 0.500000
O O13 0.644012 0.759961 0.224037
O O14 0.747319 0.655426 0.241875
O O15 0.652930 0.829375 0.500000
O O16 0.184684 0.405734 0.500000
#
# Coordination Sequence:
#
# PCOD9427439 Si02
#       7
#     8   4   8   8   8   4   8
#     4  10  21  38  64  92 122 158 202 256 308 364
#     4  11  24  41  64  89 117 164 204 259 307 363
#     4  11  23  34  56  93 128 158 200 256 307 365
#     4  10  23  43  64  88 123 166 208 252 311 372
#     4  10  22  41  62  87 124 165 202 252 310 368
#     4  11  24  39  64  92 119 153 213 259 307 358
#     4  10  20  37  61  87 119 161 203 246 304 367
#
# _framework density 19.140815
#
# number of rings (size 3 to 8) (size 9 to 14) (size 15 to 20)
#    0.000    1.667    3.333    0.500    4.667    1.333 
#    3.000    1.667    0.000    0.000    0.000    0.000 
#    0.000    0.000    0.000    0.000    0.000    0.000 
#
# Total GULP energy -267891.592675 kJ/mol
# GULP energy per Si atom -5581.074847 kJ/mol
# Density = 1.909725 g / cm^3
# Si number density = 19.140815 Si / 1000 Ang^3
#
#
#
# Elastic Constant Matrix: (Units=GPa)
#
#
# Indices 1 2 3 4 5 6 
#
# 1 147.6957 51.8079 25.6321 0.0000 0.0000 0.0000
# 2 51.8079 109.4740 16.3614 0.0000 0.0000 0.0000
# 3 25.6321 16.3614 60.7291 0.0000 0.0000 0.0000
# 4 0.0000 0.0000 0.0000 9.8351 0.0000 0.0000
# 5 0.0000 0.0000 0.0000 0.0000 38.7377 0.0000
# 6 0.0000 0.0000 0.0000 0.0000 0.0000 26.9062
#
#
#
# Elastic Compliance Matrix: (Units=1/GPa)
#
#
# Indices 1 2 3 4 5 6 
#
# 1 0.008497 -0.003631 -0.002608 0.000000 0.000000 0.000000
# 2 -0.003631 0.011070 -0.001450 0.000000 0.000000 0.000000
# 3 -0.002608 -0.001450 0.017958 0.000000 0.000000 0.000000
# 4 0.000000 0.000000 0.000000 0.101677 0.000000 0.000000
# 5 0.000000 0.000000 0.000000 0.000000 0.025815 0.000000
# 6 0.000000 0.000000 0.000000 0.000000 0.000000 0.037166
#
#
# Mechanical properties :
#
#
# Convention : Reuss Voigt Hill
#
# Bulk Modulus (GPa) = 45.15366 56.16684 50.66025
# Shear Modulus (GPa) = 22.22785 30.03562 26.13173
#
# Velocity S-wave (km/s) = 3.41145 3.96560 3.69892
# Velocity P-wave (km/s) = 6.25770 7.09758 6.69083
#
# Compressibility (1/GPa) = 0.02214660
#
# Stress axis : x y z
#
# Youngs Moduli (GPa) = 117.68708 90.33586 55.68574
#
# Poissons Ratio (x) = 0.32805 0.14523
# Poissons Ratio (y) = 0.42737 0.08072
# Poissons Ratio (z) = 0.30693 0.13096
#
# Static dielectric constant tensor:
#      x y z
#    x 1.639210 0.000000 0.000000 
#    y 0.000000 1.679790 0.000000 
#    z 0.000000 0.000000 1.689120 
# 
# From -- ./inp_files/5708.got.cif
#   From: 2010.05.17/outbox.cif.g08.bks.cpg/sg55_3_cif.got.tgz:5708.got - 2010.06.03 13:27:54.
