data_PCOD9427066
_publ_section_title
;
Structure prediction by ZEFSAII (Michael W. Deem and Ramdas Pophale) SiO2 
 PCOD9427066
Probable space group: P B A M
;
_chemical_formula_sum "Si O2"
_cell_formula_units_Z 64
_cell_length_a 15.192000
_cell_length_b 12.048984
_cell_length_c 15.146734
_cell_angle_alpha 90.000000
_cell_angle_beta 90.000000
_cell_angle_gamma 90.000000
_cell_volume 2772.581863
_symmetry_space_group_name_H-M "P B A M"
_symmetry_group_IT_number 55
_symmetry_cell_setting 'orthorhombic'
loop_
_space_group_symop_operation_xyz
x,y,z
-x,-y,z
1/2+x,1/2-y,-z
1/2-x,1/2+y,-z
-x,-y,-z
x,y,-z
1/2-x,1/2+y,z
1/2+x,1/2-y,z
loop_
_atom_site_type_symbol
_atom_site_label
_atom_site_fract_x
_atom_site_fract_y
_atom_site_fract_z
Si Si1 0.887719 0.678826 0.779287
Si Si2 0.549728 0.118085 0.403218
Si Si3 0.629068 0.749699 0.597636
Si Si4 0.309061 0.230019 0.790173
Si Si5 0.837652 0.062468 0.097883
Si Si6 0.106169 0.010163 0.404943
Si Si7 0.862596 0.485240 0.099405
Si Si8 0.424992 0.591650 0.776027
O O1 0.887336 0.633176 0.679731
O O2 0.794597 0.739104 0.798903
O O3 0.912712 0.578822 0.843984
O O4 0.954199 0.781984 0.783726
O O5 0.592621 0.123225 0.500000
O O6 0.473155 0.211452 0.400083
O O7 0.500000 0.000000 0.396149
O O8 0.661443 0.786377 0.500000
O O9 0.671574 0.792705 0.687529
O O10 0.637699 0.616631 0.602170
O O11 0.352987 0.340685 0.831334
O O12 0.344109 0.126855 0.846867
O O13 0.733800 0.041682 0.091930
O O14 0.875658 0.949174 0.136898
O O15 0.871622 0.089023 0.000000
O O16 0.135314 0.057445 0.500000
O O17 0.128311 0.076988 0.316249
O O18 0.000000 0.000000 0.409409
O O19 0.895427 0.465595 0.000000
O O20 0.500000 0.500000 0.768204
#
# Coordination Sequence:
#
# PCOD9427066 Si02
#       8
#     8   8   8   8   8   8   8   8
#     4  11  24  38  63  97 127 164 215 270 319 379
#     4  10  21  39  61  87 125 176 222 257 312 387
#     4  10  20  35  59  89 124 166 207 249 308 379
#     4  11  21  39  64  91 126 159 211 265 316 369
#     4  10  21  37  59  87 116 157 205 251 311 378
#     4   9  17  31  53  82 114 152 196 239 292 362
#     4  10  22  42  64  86 118 164 212 259 319 387
#     4  11  21  37  60  90 127 159 202 262 322 384
#
# _framework density 23.083176999999999
#
# number of rings (size 3 to 8) (size 9 to 14) (size 15 to 20)
#    0.000    1.750    2.500    2.625    0.000    3.250 
#    0.000    0.000    0.000    1.875    0.000    0.000 
#    0.000    0.000    0.000    0.000    0.000    0.000 
#
# Total GULP energy -357315.355012 kJ/mol
# GULP energy per Si atom -5583.052422 kJ/mol
# Density = 2.303064 g / cm^3
# Si number density = 23.083177 Si / 1000 Ang^3
#
#
#
# Elastic Constant Matrix: (Units=GPa)
#
#
# Indices 1 2 3 4 5 6 
#
# 1 19.3404 9.5093 20.7469 0.0000 0.0000 0.0000
# 2 9.5093 118.9317 60.8730 0.0000 0.0000 0.0000
# 3 20.7469 60.8730 165.7335 0.0000 0.0000 0.0000
# 4 0.0000 0.0000 0.0000 -71.9868 0.0000 0.0000
# 5 0.0000 0.0000 0.0000 0.0000 34.9813 0.0000
# 6 0.0000 0.0000 0.0000 0.0000 0.0000 25.1563
#
#
#
# Elastic Compliance Matrix: (Units=1/GPa)
#
#
# Indices 1 2 3 4 5 6 
#
# 1 0.059858 -0.001171 -0.007063 0.000000 0.000000 0.000000
# 2 -0.001171 0.010378 -0.003665 0.000000 0.000000 0.000000
# 3 -0.007063 -0.003665 0.008264 0.000000 0.000000 0.000000
# 4 0.000000 0.000000 0.000000 -0.013891 0.000000 0.000000
# 5 0.000000 0.000000 0.000000 0.000000 0.028587 0.000000
# 6 0.000000 0.000000 0.000000 0.000000 0.000000 0.039751
#
#
# Mechanical properties :
#
#
# Convention : Reuss Voigt Hill
#
# Bulk Modulus (GPa) = 18.28106 54.02932 36.15519
# Shear Modulus (GPa) = 28.57503 11.82194 20.19848
#
# Velocity S-wave (km/s) = 3.52222 2.26552 2.96130
# Velocity P-wave (km/s) = 4.94755 5.50460 5.23349
#
# Compressibility (1/GPa) = 0.05470142
#
# Stress axis : x y z
#
# Youngs Moduli (GPa) = 16.70632 96.36022 121.00491
#
# Poissons Ratio (x) = 0.11282 0.85466
# Poissons Ratio (y) = 0.01956 0.44350
# Poissons Ratio (z) = 0.11800 0.35317
#
# Static dielectric constant tensor:
#      x y z
#    x 1.940860 0.000000 0.000000 
#    y 0.000000 1.870880 0.000000 
#    z 0.000000 0.000000 1.940680 
# 
# From -- ./inp_files/19485.got.cif
#   From: 2010.05.17/outbox.cif.g08.bks.cpg/sg55_10_cif.got.tgz:19485.got - 2010.06.03 13:27:54.
