data_PCOD9427855
_publ_section_title
;
Structure prediction by ZEFSAII (Michael W. Deem and Ramdas Pophale) SiO2 
 PCOD9427855
Probable space group: P B A M
;
_chemical_formula_sum "Si O2"
_cell_formula_units_Z 48
_cell_length_a 5.379908
_cell_length_b 17.374088
_cell_length_c 22.197340
_cell_angle_alpha 90.000000
_cell_angle_beta 90.000000
_cell_angle_gamma 90.000000
_cell_volume 2074.807457
_symmetry_space_group_name_H-M "P B A M"
_symmetry_group_IT_number 55
_symmetry_cell_setting 'orthorhombic'
loop_
_space_group_symop_operation_xyz
x,y,z
-x,-y,z
1/2+x,1/2-y,-z
1/2-x,1/2+y,-z
-x,-y,-z
x,y,-z
1/2-x,1/2+y,z
1/2+x,1/2-y,z
loop_
_atom_site_type_symbol
_atom_site_label
_atom_site_fract_x
_atom_site_fract_y
_atom_site_fract_z
Si Si1 0.251671 0.047892 0.429121
Si Si2 0.684673 0.289168 0.627679
Si Si3 0.628526 0.712177 0.927350
Si Si4 0.250894 0.527233 0.765658
Si Si5 0.188839 0.208191 0.227389
Si Si6 0.250446 0.461250 0.100260
O O1 0.260961 0.069667 0.500000
O O2 0.240120 0.124054 0.389816
O O3 0.500000 0.000000 0.416275
O O4 0.000000 0.000000 0.420063
O O5 0.415031 0.262306 0.605108
O O6 0.680195 0.283320 0.700066
O O7 0.343082 0.727244 0.908367
O O8 0.730132 0.628966 0.909391
O O9 0.622043 0.714453 0.000000
O O10 0.500000 0.500000 0.732560
O O11 0.262758 0.617344 0.782185
O O12 0.250018 0.479055 0.828198
O O13 0.000000 0.500000 0.733562
O O14 0.421382 0.260081 0.206179
O O15 0.500000 0.500000 0.075169
O O16 0.000000 0.500000 0.075758
#
# Coordination Sequence:
#
# PCOD9427855 Si02
#       6
#     8   8   8   8   8   8
#     4  10  21  36  54  80 113 147 183 223 273 331
#     4  10  21  36  56  82 109 142 185 229 276 325
#     4  10  21  38  60  85 113 147 185 225 272 323
#     4  10  21  38  56  81 112 143 184 225 272 329
#     4  10  21  38  58  81 110 143 183 231 277 326
#     4  10  21  38  56  83 115 144 182 225 270 324
#
# _framework density 23.134678999999998
#
# number of rings (size 3 to 8) (size 9 to 14) (size 15 to 20)
#    0.000    2.000    0.000    3.000    0.000    2.667 
#    0.000   20.000    0.000    0.000    0.000    0.000 
#    0.000    0.000    0.000    0.000    0.000    0.000 
#
# Total GULP energy -268609.551688 kJ/mol
# GULP energy per Si atom -5596.032327 kJ/mol
# Density = 2.308202 g / cm^3
# Si number density = 23.134679 Si / 1000 Ang^3
#
#
#
# Elastic Constant Matrix: (Units=GPa)
#
#
# Indices 1 2 3 4 5 6 
#
# 1 207.3414 51.6336 24.9308 0.0000 0.0000 0.0000
# 2 51.6336 85.3481 -11.5011 0.0000 0.0000 0.0000
# 3 24.9308 -11.5011 27.6763 0.0000 0.0000 0.0000
# 4 0.0000 0.0000 0.0000 62.4920 0.0000 0.0000
# 5 0.0000 0.0000 0.0000 0.0000 93.9041 0.0000
# 6 0.0000 0.0000 0.0000 0.0000 0.0000 43.1795
#
#
#
# Elastic Compliance Matrix: (Units=1/GPa)
#
#
# Indices 1 2 3 4 5 6 
#
# 1 0.007290 -0.005609 -0.008897 0.000000 0.000000 0.000000
# 2 -0.005609 0.016728 0.012004 0.000000 0.000000 0.000000
# 3 -0.008897 0.012004 0.049135 0.000000 0.000000 0.000000
# 4 0.000000 0.000000 0.000000 0.016002 0.000000 0.000000
# 5 0.000000 0.000000 0.000000 0.000000 0.010649 0.000000
# 6 0.000000 0.000000 0.000000 0.000000 0.000000 0.023159
#
#
# Mechanical properties :
#
#
# Convention : Reuss Voigt Hill
#
# Bulk Modulus (GPa) = 14.67410 50.05474 32.36442
# Shear Modulus (GPa) = 33.18222 56.93529 45.05876
#
# Velocity S-wave (km/s) = 3.79133 4.96627 4.41803
# Velocity P-wave (km/s) = 5.05196 7.38703 6.32813
#
# Compressibility (1/GPa) = 0.06814728
#
# Stress axis : x y z
#
# Youngs Moduli (GPa) = 137.18243 59.78145 20.35210
#
# Poissons Ratio (x) = 0.33531 0.18108
# Poissons Ratio (y) = 0.76945 -0.24430
# Poissons Ratio (z) = 1.22055 -0.71761
#
# Static dielectric constant tensor:
#      x y z
#    x 1.977910 0.000000 0.000000 
#    y 0.000000 1.799340 0.000000 
#    z 0.000000 0.000000 1.906910 
# 
# From -- ./inp_files/23808.got.cif
#   From: 2010.05.17/outbox.cif.g08.bks.cpg/sg55_12_cif.got.tgz:23808.got - 2010.06.03 13:27:54.
