data_PCOD9427994
_publ_section_title
;
Structure prediction by ZEFSAII (Michael W. Deem and Ramdas Pophale) SiO2 
 PCOD9427994
Probable space group: P B A M
;
_chemical_formula_sum "Si O2"
_cell_formula_units_Z 56
_cell_length_a 13.947224
_cell_length_b 21.064413
_cell_length_c 8.681718
_cell_angle_alpha 90.000000
_cell_angle_beta 90.000000
_cell_angle_gamma 90.000000
_cell_volume 2550.602683
_symmetry_space_group_name_H-M "P B A M"
_symmetry_group_IT_number 55
_symmetry_cell_setting 'orthorhombic'
loop_
_space_group_symop_operation_xyz
x,y,z
-x,-y,z
1/2+x,1/2-y,-z
1/2-x,1/2+y,-z
-x,-y,-z
x,y,-z
1/2-x,1/2+y,z
1/2+x,1/2-y,z
loop_
_atom_site_type_symbol
_atom_site_label
_atom_site_fract_x
_atom_site_fract_y
_atom_site_fract_z
Si Si1 0.930954 0.086726 0.179192
Si Si2 0.380535 0.546944 0.320824
Si Si3 0.256815 0.874239 0.676629
Si Si4 0.377488 0.743728 0.325210
Si Si5 0.750540 0.856459 0.179220
Si Si6 0.070068 0.444530 0.821058
Si Si7 0.955012 0.311449 0.178706
O O1 0.840872 0.129426 0.226942
O O2 0.027806 0.091158 0.278681
O O3 0.893725 0.015544 0.217928
O O4 0.954107 0.093554 0.000000
O O5 0.383841 0.530547 0.500000
O O6 0.284412 0.583220 0.275355
O O7 0.231300 0.887721 0.500000
O O8 0.315075 0.808422 0.683044
O O9 0.330636 0.928211 0.736360
O O10 0.371001 0.718728 0.500000
O O11 0.331970 0.695861 0.204528
O O12 0.484760 0.762958 0.280236
O O13 0.651852 0.825280 0.233579
O O14 0.739730 0.873515 0.000000
O O15 0.000000 0.500000 0.760166
O O16 0.009821 0.379097 0.817871
O O17 0.091909 0.460004 0.000000
O O18 0.952784 0.290214 0.000000
#
# Coordination Sequence:
#
# PCOD9427994 Si02
#       7
#     8   8   8   8   8   8   8
#     4  11  22  39  62  87 119 158 200 246 295 355
#     4  11  23  40  60  87 121 154 194 246 301 356
#     4  10  21  37  57  84 116 155 198 245 299 355
#     4  10  22  40  60  84 118 156 199 249 298 350
#     4  11  23  39  62  89 119 158 201 245 297 358
#     4   9  18  33  55  84 115 151 190 236 293 357
#     4   9  20  38  58  84 118 152 193 243 293 350
#
# _framework density 21.955594000000001
#
# number of rings (size 3 to 8) (size 9 to 14) (size 15 to 20)
#    0.000    1.857    0.000    4.714    2.000    4.286 
#    0.000    2.857    0.000    0.000    0.000    0.000 
#    0.000    0.000    0.000    0.000    0.000    0.000 
#
# Total GULP energy -313131.546980 kJ/mol
# GULP energy per Si atom -5591.634768 kJ/mol
# Density = 2.190562 g / cm^3
# Si number density = 21.955594 Si / 1000 Ang^3
#
#
#
# Elastic Constant Matrix: (Units=GPa)
#
#
# Indices 1 2 3 4 5 6 
#
# 1 81.3432 3.4633 -4.6225 0.0000 0.0000 0.0000
# 2 3.4633 16.1877 -1.3657 0.0000 0.0000 0.0000
# 3 -4.6225 -1.3657 45.0425 0.0000 0.0000 0.0000
# 4 0.0000 0.0000 0.0000 19.6117 0.0000 0.0000
# 5 0.0000 0.0000 0.0000 0.0000 29.1435 0.0000
# 6 0.0000 0.0000 0.0000 0.0000 0.0000 20.4476
#
#
#
# Elastic Compliance Matrix: (Units=1/GPa)
#
#
# Indices 1 2 3 4 5 6 
#
# 1 0.012471 -0.002567 0.001202 0.000000 0.000000 0.000000
# 2 -0.002567 0.062462 0.001630 0.000000 0.000000 0.000000
# 3 0.001202 0.001630 0.022374 0.000000 0.000000 0.000000
# 4 0.000000 0.000000 0.000000 0.050990 0.000000 0.000000
# 5 0.000000 0.000000 0.000000 0.000000 0.034313 0.000000
# 6 0.000000 0.000000 0.000000 0.000000 0.000000 0.048905
#
#
# Mechanical properties :
#
#
# Convention : Reuss Voigt Hill
#
# Bulk Modulus (GPa) = 10.22091 15.28041 12.75066
# Shear Modulus (GPa) = 18.96833 23.51377 21.24105
#
# Velocity S-wave (km/s) = 2.94248 3.27612 3.11377
# Velocity P-wave (km/s) = 4.02611 4.61361 4.32984
#
# Compressibility (1/GPa) = 0.09783866
#
# Stress axis : x y z
#
# Youngs Moduli (GPa) = 80.18489 16.00972 44.69469
#
# Poissons Ratio (x) = 0.04109 -0.05372
# Poissons Ratio (y) = 0.20581 -0.07287
# Poissons Ratio (z) = -0.09638 -0.02610
#
# Static dielectric constant tensor:
#      x y z
#    x 1.809150 0.000000 0.000000 
#    y 0.000000 1.850030 0.000000 
#    z 0.000000 0.000000 1.753570 
# 
# From -- ./inp_files/6183.got.cif
#   From: 2010.05.17/outbox.cif.g08.bks.cpg/sg55_4_cif.got.tgz:6183.got - 2010.06.03 13:27:54.
