data_PCOD9427457
_publ_section_title
;
Structure prediction by ZEFSAII (Michael W. Deem and Ramdas Pophale) SiO2 
 PCOD9427457
Probable space group: P B A M
;
_chemical_formula_sum "Si O2"
_cell_formula_units_Z 64
_cell_length_a 21.286616
_cell_length_b 9.469654
_cell_length_c 16.857152
_cell_angle_alpha 90.000000
_cell_angle_beta 90.000000
_cell_angle_gamma 90.000000
_cell_volume 3398.012247
_symmetry_space_group_name_H-M "P B A M"
_symmetry_group_IT_number 55
_symmetry_cell_setting 'orthorhombic'
loop_
_space_group_symop_operation_xyz
x,y,z
-x,-y,z
1/2+x,1/2-y,-z
1/2-x,1/2+y,-z
-x,-y,-z
x,y,-z
1/2-x,1/2+y,z
1/2+x,1/2-y,z
loop_
_atom_site_type_symbol
_atom_site_label
_atom_site_fract_x
_atom_site_fract_y
_atom_site_fract_z
Si Si1 0.929403 0.832687 0.403889
Si Si2 0.561426 0.084345 0.904301
Si Si3 0.801962 0.914142 0.093448
Si Si4 0.192863 0.659476 0.595417
Si Si5 0.441183 0.588054 0.096450
Si Si6 0.806816 0.602945 0.157819
Si Si7 0.311005 0.839397 0.657235
Si Si8 0.927783 0.160902 0.596377
O O1 0.926252 0.824165 0.500000
O O2 0.876291 0.732762 0.368624
O O3 0.001231 0.797693 0.379426
O O4 0.917373 0.996754 0.381445
O O5 0.552794 0.248138 0.882463
O O6 0.626506 0.035693 0.866361
O O7 0.500000 0.000000 0.879805
O O8 0.567275 0.074975 0.000000
O O9 0.871757 0.960622 0.120628
O O10 0.798737 0.745679 0.106293
O O11 0.748682 0.995034 0.140538
O O12 0.795099 0.944299 0.000000
O O13 0.194263 0.663020 0.500000
O O14 0.253286 0.744350 0.626534
O O15 0.193816 0.497523 0.622825
O O16 0.128839 0.738505 0.622773
O O17 0.500000 0.500000 0.126912
O O18 0.441772 0.581011 0.000000
O O19 0.808025 0.649469 0.248388
O O20 0.927953 0.163547 0.500000
#
# Coordination Sequence:
#
# PCOD9427457 Si02
#       8
#     8   8   8   8   8   8   8   8
#     4   9  17  35  60  86 111 151 199 246 296 350
#     4   9  18  35  58  79 106 146 191 237 280 342
#     4  10  20  37  62  83 110 151 195 242 286 349
#     4  11  22  38  58  85 112 156 208 246 288 352
#     4   8  15  29  52  82 107 131 175 233 278 319
#     4  11  23  39  55  85 122 150 191 240 302 356
#     4  12  24  37  57  83 123 160 186 250 305 358
#     4   8  17  34  60  86 111 141 196 258 291 333
#
# _framework density 18.834538999999999
#
# number of rings (size 3 to 8) (size 9 to 14) (size 15 to 20)
#    0.000    2.250    0.000    5.250    0.000    2.500 
#    2.250    4.375   13.750    0.000    0.000    0.000 
#    0.000    0.000    0.000    0.000    0.000    0.000 
#
# Total GULP energy -357245.311444 kJ/mol
# GULP energy per Si atom -5581.957991 kJ/mol
# Density = 1.879167 g / cm^3
# Si number density = 18.834539 Si / 1000 Ang^3
#
#
#
# Elastic Constant Matrix: (Units=GPa)
#
#
# Indices 1 2 3 4 5 6 
#
# 1 189.4030 98.4119 34.9622 0.0000 0.0000 0.0000
# 2 98.4119 93.1208 20.3345 0.0000 0.0000 0.0000
# 3 34.9622 20.3345 46.9596 0.0000 0.0000 0.0000
# 4 0.0000 0.0000 0.0000 9.3035 0.0000 0.0000
# 5 0.0000 0.0000 0.0000 0.0000 -20.6113 0.0000
# 6 0.0000 0.0000 0.0000 0.0000 0.0000 46.0087
#
#
#
# Elastic Compliance Matrix: (Units=1/GPa)
#
#
# Indices 1 2 3 4 5 6 
#
# 1 0.012326 -0.012173 -0.003905 0.000000 0.000000 0.000000
# 2 -0.012173 0.023883 -0.001279 0.000000 0.000000 0.000000
# 3 -0.003905 -0.001279 0.024756 0.000000 0.000000 0.000000
# 4 0.000000 0.000000 0.000000 0.107487 0.000000 0.000000
# 5 0.000000 0.000000 0.000000 0.000000 -0.048517 0.000000
# 6 0.000000 0.000000 0.000000 0.000000 0.000000 0.021735
#
#
# Mechanical properties :
#
#
# Convention : Reuss Voigt Hill
#
# Bulk Modulus (GPa) = 38.09481 70.76675 54.43078
# Shear Modulus (GPa) = 27.00740 18.65849 22.83295
#
# Velocity S-wave (km/s) = 3.79083 3.15088 3.48557
# Velocity P-wave (km/s) = 6.27937 7.13385 6.72021
#
# Compressibility (1/GPa) = 0.02625029
#
# Stress axis : x y z
#
# Youngs Moduli (GPa) = 81.13054 41.87086 40.39382
#
# Poissons Ratio (x) = 0.50971 0.15776
# Poissons Ratio (y) = 0.98763 0.05165
# Poissons Ratio (z) = 0.31685 0.05353
#
# Static dielectric constant tensor:
#      x y z
#    x 1.663730 0.000000 0.000000 
#    y 0.000000 1.638010 0.000000 
#    z 0.000000 0.000000 1.638470 
# 
# From -- ./inp_files/21960.got.cif
#   From: 2010.05.17/outbox.cif.g08.bks.cpg/sg55_11_cif.got.tgz:21960.got - 2010.06.03 13:27:54.
