data_PCOD9427344
_publ_section_title
;
Structure prediction by ZEFSAII (Michael W. Deem and Ramdas Pophale) SiO2 
 PCOD9427344
Probable space group: P B A M
;
_chemical_formula_sum "Si O2"
_cell_formula_units_Z 48
_cell_length_a 9.108199
_cell_length_b 17.027740
_cell_length_c 14.073745
_cell_angle_alpha 90.000000
_cell_angle_beta 90.000000
_cell_angle_gamma 90.000000
_cell_volume 2182.725885
_symmetry_space_group_name_H-M "P B A M"
_symmetry_group_IT_number 55
_symmetry_cell_setting 'orthorhombic'
loop_
_space_group_symop_operation_xyz
x,y,z
-x,-y,z
1/2+x,1/2-y,-z
1/2-x,1/2+y,-z
-x,-y,-z
x,y,-z
1/2-x,1/2+y,z
1/2+x,1/2-y,z
loop_
_atom_site_type_symbol
_atom_site_label
_atom_site_fract_x
_atom_site_fract_y
_atom_site_fract_z
Si Si1 0.828903 0.875373 0.820822
Si Si2 0.414626 0.197099 0.318661
Si Si3 0.671386 0.484525 0.000000
Si Si4 0.364089 0.363192 0.273961
Si Si5 0.891991 0.567339 0.608088
Si Si6 0.430312 0.913879 0.000000
Si Si7 0.868025 0.706347 0.148158
O O1 0.709356 0.850707 0.740353
O O2 0.850295 0.795507 0.883616
O O3 0.978322 0.893819 0.761383
O O4 0.791162 0.940094 0.900457
O O5 0.367468 0.285897 0.343254
O O6 0.500070 0.142968 0.392247
O O7 0.542692 0.215118 0.244124
O O8 0.500000 0.500000 0.000000
O O9 0.758700 0.565567 0.000000
O O10 0.249201 0.421340 0.324550
O O11 0.287046 0.329771 0.178591
O O12 0.847448 0.548725 0.500000
O O13 0.000000 0.500000 0.646250
O O14 0.456674 0.856579 0.912440
O O15 0.500000 0.000000 0.000000
#
# Coordination Sequence:
#
# PCOD9427344 Si02
#       7
#     8   8   4   8   8   4   8
#     4  10  20  37  57  79 111 151 193 236 285 331
#     4   9  19  36  60  85 108 145 194 238 283 342
#     4  12  25  34  47  80 118 148 188 235 279 323
#     4   9  19  37  60  83 109 147 193 236 284 342
#     4  10  22  40  61  87 118 150 183 228 295 365
#     4  12  23  34  51  80 112 148 199 241 277 333
#     4   9  19  36  55  75 107 150 191 234 286 339
#
# _framework density 21.990850999999999
#
# number of rings (size 3 to 8) (size 9 to 14) (size 15 to 20)
#    0.000    2.167    0.000    3.500    0.000    7.333 
#    0.000    7.500    0.000    2.000    0.000    0.000 
#    0.000    0.000    0.000    0.000    0.000    0.000 
#
# Total GULP energy -267444.905767 kJ/mol
# GULP energy per Si atom -5571.768870 kJ/mol
# Density = 2.194080 g / cm^3
# Si number density = 21.990851 Si / 1000 Ang^3
#
#
#
# Elastic Constant Matrix: (Units=GPa)
#
#
# Indices 1 2 3 4 5 6 
#
# 1 87.5270 -11.4154 14.4253 0.0000 0.0000 0.0000
# 2 -11.4154 54.1418 14.1883 0.0000 0.0000 0.0000
# 3 14.4253 14.1883 47.4275 0.0000 0.0000 0.0000
# 4 0.0000 0.0000 0.0000 18.7739 0.0000 0.0000
# 5 0.0000 0.0000 0.0000 0.0000 11.2806 0.0000
# 6 0.0000 0.0000 0.0000 0.0000 0.0000 33.3011
#
#
#
# Elastic Compliance Matrix: (Units=1/GPa)
#
#
# Indices 1 2 3 4 5 6 
#
# 1 0.012791 0.004033 -0.005097 0.000000 0.000000 0.000000
# 2 0.004033 0.021313 -0.007602 0.000000 0.000000 0.000000
# 3 -0.005097 -0.007602 0.024909 0.000000 0.000000 0.000000
# 4 0.000000 0.000000 0.000000 0.053266 0.000000 0.000000
# 5 0.000000 0.000000 0.000000 0.000000 0.088647 0.000000
# 6 0.000000 0.000000 0.000000 0.000000 0.000000 0.030029
#
#
# Mechanical properties :
#
#
# Convention : Reuss Voigt Hill
#
# Bulk Modulus (GPa) = 23.99252 24.83252 24.41252
# Shear Modulus (GPa) = 19.07078 24.13100 21.60089
#
# Velocity S-wave (km/s) = 2.94804 3.31618 3.13751
# Velocity P-wave (km/s) = 4.74572 5.09700 4.92449
#
# Compressibility (1/GPa) = 0.04167965
#
# Stress axis : x y z
#
# Youngs Moduli (GPa) = 78.18006 46.92078 40.14560
#
# Poissons Ratio (x) = -0.18921 0.20461
# Poissons Ratio (y) = -0.31527 0.30520
# Poissons Ratio (z) = 0.39847 0.35671
#
# Static dielectric constant tensor:
#      x y z
#    x 1.864620 0.000000 0.000000 
#    y 0.000000 1.926700 0.000000 
#    z 0.000000 0.000000 1.809950 
# 
# From -- ./inp_files/17418.got.cif
#   From: 2010.05.17/outbox.cif.g08.bks.cpg/sg55_9_cif.got.tgz:17418.got - 2010.06.03 13:27:54.
