data_PCOD9427434
_publ_section_title
;
Structure prediction by ZEFSAII (Michael W. Deem and Ramdas Pophale) SiO2 
 PCOD9427434
Probable space group: P B A M
;
_chemical_formula_sum "Si O2"
_cell_formula_units_Z 48
_cell_length_a 9.734573
_cell_length_b 27.891142
_cell_length_c 7.740642
_cell_angle_alpha 90.000000
_cell_angle_beta 90.000000
_cell_angle_gamma 90.000000
_cell_volume 2101.648998
_symmetry_space_group_name_H-M "P B A M"
_symmetry_group_IT_number 55
_symmetry_cell_setting 'orthorhombic'
loop_
_space_group_symop_operation_xyz
x,y,z
-x,-y,z
1/2+x,1/2-y,-z
1/2-x,1/2+y,-z
-x,-y,-z
x,y,-z
1/2-x,1/2+y,z
1/2+x,1/2-y,z
loop_
_atom_site_type_symbol
_atom_site_label
_atom_site_fract_x
_atom_site_fract_y
_atom_site_fract_z
Si Si1 0.089544 0.452548 0.707950
Si Si2 0.650642 0.494410 0.705096
Si Si3 0.191496 0.274707 0.700149
Si Si4 0.688515 0.385467 0.794420
Si Si5 0.490612 0.306322 0.708757
Si Si6 0.473494 0.148490 0.198381
O O1 0.090441 0.444182 0.500000
O O2 0.239979 0.467468 0.772191
O O3 0.028695 0.405706 0.793859
O O4 0.000000 0.500000 0.738333
O O5 0.500000 0.500000 0.781642
O O6 0.643645 0.503685 0.500000
O O7 0.696516 0.439490 0.726409
O O8 0.217719 0.262459 0.500000
O O9 0.339193 0.291037 0.773284
O O10 0.107575 0.230056 0.777603
O O11 0.082310 0.317966 0.707589
O O12 0.546258 0.359143 0.751200
O O13 0.819085 0.354718 0.727583
O O14 0.703442 0.387989 0.000000
O O15 0.486522 0.303084 0.500000
O O16 0.467266 0.165157 0.000000
#
# Coordination Sequence:
#
# PCOD9427434 Si02
#       6
#     8   8   8   8   8   8
#     4  10  20  37  61  87 115 155 203 248 292 342
#     4  10  22  39  60  86 118 156 201 250 296 346
#     4  10  22  41  66  93 118 151 196 246 297 352
#     4  11  24  40  59  87 123 163 200 240 295 355
#     4  10  22  41  66  92 118 151 196 247 297 351
#     4  11  24  39  59  88 124 162 198 241 295 354
#
# _framework density 22.839207999999999
#
# number of rings (size 3 to 8) (size 9 to 14) (size 15 to 20)
#    0.000    1.667    1.667    2.000    2.333    6.000 
#    0.000    0.000    0.000    0.000    0.000    0.000 
#    0.000    0.000    0.000    0.000    0.000    0.000 
#
# Total GULP energy -268269.795117 kJ/mol
# GULP energy per Si atom -5588.954065 kJ/mol
# Density = 2.278722 g / cm^3
# Si number density = 22.839208 Si / 1000 Ang^3
#
#
#
# Elastic Constant Matrix: (Units=GPa)
#
#
# Indices 1 2 3 4 5 6 
#
# 1 125.3678 -1.1324 -4.2724 0.0000 0.0000 0.0000
# 2 -1.1324 47.3831 -20.1054 0.0000 0.0000 0.0000
# 3 -4.2724 -20.1054 29.4393 0.0000 0.0000 0.0000
# 4 0.0000 0.0000 0.0000 49.7154 0.0000 0.0000
# 5 0.0000 0.0000 0.0000 0.0000 2.4684 0.0000
# 6 0.0000 0.0000 0.0000 0.0000 0.0000 35.3403
#
#
#
# Elastic Compliance Matrix: (Units=1/GPa)
#
#
# Indices 1 2 3 4 5 6 
#
# 1 0.008048 0.000969 0.001829 0.000000 0.000000 0.000000
# 2 0.000969 0.029832 0.020514 0.000000 0.000000 0.000000
# 3 0.001829 0.020514 0.048244 0.000000 0.000000 0.000000
# 4 0.000000 0.000000 0.000000 0.020114 0.000000 0.000000
# 5 0.000000 0.000000 0.000000 0.000000 0.405126 0.000000
# 6 0.000000 0.000000 0.000000 0.000000 0.000000 0.028296
#
#
# Mechanical properties :
#
#
# Convention : Reuss Voigt Hill
#
# Bulk Modulus (GPa) = 7.53303 16.79664 12.16483
# Shear Modulus (GPa) = 9.30604 32.68485 20.99545
#
# Velocity S-wave (km/s) = 2.02075 3.78707 3.03524
# Velocity P-wave (km/s) = 2.95805 5.14712 4.19779
#
# Compressibility (1/GPa) = 0.13274865
#
# Stress axis : x y z
#
# Youngs Moduli (GPa) = 124.26030 33.52067 20.72801
#
# Poissons Ratio (x) = -0.03247 -0.03792
# Poissons Ratio (y) = -0.12036 -0.42522
# Poissons Ratio (z) = -0.22732 -0.68766
#
# Static dielectric constant tensor:
#      x y z
#    x 1.900880 0.000000 0.000000 
#    y 0.000000 1.813680 0.000000 
#    z 0.000000 0.000000 1.851800 
# 
# From -- ./inp_files/2781.got.cif
#   From: 2010.05.17/outbox.cif.g08.bks.cpg/sg55_2_cif.got.tgz:2781.got - 2010.06.03 13:27:54.
