data_PCOD9427842
_publ_section_title
;
Structure prediction by ZEFSAII (Michael W. Deem and Ramdas Pophale) SiO2 
 PCOD9427842
Probable space group: P B A M
;
_chemical_formula_sum "Si O2"
_cell_formula_units_Z 32
_cell_length_a 19.538031
_cell_length_b 8.311656
_cell_length_c 7.528925
_cell_angle_alpha 90.000000
_cell_angle_beta 90.000000
_cell_angle_gamma 90.000000
_cell_volume 1222.647673
_symmetry_space_group_name_H-M "P B A M"
_symmetry_group_IT_number 55
_symmetry_cell_setting 'orthorhombic'
loop_
_space_group_symop_operation_xyz
x,y,z
-x,-y,z
1/2+x,1/2-y,-z
1/2-x,1/2+y,-z
-x,-y,-z
x,y,-z
1/2-x,1/2+y,z
1/2+x,1/2-y,z
loop_
_atom_site_type_symbol
_atom_site_label
_atom_site_fract_x
_atom_site_fract_y
_atom_site_fract_z
Si Si1 0.269187 0.758298 0.794289
Si Si2 0.352199 0.060383 0.213838
Si Si3 0.023551 0.751791 0.288661
Si Si4 0.605550 0.431636 0.715106
O O1 0.196545 0.705377 0.717118
O O2 0.319344 0.603853 0.785432
O O3 0.315192 0.900563 0.714989
O O4 0.257448 0.797568 0.000000
O O5 0.431031 0.095097 0.254774
O O6 0.348180 0.057442 0.000000
O O7 0.018128 0.765516 0.500000
O O8 0.947191 0.790463 0.222985
O O9 0.070092 0.902823 0.226200
O O10 0.609525 0.432840 0.500000
#
# Coordination Sequence:
#
# PCOD9427842 Si02
#       4
#     8   8   8   8
#     4  10  21  36  54  77 105 137 174 215 258 306
#     4  10  21  36  54  77 105 137 174 215 258 306
#     4   9  19  36  56  78 105 137 173 212 255 306
#     4   9  19  36  56  78 105 137 173 212 255 306
#
# _framework density 26.172706999999999
#
# number of rings (size 3 to 8) (size 9 to 14) (size 15 to 20)
#    0.000    2.500    0.000    3.000    0.000    7.000 
#    0.000    7.500    0.000    0.000    0.000    0.000 
#    0.000    0.000    0.000    0.000    0.000    0.000 
#
# Total GULP energy -178900.369349 kJ/mol
# GULP energy per Si atom -5590.636542 kJ/mol
# Density = 2.611314 g / cm^3
# Si number density = 26.172707 Si / 1000 Ang^3
#
#
#
# Elastic Constant Matrix: (Units=GPa)
#
#
# Indices 1 2 3 4 5 6 
#
# 1 153.5553 8.0816 -6.1342 0.0000 0.0000 0.0000
# 2 8.0816 57.9843 -4.8983 0.0000 0.0000 0.0000
# 3 -6.1342 -4.8983 75.8024 0.0000 0.0000 0.0000
# 4 0.0000 0.0000 0.0000 24.0544 0.0000 0.0000
# 5 0.0000 0.0000 0.0000 0.0000 12.3292 0.0000
# 6 0.0000 0.0000 0.0000 0.0000 0.0000 48.3868
#
#
#
# Elastic Compliance Matrix: (Units=1/GPa)
#
#
# Indices 1 2 3 4 5 6 
#
# 1 0.006577 -0.000877 0.000476 0.000000 0.000000 0.000000
# 2 -0.000877 0.017458 0.001057 0.000000 0.000000 0.000000
# 3 0.000476 0.001057 0.013299 0.000000 0.000000 0.000000
# 4 0.000000 0.000000 0.000000 0.041572 0.000000 0.000000
# 5 0.000000 0.000000 0.000000 0.000000 0.081109 0.000000
# 6 0.000000 0.000000 0.000000 0.000000 0.000000 0.020667
#
#
# Mechanical properties :
#
#
# Convention : Reuss Voigt Hill
#
# Bulk Modulus (GPa) = 25.87563 31.27114 28.57339
# Shear Modulus (GPa) = 26.00762 36.30694 31.15728
#
# Velocity S-wave (km/s) = 3.15571 3.72856 3.45403
# Velocity P-wave (km/s) = 4.81518 5.52360 5.18151
#
# Compressibility (1/GPa) = 0.03864640
#
# Stress axis : x y z
#
# Youngs Moduli (GPa) = 152.03474 57.28193 75.19365
#
# Poissons Ratio (x) = 0.05021 -0.03576
# Poissons Ratio (y) = 0.13327 -0.07949
# Poissons Ratio (z) = -0.07231 -0.06056
#
# Static dielectric constant tensor:
#      x y z
#    x 2.007950 0.000000 0.000000 
#    y 0.000000 2.173390 0.000000 
#    z 0.000000 0.000000 1.954220 
# 
# From -- ./inp_files/1983.got.cif
#   From: 2010.05.17/outbox.cif.g08.bks.cpg/sg55_1_cif.got.tgz:1983.got - 2010.06.03 13:27:54.
