data_PCOD9427542
_publ_section_title
;
Structure prediction by ZEFSAII (Michael W. Deem and Ramdas Pophale) SiO2 
 PCOD9427542
Probable space group: P B A M
;
_chemical_formula_sum "Si O2"
_cell_formula_units_Z 56
_cell_length_a 14.308928
_cell_length_b 16.064027
_cell_length_c 13.155795
_cell_angle_alpha 90.000000
_cell_angle_beta 90.000000
_cell_angle_gamma 90.000000
_cell_volume 3023.977958
_symmetry_space_group_name_H-M "P B A M"
_symmetry_group_IT_number 55
_symmetry_cell_setting 'orthorhombic'
loop_
_space_group_symop_operation_xyz
x,y,z
-x,-y,z
1/2+x,1/2-y,-z
1/2-x,1/2+y,-z
-x,-y,-z
x,y,-z
1/2-x,1/2+y,z
1/2+x,1/2-y,z
loop_
_atom_site_type_symbol
_atom_site_label
_atom_site_fract_x
_atom_site_fract_y
_atom_site_fract_z
Si Si1 0.897399 0.991251 0.801484
Si Si2 0.436835 0.631624 0.384331
Si Si3 0.379404 0.325540 0.726162
Si Si4 0.575193 0.069645 0.749594
Si Si5 0.685129 0.201980 0.619082
Si Si6 0.941600 0.314093 0.117948
Si Si7 0.205870 0.542107 0.113630
O O1 0.912380 0.938191 0.698526
O O2 0.815355 0.949706 0.865220
O O3 0.864700 0.083770 0.774101
O O4 0.000000 0.000000 0.850478
O O5 0.429659 0.601020 0.500000
O O6 0.541346 0.662776 0.359602
O O7 0.368884 0.710554 0.371313
O O8 0.282455 0.294546 0.679585
O O9 0.421876 0.265104 0.811787
O O10 0.620361 0.128858 0.665081
O O11 0.521375 0.128827 0.830310
O O12 0.500000 0.000000 0.713230
O O13 0.656360 0.018777 0.806506
O O14 0.702714 0.186576 0.500000
O O15 0.848356 0.370747 0.120153
O O16 0.962965 0.294836 0.000000
O O17 0.190417 0.508760 0.000000
#
# Coordination Sequence:
#
# PCOD9427542 Si02
#       7
#     8   8   8   8   8   8   8
#     4  10  22  37  58  82 114 160 197 244 282 344
#     4  10  22  40  60  84 115 157 199 239 294 350
#     4  11  21  38  61  85 121 151 195 244 289 348
#     4  10  20  39  64  89 118 152 194 251 298 355
#     4  11  22  38  62  90 119 154 194 244 302 354
#     4  10  21  38  63  91 118 153 195 241 300 352
#     4  10  20  38  61  86 118 155 196 242 297 351
#
# _framework density 18.518654000000002
#
# number of rings (size 3 to 8) (size 9 to 14) (size 15 to 20)
#    0.000    1.714    2.857    1.714    0.000    6.000 
#    0.000    2.143    0.000    0.000    0.000    0.000 
#    0.000    0.000    0.000    0.000    0.000    0.000 
#
# Total GULP energy -312564.526435 kJ/mol
# GULP energy per Si atom -5581.509401 kJ/mol
# Density = 1.847650 g / cm^3
# Si number density = 18.518654 Si / 1000 Ang^3
#
#
#
# Elastic Constant Matrix: (Units=GPa)
#
#
# Indices 1 2 3 4 5 6 
#
# 1 67.2438 -1.0275 -7.1972 0.0000 0.0000 0.0000
# 2 -1.0275 63.1188 20.0900 0.0000 0.0000 0.0000
# 3 -7.1972 20.0900 42.9170 0.0000 0.0000 0.0000
# 4 0.0000 0.0000 0.0000 17.8909 0.0000 0.0000
# 5 0.0000 0.0000 0.0000 0.0000 30.1441 0.0000
# 6 0.0000 0.0000 0.0000 0.0000 0.0000 22.3645
#
#
#
# Elastic Compliance Matrix: (Units=1/GPa)
#
#
# Indices 1 2 3 4 5 6 
#
# 1 0.015167 -0.000661 0.002853 0.000000 0.000000 0.000000
# 2 -0.000661 0.018646 -0.008839 0.000000 0.000000 0.000000
# 3 0.002853 -0.008839 0.027917 0.000000 0.000000 0.000000
# 4 0.000000 0.000000 0.000000 0.055894 0.000000 0.000000
# 5 0.000000 0.000000 0.000000 0.000000 0.033174 0.000000
# 6 0.000000 0.000000 0.000000 0.000000 0.000000 0.044714
#
#
# Mechanical properties :
#
#
# Convention : Reuss Voigt Hill
#
# Bulk Modulus (GPa) = 20.64648 21.89002 21.26825
# Shear Modulus (GPa) = 22.22706 24.84086 23.53396
#
# Velocity S-wave (km/s) = 3.46822 3.66648 3.56873
# Velocity P-wave (km/s) = 5.21645 5.45622 5.33768
#
# Compressibility (1/GPa) = 0.04843441
#
# Stress axis : x y z
#
# Youngs Moduli (GPa) = 65.93475 53.63142 35.82050
#
# Poissons Ratio (x) = 0.03546 -0.10219
# Poissons Ratio (y) = 0.04359 0.31662
# Poissons Ratio (z) = -0.18811 0.47406
#
# Static dielectric constant tensor:
#      x y z
#    x 1.641990 0.000000 0.000000 
#    y 0.000000 1.618900 0.000000 
#    z 0.000000 0.000000 1.618230 
# 
# From -- ./inp_files/14220.got.cif
#   From: 2010.05.17/outbox.cif.g08.bks.cpg/sg55_8_cif.got.tgz:14220.got - 2010.06.03 13:27:54.
