data_PCOD9427727
_publ_section_title
;
Structure prediction by ZEFSAII (Michael W. Deem and Ramdas Pophale) SiO2 
 PCOD9427727
Probable space group: P B A M
;
_chemical_formula_sum "Si O2"
_cell_formula_units_Z 64
_cell_length_a 14.850008
_cell_length_b 8.886320
_cell_length_c 23.523545
_cell_angle_alpha 90.000000
_cell_angle_beta 90.000000
_cell_angle_gamma 90.000000
_cell_volume 3104.212236
_symmetry_space_group_name_H-M "P B A M"
_symmetry_group_IT_number 55
_symmetry_cell_setting 'orthorhombic'
loop_
_space_group_symop_operation_xyz
x,y,z
-x,-y,z
1/2+x,1/2-y,-z
1/2-x,1/2+y,-z
-x,-y,-z
x,y,-z
1/2-x,1/2+y,z
1/2+x,1/2-y,z
loop_
_atom_site_type_symbol
_atom_site_label
_atom_site_fract_x
_atom_site_fract_y
_atom_site_fract_z
Si Si1 0.741184 0.556109 0.400579
Si Si2 0.346282 0.700177 0.327399
Si Si3 0.296337 0.192973 0.231280
Si Si4 0.399890 0.063516 0.934469
Si Si5 0.751376 0.553290 0.851317
Si Si6 0.401747 0.427648 0.066083
Si Si7 0.379122 0.183013 0.560773
Si Si8 0.465070 0.167712 0.685702
O O1 0.684539 0.456162 0.355824
O O2 0.810903 0.667581 0.368999
O O3 0.801196 0.442271 0.436454
O O4 0.671526 0.657772 0.434638
O O5 0.288189 0.720350 0.271370
O O6 0.450731 0.719582 0.313934
O O7 0.284107 0.028472 0.205761
O O8 0.285536 0.292201 0.174918
O O9 0.384926 0.209231 0.270594
O O10 0.334448 0.968353 0.893940
O O11 0.401515 0.245335 0.925810
O O12 0.500000 0.000000 0.926831
O O13 0.372664 0.039135 0.000000
O O14 0.667082 0.497867 0.889321
O O15 0.500000 0.500000 0.073909
O O16 0.375292 0.454603 0.000000
O O17 0.428365 0.171604 0.500000
O O18 0.431455 0.164845 0.620153
O O19 0.500000 0.000000 0.700087
#
# Coordination Sequence:
#
# PCOD9427727 Si02
#       8
#     8   8   8   8   8   8   8   8
#     4  10  20  43  68  95 131 170 214 266 336 405
#     4  11  22  44  69  91 130 177 218 271 331 403
#     4  12  26  43  69  95 136 176 231 275 336 403
#     4  10  23  44  71 100 137 182 224 274 341 405
#     4  12  25  44  65 103 133 178 226 284 327 400
#     4  10  23  44  69 100 139 178 224 279 337 399
#     4  11  23  41  68 102 132 168 222 276 335 410
#     4  12  24  44  69  97 131 181 220 278 342 404
#
# _framework density 20.617146999999999
#
# number of rings (size 3 to 8) (size 9 to 14) (size 15 to 20)
#    0.000    1.000    5.000    2.250    1.750    3.250 
#    0.000    1.875    0.000    0.000    0.000    0.000 
#    0.000    0.000    0.000    0.000    0.000    0.000 
#
# Total GULP energy -357128.723257 kJ/mol
# GULP energy per Si atom -5580.136301 kJ/mol
# Density = 2.057022 g / cm^3
# Si number density = 20.617147 Si / 1000 Ang^3
#
#
#
# Elastic Constant Matrix: (Units=GPa)
#
#
# Indices 1 2 3 4 5 6 
#
# 1 85.9483 22.8701 47.1267 0.0000 0.0000 0.0000
# 2 22.8701 59.9261 34.6824 0.0000 0.0000 0.0000
# 3 47.1267 34.6824 110.3984 0.0000 0.0000 0.0000
# 4 0.0000 0.0000 0.0000 -10.9790 0.0000 0.0000
# 5 0.0000 0.0000 0.0000 0.0000 -14.3064 0.0000
# 6 0.0000 0.0000 0.0000 0.0000 0.0000 17.3354
#
#
#
# Elastic Compliance Matrix: (Units=1/GPa)
#
#
# Indices 1 2 3 4 5 6 
#
# 1 0.015503 -0.002550 -0.005817 0.000000 0.000000 0.000000
# 2 -0.002550 0.020815 -0.005451 0.000000 0.000000 0.000000
# 3 -0.005817 -0.005451 0.013253 0.000000 0.000000 0.000000
# 4 0.000000 0.000000 0.000000 -0.091083 0.000000 0.000000
# 5 0.000000 0.000000 0.000000 0.000000 -0.069899 0.000000
# 6 0.000000 0.000000 0.000000 0.000000 0.000000 0.057685
#
#
# Mechanical properties :
#
#
# Convention : Reuss Voigt Hill
#
# Bulk Modulus (GPa) = 45.58600 51.73681 48.66140
# Shear Modulus (GPa) = -266.27161 8.51623 -128.87769
#
# Velocity S-wave (km/s) = -11.37677 2.03461 -7.91490
# Velocity P-wave (km/s) = 12.26441 5.53787 7.73782
#
# Compressibility (1/GPa) = 0.02193656
#
# Stress axis : x y z
#
# Youngs Moduli (GPa) = 64.50441 48.04233 75.45194
#
# Poissons Ratio (x) = 0.12251 0.43888
# Poissons Ratio (y) = 0.16449 0.41126
# Poissons Ratio (z) = 0.37520 0.26186
#
# Static dielectric constant tensor:
#      x y z
#    x 1.541750 0.000000 0.000000 
#    y 0.000000 1.816610 0.000000 
#    z 0.000000 0.000000 1.765470 
# 
# From -- ./inp_files/23486.got.cif
#   From: 2010.05.17/outbox.cif.g08.bks.cpg/sg55_12_cif.got.tgz:23486.got - 2010.06.03 13:27:54.
