data_PCOD9427999
_publ_section_title
;
Structure prediction by ZEFSAII (Michael W. Deem and Ramdas Pophale) SiO2 
 PCOD9427999
Probable space group: P B A M
;
_chemical_formula_sum "Si O2"
_cell_formula_units_Z 64
_cell_length_a 19.962784
_cell_length_b 10.173363
_cell_length_c 17.558301
_cell_angle_alpha 90.000000
_cell_angle_beta 90.000000
_cell_angle_gamma 90.000000
_cell_volume 3565.891613
_symmetry_space_group_name_H-M "P B A M"
_symmetry_group_IT_number 55
_symmetry_cell_setting 'orthorhombic'
loop_
_space_group_symop_operation_xyz
x,y,z
-x,-y,z
1/2+x,1/2-y,-z
1/2-x,1/2+y,-z
-x,-y,-z
x,y,-z
1/2-x,1/2+y,z
1/2+x,1/2-y,z
loop_
_atom_site_type_symbol
_atom_site_label
_atom_site_fract_x
_atom_site_fract_y
_atom_site_fract_z
Si Si1 0.748956 0.782016 0.318911
Si Si2 0.636733 0.163150 0.785850
Si Si3 0.049552 0.880499 0.589596
Si Si4 0.001384 0.356941 0.691062
Si Si5 0.202120 0.961861 0.409454
Si Si6 0.583517 0.653010 0.090244
Si Si7 0.128969 0.640200 0.209582
Si Si8 0.423113 0.650031 0.909947
O O1 0.800943 0.729117 0.256375
O O2 0.740949 0.667114 0.381015
O O3 0.679344 0.810062 0.275105
O O4 0.773893 0.913433 0.360856
O O5 0.574052 0.167934 0.726940
O O6 0.616006 0.246999 0.858998
O O7 0.648694 0.010619 0.807505
O O8 0.046973 0.849332 0.500000
O O9 0.024272 0.757070 0.636824
O O10 0.124387 0.929047 0.606644
O O11 0.000000 0.000000 0.605641
O O12 0.946477 0.365928 0.757943
O O13 0.000000 0.500000 0.652120
O O14 0.210305 0.984006 0.500000
O O15 0.624583 0.756930 0.140250
O O16 0.596273 0.500200 0.110850
O O17 0.503150 0.668527 0.101944
O O18 0.596096 0.669404 0.000000
O O19 0.411030 0.665912 0.000000
#
# Coordination Sequence:
#
# PCOD9427999 Si02
#       8
#     8   8   8   8   8   8   8   8
#     4  12  24  42  60  91 121 160 209 253 298 364
#     4  11  23  38  60  89 123 159 199 247 302 358
#     4  10  21  38  60  88 117 150 199 254 308 362
#     4  10  21  37  57  86 119 153 196 245 303 360
#     4  11  24  43  65  86 119 163 205 255 308 364
#     4   9  19  36  60  92 124 156 197 245 297 355
#     4  11  22  38  59  88 123 157 200 249 299 355
#     4   9  19  36  60  92 123 156 198 244 297 358
#
# _framework density 17.947825999999999
#
# number of rings (size 3 to 8) (size 9 to 14) (size 15 to 20)
#    0.000    1.625    3.750    1.875    1.750    1.750 
#    0.000    2.500    0.000    0.000    0.000    0.000 
#    0.000    0.000    0.000    0.000    0.000    0.000 
#
# Total GULP energy -357228.583478 kJ/mol
# GULP energy per Si atom -5581.696617 kJ/mol
# Density = 1.790698 g / cm^3
# Si number density = 17.947826 Si / 1000 Ang^3
#
#
#
# Elastic Constant Matrix: (Units=GPa)
#
#
# Indices 1 2 3 4 5 6 
#
# 1 43.1193 23.2304 16.4463 0.0000 0.0000 0.0000
# 2 23.2304 173.9843 72.7316 0.0000 0.0000 0.0000
# 3 16.4463 72.7316 65.7576 0.0000 0.0000 0.0000
# 4 0.0000 0.0000 0.0000 67.5364 0.0000 0.0000
# 5 0.0000 0.0000 0.0000 0.0000 25.3427 0.0000
# 6 0.0000 0.0000 0.0000 0.0000 0.0000 21.8912
#
#
#
# Elastic Compliance Matrix: (Units=1/GPa)
#
#
# Indices 1 2 3 4 5 6 
#
# 1 0.025817 -0.001391 -0.004918 0.000000 0.000000 0.000000
# 2 -0.001391 0.010766 -0.011560 0.000000 0.000000 0.000000
# 3 -0.004918 -0.011560 0.029223 0.000000 0.000000 0.000000
# 4 0.000000 0.000000 0.000000 0.014807 0.000000 0.000000
# 5 0.000000 0.000000 0.000000 0.000000 0.039459 0.000000
# 6 0.000000 0.000000 0.000000 0.000000 0.000000 0.045681
#
#
# Mechanical properties :
#
#
# Convention : Reuss Voigt Hill
#
# Bulk Modulus (GPa) = 33.25840 56.40863 44.83352
# Shear Modulus (GPa) = 23.63929 34.31758 28.97844
#
# Velocity S-wave (km/s) = 3.63314 4.37747 4.02256
# Velocity P-wave (km/s) = 6.01419 7.55296 6.82706
#
# Compressibility (1/GPa) = 0.03006759
#
# Stress axis : x y z
#
# Youngs Moduli (GPa) = 38.73444 92.88791 34.21965
#
# Poissons Ratio (x) = 0.12921 0.16831
# Poissons Ratio (y) = 0.05388 0.39556
# Poissons Ratio (z) = 0.19051 1.07374
#
# Static dielectric constant tensor:
#      x y z
#    x 1.603460 0.000000 0.000000 
#    y 0.000000 1.613690 0.000000 
#    z 0.000000 0.000000 1.590160 
# 
# From -- ./inp_files/23071.got.cif
#   From: 2010.05.17/outbox.cif.g08.bks.cpg/sg55_12_cif.got.tgz:23071.got - 2010.06.03 13:27:54.
