data_PCOD9427044
_publ_section_title
;
Structure prediction by ZEFSAII (Michael W. Deem and Ramdas Pophale) SiO2 
 PCOD9427044
Probable space group: P B A M
;
_chemical_formula_sum "Si O2"
_cell_formula_units_Z 64
_cell_length_a 25.327282
_cell_length_b 14.590170
_cell_length_c 8.164150
_cell_angle_alpha 90.000000
_cell_angle_beta 90.000000
_cell_angle_gamma 90.000000
_cell_volume 3016.893043
_symmetry_space_group_name_H-M "P B A M"
_symmetry_group_IT_number 55
_symmetry_cell_setting 'orthorhombic'
loop_
_space_group_symop_operation_xyz
x,y,z
-x,-y,z
1/2+x,1/2-y,-z
1/2-x,1/2+y,-z
-x,-y,-z
x,y,-z
1/2-x,1/2+y,z
1/2+x,1/2-y,z
loop_
_atom_site_type_symbol
_atom_site_label
_atom_site_fract_x
_atom_site_fract_y
_atom_site_fract_z
Si Si1 0.672478 0.989785 0.808205
Si Si2 0.300592 0.814749 0.802386
Si Si3 0.088353 0.236699 0.196205
Si Si4 0.804551 0.284341 0.305829
Si Si5 0.977592 0.297544 0.193418
Si Si6 0.058394 0.521679 0.310221
Si Si7 0.941555 0.966212 0.697323
Si Si8 0.600332 0.654874 0.698235
O O1 0.685364 0.891050 0.732976
O O2 0.610178 0.011319 0.782198
O O3 0.702861 0.079581 0.743119
O O4 0.682941 0.980638 0.000000
O O5 0.355441 0.770913 0.740261
O O6 0.251107 0.752673 0.757961
O O7 0.303855 0.819095 0.000000
O O8 0.076294 0.131167 0.234694
O O9 0.037839 0.295458 0.254510
O O10 0.088366 0.246914 0.000000
O O11 0.804637 0.274780 0.500000
O O12 0.850624 0.216175 0.242386
O O13 0.942230 0.368304 0.294257
O O14 0.951960 0.199365 0.225150
O O15 0.975162 0.319458 0.000000
O O16 0.060786 0.494027 0.500000
O O17 0.000000 0.500000 0.241452
O O18 0.943569 0.957543 0.500000
O O19 0.900669 0.047633 0.739849
O O20 0.000000 0.000000 0.750056
O O21 0.596620 0.661373 0.500000
#
# Coordination Sequence:
#
# PCOD9427044 Si02
#       8
#     8   8   8   8   8   8   8   8
#     4  11  23  42  68  94 125 164 207 257 313 373
#     4  10  24  45  65  89 125 165 208 259 312 366
#     4  10  22  39  59  88 124 161 205 259 311 366
#     4  11  24  42  66  93 125 163 210 262 309 367
#     4  11  21  34  58  88 119 157 202 251 309 371
#     4  11  23  37  57  89 127 165 205 253 311 373
#     4  10  20  35  58  87 122 165 205 247 308 374
#     4  10  21  38  58  85 122 158 199 253 306 364
#
# _framework density 21.213878000000001
#
# number of rings (size 3 to 8) (size 9 to 14) (size 15 to 20)
#    0.000    1.500    2.500    2.250    0.000    6.250 
#    0.000    2.500    0.000    0.000    0.000    0.000 
#    0.000    0.000    0.000    0.000    0.000    0.000 
#
# Total GULP energy -357517.629417 kJ/mol
# GULP energy per Si atom -5586.212960 kJ/mol
# Density = 2.116559 g / cm^3
# Si number density = 21.213878 Si / 1000 Ang^3
#
#
#
# Elastic Constant Matrix: (Units=GPa)
#
#
# Indices 1 2 3 4 5 6 
#
# 1 115.8394 42.2425 4.5949 0.0000 0.0000 0.0000
# 2 42.2425 101.2458 3.7936 0.0000 0.0000 0.0000
# 3 4.5949 3.7936 19.5732 0.0000 0.0000 0.0000
# 4 0.0000 0.0000 0.0000 23.2818 0.0000 0.0000
# 5 0.0000 0.0000 0.0000 0.0000 22.0712 0.0000
# 6 0.0000 0.0000 0.0000 0.0000 0.0000 34.0796
#
#
#
# Elastic Compliance Matrix: (Units=1/GPa)
#
#
# Indices 1 2 3 4 5 6 
#
# 1 0.010230 -0.004209 -0.001586 0.000000 0.000000 0.000000
# 2 -0.004209 0.011681 -0.001276 0.000000 0.000000 0.000000
# 3 -0.001586 -0.001276 0.051710 0.000000 0.000000 0.000000
# 4 0.000000 0.000000 0.000000 0.042952 0.000000 0.000000
# 5 0.000000 0.000000 0.000000 0.000000 0.045308 0.000000
# 6 0.000000 0.000000 0.000000 0.000000 0.000000 0.029343
#
#
# Mechanical properties :
#
#
# Convention : Reuss Voigt Hill
#
# Bulk Modulus (GPa) = 16.81244 37.54671 27.17957
# Shear Modulus (GPa) = 22.20327 28.28836 25.24581
#
# Velocity S-wave (km/s) = 3.23869 3.65565 3.45347
# Velocity P-wave (km/s) = 4.68272 5.96288 5.36115
#
# Compressibility (1/GPa) = 0.05947975
#
# Stress axis : x y z
#
# Youngs Moduli (GPa) = 97.74771 85.61007 19.33865
#
# Poissons Ratio (x) = 0.36033 0.03067
# Poissons Ratio (y) = 0.41142 0.02467
# Poissons Ratio (z) = 0.15501 0.10923
#
# Static dielectric constant tensor:
#      x y z
#    x 1.780440 0.000000 0.000000 
#    y 0.000000 1.809440 0.000000 
#    z 0.000000 0.000000 1.740280 
# 
# From -- ./inp_files/9810.got.cif
#   From: 2010.05.17/outbox.cif.g08.bks.cpg/sg55_5_cif.got.tgz:9810.got - 2010.06.03 13:27:54.
