data_PCOD9427640
_publ_section_title
;
Structure prediction by ZEFSAII (Michael W. Deem and Ramdas Pophale) SiO2 
 PCOD9427640
Probable space group: P B A M
;
_chemical_formula_sum "Si O2"
_cell_formula_units_Z 56
_cell_length_a 19.841262
_cell_length_b 9.497344
_cell_length_c 14.485287
_cell_angle_alpha 90.000000
_cell_angle_beta 90.000000
_cell_angle_gamma 90.000000
_cell_volume 2729.597207
_symmetry_space_group_name_H-M "P B A M"
_symmetry_group_IT_number 55
_symmetry_cell_setting 'orthorhombic'
loop_
_space_group_symop_operation_xyz
x,y,z
-x,-y,z
1/2+x,1/2-y,-z
1/2-x,1/2+y,-z
-x,-y,-z
x,y,-z
1/2-x,1/2+y,z
1/2+x,1/2-y,z
loop_
_atom_site_type_symbol
_atom_site_label
_atom_site_fract_x
_atom_site_fract_y
_atom_site_fract_z
Si Si1 0.907017 0.857203 0.308084
Si Si2 0.312578 0.141870 0.299641
Si Si3 0.955000 0.240383 0.901869
Si Si4 0.832867 0.449935 0.101530
Si Si5 0.612835 0.259305 0.104014
Si Si6 0.564676 0.664093 0.295323
Si Si7 0.703483 0.160987 0.608581
O O1 0.882005 0.841482 0.201150
O O2 0.862168 0.754041 0.368414
O O3 0.986098 0.817689 0.318153
O O4 0.904674 0.021225 0.336116
O O5 0.297821 0.114234 0.191230
O O6 0.388069 0.202738 0.311991
O O7 0.263443 0.258344 0.340097
O O8 0.304495 0.994973 0.351477
O O9 0.906407 0.375170 0.898432
O O10 0.937028 0.144186 0.815757
O O11 0.033156 0.280735 0.896814
O O12 0.943425 0.167395 0.000000
O O13 0.844045 0.616303 0.112140
O O14 0.802640 0.421133 0.000000
O O15 0.626226 0.319516 0.000000
O O16 0.715915 0.155884 0.500000
#
# Coordination Sequence:
#
# PCOD9427640 Si02
#       7
#     8   8   8   8   8   8   8
#     4  10  20  39  60  94 129 166 200 254 310 369
#     4  11  23  43  65  92 121 161 204 259 309 376
#     4   8  14  24  46  82 125 167 205 239 282 347
#     4   9  16  30  53  86 123 160 200 245 297 360
#     4   9  15  26  50  86 125 165 202 240 289 357
#     4   9  20  36  62  90 130 164 202 249 313 367
#     4  12  26  45  67  89 116 156 211 266 321 376
#
# _framework density 20.515846
#
# number of rings (size 3 to 8) (size 9 to 14) (size 15 to 20)
#    0.000    2.286    1.429    1.714    0.000    2.857 
#    0.000    8.571    0.000    1.714    0.000    0.000 
#    0.000    0.000    0.000    0.000    0.000    0.000 
#
# Total GULP energy -312350.730505 kJ/mol
# GULP energy per Si atom -5577.691616 kJ/mol
# Density = 2.046915 g / cm^3
# Si number density = 20.515846 Si / 1000 Ang^3
#
#
#
# Elastic Constant Matrix: (Units=GPa)
#
#
# Indices 1 2 3 4 5 6 
#
# 1 51.0611 28.4727 27.3109 0.0000 0.0000 0.0000
# 2 28.4727 66.0222 31.3684 0.0000 0.0000 0.0000
# 3 27.3109 31.3684 104.6227 0.0000 0.0000 0.0000
# 4 0.0000 0.0000 0.0000 -2.5472 0.0000 0.0000
# 5 0.0000 0.0000 0.0000 0.0000 34.0153 0.0000
# 6 0.0000 0.0000 0.0000 0.0000 0.0000 27.2497
#
#
#
# Elastic Compliance Matrix: (Units=1/GPa)
#
#
# Indices 1 2 3 4 5 6 
#
# 1 0.027274 -0.009772 -0.004190 0.000000 0.000000 0.000000
# 2 -0.009772 0.021163 -0.003794 0.000000 0.000000 0.000000
# 3 -0.004190 -0.003794 0.011790 0.000000 0.000000 0.000000
# 4 0.000000 0.000000 0.000000 -0.392584 0.000000 0.000000
# 5 0.000000 0.000000 0.000000 0.000000 0.029399 0.000000
# 6 0.000000 0.000000 0.000000 0.000000 0.000000 0.036698
#
#
# Mechanical properties :
#
#
# Convention : Reuss Voigt Hill
#
# Bulk Modulus (GPa) = 40.46100 44.00110 42.23105
# Shear Modulus (GPa) = -22.47093 20.71381 -0.87856
#
# Velocity S-wave (km/s) = -3.31312 3.18094 -0.65511
# Velocity P-wave (km/s) = 2.26473 5.91482 4.47851
#
# Compressibility (1/GPa) = 0.02471516
#
# Stress axis : x y z
#
# Youngs Moduli (GPa) = 36.66457 47.25147 84.82055
#
# Poissons Ratio (x) = 0.46172 0.35540
# Poissons Ratio (y) = 0.35827 0.32185
# Poissons Ratio (z) = 0.15362 0.17930
#
# Static dielectric constant tensor:
#      x y z
#    x 1.746510 0.000000 0.000000 
#    y 0.000000 1.712500 0.000000 
#    z 0.000000 0.000000 1.756680 
# 
# From -- ./inp_files/19765.got.cif
#   From: 2010.05.17/outbox.cif.g08.bks.cpg/sg55_10_cif.got.tgz:19765.got - 2010.06.03 13:27:54.
