data_PCOD9427689
_publ_section_title
;
Structure prediction by ZEFSAII (Michael W. Deem and Ramdas Pophale) SiO2 
 PCOD9427689
Probable space group: P B A M
;
_chemical_formula_sum "Si O2"
_cell_formula_units_Z 40
_cell_length_a 14.196613
_cell_length_b 9.333719
_cell_length_c 13.764879
_cell_angle_alpha 90.000000
_cell_angle_beta 90.000000
_cell_angle_gamma 90.000000
_cell_volume 1823.945526
_symmetry_space_group_name_H-M "P B A M"
_symmetry_group_IT_number 55
_symmetry_cell_setting 'orthorhombic'
loop_
_space_group_symop_operation_xyz
x,y,z
-x,-y,z
1/2+x,1/2-y,-z
1/2-x,1/2+y,-z
-x,-y,-z
x,y,-z
1/2-x,1/2+y,z
1/2+x,1/2-y,z
loop_
_atom_site_type_symbol
_atom_site_label
_atom_site_fract_x
_atom_site_fract_y
_atom_site_fract_z
Si Si1 0.500000 0.000000 0.331292
Si Si2 0.164644 0.510199 0.000000
Si Si3 0.666218 0.168614 0.710837
Si Si4 0.500000 0.500000 0.852238
Si Si5 0.624338 0.871469 0.500000
Si Si6 0.007317 0.262594 0.000000
Si Si7 0.719348 0.164482 0.500000
Si Si8 0.291907 0.544280 0.806685
O O1 0.436613 0.894448 0.268372
O O2 0.563028 0.905189 0.404619
O O3 0.234042 0.517669 0.093620
O O4 0.088071 0.640863 0.000000
O O5 0.098101 0.368126 0.000000
O O6 0.669971 0.217631 0.599037
O O7 0.701621 0.288795 0.782933
O O8 0.734814 0.034865 0.723088
O O9 0.398715 0.488387 0.802548
O O10 0.509046 0.351827 0.912400
O O11 0.674725 0.720218 0.500000
O O12 0.704217 0.994393 0.500000
#
# Coordination Sequence:
#
# PCOD9427689 Si02
#       8
#     4   4   8   4   4   4   4   8
#     4   9  20  38  62  95 130 170 222 267 324 391
#     4  11  24  45  68  95 127 168 216 262 319 389
#     4  11  24  42  67  95 129 176 220 270 330 392
#     4  11  24  40  60  97 132 162 212 269 324 387
#     4   9  18  36  66  91 126 173 214 270 326 386
#     4  10  22  42  70  92 125 171 210 263 325 384
#     4  10  20  40  64  92 126 166 216 264 320 382
#     4  12  26  42  66  96 131 172 217 270 330 390
#
# _framework density 21.930478999999998
#
# number of rings (size 3 to 8) (size 9 to 14) (size 15 to 20)
#    0.000    1.400    0.000    6.600    0.000    8.800 
#    0.000    0.000    0.000   11.400    0.000    0.000 
#    0.000    0.000    0.000    0.000    0.000    0.000 
#
# Total GULP energy -223429.322614 kJ/mol
# GULP energy per Si atom -5585.733065 kJ/mol
# Density = 2.188056 g / cm^3
# Si number density = 21.930479 Si / 1000 Ang^3
#
#
#
# Elastic Constant Matrix: (Units=GPa)
#
#
# Indices 1 2 3 4 5 6 
#
# 1 141.6676 56.4903 33.8713 0.0000 0.0000 0.0000
# 2 56.4903 106.5324 18.8854 0.0000 0.0000 0.0000
# 3 33.8713 18.8854 66.1575 0.0000 0.0000 0.0000
# 4 0.0000 0.0000 0.0000 12.2558 0.0000 0.0000
# 5 0.0000 0.0000 0.0000 0.0000 20.9999 0.0000
# 6 0.0000 0.0000 0.0000 0.0000 0.0000 53.4545
#
#
#
# Elastic Compliance Matrix: (Units=1/GPa)
#
#
# Indices 1 2 3 4 5 6 
#
# 1 0.009742 -0.004510 -0.003700 0.000000 0.000000 0.000000
# 2 -0.004510 0.011975 -0.001109 0.000000 0.000000 0.000000
# 3 -0.003700 -0.001109 0.017327 0.000000 0.000000 0.000000
# 4 0.000000 0.000000 0.000000 0.081594 0.000000 0.000000
# 5 0.000000 0.000000 0.000000 0.000000 0.047619 0.000000
# 6 0.000000 0.000000 0.000000 0.000000 0.000000 0.018707
#
#
# Mechanical properties :
#
#
# Convention : Reuss Voigt Hill
#
# Bulk Modulus (GPa) = 49.00920 59.20573 54.10746
# Shear Modulus (GPa) = 23.54004 31.01609 27.27807
#
# Velocity S-wave (km/s) = 3.27982 3.76479 3.53064
# Velocity P-wave (km/s) = 6.06127 6.77892 6.43012
#
# Compressibility (1/GPa) = 0.02040433
#
# Stress axis : x y z
#
# Youngs Moduli (GPa) = 102.65122 83.50837 57.71479
#
# Poissons Ratio (x) = 0.37660 0.21356
# Poissons Ratio (y) = 0.46293 0.06403
# Poissons Ratio (z) = 0.37983 0.09265
#
# Static dielectric constant tensor:
#      x y z
#    x 1.808140 0.000000 0.000000 
#    y 0.000000 1.774570 0.000000 
#    z 0.000000 0.000000 1.837040 
# 
# From -- ./inp_files/18814.got.cif
#   From: 2010.05.17/outbox.cif.g08.bks.cpg/sg55_10_cif.got.tgz:18814.got - 2010.06.03 13:27:54.
