data_PCOD9427898
_publ_section_title
;
Structure prediction by ZEFSAII (Michael W. Deem and Ramdas Pophale) SiO2 
 PCOD9427898
Probable space group: P B A M
;
_chemical_formula_sum "Si O2"
_cell_formula_units_Z 58
_cell_length_a 13.715761
_cell_length_b 26.117702
_cell_length_c 9.042410
_cell_angle_alpha 90.000000
_cell_angle_beta 90.000000
_cell_angle_gamma 90.000000
_cell_volume 3239.209713
_symmetry_space_group_name_H-M "P B A M"
_symmetry_group_IT_number 55
_symmetry_cell_setting 'orthorhombic'
loop_
_space_group_symop_operation_xyz
x,y,z
-x,-y,z
1/2+x,1/2-y,-z
1/2-x,1/2+y,-z
-x,-y,-z
x,y,-z
1/2-x,1/2+y,z
1/2+x,1/2-y,z
loop_
_atom_site_type_symbol
_atom_site_label
_atom_site_fract_x
_atom_site_fract_y
_atom_site_fract_z
Si Si1 0.560862 0.293988 0.177104
Si Si2 0.398690 0.907772 0.336782
Si Si3 0.814313 0.943148 0.326327
Si Si4 0.265494 0.156211 0.824438
Si Si5 0.514500 0.817919 0.822854
Si Si6 0.026150 0.892903 0.674303
Si Si7 0.000000 0.500000 0.500000
Si Si8 0.791001 0.052248 0.823926
O O1 0.674248 0.306700 0.207762
O O2 0.530602 0.236836 0.219300
O O3 0.498929 0.337273 0.260254
O O4 0.545770 0.299513 0.000000
O O5 0.364494 0.889802 0.500000
O O6 0.463400 0.864335 0.261332
O O7 0.460380 0.958984 0.373297
O O8 0.306124 0.921244 0.237589
O O9 0.794351 0.951716 0.500000
O O10 0.751377 0.895780 0.266180
O O11 0.927189 0.926379 0.308346
O O12 0.793380 0.994483 0.237757
O O13 0.369951 0.180514 0.792305
O O14 0.261464 0.144218 0.000000
O O15 0.501322 0.824200 0.000000
O O16 0.047432 0.890155 0.500000
O O17 0.114688 0.918963 0.759382
O O18 0.793204 0.052540 0.000000
#
# Coordination Sequence:
#
# PCOD9427898 Si02
#       8
#     8   8   8   8   8   8   2   8
#     4   9  19  37  58  83 120 158 196 242 291 342
#     4  10  23  41  60  83 113 150 192 234 290 345
#     4  10  21  36  57  83 117 154 196 240 288 345
#     4   9  19  35  56  83 113 152 197 241 288 343
#     4  10  21  37  59  88 118 153 197 244 290 343
#     4  10  21  38  58  85 118 155 197 243 290 345
#     4   8  24  44  62  80 114 160 190 244 286 348
#     4  12  24  37  58  87 118 154 192 239 296 352
#
# _framework density 17.905601000000001
#
# number of rings (size 3 to 8) (size 9 to 14) (size 15 to 20)
#    0.414    1.655    0.000    2.897    1.931    5.517 
#    0.000    3.448    0.000    0.000    0.000    0.000 
#    0.000    0.000    0.000    0.000    0.000    0.000 
#
# Total GULP energy -323221.355019 kJ/mol
# GULP energy per Si atom -5572.781983 kJ/mol
# Density = 1.786485 g / cm^3
# Si number density = 17.905601 Si / 1000 Ang^3
#
#
#
# Elastic Constant Matrix: (Units=GPa)
#
#
# Indices 1 2 3 4 5 6 
#
# 1 85.8116 74.9554 67.4249 0.0000 0.0000 0.0000
# 2 74.9554 113.1481 68.3722 0.0000 0.0000 0.0000
# 3 67.4249 68.3722 97.5541 0.0000 0.0000 0.0000
# 4 0.0000 0.0000 0.0000 24.2367 0.0000 0.0000
# 5 0.0000 0.0000 0.0000 0.0000 21.3500 0.0000
# 6 0.0000 0.0000 0.0000 0.0000 0.0000 19.5720
#
#
#
# Elastic Compliance Matrix: (Units=1/GPa)
#
#
# Indices 1 2 3 4 5 6 
#
# 1 0.036433 -0.015471 -0.014337 0.000000 0.000000 0.000000
# 2 -0.015471 0.021901 -0.004656 0.000000 0.000000 0.000000
# 3 -0.014337 -0.004656 0.023423 0.000000 0.000000 0.000000
# 4 0.000000 0.000000 0.000000 0.041260 0.000000 0.000000
# 5 0.000000 0.000000 0.000000 0.000000 0.046838 0.000000
# 6 0.000000 0.000000 0.000000 0.000000 0.000000 0.051093
#
#
# Mechanical properties :
#
#
# Convention : Reuss Voigt Hill
#
# Bulk Modulus (GPa) = 77.96111 79.77989 78.87050
# Shear Modulus (GPa) = 16.99788 18.74918 17.87353
#
# Velocity S-wave (km/s) = 3.08442 3.23942 3.16287
# Velocity P-wave (km/s) = 7.50463 7.65796 7.58168
#
# Compressibility (1/GPa) = 0.01282691
#
# Stress axis : x y z
#
# Youngs Moduli (GPa) = 27.44776 45.66052 42.69225
#
# Poissons Ratio (x) = 0.70643 0.61209
# Poissons Ratio (y) = 0.42466 0.19879
# Poissons Ratio (z) = 0.39353 0.21261
#
# Static dielectric constant tensor:
#      x y z
#    x 1.605940 0.000000 0.000000 
#    y 0.000000 1.575340 0.000000 
#    z 0.000000 0.000000 1.601180 
# 
# From -- ./inp_files/4353.got.cif
#   From: 2010.05.17/outbox.cif.g08.bks.cpg/sg55_3_cif.got.tgz:4353.got - 2010.06.03 13:27:54.
