data_PCOD9427192
_publ_section_title
;
Structure prediction by ZEFSAII (Michael W. Deem and Ramdas Pophale) SiO2 
 PCOD9427192
Probable space group: P B A M
;
_chemical_formula_sum "Si O2"
_cell_formula_units_Z 56
_cell_length_a 19.697274
_cell_length_b 9.198219
_cell_length_c 15.379549
_cell_angle_alpha 90.000000
_cell_angle_beta 90.000000
_cell_angle_gamma 90.000000
_cell_volume 2786.464226
_symmetry_space_group_name_H-M "P B A M"
_symmetry_group_IT_number 55
_symmetry_cell_setting 'orthorhombic'
loop_
_space_group_symop_operation_xyz
x,y,z
-x,-y,z
1/2+x,1/2-y,-z
1/2-x,1/2+y,-z
-x,-y,-z
x,y,-z
1/2-x,1/2+y,z
1/2+x,1/2-y,z
loop_
_atom_site_type_symbol
_atom_site_label
_atom_site_fract_x
_atom_site_fract_y
_atom_site_fract_z
Si Si1 0.244519 0.279691 0.707160
Si Si2 0.186164 0.527811 0.188827
Si Si3 0.490016 0.324731 0.287239
Si Si4 0.614487 0.299936 0.403209
Si Si5 0.366361 0.356048 0.403318
Si Si6 0.447149 0.881596 0.854838
Si Si7 0.235252 0.531411 0.000000
Si Si8 0.650792 0.251537 0.000000
O O1 0.231169 0.386811 0.787463
O O2 0.172601 0.243195 0.664345
O O3 0.290203 0.345080 0.630844
O O4 0.285727 0.143978 0.743824
O O5 0.108222 0.478733 0.197330
O O6 0.200655 0.580374 0.090534
O O7 0.500000 0.500000 0.272625
O O8 0.541800 0.270727 0.361630
O O9 0.416175 0.299138 0.328034
O O10 0.510750 0.232052 0.203230
O O11 0.623951 0.238258 0.500000
O O12 0.617012 0.474074 0.410195
O O13 0.375032 0.291099 0.500000
O O14 0.500000 0.000000 0.893661
O O15 0.398192 0.790271 0.919504
O O16 0.312585 0.591414 0.000000
O O17 0.214923 0.360167 0.000000
#
# Coordination Sequence:
#
# PCOD9427192 Si02
#       8
#     8   8   8   8   8   8   4   4
#     4  12  21  38  60  91 121 161 208 262 319 374
#     4  11  23  38  64  90 124 162 206 259 320 378
#     4  10  21  38  62  87 119 167 213 256 306 376
#     4  10  20  36  58  85 119 161 209 259 310 366
#     4  10  21  37  59  88 122 163 212 262 313 372
#     4  11  22  41  62  91 128 165 209 255 324 380
#     4  10  22  40  62  95 125 159 205 254 314 374
#     4  10  23  42  67  95 126 169 206 264 312 381
#
# _framework density 20.097152999999999
#
# number of rings (size 3 to 8) (size 9 to 14) (size 15 to 20)
#    0.000    1.429    2.857    3.643    0.000    1.714 
#    0.000    3.214    0.000    2.571    0.000    0.000 
#    0.000    0.000    0.000    0.000    0.000    0.000 
#
# Total GULP energy -312112.316142 kJ/mol
# GULP energy per Si atom -5573.434217 kJ/mol
# Density = 2.005141 g / cm^3
# Si number density = 20.097153 Si / 1000 Ang^3
#
#
#
# Elastic Constant Matrix: (Units=GPa)
#
#
# Indices 1 2 3 4 5 6 
#
# 1 99.3939 31.5047 18.6413 0.0000 0.0000 0.0000
# 2 31.5047 38.0975 30.5953 0.0000 0.0000 0.0000
# 3 18.6413 30.5953 92.8388 0.0000 0.0000 0.0000
# 4 0.0000 0.0000 0.0000 -9.7268 0.0000 0.0000
# 5 0.0000 0.0000 0.0000 0.0000 47.2130 0.0000
# 6 0.0000 0.0000 0.0000 0.0000 0.0000 36.4991
#
#
#
# Elastic Compliance Matrix: (Units=1/GPa)
#
#
# Indices 1 2 3 4 5 6 
#
# 1 0.013757 -0.012454 0.001342 0.000000 0.000000 0.000000
# 2 -0.012454 0.046970 -0.012978 0.000000 0.000000 0.000000
# 3 0.001342 -0.012978 0.014779 0.000000 0.000000 0.000000
# 4 0.000000 0.000000 0.000000 -0.102809 0.000000 0.000000
# 5 0.000000 0.000000 0.000000 0.000000 0.021181 0.000000
# 6 0.000000 0.000000 0.000000 0.000000 0.000000 0.027398
#
#
# Mechanical properties :
#
#
# Convention : Reuss Voigt Hill
#
# Bulk Modulus (GPa) = 36.59655 43.53475 40.06565
# Shear Modulus (GPa) = 63.64240 24.76966 44.20603
#
# Velocity S-wave (km/s) = 5.63348 3.51450 4.69509
# Velocity P-wave (km/s) = 7.78230 6.17885 7.02646
#
# Compressibility (1/GPa) = 0.02732498
#
# Stress axis : x y z
#
# Youngs Moduli (GPa) = 72.69156 21.29029 67.66373
#
# Poissons Ratio (x) = 0.26515 -0.09080
# Poissons Ratio (y) = 0.90529 0.87817
# Poissons Ratio (z) = -0.09755 0.27631
#
# Static dielectric constant tensor:
#      x y z
#    x 1.690950 0.000000 0.000000 
#    y 0.000000 1.722220 0.000000 
#    z 0.000000 0.000000 1.750760 
# 
# From -- ./inp_files/19787.got.cif
#   From: 2010.05.17/outbox.cif.g08.bks.cpg/sg55_10_cif.got.tgz:19787.got - 2010.06.03 13:27:54.
