data_PCOD9427649
_publ_section_title
;
Structure prediction by ZEFSAII (Michael W. Deem and Ramdas Pophale) SiO2 
 PCOD9427649
Probable space group: P B A M
;
_chemical_formula_sum "Si O2"
_cell_formula_units_Z 48
_cell_length_a 7.619227
_cell_length_b 14.995504
_cell_length_c 21.306955
_cell_angle_alpha 90.000000
_cell_angle_beta 90.000000
_cell_angle_gamma 90.000000
_cell_volume 2434.408010
_symmetry_space_group_name_H-M "P B A M"
_symmetry_group_IT_number 55
_symmetry_cell_setting 'orthorhombic'
loop_
_space_group_symop_operation_xyz
x,y,z
-x,-y,z
1/2+x,1/2-y,-z
1/2-x,1/2+y,-z
-x,-y,-z
x,y,-z
1/2-x,1/2+y,z
1/2+x,1/2-y,z
loop_
_atom_site_type_symbol
_atom_site_label
_atom_site_fract_x
_atom_site_fract_y
_atom_site_fract_z
Si Si1 0.702045 0.471669 0.597873
Si Si2 0.193882 0.146258 0.838118
Si Si3 0.179107 0.381395 0.500000
Si Si4 0.219012 0.676475 0.500000
Si Si5 0.287578 0.500139 0.262850
Si Si6 0.221579 0.842414 0.824368
Si Si7 0.994297 0.392975 0.070970
O O1 0.500000 0.500000 0.600850
O O2 0.787282 0.552129 0.558125
O O3 0.707370 0.377398 0.560788
O O4 0.775986 0.471967 0.668442
O O5 0.258595 0.069451 0.791508
O O6 0.247508 0.240041 0.808329
O O7 0.305777 0.136734 0.901584
O O8 0.982348 0.141516 0.843862
O O9 0.273575 0.284265 0.500000
O O10 0.981186 0.351344 0.500000
O O11 0.500000 0.500000 0.265914
O O12 0.235460 0.404587 0.235072
O O13 0.353390 0.862084 0.881678
O O14 0.000000 0.500000 0.070213
O O15 0.020433 0.360024 0.000000
#
# Coordination Sequence:
#
# PCOD9427649 Si02
#       7
#     8   8   4   4   8   8   8
#     4  10  20  39  62  90 119 158 197 247 303 353
#     4  11  22  41  62  89 124 161 201 255 308 361
#     4  11  22  39  58  88 124 159 202 247 294 352
#     4  11  22  39  58  88 124 159 202 247 294 352
#     4   9  21  39  62  88 122 156 202 246 299 362
#     4  11  22  41  62  89 124 161 201 255 308 361
#     4  11  24  42  64  91 119 159 209 249 309 374
#
# _framework density 19.717317999999999
#
# number of rings (size 3 to 8) (size 9 to 14) (size 15 to 20)
#    0.000    1.500    3.333    3.000    0.000    2.667 
#    6.000    5.000    0.000    0.000    0.000    0.000 
#    0.000    0.000    0.000    0.000    0.000    0.000 
#
# Total GULP energy -267800.358923 kJ/mol
# GULP energy per Si atom -5579.174144 kJ/mol
# Density = 1.967244 g / cm^3
# Si number density = 19.717318 Si / 1000 Ang^3
#
#
#
# Elastic Constant Matrix: (Units=GPa)
#
#
# Indices 1 2 3 4 5 6 
#
# 1 65.2845 -26.0087 0.4381 0.0000 0.0000 0.0000
# 2 -26.0087 88.1309 4.8122 0.0000 0.0000 0.0000
# 3 0.4381 4.8122 97.9328 0.0000 0.0000 0.0000
# 4 0.0000 0.0000 0.0000 -6.1934 0.0000 0.0000
# 5 0.0000 0.0000 0.0000 0.0000 70.2112 0.0000
# 6 0.0000 0.0000 0.0000 0.0000 0.0000 29.1213
#
#
#
# Elastic Compliance Matrix: (Units=1/GPa)
#
#
# Indices 1 2 3 4 5 6 
#
# 1 0.017369 0.005144 -0.000330 0.000000 0.000000 0.000000
# 2 0.005144 0.012901 -0.000657 0.000000 0.000000 0.000000
# 3 -0.000330 -0.000657 0.010245 0.000000 0.000000 0.000000
# 4 0.000000 0.000000 0.000000 -0.161461 0.000000 0.000000
# 5 0.000000 0.000000 0.000000 0.000000 0.014243 0.000000
# 6 0.000000 0.000000 0.000000 0.000000 0.000000 0.034339
#
#
# Mechanical properties :
#
#
# Convention : Reuss Voigt Hill
#
# Bulk Modulus (GPa) = 20.48021 23.31461 21.89741
# Shear Modulus (GPa) = -77.63784 36.76824 -20.43480
#
# Velocity S-wave (km/s) = -6.28179 4.32298 -3.22279
# Velocity P-wave (km/s) = 6.49655 6.06363 1.64886
#
# Compressibility (1/GPa) = 0.04882763
#
# Stress axis : x y z
#
# Youngs Moduli (GPa) = 57.57356 77.51537 97.61011
#
# Poissons Ratio (x) = -0.39873 0.03226
# Poissons Ratio (y) = -0.29615 0.06412
# Poissons Ratio (z) = 0.01903 0.05092
#
# Static dielectric constant tensor:
#      x y z
#    x 1.725040 0.000000 0.000000 
#    y 0.000000 1.730600 0.000000 
#    z 0.000000 0.000000 1.728700 
# 
# From -- ./inp_files/20850.got.cif
#   From: 2010.05.17/outbox.cif.g08.bks.cpg/sg55_11_cif.got.tgz:20850.got - 2010.06.03 13:27:54.
