data_PCOD9427147
_publ_section_title
;
Structure prediction by ZEFSAII (Michael W. Deem and Ramdas Pophale) SiO2 
 PCOD9427147
Probable space group: P B A M
;
_chemical_formula_sum "Si O2"
_cell_formula_units_Z 64
_cell_length_a 12.793843
_cell_length_b 29.753131
_cell_length_c 8.613871
_cell_angle_alpha 90.000000
_cell_angle_beta 90.000000
_cell_angle_gamma 90.000000
_cell_volume 3278.929318
_symmetry_space_group_name_H-M "P B A M"
_symmetry_group_IT_number 55
_symmetry_cell_setting 'orthorhombic'
loop_
_space_group_symop_operation_xyz
x,y,z
-x,-y,z
1/2+x,1/2-y,-z
1/2-x,1/2+y,-z
-x,-y,-z
x,y,-z
1/2-x,1/2+y,z
1/2+x,1/2-y,z
loop_
_atom_site_type_symbol
_atom_site_label
_atom_site_fract_x
_atom_site_fract_y
_atom_site_fract_z
Si Si1 0.789969 0.826481 0.319891
Si Si2 0.622025 0.499947 0.314019
Si Si3 0.733157 0.681402 0.817503
Si Si4 0.266944 0.079316 0.184405
Si Si5 0.766614 0.579511 0.812861
Si Si6 0.618485 0.768017 0.825257
Si Si7 0.911619 0.739466 0.319669
Si Si8 0.999865 0.447073 0.811922
O O1 0.802052 0.838399 0.500000
O O2 0.776367 0.871417 0.222823
O O3 0.686989 0.796426 0.292970
O O4 0.879166 0.790438 0.277253
O O5 0.500000 0.500000 0.260245
O O6 0.620239 0.499992 0.500000
O O7 0.688831 0.457119 0.257271
O O8 0.688540 0.542733 0.256241
O O9 0.725818 0.629473 0.776194
O O10 0.634290 0.714489 0.805483
O O11 0.815076 0.706698 0.708834
O O12 0.766133 0.683313 0.000000
O O13 0.388312 0.073689 0.240620
O O14 0.268692 0.071841 0.000000
O O15 0.888197 0.573366 0.760321
O O16 0.766537 0.573904 0.000000
O O17 0.499846 0.778195 0.793477
O O18 0.652232 0.779732 0.000000
O O19 0.943341 0.739071 0.500000
O O20 0.000000 0.500000 0.771977
O O21 0.999918 0.443546 0.000000
#
# Coordination Sequence:
#
# PCOD9427147 Si02
#       8
#     8   8   8   8   8   8   8   8
#     4  10  22  39  57  84 121 156 194 240 294 355
#     4  11  25  43  60  83 119 159 198 244 295 348
#     4   9  20  36  57  85 114 148 190 241 290 341
#     4  11  22  38  63  91 117 154 199 244 298 354
#     4  10  20  38  62  88 118 151 193 242 295 352
#     4  10  20  36  57  83 115 152 199 246 288 339
#     4  10  21  37  57  81 114 156 194 236 294 349
#     4   9  17  33  58  88 119 148 182 234 295 348
#
# _framework density 19.518568999999999
#
# number of rings (size 3 to 8) (size 9 to 14) (size 15 to 20)
#    0.000    2.000    1.250    1.875    1.750    4.500 
#    0.000    4.375    0.000    0.000    0.000    0.000 
#    0.000    0.000    0.000    0.000    0.000    0.000 
#
# Total GULP energy -356833.005114 kJ/mol
# GULP energy per Si atom -5575.515705 kJ/mol
# Density = 1.947414 g / cm^3
# Si number density = 19.518569 Si / 1000 Ang^3
#
#
#
# Elastic Constant Matrix: (Units=GPa)
#
#
# Indices 1 2 3 4 5 6 
#
# 1 82.3579 18.7063 17.9241 0.0000 0.0000 0.0000
# 2 18.7063 107.0507 20.4088 0.0000 0.0000 0.0000
# 3 17.9241 20.4088 16.6338 0.0000 0.0000 0.0000
# 4 0.0000 0.0000 0.0000 25.9926 0.0000 0.0000
# 5 0.0000 0.0000 0.0000 0.0000 20.5114 0.0000
# 6 0.0000 0.0000 0.0000 0.0000 0.0000 8.0317
#
#
#
# Elastic Compliance Matrix: (Units=1/GPa)
#
#
# Indices 1 2 3 4 5 6 
#
# 1 0.015895 0.000637 -0.017910 0.000000 0.000000 0.000000
# 2 0.000637 0.012219 -0.015678 0.000000 0.000000 0.000000
# 3 -0.017910 -0.015678 0.098654 0.000000 0.000000 0.000000
# 4 0.000000 0.000000 0.000000 0.038472 0.000000 0.000000
# 5 0.000000 0.000000 0.000000 0.000000 0.048753 0.000000
# 6 0.000000 0.000000 0.000000 0.000000 0.000000 0.124507
#
#
# Mechanical properties :
#
#
# Convention : Reuss Voigt Hill
#
# Bulk Modulus (GPa) = 16.42956 35.56898 25.99927
# Shear Modulus (GPa) = 11.77321 20.84067 16.30694
#
# Velocity S-wave (km/s) = 2.45864 3.27117 2.89356
# Velocity P-wave (km/s) = 4.06147 5.70352 4.95104
#
# Compressibility (1/GPa) = 0.06086592
#
# Stress axis : x y z
#
# Youngs Moduli (GPa) = 62.91169 81.83898 10.13643
#
# Poissons Ratio (x) = -0.05212 0.18154
# Poissons Ratio (y) = -0.04006 0.15892
# Poissons Ratio (z) = 1.12673 1.28310
#
# Static dielectric constant tensor:
#      x y z
#    x 1.699880 0.000000 0.000000 
#    y 0.000000 1.668160 0.000000 
#    z 0.000000 0.000000 1.661640 
# 
# From -- ./inp_files/4711.got.cif
#   From: 2010.05.17/outbox.cif.g08.bks.cpg/sg55_3_cif.got.tgz:4711.got - 2010.06.03 13:27:54.
