data_PCOD9427082
_publ_section_title
;
Structure prediction by ZEFSAII (Michael W. Deem and Ramdas Pophale) SiO2 
 PCOD9427082
Probable space group: P B A M
;
_chemical_formula_sum "Si O2"
_cell_formula_units_Z 56
_cell_length_a 14.177240
_cell_length_b 15.077161
_cell_length_c 14.010833
_cell_angle_alpha 90.000000
_cell_angle_beta 90.000000
_cell_angle_gamma 90.000000
_cell_volume 2994.851001
_symmetry_space_group_name_H-M "P B A M"
_symmetry_group_IT_number 55
_symmetry_cell_setting 'orthorhombic'
loop_
_space_group_symop_operation_xyz
x,y,z
-x,-y,z
1/2+x,1/2-y,-z
1/2-x,1/2+y,-z
-x,-y,-z
x,y,-z
1/2-x,1/2+y,z
1/2+x,1/2-y,z
loop_
_atom_site_type_symbol
_atom_site_label
_atom_site_fract_x
_atom_site_fract_y
_atom_site_fract_z
Si Si1 0.195824 0.171235 0.386791
Si Si2 0.418254 0.071949 0.892635
Si Si3 0.696651 0.671916 0.278510
Si Si4 0.751951 0.474782 0.247582
Si Si5 0.079596 0.075872 0.110129
Si Si6 0.934275 0.224815 0.889151
Si Si7 0.987077 0.102503 0.613481
O O1 0.212047 0.180315 0.500000
O O2 0.240794 0.253422 0.329649
O O3 0.083777 0.156469 0.371460
O O4 0.242406 0.082158 0.343810
O O5 0.456516 0.171548 0.881972
O O6 0.500000 0.000000 0.886442
O O7 0.342283 0.053876 0.812086
O O8 0.376266 0.066125 0.000000
O O9 0.750695 0.579310 0.266490
O O10 0.655181 0.703963 0.177022
O O11 0.602485 0.647894 0.338349
O O12 0.662532 0.449463 0.181214
O O13 0.023937 0.165012 0.138210
O O14 0.112765 0.083935 0.000000
O O15 0.000000 0.000000 0.112493
O O16 0.913375 0.202983 0.000000
O O17 0.970431 0.097701 0.500000
O O18 0.000000 0.000000 0.647458
#
# Coordination Sequence:
#
# PCOD9427082 Si02
#       7
#     8   8   8   8   8   8   8
#     4  11  25  42  62  95 127 163 214 269 324 376
#     4  10  23  44  63  87 128 174 214 251 304 380
#     4  12  23  39  66  95 127 165 209 262 320 382
#     4  12  23  38  65  97 121 169 209 264 309 386
#     4  10  20  35  60  97 134 159 197 259 317 370
#     4  10  21  38  59  90 129 165 204 253 308 372
#     4  10  21  40  67  93 123 161 208 263 318 375
#
# _framework density 18.698758999999999
#
# number of rings (size 3 to 8) (size 9 to 14) (size 15 to 20)
#    0.000    1.286    4.286    1.714    0.000    3.429 
#    0.000    0.000    0.000    0.429    0.000    0.000 
#    0.000    0.000    0.000    0.000    0.000    0.000 
#
# Total GULP energy -312975.036602 kJ/mol
# GULP energy per Si atom -5588.839939 kJ/mol
# Density = 1.865620 g / cm^3
# Si number density = 18.698759 Si / 1000 Ang^3
#
#
#
# Elastic Constant Matrix: (Units=GPa)
#
#
# Indices 1 2 3 4 5 6 
#
# 1 52.6351 26.9373 18.1444 0.0000 0.0000 0.0000
# 2 26.9373 129.2077 27.4843 0.0000 0.0000 0.0000
# 3 18.1444 27.4843 75.2735 0.0000 0.0000 0.0000
# 4 0.0000 0.0000 0.0000 23.8644 0.0000 0.0000
# 5 0.0000 0.0000 0.0000 0.0000 27.9902 0.0000
# 6 0.0000 0.0000 0.0000 0.0000 0.0000 35.9628
#
#
#
# Elastic Compliance Matrix: (Units=1/GPa)
#
#
# Indices 1 2 3 4 5 6 
#
# 1 0.022322 -0.003805 -0.003991 0.000000 0.000000 0.000000
# 2 -0.003805 0.009040 -0.002384 0.000000 0.000000 0.000000
# 3 -0.003991 -0.002384 0.015117 0.000000 0.000000 0.000000
# 4 0.000000 0.000000 0.000000 0.041903 0.000000 0.000000
# 5 0.000000 0.000000 0.000000 0.000000 0.035727 0.000000
# 6 0.000000 0.000000 0.000000 0.000000 0.000000 0.027807
#
#
# Mechanical properties :
#
#
# Convention : Reuss Voigt Hill
#
# Bulk Modulus (GPa) = 38.28544 44.69427 41.48985
# Shear Modulus (GPa) = 27.62719 29.86683 28.74701
#
# Velocity S-wave (km/s) = 3.84798 4.00091 3.92519
# Velocity P-wave (km/s) = 6.34523 6.73032 6.54061
#
# Compressibility (1/GPa) = 0.02611959
#
# Stress axis : x y z
#
# Youngs Moduli (GPa) = 44.79937 110.62341 66.14938
#
# Poissons Ratio (x) = 0.42088 0.26403
# Poissons Ratio (y) = 0.17044 0.15767
# Poissons Ratio (z) = 0.17881 0.26367
#
# Static dielectric constant tensor:
#      x y z
#    x 1.612590 0.000000 0.000000 
#    y 0.000000 1.643780 0.000000 
#    z 0.000000 0.000000 1.673350 
# 
# From -- ./inp_files/18416.got.cif
#   From: 2010.05.17/outbox.cif.g08.bks.cpg/sg55_10_cif.got.tgz:18416.got - 2010.06.03 13:27:54.
