data_PCOD9427059
_publ_section_title
;
Structure prediction by ZEFSAII (Michael W. Deem and Ramdas Pophale) SiO2 
 PCOD9427059
Probable space group: P B A M
;
_chemical_formula_sum "Si O2"
_cell_formula_units_Z 64
_cell_length_a 10.559357
_cell_length_b 18.673802
_cell_length_c 15.075044
_cell_angle_alpha 90.000000
_cell_angle_beta 90.000000
_cell_angle_gamma 90.000000
_cell_volume 2972.547555
_symmetry_space_group_name_H-M "P B A M"
_symmetry_group_IT_number 55
_symmetry_cell_setting 'orthorhombic'
loop_
_space_group_symop_operation_xyz
x,y,z
-x,-y,z
1/2+x,1/2-y,-z
1/2-x,1/2+y,-z
-x,-y,-z
x,y,-z
1/2-x,1/2+y,z
1/2+x,1/2-y,z
loop_
_atom_site_type_symbol
_atom_site_label
_atom_site_fract_x
_atom_site_fract_y
_atom_site_fract_z
Si Si1 0.073946 0.790074 0.660151
Si Si2 0.358676 0.979448 0.152141
Si Si3 0.694198 0.183457 0.136011
Si Si4 0.976703 0.213512 0.860794
Si Si5 0.878819 0.543075 0.636379
Si Si6 0.602302 0.439389 0.893283
Si Si7 0.397361 0.445113 0.398709
Si Si8 0.840374 0.707255 0.648669
O O1 0.054733 0.763243 0.760124
O O2 0.945592 0.762790 0.618490
O O3 0.093435 0.875079 0.660818
O O4 0.203994 0.765920 0.616235
O O5 0.321224 0.900712 0.117700
O O6 0.371358 0.969692 0.258056
O O7 0.500000 0.000000 0.119309
O O8 0.243950 0.035072 0.133991
O O9 0.575790 0.229435 0.100730
O O10 0.683906 0.197320 0.243895
O O11 0.834062 0.205560 0.102556
O O12 0.050966 0.137462 0.859868
O O13 0.741285 0.520869 0.602045
O O14 0.882143 0.628188 0.618007
O O15 0.000000 0.500000 0.603201
O O16 0.500000 0.500000 0.866157
O O17 0.601231 0.435159 0.000000
O O18 0.500000 0.500000 0.366191
O O19 0.427057 0.423799 0.500000
#
# Coordination Sequence:
#
# PCOD9427059 Si02
#       8
#     8   8   8   8   8   8   8   8
#     4   9  18  33  54  77 107 144 179 228 272 326
#     4  10  21  37  61  88 117 148 195 248 290 343
#     4   9  18  34  54  84 113 140 186 238 288 331
#     4  10  20  35  59  83 111 150 191 237 285 343
#     4   9  19  35  57  85 110 145 189 232 276 338
#     4  11  24  40  58  83 116 152 194 236 289 354
#     4  10  22  36  52  79 115 146 182 230 281 336
#     4   8  16  31  50  80 108 133 177 227 271 315
#
# _framework density 21.530353999999999
#
# number of rings (size 3 to 8) (size 9 to 14) (size 15 to 20)
#    0.000    2.500    1.250    0.750    3.500    1.500 
#    4.500    3.750    0.000    0.000    0.000    0.000 
#    0.000    0.000    0.000    0.000    0.000    0.000 
#
# Total GULP energy -356729.947097 kJ/mol
# GULP energy per Si atom -5573.905423 kJ/mol
# Density = 2.148135 g / cm^3
# Si number density = 21.530354 Si / 1000 Ang^3
#
#
#
# Elastic Constant Matrix: (Units=GPa)
#
#
# Indices 1 2 3 4 5 6 
#
# 1 244.7393 83.9086 4.9129 0.0000 0.0000 0.0000
# 2 83.9086 56.0894 -1.4232 0.0000 0.0000 0.0000
# 3 4.9129 -1.4232 35.8599 0.0000 0.0000 0.0000
# 4 0.0000 0.0000 0.0000 1460.5840 0.0000 0.0000
# 5 0.0000 0.0000 0.0000 0.0000 7.1387 0.0000
# 6 0.0000 0.0000 0.0000 0.0000 0.0000 49.0759
#
#
#
# Elastic Compliance Matrix: (Units=1/GPa)
#
#
# Indices 1 2 3 4 5 6 
#
# 1 0.008487 -0.012738 -0.001668 0.000000 0.000000 0.000000
# 2 -0.012738 0.036967 0.003212 0.000000 0.000000 0.000000
# 3 -0.001668 0.003212 0.028242 0.000000 0.000000 0.000000
# 4 0.000000 0.000000 0.000000 0.000685 0.000000 0.000000
# 5 0.000000 0.000000 0.000000 0.000000 0.140081 0.000000
# 6 0.000000 0.000000 0.000000 0.000000 0.000000 0.020377
#
#
# Mechanical properties :
#
#
# Convention : Reuss Voigt Hill
#
# Bulk Modulus (GPa) = 19.49050 56.83166 38.16108
# Shear Modulus (GPa) = 18.22624 319.97907 169.10266
#
# Velocity S-wave (km/s) = 2.91269 12.20411 8.87198
# Velocity P-wave (km/s) = 4.51485 15.00135 11.07755
#
# Compressibility (1/GPa) = 0.05130704
#
# Stress axis : x y z
#
# Youngs Moduli (GPa) = 117.82949 27.05137 35.40784
#
# Poissons Ratio (x) = 0.34459 0.05907
# Poissons Ratio (y) = 1.50097 -0.11374
# Poissons Ratio (z) = 0.19657 -0.08690
#
# Static dielectric constant tensor:
#      x y z
#    x 1.816310 0.000000 0.000000 
#    y 0.000000 1.759090 0.000000 
#    z 0.000000 0.000000 1.879740 
# 
# From -- ./inp_files/21101.got.cif
#   From: 2010.05.17/outbox.cif.g08.bks.cpg/sg55_11_cif.got.tgz:21101.got - 2010.06.03 13:27:54.
