data_PCOD9427424
_publ_section_title
;
Structure prediction by ZEFSAII (Michael W. Deem and Ramdas Pophale) SiO2 
 PCOD9427424
Probable space group: P B A M
;
_chemical_formula_sum "Si O2"
_cell_formula_units_Z 56
_cell_length_a 16.097215
_cell_length_b 9.367799
_cell_length_c 17.470248
_cell_angle_alpha 90.000000
_cell_angle_beta 90.000000
_cell_angle_gamma 90.000000
_cell_volume 2634.434338
_symmetry_space_group_name_H-M "P B A M"
_symmetry_group_IT_number 55
_symmetry_cell_setting 'orthorhombic'
loop_
_space_group_symop_operation_xyz
x,y,z
-x,-y,z
1/2+x,1/2-y,-z
1/2-x,1/2+y,-z
-x,-y,-z
x,y,-z
1/2-x,1/2+y,z
1/2+x,1/2-y,z
loop_
_atom_site_type_symbol
_atom_site_label
_atom_site_fract_x
_atom_site_fract_y
_atom_site_fract_z
Si Si1 0.493616 0.326659 0.586949
Si Si2 0.448429 0.870625 0.874206
Si Si3 0.321569 0.335937 0.665557
Si Si4 0.375340 0.596818 0.140813
Si Si5 0.900806 0.217781 0.173323
Si Si6 0.809602 0.445267 0.087328
Si Si7 0.154882 0.172222 0.317283
O O1 0.500000 0.500000 0.588237
O O2 0.507514 0.278682 0.500000
O O3 0.400568 0.288182 0.614405
O O4 0.568578 0.282495 0.642777
O O5 0.422370 0.717694 0.907980
O O6 0.517380 0.814452 0.814185
O O7 0.500000 0.000000 0.913969
O O8 0.360582 0.946321 0.858463
O O9 0.346092 0.288260 0.751219
O O10 0.322220 0.508000 0.661781
O O11 0.230826 0.269885 0.654168
O O12 0.418971 0.445219 0.153017
O O13 0.286408 0.561738 0.105425
O O14 0.359132 0.664543 0.225429
O O15 0.849807 0.292188 0.105464
O O16 0.823580 0.489323 0.000000
#
# Coordination Sequence:
#
# PCOD9427424 Si02
#       7
#     8   8   8   8   8   8   8
#     4   9  19  37  60  90 128 168 206 249 310 379
#     4  10  23  38  60  87 118 155 198 258 313 373
#     4  10  20  37  60  93 122 166 213 262 309 374
#     4  11  21  38  62  88 122 157 211 259 307 381
#     4  10  21  38  60  87 119 162 210 256 311 369
#     4  11  24  41  60  86 121 161 205 261 323 377
#     4  10  21  36  63  90 125 164 212 258 309 372
#
# _framework density 21.256936
#
# number of rings (size 3 to 8) (size 9 to 14) (size 15 to 20)
#    0.000    1.857    1.429    2.143    2.000    7.714 
#    0.000    0.714    0.000    6.000    0.000    0.000 
#    0.000    0.000    0.000    0.000    0.000    0.000 
#
# Total GULP energy -312030.097930 kJ/mol
# GULP energy per Si atom -5571.966034 kJ/mol
# Density = 2.120855 g / cm^3
# Si number density = 21.256936 Si / 1000 Ang^3
#
#
#
# Elastic Constant Matrix: (Units=GPa)
#
#
# Indices 1 2 3 4 5 6 
#
# 1 105.7450 36.4239 41.4146 0.0000 0.0000 0.0000
# 2 36.4239 86.1730 35.0481 0.0000 0.0000 0.0000
# 3 41.4146 35.0481 57.1420 0.0000 0.0000 0.0000
# 4 0.0000 0.0000 0.0000 14.1038 0.0000 0.0000
# 5 0.0000 0.0000 0.0000 0.0000 -22.9177 0.0000
# 6 0.0000 0.0000 0.0000 0.0000 0.0000 49.6899
#
#
#
# Elastic Compliance Matrix: (Units=1/GPa)
#
#
# Indices 1 2 3 4 5 6 
#
# 1 0.013541 -0.002308 -0.008399 0.000000 0.000000 0.000000
# 2 -0.002308 0.015855 -0.008052 0.000000 0.000000 0.000000
# 3 -0.008399 -0.008052 0.028526 0.000000 0.000000 0.000000
# 4 0.000000 0.000000 0.000000 0.070903 0.000000 0.000000
# 5 0.000000 0.000000 0.000000 0.000000 -0.043634 0.000000
# 6 0.000000 0.000000 0.000000 0.000000 0.000000 0.020125
#
#
# Mechanical properties :
#
#
# Convention : Reuss Voigt Hill
#
# Bulk Modulus (GPa) = 49.00726 52.75926 50.88326
# Shear Modulus (GPa) = 33.41496 17.25341 25.33419
#
# Velocity S-wave (km/s) = 3.96909 2.85206 3.45600
# Velocity P-wave (km/s) = 6.64151 5.97656 6.31779
#
# Compressibility (1/GPa) = 0.02040514
#
# Stress axis : x y z
#
# Youngs Moduli (GPa) = 73.85064 63.07199 35.05575
#
# Poissons Ratio (x) = 0.14555 0.29442
# Poissons Ratio (y) = 0.17042 0.28227
# Poissons Ratio (z) = 0.62024 0.50786
#
# Static dielectric constant tensor:
#      x y z
#    x 1.726000 0.000000 0.000000 
#    y 0.000000 1.803600 0.000000 
#    z 0.000000 0.000000 1.777460 
# 
# From -- ./inp_files/22980.got.cif
#   From: 2010.05.17/outbox.cif.g08.bks.cpg/sg55_12_cif.got.tgz:22980.got - 2010.06.03 13:27:54.
