data_PCOD9427770
_publ_section_title
;
Structure prediction by ZEFSAII (Michael W. Deem and Ramdas Pophale) SiO2 
 PCOD9427770
Probable space group: P B A M
;
_chemical_formula_sum "Si O2"
_cell_formula_units_Z 48
_cell_length_a 28.326870
_cell_length_b 8.040398
_cell_length_c 9.684899
_cell_angle_alpha 90.000000
_cell_angle_beta 90.000000
_cell_angle_gamma 90.000000
_cell_volume 2205.825903
_symmetry_space_group_name_H-M "P B A M"
_symmetry_group_IT_number 55
_symmetry_cell_setting 'orthorhombic'
loop_
_space_group_symop_operation_xyz
x,y,z
-x,-y,z
1/2+x,1/2-y,-z
1/2-x,1/2+y,-z
-x,-y,-z
x,y,-z
1/2-x,1/2+y,z
1/2+x,1/2-y,z
loop_
_atom_site_type_symbol
_atom_site_label
_atom_site_fract_x
_atom_site_fract_y
_atom_site_fract_z
Si Si1 0.323598 0.253511 0.341937
Si Si2 0.425649 0.913846 0.340863
Si Si3 0.402883 0.406153 0.158896
Si Si4 0.229541 0.106525 0.341121
Si Si5 0.979188 0.232437 0.659252
Si Si6 0.150595 0.261251 0.159137
O O1 0.341097 0.230715 0.500000
O O2 0.365749 0.287224 0.237753
O O3 0.285005 0.114037 0.307395
O O4 0.292421 0.422930 0.338447
O O5 0.411302 0.884964 0.500000
O O6 0.467147 0.781664 0.307483
O O7 0.381510 0.890869 0.241822
O O8 0.450645 0.092595 0.332650
O O9 0.451869 0.390764 0.240451
O O10 0.379811 0.589060 0.163037
O O11 0.408957 0.357309 0.000000
O O12 0.224952 0.167174 0.500000
O O13 0.198695 0.216907 0.237939
O O14 0.976625 0.176783 0.500000
O O15 0.158326 0.307081 0.000000
#
# Coordination Sequence:
#
# PCOD9427770 Si02
#       6
#     8   8   8   8   8   8
#     4   9  18  33  52  73  98 130 169 211 252 295
#     4   9  19  36  56  77 101 131 170 214 256 300
#     4  10  21  35  51  75 107 139 170 206 250 302
#     4   9  18  33  52  73  98 130 169 211 252 295
#     4   9  19  36  56  77 101 131 170 214 256 300
#     4  10  21  35  51  75 107 139 170 206 250 302
#
# _framework density 21.760559000000001
#
# number of rings (size 3 to 8) (size 9 to 14) (size 15 to 20)
#    0.000    2.667    0.000    2.000    0.000    6.000 
#    0.000    8.333    0.000    0.000    0.000    0.000 
#    0.000    0.000    0.000    0.000    0.000    0.000 
#
# Total GULP energy -268349.529218 kJ/mol
# GULP energy per Si atom -5590.615192 kJ/mol
# Density = 2.171103 g / cm^3
# Si number density = 21.760559 Si / 1000 Ang^3
#
#
#
# Elastic Constant Matrix: (Units=GPa)
#
#
# Indices 1 2 3 4 5 6 
#
# 1 88.6039 18.4533 49.5397 0.0000 0.0000 0.0000
# 2 18.4533 53.4206 20.0610 0.0000 0.0000 0.0000
# 3 49.5397 20.0610 74.0956 0.0000 0.0000 0.0000
# 4 0.0000 0.0000 0.0000 12.0132 0.0000 0.0000
# 5 0.0000 0.0000 0.0000 0.0000 9.6097 0.0000
# 6 0.0000 0.0000 0.0000 0.0000 0.0000 45.8937
#
#
#
# Elastic Compliance Matrix: (Units=1/GPa)
#
#
# Indices 1 2 3 4 5 6 
#
# 1 0.018197 -0.001911 -0.011649 0.000000 0.000000 0.000000
# 2 -0.001911 0.021039 -0.004418 0.000000 0.000000 0.000000
# 3 -0.011649 -0.004418 0.022481 0.000000 0.000000 0.000000
# 4 0.000000 0.000000 0.000000 0.083242 0.000000 0.000000
# 5 0.000000 0.000000 0.000000 0.000000 0.104061 0.000000
# 6 0.000000 0.000000 0.000000 0.000000 0.000000 0.021789
#
#
# Mechanical properties :
#
#
# Convention : Reuss Voigt Hill
#
# Bulk Modulus (GPa) = 38.82060 43.58091 41.20075
# Shear Modulus (GPa) = 15.85520 22.04107 18.94813
#
# Velocity S-wave (km/s) = 2.70223 3.18605 2.95406
# Velocity P-wave (km/s) = 5.25496 5.79702 5.53264
#
# Compressibility (1/GPa) = 0.02575952
#
# Stress axis : x y z
#
# Youngs Moduli (GPa) = 54.95267 47.53127 44.48241
#
# Poissons Ratio (x) = 0.09085 0.51818
# Poissons Ratio (y) = 0.10504 0.19653
# Poissons Ratio (z) = 0.64015 0.21000
#
# Static dielectric constant tensor:
#      x y z
#    x 1.767370 0.000000 0.000000 
#    y 0.000000 1.858520 0.000000 
#    z 0.000000 0.000000 1.736510 
# 
# From -- ./inp_files/2790.got.cif
#   From: 2010.05.17/outbox.cif.g08.bks.cpg/sg55_2_cif.got.tgz:2790.got - 2010.06.03 13:27:54.
