data_PCOD9427882
_publ_section_title
;
Structure prediction by ZEFSAII (Michael W. Deem and Ramdas Pophale) SiO2 
 PCOD9427882
Probable space group: P B A M
;
_chemical_formula_sum "Si O2"
_cell_formula_units_Z 48
_cell_length_a 31.587511
_cell_length_b 9.517610
_cell_length_c 8.539414
_cell_angle_alpha 90.000000
_cell_angle_beta 90.000000
_cell_angle_gamma 90.000000
_cell_volume 2567.269021
_symmetry_space_group_name_H-M "P B A M"
_symmetry_group_IT_number 55
_symmetry_cell_setting 'orthorhombic'
loop_
_space_group_symop_operation_xyz
x,y,z
-x,-y,z
1/2+x,1/2-y,-z
1/2-x,1/2+y,-z
-x,-y,-z
x,y,-z
1/2-x,1/2+y,z
1/2+x,1/2-y,z
loop_
_atom_site_type_symbol
_atom_site_label
_atom_site_fract_x
_atom_site_fract_y
_atom_site_fract_z
Si Si1 0.711661 0.604262 0.684132
Si Si2 0.458221 0.586625 0.689602
Si Si3 0.040420 0.410574 0.311169
Si Si4 0.379003 0.412942 0.187717
Si Si5 0.714695 0.914313 0.185836
Si Si6 0.118675 0.586543 0.811553
O O1 0.710535 0.633984 0.500000
O O2 0.666045 0.546263 0.738083
O O3 0.749445 0.499451 0.725032
O O4 0.718418 0.749337 0.777104
O O5 0.500000 0.500000 0.736566
O O6 0.455914 0.583968 0.500000
O O7 0.461259 0.748717 0.741208
O O8 0.416823 0.511273 0.756438
O O9 0.039030 0.409589 0.500000
O O10 0.083111 0.487466 0.259009
O O11 0.000000 0.500000 0.254462
O O12 0.387697 0.250119 0.234647
O O13 0.375189 0.416626 0.000000
O O14 0.666668 0.954516 0.233199
O O15 0.719167 0.937195 0.000000
O O16 0.116227 0.580660 0.000000
#
# Coordination Sequence:
#
# PCOD9427882 Si02
#       6
#     8   8   8   8   8   8
#     4  11  22  37  59  87 115 148 192 238 284 336
#     4  10  21  37  57  82 112 146 186 232 281 335
#     4  10  21  36  56  82 110 143 182 225 276 330
#     4  10  21  38  58  81 111 148 188 230 282 340
#     4  10  21  39  59  82 115 153 190 231 285 343
#     4   9  20  37  57  80 107 143 184 225 272 328
#
# _framework density 18.696912000000001
#
# number of rings (size 3 to 8) (size 9 to 14) (size 15 to 20)
#    0.000    2.000    0.000    4.500    0.000    8.000 
#    0.000    3.333    0.000    0.000    0.000    0.000 
#    0.000    0.000    0.000    0.000    0.000    0.000 
#
# Total GULP energy -268124.087477 kJ/mol
# GULP energy per Si atom -5585.918489 kJ/mol
# Density = 1.865436 g / cm^3
# Si number density = 18.696912 Si / 1000 Ang^3
#
#
#
# Elastic Constant Matrix: (Units=GPa)
#
#
# Indices 1 2 3 4 5 6 
#
# 1 154.0658 92.0637 19.3972 0.0000 0.0000 0.0000
# 2 92.0637 106.2080 15.4118 0.0000 0.0000 0.0000
# 3 19.3972 15.4118 24.2993 0.0000 0.0000 0.0000
# 4 0.0000 0.0000 0.0000 30.9417 0.0000 0.0000
# 5 0.0000 0.0000 0.0000 0.0000 33.9855 0.0000
# 6 0.0000 0.0000 0.0000 0.0000 0.0000 40.2412
#
#
#
# Elastic Compliance Matrix: (Units=1/GPa)
#
#
# Indices 1 2 3 4 5 6 
#
# 1 0.013772 -0.011391 -0.003769 0.000000 0.000000 0.000000
# 2 -0.011391 0.019792 -0.003460 0.000000 0.000000 0.000000
# 3 -0.003769 -0.003460 0.046356 0.000000 0.000000 0.000000
# 4 0.000000 0.000000 0.000000 0.032319 0.000000 0.000000
# 5 0.000000 0.000000 0.000000 0.000000 0.029424 0.000000
# 6 0.000000 0.000000 0.000000 0.000000 0.000000 0.024850
#
#
# Mechanical properties :
#
#
# Convention : Reuss Voigt Hill
#
# Bulk Modulus (GPa) = 23.42991 59.81318 41.62155
# Shear Modulus (GPa) = 22.93791 31.54705 27.24248
#
# Velocity S-wave (km/s) = 3.50641 4.11212 3.82128
# Velocity P-wave (km/s) = 5.38069 7.38961 6.46368
#
# Compressibility (1/GPa) = 0.04268048
#
# Stress axis : x y z
#
# Youngs Moduli (GPa) = 72.61052 50.52651 21.57202
#
# Poissons Ratio (x) = 0.57555 0.08130
# Poissons Ratio (y) = 0.82711 0.07463
# Poissons Ratio (z) = 0.27366 0.17481
#
# Static dielectric constant tensor:
#      x y z
#    x 1.623040 0.000000 0.000000 
#    y 0.000000 1.625320 0.000000 
#    z 0.000000 0.000000 1.633810 
# 
# From -- ./inp_files/2772.got.cif
#   From: 2010.05.17/outbox.cif.g08.bks.cpg/sg55_2_cif.got.tgz:2772.got - 2010.06.03 13:27:54.
