data_PCOD9427505
_publ_section_title
;
Structure prediction by ZEFSAII (Michael W. Deem and Ramdas Pophale) SiO2 
 PCOD9427505
Probable space group: P B A M
;
_chemical_formula_sum "Si O2"
_cell_formula_units_Z 52
_cell_length_a 17.350211
_cell_length_b 8.924529
_cell_length_c 16.023363
_cell_angle_alpha 90.000000
_cell_angle_beta 90.000000
_cell_angle_gamma 90.000000
_cell_volume 2481.096964
_symmetry_space_group_name_H-M "P B A M"
_symmetry_group_IT_number 55
_symmetry_cell_setting 'orthorhombic'
loop_
_space_group_symop_operation_xyz
x,y,z
-x,-y,z
1/2+x,1/2-y,-z
1/2-x,1/2+y,-z
-x,-y,-z
x,y,-z
1/2-x,1/2+y,z
1/2+x,1/2-y,z
loop_
_atom_site_type_symbol
_atom_site_label
_atom_site_fract_x
_atom_site_fract_y
_atom_site_fract_z
Si Si1 0.479921 0.662446 0.135988
Si Si2 0.365140 0.809336 0.000000
Si Si3 0.715318 0.545044 0.406679
Si Si4 0.426944 0.108656 0.771853
Si Si5 0.637503 0.865374 0.593790
Si Si6 0.215093 0.409099 0.832524
Si Si7 0.337359 0.609489 0.242884
O O1 0.500000 0.500000 0.100558
O O2 0.553740 0.750544 0.169743
O O3 0.424532 0.635032 0.215495
O O4 0.428561 0.758611 0.072495
O O5 0.304221 0.858249 0.925746
O O6 0.694831 0.491966 0.500000
O O7 0.805782 0.507909 0.396447
O O8 0.691940 0.718341 0.402192
O O9 0.672349 0.454857 0.334627
O O10 0.417057 0.143382 0.673890
O O11 0.350455 0.026532 0.803789
O O12 0.500000 0.000000 0.782355
O O13 0.603126 0.868999 0.500000
O O14 0.207077 0.265267 0.772652
O O15 0.296098 0.490601 0.818779
#
# Coordination Sequence:
#
# PCOD9427505 Si02
#       7
#     8   4   8   8   8   8   8
#     4  11  25  42  71  97 133 175 217 273 328 408
#     4  10  23  47  62  94 127 159 219 258 332 385
#     4  10  20  37  63  95 129 169 220 274 318 386
#     4  12  23  43  64  93 132 176 216 265 336 395
#     4  10  22  37  61  94 131 170 221 272 328 391
#     4  11  25  40  69  92 129 169 216 281 318 396
#     4  11  22  41  64  98 128 170 224 264 330 383
#
# _framework density 20.958470999999999
#
# number of rings (size 3 to 8) (size 9 to 14) (size 15 to 20)
#    0.000    1.231    4.615    2.077    2.154    4.000 
#    0.000    0.769    0.000    2.769    0.000    0.000 
#    0.000    0.000    0.000    0.000    0.000    0.000 
#
# Total GULP energy -289550.413288 kJ/mol
# GULP energy per Si atom -5568.277179 kJ/mol
# Density = 2.091077 g / cm^3
# Si number density = 20.958471 Si / 1000 Ang^3
#
#
#
# Elastic Constant Matrix: (Units=GPa)
#
#
# Indices 1 2 3 4 5 6 
#
# 1 32.4322 13.7134 7.4759 0.0000 0.0000 0.0000
# 2 13.7134 81.2825 11.4716 0.0000 0.0000 0.0000
# 3 7.4759 11.4716 142.4385 0.0000 0.0000 0.0000
# 4 0.0000 0.0000 0.0000 -11.2636 0.0000 0.0000
# 5 0.0000 0.0000 0.0000 0.0000 27.5100 0.0000
# 6 0.0000 0.0000 0.0000 0.0000 0.0000 33.7174
#
#
#
# Elastic Compliance Matrix: (Units=1/GPa)
#
#
# Indices 1 2 3 4 5 6 
#
# 1 0.033444 -0.005457 -0.001316 0.000000 0.000000 0.000000
# 2 -0.005457 0.013335 -0.000788 0.000000 0.000000 0.000000
# 3 -0.001316 -0.000788 0.007153 0.000000 0.000000 0.000000
# 4 0.000000 0.000000 0.000000 -0.088782 0.000000 0.000000
# 5 0.000000 0.000000 0.000000 0.000000 0.036350 0.000000
# 6 0.000000 0.000000 0.000000 0.000000 0.000000 0.029658
#
#
# Mechanical properties :
#
#
# Convention : Reuss Voigt Hill
#
# Bulk Modulus (GPa) = 25.76554 35.71945 30.74249
# Shear Modulus (GPa) = 84.43609 24.89225 54.66417
#
# Velocity S-wave (km/s) = 6.35412 3.45003 5.11261
# Velocity P-wave (km/s) = 8.13347 5.74023 7.03930
#
# Compressibility (1/GPa) = 0.03881153
#
# Stress axis : x y z
#
# Youngs Moduli (GPa) = 29.90054 74.99319 139.80030
#
# Poissons Ratio (x) = 0.40922 0.18396
# Poissons Ratio (y) = 0.16316 0.11010
# Poissons Ratio (z) = 0.03934 0.05906
#
# Static dielectric constant tensor:
#      x y z
#    x 1.718140 0.000000 0.000000 
#    y 0.000000 1.820390 0.000000 
#    z 0.000000 0.000000 1.740770 
# 
# From -- ./inp_files/19695.got.cif
#   From: 2010.05.17/outbox.cif.g08.bks.cpg/sg55_10_cif.got.tgz:19695.got - 2010.06.03 13:27:54.
