data_PCOD9427431
_publ_section_title
;
Structure prediction by ZEFSAII (Michael W. Deem and Ramdas Pophale) SiO2 
 PCOD9427431
Probable space group: P B A M
;
_chemical_formula_sum "Si O2"
_cell_formula_units_Z 64
_cell_length_a 19.289212
_cell_length_b 19.800896
_cell_length_c 8.293975
_cell_angle_alpha 90.000000
_cell_angle_beta 90.000000
_cell_angle_gamma 90.000000
_cell_volume 3167.831339
_symmetry_space_group_name_H-M "P B A M"
_symmetry_group_IT_number 55
_symmetry_cell_setting 'orthorhombic'
loop_
_space_group_symop_operation_xyz
x,y,z
-x,-y,z
1/2+x,1/2-y,-z
1/2-x,1/2+y,-z
-x,-y,-z
x,y,-z
1/2-x,1/2+y,z
1/2+x,1/2-y,z
loop_
_atom_site_type_symbol
_atom_site_label
_atom_site_fract_x
_atom_site_fract_y
_atom_site_fract_z
Si Si1 0.599105 0.759699 0.307265
Si Si2 0.014856 0.870743 0.693072
Si Si3 0.641355 0.386681 0.807976
Si Si4 0.366474 0.460450 0.195091
Si Si5 0.733131 0.120870 0.804924
Si Si6 0.256508 0.730631 0.692415
Si Si7 0.462915 0.103037 0.805088
Si Si8 0.394000 0.968711 0.803965
O O1 0.604453 0.752013 0.500000
O O2 0.559832 0.693242 0.245566
O O3 0.677143 0.771084 0.243668
O O4 0.554674 0.825358 0.267406
O O5 0.010479 0.868009 0.500000
O O6 0.059100 0.936138 0.743287
O O7 0.937449 0.869061 0.760713
O O8 0.652982 0.463914 0.750568
O O9 0.695747 0.331231 0.747177
O O10 0.646897 0.387459 0.000000
O O11 0.307983 0.406854 0.249185
O O12 0.367907 0.460315 0.000000
O O13 0.716536 0.195882 0.746016
O O14 0.675256 0.067694 0.748867
O O15 0.733059 0.121726 0.000000
O O16 0.254445 0.728788 0.500000
O O17 0.538459 0.074900 0.759214
O O18 0.407986 0.045507 0.752648
O O19 0.461074 0.107530 0.000000
O O20 0.392480 0.970094 0.000000
#
# Coordination Sequence:
#
# PCOD9427431 Si02
#       8
#     8   8   8   8   8   8   8   8
#     4  10  23  40  57  82 120 158 197 242 288 350
#     4  11  23  42  64  88 122 165 204 247 306 365
#     4  11  25  42  64  95 124 152 200 258 304 356
#     4  10  22  40  63  91 122 158 203 257 307 357
#     4  10  20  37  61  86 118 158 199 245 299 354
#     4  11  24  43  60  85 122 160 199 242 294 357
#     4   9  18  34  59  86 115 151 194 241 292 348
#     4   8  17  34  56  87 118 147 190 243 293 349
#
# _framework density 20.203095000000001
#
# number of rings (size 3 to 8) (size 9 to 14) (size 15 to 20)
#    0.000    2.000    1.250    2.250    3.500    4.500 
#    0.000    1.875    0.000    0.000    0.000    0.000 
#    0.000    0.000    0.000    0.000    0.000    0.000 
#
# Total GULP energy -357422.332392 kJ/mol
# GULP energy per Si atom -5584.723944 kJ/mol
# Density = 2.015711 g / cm^3
# Si number density = 20.203095 Si / 1000 Ang^3
#
#
#
# Elastic Constant Matrix: (Units=GPa)
#
#
# Indices 1 2 3 4 5 6 
#
# 1 31.6112 29.3257 0.6340 0.0000 0.0000 0.0000
# 2 29.3257 126.3246 9.7212 0.0000 0.0000 0.0000
# 3 0.6340 9.7212 14.2794 0.0000 0.0000 0.0000
# 4 0.0000 0.0000 0.0000 31.2793 0.0000 0.0000
# 5 0.0000 0.0000 0.0000 0.0000 23.4887 0.0000
# 6 0.0000 0.0000 0.0000 0.0000 0.0000 37.6907
#
#
#
# Elastic Compliance Matrix: (Units=1/GPa)
#
#
# Indices 1 2 3 4 5 6 
#
# 1 0.040636 -0.009808 0.004873 0.000000 0.000000 0.000000
# 2 -0.009808 0.010721 -0.006863 0.000000 0.000000 0.000000
# 3 0.004873 -0.006863 0.074487 0.000000 0.000000 0.000000
# 4 0.000000 0.000000 0.000000 0.031970 0.000000 0.000000
# 5 0.000000 0.000000 0.000000 0.000000 0.042574 0.000000
# 6 0.000000 0.000000 0.000000 0.000000 0.000000 0.026532
#
#
# Mechanical properties :
#
#
# Convention : Reuss Voigt Hill
#
# Bulk Modulus (GPa) = 9.78026 27.95301 18.86663
# Shear Modulus (GPa) = 17.56857 27.32735 22.44796
#
# Velocity S-wave (km/s) = 2.95209 3.68180 3.33696
# Velocity P-wave (km/s) = 4.05848 5.65157 4.91994
#
# Compressibility (1/GPa) = 0.10224679
#
# Stress axis : x y z
#
# Youngs Moduli (GPa) = 24.60879 93.27259 13.42517
#
# Poissons Ratio (x) = 0.91486 -0.06542
# Poissons Ratio (y) = 0.24137 0.09214
# Poissons Ratio (z) = -0.11992 0.64016
#
# Static dielectric constant tensor:
#      x y z
#    x 1.712650 0.000000 0.000000 
#    y 0.000000 1.705670 0.000000 
#    z 0.000000 0.000000 1.702720 
# 
# From -- ./inp_files/9003.got.cif
#   From: 2010.05.17/outbox.cif.g08.bks.cpg/sg55_5_cif.got.tgz:9003.got - 2010.06.03 13:27:54.
