data_PCOD9427483
_publ_section_title
;
Structure prediction by ZEFSAII (Michael W. Deem and Ramdas Pophale) SiO2 
 PCOD9427483
Probable space group: P B A M
;
_chemical_formula_sum "Si O2"
_cell_formula_units_Z 40
_cell_length_a 11.015589
_cell_length_b 15.164918
_cell_length_c 11.260173
_cell_angle_alpha 90.000000
_cell_angle_beta 90.000000
_cell_angle_gamma 90.000000
_cell_volume 1881.017574
_symmetry_space_group_name_H-M "P B A M"
_symmetry_group_IT_number 55
_symmetry_cell_setting 'orthorhombic'
loop_
_space_group_symop_operation_xyz
x,y,z
-x,-y,z
1/2+x,1/2-y,-z
1/2-x,1/2+y,-z
-x,-y,-z
x,y,-z
1/2-x,1/2+y,z
1/2+x,1/2-y,z
loop_
_atom_site_type_symbol
_atom_site_label
_atom_site_fract_x
_atom_site_fract_y
_atom_site_fract_z
Si Si1 0.879551 0.060676 0.367106
Si Si2 0.628819 0.243488 0.801012
Si Si3 0.758892 0.882242 0.633554
Si Si4 0.983193 0.600676 0.360982
Si Si5 0.117316 0.824173 0.127886
O O1 0.870835 0.102922 0.500000
O O2 0.883412 0.120642 0.250706
O O3 0.773795 0.987499 0.355637
O O4 0.000000 0.000000 0.368385
O O5 0.658788 0.329807 0.723856
O O6 0.605514 0.160471 0.714872
O O7 0.502023 0.262366 0.866264
O O8 0.752855 0.224791 0.870616
O O9 0.797764 0.859308 0.500000
O O10 0.618296 0.857842 0.647566
O O11 0.948913 0.599089 0.500000
O O12 0.000000 0.500000 0.319846
O O13 0.109923 0.873324 0.000000
#
# Coordination Sequence:
#
# PCOD9427483 Si02
#       5
#     8   8   8   8   8
#     4  10  21  40  68 100 134 169 216 275 331 396
#     4  12  23  43  66  92 131 178 223 272 328 388
#     4  10  20  37  63 101 134 167 218 275 333 397
#     4  10  21  38  64  97 135 174 217 270 335 400
#     4  12  27  45  67  95 134 177 224 272 328 396
#
# _framework density 21.265087000000001
#
# number of rings (size 3 to 8) (size 9 to 14) (size 15 to 20)
#    0.000    1.200    4.000    2.400    0.000    4.400 
#    0.000    0.000    0.000    2.400    0.000    0.000 
#    0.000    0.000    0.000    0.000    0.000    0.000 
#
# Total GULP energy -223327.390076 kJ/mol
# GULP energy per Si atom -5583.184752 kJ/mol
# Density = 2.121669 g / cm^3
# Si number density = 21.265087 Si / 1000 Ang^3
#
#
#
# Elastic Constant Matrix: (Units=GPa)
#
#
# Indices 1 2 3 4 5 6 
#
# 1 143.6483 16.6522 38.0672 0.0000 0.0000 0.0000
# 2 16.6522 55.9071 54.2630 0.0000 0.0000 0.0000
# 3 38.0672 54.2630 158.1304 0.0000 0.0000 0.0000
# 4 0.0000 0.0000 0.0000 2.8206 0.0000 0.0000
# 5 0.0000 0.0000 0.0000 0.0000 -25.9196 0.0000
# 6 0.0000 0.0000 0.0000 0.0000 0.0000 33.4329
#
#
#
# Elastic Compliance Matrix: (Units=1/GPa)
#
#
# Indices 1 2 3 4 5 6 
#
# 1 0.007455 -0.000718 -0.001548 0.000000 0.000000 0.000000
# 2 -0.000718 0.026888 -0.009054 0.000000 0.000000 0.000000
# 3 -0.001548 -0.009054 0.009804 0.000000 0.000000 0.000000
# 4 0.000000 0.000000 0.000000 0.354535 0.000000 0.000000
# 5 0.000000 0.000000 0.000000 0.000000 -0.038581 0.000000
# 6 0.000000 0.000000 0.000000 0.000000 0.000000 0.029911
#
#
# Mechanical properties :
#
#
# Convention : Reuss Voigt Hill
#
# Bulk Modulus (GPa) = 46.49714 63.96117 55.22916
# Shear Modulus (GPa) = 11.90983 18.64701 15.27842
#
# Velocity S-wave (km/s) = 2.36914 2.96443 2.68335
# Velocity P-wave (km/s) = 5.42187 6.46997 5.96897
#
# Compressibility (1/GPa) = 0.02150670
#
# Stress axis : x y z
#
# Youngs Moduli (GPa) = 134.13874 37.19078 102.00340
#
# Poissons Ratio (x) = 0.02669 0.15794
# Poissons Ratio (y) = 0.09626 0.92355
# Poissons Ratio (z) = 0.20770 0.33673
#
# Static dielectric constant tensor:
#      x y z
#    x 1.856040 0.000000 0.000000 
#    y 0.000000 1.758660 0.000000 
#    z 0.000000 0.000000 1.766620 
# 
# From -- ./inp_files/13005.got.cif
#   From: 2010.05.17/outbox.cif.g08.bks.cpg/sg55_7_cif.got.tgz:13005.got - 2010.06.03 13:27:54.
