data_PCOD9427620
_publ_section_title
;
Structure prediction by ZEFSAII (Michael W. Deem and Ramdas Pophale) SiO2 
 PCOD9427620
Probable space group: P B A M
;
_chemical_formula_sum "Si O2"
_cell_formula_units_Z 40
_cell_length_a 8.440702
_cell_length_b 14.752292
_cell_length_c 13.502286
_cell_angle_alpha 90.000000
_cell_angle_beta 90.000000
_cell_angle_gamma 90.000000
_cell_volume 1681.300610
_symmetry_space_group_name_H-M "P B A M"
_symmetry_group_IT_number 55
_symmetry_cell_setting 'orthorhombic'
loop_
_space_group_symop_operation_xyz
x,y,z
-x,-y,z
1/2+x,1/2-y,-z
1/2-x,1/2+y,-z
-x,-y,-z
x,y,-z
1/2-x,1/2+y,z
1/2+x,1/2-y,z
loop_
_atom_site_type_symbol
_atom_site_label
_atom_site_fract_x
_atom_site_fract_y
_atom_site_fract_z
Si Si1 0.437304 0.860700 0.114689
Si Si2 0.806565 0.228960 0.613890
Si Si3 0.089946 0.181110 0.753903
Si Si4 0.253559 0.024363 0.818122
Si Si5 0.825653 0.541374 0.605825
O O1 0.411452 0.770729 0.178365
O O2 0.591722 0.914070 0.155567
O O3 0.290629 0.931188 0.124775
O O4 0.462892 0.839154 0.000000
O O5 0.847011 0.251032 0.500000
O O6 0.740315 0.310251 0.679599
O O7 0.945484 0.183908 0.677639
O O8 0.671821 0.150603 0.610764
O O9 0.107895 0.093969 0.824368
O O10 0.246326 0.993804 0.704213
O O11 0.747443 0.518378 0.500000
O O12 0.000000 0.500000 0.605848
#
# Coordination Sequence:
#
# PCOD9427620 Si02
#       5
#     8   8   8   8   8
#     4  11  24  45  70  98 134 183 238 292 355 414
#     4  11  24  43  68 102 142 187 229 280 352 422
#     4  12  24  44  69 102 143 179 234 297 345 422
#     4  11  21  42  69  96 132 175 231 283 347 418
#     4  10  20  38  67  97 134 180 226 277 342 415
#
# _framework density 23.791105000000002
#
# number of rings (size 3 to 8) (size 9 to 14) (size 15 to 20)
#    0.000    1.000    6.000    1.800    0.000    4.000 
#    0.000    2.000    0.000    1.200    0.000    0.000 
#    0.000    0.000    0.000    0.000    0.000    0.000 
#
# Total GULP energy -223524.049318 kJ/mol
# GULP energy per Si atom -5588.101233 kJ/mol
# Density = 2.373696 g / cm^3
# Si number density = 23.791105 Si / 1000 Ang^3
#
#
#
# Elastic Constant Matrix: (Units=GPa)
#
#
# Indices 1 2 3 4 5 6 
#
# 1 52.1354 3.9637 13.8976 0.0000 0.0000 0.0000
# 2 3.9637 109.5481 49.2948 0.0000 0.0000 0.0000
# 3 13.8976 49.2948 164.8264 0.0000 0.0000 0.0000
# 4 0.0000 0.0000 0.0000 13.0260 0.0000 0.0000
# 5 0.0000 0.0000 0.0000 0.0000 -1.2666 0.0000
# 6 0.0000 0.0000 0.0000 0.0000 0.0000 34.9415
#
#
#
# Elastic Compliance Matrix: (Units=1/GPa)
#
#
# Indices 1 2 3 4 5 6 
#
# 1 0.019622 0.000040 -0.001666 0.000000 0.000000 0.000000
# 2 0.000040 0.010548 -0.003158 0.000000 0.000000 0.000000
# 3 -0.001666 -0.003158 0.007152 0.000000 0.000000 0.000000
# 4 0.000000 0.000000 0.000000 0.076769 0.000000 0.000000
# 5 0.000000 0.000000 0.000000 0.000000 -0.789503 0.000000
# 6 0.000000 0.000000 0.000000 0.000000 0.000000 0.028619
#
#
# Mechanical properties :
#
#
# Convention : Reuss Voigt Hill
#
# Bulk Modulus (GPa) = 36.03212 51.20245 43.61729
# Shear Modulus (GPa) = -7.96214 26.63044 9.33415
#
# Velocity S-wave (km/s) = -1.83138 3.34929 1.98290
# Velocity P-wave (km/s) = 3.27203 6.04362 4.85961
#
# Compressibility (1/GPa) = 0.02775301
#
# Stress axis : x y z
#
# Youngs Moduli (GPa) = 50.96316 94.80475 139.82198
#
# Poissons Ratio (x) = -0.00378 0.23300
# Poissons Ratio (y) = -0.00203 0.44155
# Poissons Ratio (z) = 0.08492 0.29939
#
# Static dielectric constant tensor:
#      x y z
#    x 1.990760 0.000000 0.000000 
#    y 0.000000 1.963270 0.000000 
#    z 0.000000 0.000000 1.860580 
# 
# From -- ./inp_files/17077.got.cif
#   From: 2010.05.17/outbox.cif.g08.bks.cpg/sg55_9_cif.got.tgz:17077.got - 2010.06.03 13:27:54.
