data_PCOD9427450
_publ_section_title
;
Structure prediction by ZEFSAII (Michael W. Deem and Ramdas Pophale) SiO2 
 PCOD9427450
Probable space group: P B A M
;
_chemical_formula_sum "Si O2"
_cell_formula_units_Z 48
_cell_length_a 7.383676
_cell_length_b 17.850482
_cell_length_c 16.603597
_cell_angle_alpha 90.000000
_cell_angle_beta 90.000000
_cell_angle_gamma 90.000000
_cell_volume 2188.390206
_symmetry_space_group_name_H-M "P B A M"
_symmetry_group_IT_number 55
_symmetry_cell_setting 'orthorhombic'
loop_
_space_group_symop_operation_xyz
x,y,z
-x,-y,z
1/2+x,1/2-y,-z
1/2-x,1/2+y,-z
-x,-y,-z
x,y,-z
1/2-x,1/2+y,z
1/2+x,1/2-y,z
loop_
_atom_site_type_symbol
_atom_site_label
_atom_site_fract_x
_atom_site_fract_y
_atom_site_fract_z
Si Si1 0.694280 0.700864 0.090020
Si Si2 0.529511 0.910945 0.500000
Si Si3 0.555473 0.848451 0.836266
Si Si4 0.038807 0.155413 0.334237
Si Si5 0.462737 0.587019 0.500000
Si Si6 0.031540 0.668315 0.661050
Si Si7 0.436643 0.584350 0.837787
O O1 0.659680 0.768139 0.153471
O O2 0.535024 0.641151 0.101640
O O3 0.885618 0.660062 0.104891
O O4 0.691264 0.732888 0.000000
O O5 0.746610 0.899110 0.500000
O O6 0.457546 0.871243 0.418902
O O7 0.500000 0.000000 0.500000
O O8 0.466503 0.859090 0.748179
O O9 0.719070 0.906805 0.846376
O O10 0.964794 0.119893 0.416347
O O11 0.255799 0.151290 0.337269
O O12 0.997876 0.113300 0.250870
O O13 0.990815 0.242624 0.337756
O O14 0.500000 0.500000 0.500000
O O15 0.500000 0.500000 0.849641
#
# Coordination Sequence:
#
# PCOD9427450 Si02
#       7
#     8   4   8   8   4   8   8
#     4  12  24  42  73 102 131 177 230 286 347 420
#     4  10  23  40  56  94 136 170 217 272 332 384
#     4  11  22  43  68 103 134 177 235 280 338 420
#     4  10  20  37  61  90 124 164 223 266 326 399
#     4  10  21  36  54  84 124 168 209 258 318 389
#     4  10  20  38  62  89 124 168 217 272 323 393
#     4  11  25  44  67  99 140 179 219 287 354 408
#
# _framework density 21.933931000000001
#
# number of rings (size 3 to 8) (size 9 to 14) (size 15 to 20)
#    0.000    1.333    3.333    2.500    0.000    3.000 
#    9.000    0.833    0.000    0.000    0.000    0.000 
#    0.000    0.000    0.000    0.000    0.000    0.000 
#
# Total GULP energy -268123.783324 kJ/mol
# GULP energy per Si atom -5585.912153 kJ/mol
# Density = 2.188401 g / cm^3
# Si number density = 21.933931 Si / 1000 Ang^3
#
#
#
# Elastic Constant Matrix: (Units=GPa)
#
#
# Indices 1 2 3 4 5 6 
#
# 1 74.4896 -14.1808 14.2234 0.0000 0.0000 0.0000
# 2 -14.1808 37.8020 -4.9256 0.0000 0.0000 0.0000
# 3 14.2234 -4.9256 105.7790 0.0000 0.0000 0.0000
# 4 0.0000 0.0000 0.0000 15.3600 0.0000 0.0000
# 5 0.0000 0.0000 0.0000 0.0000 -122.3358 0.0000
# 6 0.0000 0.0000 0.0000 0.0000 0.0000 28.8440
#
#
#
# Elastic Compliance Matrix: (Units=1/GPa)
#
#
# Indices 1 2 3 4 5 6 
#
# 1 0.014768 0.005314 -0.001738 0.000000 0.000000 0.000000
# 2 0.005314 0.028527 0.000614 0.000000 0.000000 0.000000
# 3 -0.001738 0.000614 0.009716 0.000000 0.000000 0.000000
# 4 0.000000 0.000000 0.000000 0.065104 0.000000 0.000000
# 5 0.000000 0.000000 0.000000 0.000000 -0.008174 0.000000
# 6 0.000000 0.000000 0.000000 0.000000 0.000000 0.034669
#
#
# Mechanical properties :
#
#
# Convention : Reuss Voigt Hill
#
# Bulk Modulus (GPa) = 16.28950 23.14496 19.71723
# Shear Modulus (GPa) = 31.90902 -0.76280 15.57311
#
# Velocity S-wave (km/s) = 3.81829 -0.59036 2.66748
# Velocity P-wave (km/s) = 5.18478 3.17968 4.30071
#
# Compressibility (1/GPa) = 0.06138923
#
# Stress axis : x y z
#
# Youngs Moduli (GPa) = 67.71316 35.05461 102.92302
#
# Poissons Ratio (x) = -0.18626 0.17892
# Poissons Ratio (y) = -0.35980 -0.06318
# Poissons Ratio (z) = 0.11771 -0.02152
#
# Static dielectric constant tensor:
#      x y z
#    x 1.829950 0.000000 0.000000 
#    y 0.000000 1.742910 0.000000 
#    z 0.000000 0.000000 1.800290 
# 
# From -- ./inp_files/17386.got.cif
#   From: 2010.05.17/outbox.cif.g08.bks.cpg/sg55_9_cif.got.tgz:17386.got - 2010.06.03 13:27:54.
