data_PCOD9427392
_publ_section_title
;
Structure prediction by ZEFSAII (Michael W. Deem and Ramdas Pophale) SiO2 
 PCOD9427392
Probable space group: P B A M
;
_chemical_formula_sum "Si O2"
_cell_formula_units_Z 58
_cell_length_a 9.353272
_cell_length_b 21.883317
_cell_length_c 12.243788
_cell_angle_alpha 90.000000
_cell_angle_beta 90.000000
_cell_angle_gamma 90.000000
_cell_volume 2506.066072
_symmetry_space_group_name_H-M "P B A M"
_symmetry_group_IT_number 55
_symmetry_cell_setting 'orthorhombic'
loop_
_space_group_symop_operation_xyz
x,y,z
-x,-y,z
1/2+x,1/2-y,-z
1/2-x,1/2+y,-z
-x,-y,-z
x,y,-z
1/2-x,1/2+y,z
1/2+x,1/2-y,z
loop_
_atom_site_type_symbol
_atom_site_label
_atom_site_fract_x
_atom_site_fract_y
_atom_site_fract_z
Si Si1 0.491093 0.855245 0.123156
Si Si2 0.000000 0.500000 0.000000
Si Si3 0.232167 0.562937 0.155995
Si Si4 0.811966 0.234049 0.373787
Si Si5 0.776438 0.600468 0.296099
Si Si6 0.830947 0.982880 0.381034
Si Si7 0.966379 0.102627 0.120139
Si Si8 0.425709 0.727732 0.225770
O O1 0.657289 0.872240 0.128982
O O2 0.416429 0.891078 0.222495
O O3 0.447845 0.785590 0.145629
O O4 0.446201 0.876200 0.000000
O O5 0.877742 0.482505 0.904256
O O6 0.259569 0.555505 0.284667
O O7 0.394650 0.560099 0.115107
O O8 0.795755 0.251638 0.500000
O O9 0.757574 0.164526 0.354421
O O10 0.727865 0.272392 0.282202
O O11 0.973623 0.236238 0.332035
O O12 0.761104 0.545043 0.378115
O O13 0.653187 0.585544 0.206925
O O14 0.824049 0.952949 0.500000
O O15 0.000000 0.000000 0.363881
O O16 0.025486 0.167662 0.163104
O O17 0.903406 0.108942 0.000000
#
# Coordination Sequence:
#
# PCOD9427392 Si02
#       8
#     8   2   8   8   8   8   8   8
#     4  11  22  41  62  92 133 171 206 265 335 405
#     4  12  24  44  64  96 144 176 206 286 332 398
#     4  12  24  42  66  97 131 175 222 264 341 402
#     4  10  20  37  59  87 122 164 212 272 329 393
#     4  10  22  40  62  93 124 163 221 273 332 396
#     4  11  24  45  69  95 128 170 226 288 334 389
#     4  11  21  40  62  96 129 167 223 278 328 407
#     4  10  22  37  63  90 127 167 217 264 330 406
#
# _framework density 23.143843
#
# number of rings (size 3 to 8) (size 9 to 14) (size 15 to 20)
#    0.000    1.241    2.759    3.310    0.000    0.000 
#    1.241   13.793    0.000    0.000    0.000    0.000 
#    0.000    0.000    0.000    0.000    0.000    0.000 
#
# Total GULP energy -323515.527335 kJ/mol
# GULP energy per Si atom -5577.853920 kJ/mol
# Density = 2.309117 g / cm^3
# Si number density = 23.143843 Si / 1000 Ang^3
#
#
#
# Elastic Constant Matrix: (Units=GPa)
#
#
# Indices 1 2 3 4 5 6 
#
# 1 75.7016 -3.2327 24.4982 0.0000 0.0000 0.0000
# 2 -3.2327 25.2343 13.2397 0.0000 0.0000 0.0000
# 3 24.4982 13.2397 166.4200 0.0000 0.0000 0.0000
# 4 0.0000 0.0000 0.0000 21.2173 0.0000 0.0000
# 5 0.0000 0.0000 0.0000 0.0000 21.5995 0.0000
# 6 0.0000 0.0000 0.0000 0.0000 0.0000 16.1069
#
#
#
# Elastic Compliance Matrix: (Units=1/GPa)
#
#
# Indices 1 2 3 4 5 6 
#
# 1 0.014087 0.003019 -0.002314 0.000000 0.000000 0.000000
# 2 0.003019 0.042002 -0.003786 0.000000 0.000000 0.000000
# 3 -0.002314 -0.003786 0.006651 0.000000 0.000000 0.000000
# 4 0.000000 0.000000 0.000000 0.047131 0.000000 0.000000
# 5 0.000000 0.000000 0.000000 0.000000 0.046297 0.000000
# 6 0.000000 0.000000 0.000000 0.000000 0.000000 0.062085
#
#
# Mechanical properties :
#
#
# Convention : Reuss Voigt Hill
#
# Bulk Modulus (GPa) = 17.67479 37.37405 27.52442
# Shear Modulus (GPa) = 20.55286 27.30812 23.93049
#
# Velocity S-wave (km/s) = 2.98325 3.43874 3.21906
# Velocity P-wave (km/s) = 4.41813 5.65245 5.07297
#
# Compressibility (1/GPa) = 0.05657776
#
# Stress axis : x y z
#
# Youngs Moduli (GPa) = 70.98495 23.80860 150.35990
#
# Poissons Ratio (x) = -0.07187 0.34792
# Poissons Ratio (y) = -0.21429 0.56924
# Poissons Ratio (z) = 0.16426 0.09014
#
# Static dielectric constant tensor:
#      x y z
#    x 1.855520 0.000000 0.000000 
#    y 0.000000 1.572900 0.000000 
#    z 0.000000 0.000000 1.851460 
# 
# From -- ./inp_files/12489.got.cif
#   From: 2010.05.17/outbox.cif.g08.bks.cpg/sg55_7_cif.got.tgz:12489.got - 2010.06.03 13:27:54.
