data_PCOD9427137
_publ_section_title
;
Structure prediction by ZEFSAII (Michael W. Deem and Ramdas Pophale) SiO2 
 PCOD9427137
Probable space group: P B A M
;
_chemical_formula_sum "Si O2"
_cell_formula_units_Z 64
_cell_length_a 19.080084
_cell_length_b 20.513805
_cell_length_c 7.722222
_cell_angle_alpha 90.000000
_cell_angle_beta 90.000000
_cell_angle_gamma 90.000000
_cell_volume 3022.517248
_symmetry_space_group_name_H-M "P B A M"
_symmetry_group_IT_number 55
_symmetry_cell_setting 'orthorhombic'
loop_
_space_group_symop_operation_xyz
x,y,z
-x,-y,z
1/2+x,1/2-y,-z
1/2-x,1/2+y,-z
-x,-y,-z
x,y,-z
1/2-x,1/2+y,z
1/2+x,1/2-y,z
loop_
_atom_site_type_symbol
_atom_site_label
_atom_site_fract_x
_atom_site_fract_y
_atom_site_fract_z
Si Si1 0.793402 0.416420 0.797694
Si Si2 0.049073 0.560202 0.290086
Si Si3 0.190995 0.730717 0.791179
Si Si4 0.297359 0.845185 0.292195
Si Si5 0.547228 0.703370 0.207276
Si Si6 0.453896 0.442168 0.799137
Si Si7 0.297813 0.463875 0.298922
Si Si8 0.454075 0.820537 0.291179
O O1 0.872320 0.443232 0.777774
O O2 0.794964 0.342528 0.726711
O O3 0.739970 0.466708 0.713138
O O4 0.775135 0.413636 0.000000
O O5 0.053188 0.560143 0.500000
O O6 0.000000 0.500000 0.238955
O O7 0.011115 0.626456 0.231210
O O8 0.252235 0.781078 0.746935
O O9 0.117531 0.760830 0.725356
O O10 0.185747 0.726158 0.000000
O O11 0.302562 0.852608 0.500000
O O12 0.254665 0.908220 0.227659
O O13 0.376576 0.837921 0.226081
O O14 0.539282 0.630332 0.277665
O O15 0.481369 0.749470 0.241817
O O16 0.556675 0.698081 0.000000
O O17 0.500000 0.500000 0.719248
O O18 0.372388 0.461027 0.792802
O O19 0.476601 0.436381 0.000000
O O20 0.311502 0.448515 0.500000
O O21 0.452644 0.824283 0.500000
#
# Coordination Sequence:
#
# PCOD9427137 Si02
#       8
#     8   8   8   8   8   8   8   8
#     4  11  23  38  58  86 120 155 198 245 292 354
#     4  10  20  36  57  81 116 156 193 239 294 348
#     4  10  21  38  60  85 115 154 199 244 293 353
#     4  10  22  39  60  88 119 155 200 246 295 355
#     4  10  20  38  61  85 118 154 195 244 297 357
#     4  10  22  41  65  90 119 157 201 250 306 360
#     4  11  23  40  62  88 122 161 203 249 300 358
#     4  10  21  36  57  86 118 151 193 242 293 352
#
# _framework density 21.174403000000002
#
# number of rings (size 3 to 8) (size 9 to 14) (size 15 to 20)
#    0.000    1.750    2.500    1.500    0.000    6.500 
#    0.000    5.000    0.000    0.000    0.000    0.000 
#    0.000    0.000    0.000    0.000    0.000    0.000 
#
# Total GULP energy -357668.242188 kJ/mol
# GULP energy per Si atom -5588.566284 kJ/mol
# Density = 2.112621 g / cm^3
# Si number density = 21.174403 Si / 1000 Ang^3
#
#
#
# Elastic Constant Matrix: (Units=GPa)
#
#
# Indices 1 2 3 4 5 6 
#
# 1 90.3972 51.3246 -10.6973 0.0000 0.0000 0.0000
# 2 51.3246 158.4915 -0.8939 0.0000 0.0000 0.0000
# 3 -10.6973 -0.8939 29.6894 0.0000 0.0000 0.0000
# 4 0.0000 0.0000 0.0000 25.0247 0.0000 0.0000
# 5 0.0000 0.0000 0.0000 0.0000 24.3587 0.0000
# 6 0.0000 0.0000 0.0000 0.0000 0.0000 41.7621
#
#
#
# Elastic Compliance Matrix: (Units=1/GPa)
#
#
# Indices 1 2 3 4 5 6 
#
# 1 0.014260 -0.004590 0.005000 0.000000 0.000000 0.000000
# 2 -0.004590 0.007788 -0.001419 0.000000 0.000000 0.000000
# 3 0.005000 -0.001419 0.035441 0.000000 0.000000 0.000000
# 4 0.000000 0.000000 0.000000 0.039960 0.000000 0.000000
# 5 0.000000 0.000000 0.000000 0.000000 0.041053 0.000000
# 6 0.000000 0.000000 0.000000 0.000000 0.000000 0.023945
#
#
# Mechanical properties :
#
#
# Convention : Reuss Voigt Hill
#
# Bulk Modulus (GPa) = 18.02774 39.78277 28.90525
# Shear Modulus (GPa) = 27.32913 34.15210 30.74061
#
# Velocity S-wave (km/s) = 3.59648 4.02044 3.81436
# Velocity P-wave (km/s) = 5.07727 6.35460 5.75150
#
# Compressibility (1/GPa) = 0.05547007
#
# Stress axis : x y z
#
# Youngs Moduli (GPa) = 70.12755 128.40715 28.21614
#
# Poissons Ratio (x) = 0.58933 -0.14107
# Poissons Ratio (y) = 0.32185 0.04004
# Poissons Ratio (z) = -0.35062 0.18223
#
# Static dielectric constant tensor:
#      x y z
#    x 1.717950 0.000000 0.000000 
#    y 0.000000 1.767590 0.000000 
#    z 0.000000 0.000000 1.800720 
# 
# From -- ./inp_files/8063.got.cif
#   From: 2010.05.17/outbox.cif.g08.bks.cpg/sg55_5_cif.got.tgz:8063.got - 2010.06.03 13:27:54.
