data_PCOD9427211
_publ_section_title
;
Structure prediction by ZEFSAII (Michael W. Deem and Ramdas Pophale) SiO2 
 PCOD9427211
Probable space group: P B A M
;
_chemical_formula_sum "Si O2"
_cell_formula_units_Z 40
_cell_length_a 11.317124
_cell_length_b 12.427419
_cell_length_c 11.866005
_cell_angle_alpha 90.000000
_cell_angle_beta 90.000000
_cell_angle_gamma 90.000000
_cell_volume 1668.866291
_symmetry_space_group_name_H-M "P B A M"
_symmetry_group_IT_number 55
_symmetry_cell_setting 'orthorhombic'
loop_
_space_group_symop_operation_xyz
x,y,z
-x,-y,z
1/2+x,1/2-y,-z
1/2-x,1/2+y,-z
-x,-y,-z
x,y,-z
1/2-x,1/2+y,z
1/2+x,1/2-y,z
loop_
_atom_site_type_symbol
_atom_site_label
_atom_site_fract_x
_atom_site_fract_y
_atom_site_fract_z
Si Si1 0.400984 0.623751 0.239500
Si Si2 0.837513 0.436296 0.634110
Si Si3 0.087089 0.144896 0.000000
Si Si4 0.199927 0.823022 0.000000
Si Si5 0.178038 0.363801 0.231515
Si Si6 0.893601 0.193966 0.371601
O O1 0.295334 0.588725 0.320693
O O2 0.399559 0.578646 0.114526
O O3 0.393860 0.753877 0.215272
O O4 0.525268 0.617249 0.298858
O O5 0.840576 0.464204 0.500000
O O6 0.878908 0.528017 0.720839
O O7 0.904760 0.322457 0.645897
O O8 0.946086 0.189404 0.000000
O O9 0.210404 0.217567 0.000000
O O10 0.246104 0.876750 0.883361
O O11 0.262179 0.333486 0.336143
O O12 0.919035 0.172318 0.500000
#
# Coordination Sequence:
#
# PCOD9427211 Si02
#       6
#     8   8   4   4   8   8
#     4  10  21  38  60  87 117 159 204 257 310 371
#     4  10  22  38  58  87 122 162 202 254 316 372
#     4  10  20  39  66  91 123 165 205 260 318 370
#     4  10  20  39  66  93 123 167 211 256 321 372
#     4  10  21  38  58  86 122 153 202 256 309 372
#     4  10  20  36  59  83 115 159 203 247 307 371
#
# _framework density 23.968367000000001
#
# number of rings (size 3 to 8) (size 9 to 14) (size 15 to 20)
#    0.000    2.000    2.000    1.200    0.000    4.800 
#    0.000    7.000    0.000    3.600    0.000    0.000 
#    0.000    0.000    0.000    0.000    0.000    0.000 
#
# Total GULP energy -222940.870388 kJ/mol
# GULP energy per Si atom -5573.521760 kJ/mol
# Density = 2.391381 g / cm^3
# Si number density = 23.968367 Si / 1000 Ang^3
#
#
#
# Elastic Constant Matrix: (Units=GPa)
#
#
# Indices 1 2 3 4 5 6 
#
# 1 81.2988 15.1092 -0.8588 0.0000 0.0000 0.0000
# 2 15.1092 90.1115 44.4903 0.0000 0.0000 0.0000
# 3 -0.8588 44.4903 51.2209 0.0000 0.0000 0.0000
# 4 0.0000 0.0000 0.0000 -6.5328 0.0000 0.0000
# 5 0.0000 0.0000 0.0000 0.0000 -79.1539 0.0000
# 6 0.0000 0.0000 0.0000 0.0000 0.0000 34.8487
#
#
#
# Elastic Compliance Matrix: (Units=1/GPa)
#
#
# Indices 1 2 3 4 5 6 
#
# 1 0.013089 -0.004032 0.003722 0.000000 0.000000 0.000000
# 2 -0.004032 0.020672 -0.018023 0.000000 0.000000 0.000000
# 3 0.003722 -0.018023 0.035241 0.000000 0.000000 0.000000
# 4 0.000000 0.000000 0.000000 -0.153073 0.000000 0.000000
# 5 0.000000 0.000000 0.000000 0.000000 -0.012634 0.000000
# 6 0.000000 0.000000 0.000000 0.000000 0.000000 0.028695
#
#
# Mechanical properties :
#
#
# Convention : Reuss Voigt Hill
#
# Bulk Modulus (GPa) = 30.92685 37.79030 34.35858
# Shear Modulus (GPa) = -243.14103 0.75843 -121.19130
#
# Velocity S-wave (km/s) = -10.08279 0.56313 -7.11848
# Velocity P-wave (km/s) = 11.07335 4.02788 7.29367
#
# Compressibility (1/GPa) = 0.03233436
#
# Stress axis : x y z
#
# Youngs Moduli (GPa) = 76.39999 48.37470 28.37638
#
# Poissons Ratio (x) = 0.19506 -0.10561
# Poissons Ratio (y) = 0.30806 0.51143
# Poissons Ratio (z) = -0.28435 0.87187
#
# Static dielectric constant tensor:
#      x y z
#    x 1.958130 0.000000 0.000000 
#    y 0.000000 2.126460 0.000000 
#    z 0.000000 0.000000 1.883780 
# 
# From -- ./inp_files/13046.got.cif
#   From: 2010.05.17/outbox.cif.g08.bks.cpg/sg55_7_cif.got.tgz:13046.got - 2010.06.03 13:27:54.
