data_PCOD9427125
_publ_section_title
;
Structure prediction by ZEFSAII (Michael W. Deem and Ramdas Pophale) SiO2 
 PCOD9427125
Probable space group: P B A M
;
_chemical_formula_sum "Si O2"
_cell_formula_units_Z 64
_cell_length_a 15.568283
_cell_length_b 22.181355
_cell_length_c 7.988020
_cell_angle_alpha 90.000000
_cell_angle_beta 90.000000
_cell_angle_gamma 90.000000
_cell_volume 2758.467895
_symmetry_space_group_name_H-M "P B A M"
_symmetry_group_IT_number 55
_symmetry_cell_setting 'orthorhombic'
loop_
_space_group_symop_operation_xyz
x,y,z
-x,-y,z
1/2+x,1/2-y,-z
1/2-x,1/2+y,-z
-x,-y,-z
x,y,-z
1/2-x,1/2+y,z
1/2+x,1/2-y,z
loop_
_atom_site_type_symbol
_atom_site_label
_atom_site_fract_x
_atom_site_fract_y
_atom_site_fract_z
Si Si1 0.727465 0.526514 0.202350
Si Si2 0.293137 0.757659 0.191870
Si Si3 0.460062 0.435239 0.795644
Si Si4 0.521622 0.938647 0.306163
Si Si5 0.636367 0.123068 0.696196
Si Si6 0.797658 0.404384 0.198962
Si Si7 0.627549 0.778177 0.686777
Si Si8 0.468640 0.695400 0.798974
O O1 0.639986 0.559836 0.252853
O O2 0.808498 0.562087 0.278761
O O3 0.725108 0.454187 0.243503
O O4 0.734277 0.530533 0.000000
O O5 0.329005 0.824644 0.190544
O O6 0.207249 0.766965 0.300868
O O7 0.372901 0.716362 0.258092
O O8 0.272673 0.739932 0.000000
O O9 0.500000 0.500000 0.743568
O O10 0.503430 0.371941 0.739381
O O11 0.464575 0.434196 0.000000
O O12 0.494971 0.942447 0.500000
O O13 0.461726 0.886143 0.243442
O O14 0.620548 0.930818 0.291494
O O15 0.500000 0.000000 0.215012
O O16 0.639557 0.140739 0.500000
O O17 0.815908 0.334443 0.239504
O O18 0.805357 0.408339 0.000000
O O19 0.603372 0.796638 0.500000
O O20 0.543595 0.744660 0.759454
O O21 0.462237 0.692731 0.000000
#
# Coordination Sequence:
#
# PCOD9427125 Si02
#       8
#     8   8   8   8   8   8   8   8
#     4  10  21  36  60  92 124 160 203 258 312 372
#     4  11  24  41  65  94 126 164 215 266 317 378
#     4   9  19  37  65  94 121 152 194 247 312 372
#     4  10  20  36  56  84 124 167 202 244 304 370
#     4  11  22  37  60  88 123 165 209 251 309 376
#     4  11  23  37  59  91 126 163 211 261 312 371
#     4  12  26  43  65  91 127 172 215 264 324 385
#     4  10  22  42  69  98 128 167 211 266 322 379
#
# _framework density 23.201286
#
# number of rings (size 3 to 8) (size 9 to 14) (size 15 to 20)
#    0.000    1.500    1.250    3.750    1.750    5.750 
#    0.000    0.000    0.000    0.750    0.000    0.000 
#    0.000    0.000    0.000    0.000    0.000    0.000 
#
# Total GULP energy -356427.169415 kJ/mol
# GULP energy per Si atom -5569.174522 kJ/mol
# Density = 2.314848 g / cm^3
# Si number density = 23.201286 Si / 1000 Ang^3
#
#
#
# Elastic Constant Matrix: (Units=GPa)
#
#
# Indices 1 2 3 4 5 6 
#
# 1 68.3532 -8.7429 -4.8771 0.0000 0.0000 0.0000
# 2 -8.7429 71.0713 -0.7926 0.0000 0.0000 0.0000
# 3 -4.8771 -0.7926 35.2490 0.0000 0.0000 0.0000
# 4 0.0000 0.0000 0.0000 10.2290 0.0000 0.0000
# 5 0.0000 0.0000 0.0000 0.0000 -59.5786 0.0000
# 6 0.0000 0.0000 0.0000 0.0000 0.0000 38.9970
#
#
#
# Elastic Compliance Matrix: (Units=1/GPa)
#
#
# Indices 1 2 3 4 5 6 
#
# 1 0.015021 0.001871 0.002120 0.000000 0.000000 0.000000
# 2 0.001871 0.014307 0.000581 0.000000 0.000000 0.000000
# 3 0.002120 0.000581 0.028676 0.000000 0.000000 0.000000
# 4 0.000000 0.000000 0.000000 0.097761 0.000000 0.000000
# 5 0.000000 0.000000 0.000000 0.000000 -0.016785 0.000000
# 6 0.000000 0.000000 0.000000 0.000000 0.000000 0.025643
#
#
# Mechanical properties :
#
#
# Convention : Reuss Voigt Hill
#
# Bulk Modulus (GPa) = 14.89237 16.20535 15.54886
# Shear Modulus (GPa) = 28.11182 10.53522 19.32352
#
# Velocity S-wave (km/s) = 3.48465 2.13323 2.88907
# Velocity P-wave (km/s) = 4.75637 3.61488 4.22436
#
# Compressibility (1/GPa) = 0.06714849
#
# Stress axis : x y z
#
# Youngs Moduli (GPa) = 66.57547 69.89549 34.87235
#
# Poissons Ratio (x) = -0.13080 -0.07394
# Poissons Ratio (y) = -0.12459 -0.02025
# Poissons Ratio (z) = -0.14116 -0.04059
#
# Static dielectric constant tensor:
#      x y z
#    x 1.962110 0.000000 0.000000 
#    y 0.000000 2.256220 0.000000 
#    z 0.000000 0.000000 1.829780 
# 
# From -- ./inp_files/6723.got.cif
#   From: 2010.05.17/outbox.cif.g08.bks.cpg/sg55_4_cif.got.tgz:6723.got - 2010.06.03 13:27:54.
