data_PCOD9427572
_publ_section_title
;
Structure prediction by ZEFSAII (Michael W. Deem and Ramdas Pophale) SiO2 
 PCOD9427572
Probable space group: P B A M
;
_chemical_formula_sum "Si O2"
_cell_formula_units_Z 56
_cell_length_a 21.529318
_cell_length_b 14.873880
_cell_length_c 8.723825
_cell_angle_alpha 90.000000
_cell_angle_beta 90.000000
_cell_angle_gamma 90.000000
_cell_volume 2793.582433
_symmetry_space_group_name_H-M "P B A M"
_symmetry_group_IT_number 55
_symmetry_cell_setting 'orthorhombic'
loop_
_space_group_symop_operation_xyz
x,y,z
-x,-y,z
1/2+x,1/2-y,-z
1/2-x,1/2+y,-z
-x,-y,-z
x,y,-z
1/2-x,1/2+y,z
1/2+x,1/2-y,z
loop_
_atom_site_type_symbol
_atom_site_label
_atom_site_fract_x
_atom_site_fract_y
_atom_site_fract_z
Si Si1 0.943272 0.570290 0.674583
Si Si2 0.240058 0.811074 0.314911
Si Si3 0.254032 0.522359 0.319765
Si Si4 0.474454 0.737565 0.181528
Si Si5 0.349239 0.673250 0.317988
Si Si6 0.367440 0.074926 0.824418
Si Si7 0.897400 0.244501 0.318887
O O1 0.920399 0.580191 0.500000
O O2 0.962821 0.665652 0.739931
O O3 0.892362 0.522979 0.779865
O O4 0.000000 0.500000 0.674813
O O5 0.238413 0.799450 0.500000
O O6 0.297644 0.747820 0.264714
O O7 0.170764 0.784751 0.259884
O O8 0.247116 0.916907 0.284036
O O9 0.235935 0.533535 0.500000
O O10 0.318438 0.575026 0.301339
O O11 0.204810 0.572727 0.214138
O O12 0.414291 0.681387 0.232112
O O13 0.541534 0.703817 0.240360
O O14 0.476615 0.747572 0.000000
O O15 0.359639 0.689032 0.500000
O O16 0.398308 0.149022 0.715860
O O17 0.381091 0.096435 0.000000
O O18 0.900798 0.228020 0.500000
#
# Coordination Sequence:
#
# PCOD9427572 Si02
#       7
#     8   8   8   8   8   8   8
#     4  11  22  36  57  82 113 156 197 239 292 360
#     4   9  19  37  64  93 116 148 205 259 298 347
#     4  10  20  38  64  90 117 155 206 256 298 354
#     4  12  25  39  57  87 124 160 198 251 308 367
#     4  10  20  38  62  89 121 161 203 250 305 361
#     4  12  23  35  56  88 123 157 192 244 305 365
#     4  11  21  39  62  86 117 159 201 248 300 360
#
# _framework density 20.045945
#
# number of rings (size 3 to 8) (size 9 to 14) (size 15 to 20)
#    0.000    1.286    2.857    4.286    0.000    2.286 
#    0.000    2.143    0.000    4.286    0.000    0.000 
#    0.000    0.000    0.000    0.000    0.000    0.000 
#
# Total GULP energy -312753.474674 kJ/mol
# GULP energy per Si atom -5584.883476 kJ/mol
# Density = 2.000032 g / cm^3
# Si number density = 20.045945 Si / 1000 Ang^3
#
#
#
# Elastic Constant Matrix: (Units=GPa)
#
#
# Indices 1 2 3 4 5 6 
#
# 1 104.3203 1.5965 11.5742 0.0000 0.0000 0.0000
# 2 1.5965 33.8857 -4.6131 0.0000 0.0000 0.0000
# 3 11.5742 -4.6131 39.7852 0.0000 0.0000 0.0000
# 4 0.0000 0.0000 0.0000 4.0099 0.0000 0.0000
# 5 0.0000 0.0000 0.0000 0.0000 -9.0470 0.0000
# 6 0.0000 0.0000 0.0000 0.0000 0.0000 29.4914
#
#
#
# Elastic Compliance Matrix: (Units=1/GPa)
#
#
# Indices 1 2 3 4 5 6 
#
# 1 0.009931 -0.000875 -0.002991 0.000000 0.000000 0.000000
# 2 -0.000875 0.030061 0.003740 0.000000 0.000000 0.000000
# 3 -0.002991 0.003740 0.026439 0.000000 0.000000 0.000000
# 4 0.000000 0.000000 0.000000 0.249384 0.000000 0.000000
# 5 0.000000 0.000000 0.000000 0.000000 -0.110534 0.000000
# 6 0.000000 0.000000 0.000000 0.000000 0.000000 0.033908
#
#
# Mechanical properties :
#
#
# Convention : Reuss Voigt Hill
#
# Bulk Modulus (GPa) = 15.11024 21.67849 18.39437
# Shear Modulus (GPa) = 19.12042 16.18643 17.65343
#
# Velocity S-wave (km/s) = 3.09176 2.84468 2.97079
# Velocity P-wave (km/s) = 4.50550 4.65053 4.57859
#
# Compressibility (1/GPa) = 0.06618028
#
# Stress axis : x y z
#
# Youngs Moduli (GPa) = 100.69423 33.26526 37.82340
#
# Poissons Ratio (x) = 0.02911 0.11311
# Poissons Ratio (y) = 0.08811 -0.14147
# Poissons Ratio (z) = 0.30113 -0.12442
#
# Static dielectric constant tensor:
#      x y z
#    x 1.770100 0.000000 0.000000 
#    y 0.000000 1.708920 0.000000 
#    z 0.000000 0.000000 1.678080 
# 
# From -- ./inp_files/8694.got.cif
#   From: 2010.05.17/outbox.cif.g08.bks.cpg/sg55_5_cif.got.tgz:8694.got - 2010.06.03 13:27:54.
