data_PCOD9427780
_publ_section_title
;
Structure prediction by ZEFSAII (Michael W. Deem and Ramdas Pophale) SiO2 
 PCOD9427780
Probable space group: P B A M
;
_chemical_formula_sum "Si O2"
_cell_formula_units_Z 58
_cell_length_a 24.209240
_cell_length_b 7.287036
_cell_length_c 14.846016
_cell_angle_alpha 90.000000
_cell_angle_beta 90.000000
_cell_angle_gamma 90.000000
_cell_volume 2619.039179
_symmetry_space_group_name_H-M "P B A M"
_symmetry_group_IT_number 55
_symmetry_cell_setting 'orthorhombic'
loop_
_space_group_symop_operation_xyz
x,y,z
-x,-y,z
1/2+x,1/2-y,-z
1/2-x,1/2+y,-z
-x,-y,-z
x,y,-z
1/2-x,1/2+y,z
1/2+x,1/2-y,z
loop_
_atom_site_type_symbol
_atom_site_label
_atom_site_fract_x
_atom_site_fract_y
_atom_site_fract_z
Si Si1 0.172855 0.783307 0.602743
Si Si2 0.206154 0.228311 0.897140
Si Si3 0.019721 0.193359 0.155272
Si Si4 0.500000 0.000000 0.000000
Si Si5 0.170711 0.805377 0.897466
Si Si6 0.086400 0.709068 0.256032
Si Si7 0.295317 0.854232 0.396926
Si Si8 0.375504 0.805694 0.751578
O O1 0.164258 0.844691 0.500000
O O2 0.119907 0.811257 0.665164
O O3 0.183803 0.563423 0.601704
O O4 0.231998 0.858238 0.636722
O O5 0.270127 0.221877 0.870281
O O6 0.169508 0.344755 0.829438
O O7 0.181888 0.023451 0.895668
O O8 0.204390 0.298749 0.000000
O O9 0.018550 0.351086 0.079899
O O10 0.079143 0.176599 0.202931
O O11 0.975703 0.238903 0.233831
O O12 0.000000 0.000000 0.115227
O O13 0.121491 0.749387 0.833757
O O14 0.157956 0.750946 0.000000
O O15 0.092133 0.491494 0.272458
O O16 0.293791 0.784124 0.500000
O O17 0.337866 0.746790 0.332970
#
# Coordination Sequence:
#
# PCOD9427780 Si02
#       8
#     8   8   8   2   8   8   8   8
#     4   9  19  36  61  92 126 166 211 262 323 386
#     4  10  21  35  52  79 112 152 197 247 310 377
#     4  12  27  45  68  95 126 168 220 270 324 380
#     4  12  26  52  68  94 126 168 226 276 312 384
#     4  10  21  35  52  79 112 152 197 247 310 377
#     4  11  22  39  60  86 123 162 208 266 321 381
#     4   9  19  36  61  92 126 166 211 262 323 386
#     4  11  22  39  60  86 123 162 208 266 321 381
#
# _framework density 22.145524999999999
#
# number of rings (size 3 to 8) (size 9 to 14) (size 15 to 20)
#    0.000    1.655    1.379    2.690    1.931    6.069 
#    0.000    0.690    0.000    4.138    0.000    0.000 
#    0.000    0.000    0.000    0.000    0.000    0.000 
#
# Total GULP energy -323835.789077 kJ/mol
# GULP energy per Si atom -5583.375674 kJ/mol
# Density = 2.209512 g / cm^3
# Si number density = 22.145525 Si / 1000 Ang^3
#
#
#
# Elastic Constant Matrix: (Units=GPa)
#
#
# Indices 1 2 3 4 5 6 
#
# 1 127.3072 0.0356 69.9308 0.0000 0.0000 0.0000
# 2 0.0356 48.7733 3.6346 0.0000 0.0000 0.0000
# 3 69.9308 3.6346 82.6278 0.0000 0.0000 0.0000
# 4 0.0000 0.0000 0.0000 14.4891 0.0000 0.0000
# 5 0.0000 0.0000 0.0000 0.0000 37.3914 0.0000
# 6 0.0000 0.0000 0.0000 0.0000 0.0000 33.9213
#
#
#
# Elastic Compliance Matrix: (Units=1/GPa)
#
#
# Indices 1 2 3 4 5 6 
#
# 1 0.014721 0.000921 -0.012499 0.000000 0.000000 0.000000
# 2 0.000921 0.020628 -0.001687 0.000000 0.000000 0.000000
# 3 -0.012499 -0.001687 0.022755 0.000000 0.000000 0.000000
# 4 0.000000 0.000000 0.000000 0.069018 0.000000 0.000000
# 5 0.000000 0.000000 0.000000 0.000000 0.026744 0.000000
# 6 0.000000 0.000000 0.000000 0.000000 0.000000 0.029480
#
#
# Mechanical properties :
#
#
# Convention : Reuss Voigt Hill
#
# Bulk Modulus (GPa) = 31.67189 45.10116 38.38652
# Shear Modulus (GPa) = 22.68605 29.50084 26.09344
#
# Velocity S-wave (km/s) = 3.20411 3.65380 3.43632
# Velocity P-wave (km/s) = 5.29350 6.18146 5.75463
#
# Compressibility (1/GPa) = 0.03157374
#
# Stress axis : x y z
#
# Youngs Moduli (GPa) = 67.93220 48.47770 43.94640
#
# Poissons Ratio (x) = -0.04463 0.54929
# Poissons Ratio (y) = -0.06254 0.07412
# Poissons Ratio (z) = 0.84909 0.08176
#
# Static dielectric constant tensor:
#      x y z
#    x 1.798350 0.000000 0.000000 
#    y 0.000000 1.906090 0.000000 
#    z 0.000000 0.000000 1.786230 
# 
# From -- ./inp_files/19925.got.cif
#   From: 2010.05.17/outbox.cif.g08.bks.cpg/sg55_10_cif.got.tgz:19925.got - 2010.06.03 13:27:54.
