data_PCOD9427986
_publ_section_title
;
Structure prediction by ZEFSAII (Michael W. Deem and Ramdas Pophale) SiO2 
 PCOD9427986
Probable space group: P B A M
;
_chemical_formula_sum "Si O2"
_cell_formula_units_Z 64
_cell_length_a 11.351990
_cell_length_b 33.431414
_cell_length_c 8.641447
_cell_angle_alpha 90.000000
_cell_angle_beta 90.000000
_cell_angle_gamma 90.000000
_cell_volume 3279.542144
_symmetry_space_group_name_H-M "P B A M"
_symmetry_group_IT_number 55
_symmetry_cell_setting 'orthorhombic'
loop_
_space_group_symop_operation_xyz
x,y,z
-x,-y,z
1/2+x,1/2-y,-z
1/2-x,1/2+y,-z
-x,-y,-z
x,y,-z
1/2-x,1/2+y,z
1/2+x,1/2-y,z
loop_
_atom_site_type_symbol
_atom_site_label
_atom_site_fract_x
_atom_site_fract_y
_atom_site_fract_z
Si Si1 0.448367 0.793507 0.180618
Si Si2 0.935214 0.938502 0.313229
Si Si3 0.927085 0.369053 0.317068
Si Si4 0.798869 0.164060 0.817824
Si Si5 0.818106 0.017844 0.686786
Si Si6 0.325169 0.638908 0.818811
Si Si7 0.473296 0.706299 0.681821
Si Si8 0.664003 0.088164 0.687542
O O1 0.522987 0.824868 0.280809
O O2 0.311599 0.805713 0.200505
O O3 0.470133 0.748240 0.229460
O O4 0.478355 0.799462 0.000000
O O5 0.927098 0.933296 0.500000
O O6 0.910977 0.896925 0.231773
O O7 0.063418 0.956905 0.279433
O O8 0.841547 0.972563 0.261271
O O9 0.906747 0.373945 0.500000
O O10 0.805763 0.374125 0.227924
O O11 0.032028 0.399067 0.267779
O O12 0.752072 0.121920 0.752524
O O13 0.911116 0.181413 0.730375
O O14 0.825434 0.160343 0.000000
O O15 0.811563 0.015243 0.500000
O O16 0.708448 0.044554 0.739346
O O17 0.363001 0.678759 0.728716
O O18 0.334312 0.646552 0.000000
O O19 0.473371 0.713857 0.500000
O O20 0.669781 0.089925 0.500000
#
# Coordination Sequence:
#
# PCOD9427986 Si02
#       8
#     8   8   8   8   8   8   8   8
#     4  10  22  40  60  83 114 148 184 228 282 337
#     4   9  17  33  57  86 118 150 187 231 287 347
#     4  10  21  38  59  82 111 151 196 239 283 338
#     4  10  21  37  57  83 115 146 181 227 283 337
#     4   8  15  30  57  88 116 147 184 234 287 339
#     4  12  25  40  57  80 114 152 191 237 295 349
#     4  12  25  39  59  83 110 145 190 236 280 337
#     4   9  17  33  58  85 112 147 193 236 280 334
#
# _framework density 19.514918999999999
#
# number of rings (size 3 to 8) (size 9 to 14) (size 15 to 20)
#    0.000    2.000    0.000    4.875    1.750    3.000 
#    0.000    2.500    0.000    3.750    0.000    0.000 
#    0.000    0.000    0.000    0.000    0.000    0.000 
#
# Total GULP energy -357479.869828 kJ/mol
# GULP energy per Si atom -5585.622966 kJ/mol
# Density = 1.947050 g / cm^3
# Si number density = 19.514919 Si / 1000 Ang^3
#
#
#
# Elastic Constant Matrix: (Units=GPa)
#
#
# Indices 1 2 3 4 5 6 
#
# 1 24.9169 -14.8104 6.9551 0.0000 0.0000 0.0000
# 2 -14.8104 30.2302 -9.4917 0.0000 0.0000 0.0000
# 3 6.9551 -9.4917 28.0426 0.0000 0.0000 0.0000
# 4 0.0000 0.0000 0.0000 36.7511 0.0000 0.0000
# 5 0.0000 0.0000 0.0000 0.0000 22.7840 0.0000
# 6 0.0000 0.0000 0.0000 0.0000 0.0000 12.5005
#
#
#
# Elastic Compliance Matrix: (Units=1/GPa)
#
#
# Indices 1 2 3 4 5 6 
#
# 1 0.057310 0.026423 -0.005271 0.000000 0.000000 0.000000
# 2 0.026423 0.049195 0.010098 0.000000 0.000000 0.000000
# 3 -0.005271 0.010098 0.040385 0.000000 0.000000 0.000000
# 4 0.000000 0.000000 0.000000 0.027210 0.000000 0.000000
# 5 0.000000 0.000000 0.000000 0.000000 0.043890 0.000000
# 6 0.000000 0.000000 0.000000 0.000000 0.000000 0.079997
#
#
# Mechanical properties :
#
#
# Convention : Reuss Voigt Hill
#
# Bulk Modulus (GPa) = 4.77577 5.38839 5.08208
# Shear Modulus (GPa) = 16.37819 21.10958 18.74389
#
# Velocity S-wave (km/s) = 2.90015 3.29251 3.10254
# Velocity P-wave (km/s) = 3.69690 4.14986 3.92991
#
# Compressibility (1/GPa) = 0.20939023
#
# Stress axis : x y z
#
# Youngs Moduli (GPa) = 17.44899 20.32724 24.76155
#
# Poissons Ratio (x) = -0.53710 0.13051
# Poissons Ratio (y) = -0.46105 -0.25004
# Poissons Ratio (z) = 0.09197 -0.20526
#
# Static dielectric constant tensor:
#      x y z
#    x 1.696680 0.000000 0.000000 
#    y 0.000000 1.664050 0.000000 
#    z 0.000000 0.000000 1.653410 
# 
# From -- ./inp_files/4544.got.cif
#   From: 2010.05.17/outbox.cif.g08.bks.cpg/sg55_3_cif.got.tgz:4544.got - 2010.06.03 13:27:54.
