data_PCOD9427365
_publ_section_title
;
Structure prediction by ZEFSAII (Michael W. Deem and Ramdas Pophale) SiO2 
 PCOD9427365
Probable space group: P B A M
;
_chemical_formula_sum "Si O2"
_cell_formula_units_Z 64
_cell_length_a 9.245133
_cell_length_b 23.016561
_cell_length_c 15.507817
_cell_angle_alpha 90.000000
_cell_angle_beta 90.000000
_cell_angle_gamma 90.000000
_cell_volume 3299.926487
_symmetry_space_group_name_H-M "P B A M"
_symmetry_group_IT_number 55
_symmetry_cell_setting 'orthorhombic'
loop_
_space_group_symop_operation_xyz
x,y,z
-x,-y,z
1/2+x,1/2-y,-z
1/2-x,1/2+y,-z
-x,-y,-z
x,y,-z
1/2-x,1/2+y,z
1/2+x,1/2-y,z
loop_
_atom_site_type_symbol
_atom_site_label
_atom_site_fract_x
_atom_site_fract_y
_atom_site_fract_z
Si Si1 0.468889 0.290018 0.310457
Si Si2 0.213937 0.254924 0.197463
Si Si3 0.462549 0.185890 0.901722
Si Si4 0.327125 0.499481 0.400857
Si Si5 0.599571 0.059437 0.708227
Si Si6 0.432660 0.936060 0.095429
Si Si7 0.650594 0.375948 0.399939
Si Si8 0.036127 0.667063 0.601248
O O1 0.310000 0.287116 0.269933
O O2 0.591622 0.286599 0.237013
O O3 0.508416 0.347195 0.362400
O O4 0.499594 0.231751 0.366222
O O5 0.118008 0.297916 0.139479
O O6 0.333423 0.217182 0.147907
O O7 0.451129 0.116266 0.899901
O O8 0.461402 0.205998 0.000000
O O9 0.500000 0.500000 0.400804
O O10 0.275360 0.494344 0.500000
O O11 0.244835 0.453065 0.344564
O O12 0.295471 0.563236 0.362576
O O13 0.637342 0.067565 0.809453
O O14 0.525568 0.116251 0.663694
O O15 0.500000 0.000000 0.700120
O O16 0.500000 0.000000 0.092376
O O17 0.359191 0.927192 0.000000
O O18 0.622367 0.387869 0.500000
O O19 0.789083 0.334715 0.393373
O O20 0.996808 0.657607 0.500000
#
# Coordination Sequence:
#
# PCOD9427365 Si02
#       8
#     8   8   8   8   8   8   8   8
#     4  11  21  37  54  80 115 151 191 234 281 342
#     4  10  21  34  57  84 112 148 193 235 284 349
#     4  10  20  37  58  85 117 146 186 241 297 349
#     4  10  22  38  55  83 118 151 190 240 297 345
#     4  11  20  35  63  86 109 148 196 243 285 338
#     4   9  20  36  58  86 115 146 187 237 290 347
#     4  10  21  37  55  77 114 153 189 240 289 338
#     4  11  22  36  57  85 116 154 201 242 287 344
#
# _framework density 19.394369999999999
#
# number of rings (size 3 to 8) (size 9 to 14) (size 15 to 20)
#    0.000    1.750    2.500    2.625    0.000    2.500 
#    0.000    1.250    0.000    0.375    0.000    4.375 
#    0.000    0.000    0.000    0.000    0.000    0.000 
#
# Total GULP energy -356567.677867 kJ/mol
# GULP energy per Si atom -5571.369967 kJ/mol
# Density = 1.935023 g / cm^3
# Si number density = 19.394370 Si / 1000 Ang^3
#
#
#
# Elastic Constant Matrix: (Units=GPa)
#
#
# Indices 1 2 3 4 5 6 
#
# 1 70.9261 14.0844 17.8674 0.0000 0.0000 0.0000
# 2 14.0844 59.8021 20.3896 0.0000 0.0000 0.0000
# 3 17.8674 20.3896 100.5051 0.0000 0.0000 0.0000
# 4 0.0000 0.0000 0.0000 -0.0219 0.0000 0.0000
# 5 0.0000 0.0000 0.0000 0.0000 22.8932 0.0000
# 6 0.0000 0.0000 0.0000 0.0000 0.0000 25.8560
#
#
#
# Elastic Compliance Matrix: (Units=1/GPa)
#
#
# Indices 1 2 3 4 5 6 
#
# 1 0.015201 -0.002856 -0.002123 0.000000 0.000000 0.000000
# 2 -0.002856 0.018501 -0.003246 0.000000 0.000000 0.000000
# 3 -0.002123 -0.003246 0.010986 0.000000 0.000000 0.000000
# 4 0.000000 0.000000 0.000000-45.645649 0.000000 0.000000
# 5 0.000000 0.000000 0.000000 0.000000 0.043681 0.000000
# 6 0.000000 0.000000 0.000000 0.000000 0.000000 0.038676
#
#
# Mechanical properties :
#
#
# Convention : Reuss Voigt Hill
#
# Bulk Modulus (GPa) = 35.41295 37.32399 36.36847
# Shear Modulus (GPa) = -0.10991 21.67159 10.78084
#
# Velocity S-wave (km/s) = -0.23831 3.34640 2.36026
# Velocity P-wave (km/s) = 4.26888 5.84960 5.12060
#
# Compressibility (1/GPa) = 0.02823826
#
# Stress axis : x y z
#
# Youngs Moduli (GPa) = 65.78435 54.05083 91.02837
#
# Poissons Ratio (x) = 0.15439 0.19325
# Poissons Ratio (y) = 0.18790 0.29544
# Poissons Ratio (z) = 0.13966 0.17542
#
# Static dielectric constant tensor:
#      x y z
#    x 1.666460 0.000000 0.000000 
#    y 0.000000 1.764850 0.000000 
#    z 0.000000 0.000000 1.732710 
# 
# From -- ./inp_files/17848.got.cif
#   From: 2010.05.17/outbox.cif.g08.bks.cpg/sg55_9_cif.got.tgz:17848.got - 2010.06.03 13:27:54.
