data_PCOD9427260
_publ_section_title
;
Structure prediction by ZEFSAII (Michael W. Deem and Ramdas Pophale) SiO2 
 PCOD9427260
Probable space group: P B A M
;
_chemical_formula_sum "Si O2"
_cell_formula_units_Z 42
_cell_length_a 9.441955
_cell_length_b 21.768201
_cell_length_c 8.777560
_cell_angle_alpha 90.000000
_cell_angle_beta 90.000000
_cell_angle_gamma 90.000000
_cell_volume 1804.090302
_symmetry_space_group_name_H-M "P B A M"
_symmetry_group_IT_number 55
_symmetry_cell_setting 'orthorhombic'
loop_
_space_group_symop_operation_xyz
x,y,z
-x,-y,z
1/2+x,1/2-y,-z
1/2-x,1/2+y,-z
-x,-y,-z
x,y,-z
1/2-x,1/2+y,z
1/2+x,1/2-y,z
loop_
_atom_site_type_symbol
_atom_site_label
_atom_site_fract_x
_atom_site_fract_y
_atom_site_fract_z
Si Si1 0.139050 0.179562 0.181264
Si Si2 0.190179 0.556539 0.824847
Si Si3 0.100446 0.748261 0.322386
Si Si4 0.000000 0.000000 0.500000
Si Si5 0.274913 0.433970 0.334048
Si Si6 0.073315 0.356854 0.827504
O O1 0.208189 0.113593 0.217794
O O2 0.993037 0.194858 0.264686
O O3 0.258415 0.229607 0.230860
O O4 0.120292 0.182280 0.000000
O O5 0.210053 0.499441 0.715461
O O6 0.033269 0.585000 0.822689
O O7 0.221179 0.538022 0.000000
O O8 0.133861 0.753849 0.500000
O O9 0.994016 0.691516 0.287689
O O10 0.064845 0.953033 0.630784
O O11 0.214891 0.415449 0.500000
O O12 0.225668 0.382750 0.217191
O O13 0.067766 0.332076 0.000000
#
# Coordination Sequence:
#
# PCOD9427260 Si02
#       6
#     8   8   8   2   8   8
#     4  10  21  40  60  84 119 156 195 241 293 350
#     4   9  19  35  59  86 109 137 184 238 284 338
#     4  11  22  38  59  89 119 152 196 245 293 346
#     4   8  24  40  48  76 120 160 178 238 264 338
#     4  10  20  37  55  77 115 147 183 224 285 331
#     4  10  20  36  60  86 112 141 185 240 290 344
#
# _framework density 23.280431
#
# number of rings (size 3 to 8) (size 9 to 14) (size 15 to 20)
#    0.571    1.524    0.000    5.143    0.000    6.857 
#    3.429    1.905    0.000    0.000    0.000    0.000 
#    0.000    0.000    0.000    0.000    0.000    0.000 
#
# Total GULP energy -234121.326557 kJ/mol
# GULP energy per Si atom -5574.317299 kJ/mol
# Density = 2.322744 g / cm^3
# Si number density = 23.280431 Si / 1000 Ang^3
#
#
#
# Elastic Constant Matrix: (Units=GPa)
#
#
# Indices 1 2 3 4 5 6 
#
# 1 65.7549 13.4792 6.7081 0.0000 0.0000 0.0000
# 2 13.4792 35.6189 3.9753 0.0000 0.0000 0.0000
# 3 6.7081 3.9753 63.1709 0.0000 0.0000 0.0000
# 4 0.0000 0.0000 0.0000 7.3093 0.0000 0.0000
# 5 0.0000 0.0000 0.0000 0.0000 13.5695 0.0000
# 6 0.0000 0.0000 0.0000 0.0000 0.0000 47.4719
#
#
#
# Elastic Compliance Matrix: (Units=1/GPa)
#
#
# Indices 1 2 3 4 5 6 
#
# 1 0.016605 -0.006130 -0.001378 0.000000 0.000000 0.000000
# 2 -0.006130 0.030537 -0.001271 0.000000 0.000000 0.000000
# 3 -0.001378 -0.001271 0.016056 0.000000 0.000000 0.000000
# 4 0.000000 0.000000 0.000000 0.136813 0.000000 0.000000
# 5 0.000000 0.000000 0.000000 0.000000 0.073695 0.000000
# 6 0.000000 0.000000 0.000000 0.000000 0.000000 0.021065
#
#
# Mechanical properties :
#
#
# Convention : Reuss Voigt Hill
#
# Bulk Modulus (GPa) = 21.90993 23.65220 22.78107
# Shear Modulus (GPa) = 15.26525 23.02893 19.14709
#
# Velocity S-wave (km/s) = 2.56346 3.14856 2.87096
# Velocity P-wave (km/s) = 4.26539 4.83732 4.56033
#
# Compressibility (1/GPa) = 0.04564141
#
# Stress axis : x y z
#
# Youngs Moduli (GPa) = 60.22226 32.74755 62.28082
#
# Poissons Ratio (x) = 0.20075 0.08579
# Poissons Ratio (y) = 0.36917 0.07914
# Poissons Ratio (z) = 0.08296 0.04161
#
# Static dielectric constant tensor:
#      x y z
#    x 1.919840 0.000000 0.000000 
#    y 0.000000 1.899670 0.000000 
#    z 0.000000 0.000000 1.846510 
# 
# From -- ./inp_files/3980.got.cif
#   From: 2010.05.17/outbox.cif.g08.bks.cpg/sg55_2_cif.got.tgz:3980.got - 2010.06.03 13:27:54.
