data_PCOD9427198
_publ_section_title
;
Structure prediction by ZEFSAII (Michael W. Deem and Ramdas Pophale) SiO2 
 PCOD9427198
Probable space group: P B A M
;
_chemical_formula_sum "Si O2"
_cell_formula_units_Z 58
_cell_length_a 24.645492
_cell_length_b 12.730280
_cell_length_c 7.693213
_cell_angle_alpha 90.000000
_cell_angle_beta 90.000000
_cell_angle_gamma 90.000000
_cell_volume 2413.699526
_symmetry_space_group_name_H-M "P B A M"
_symmetry_group_IT_number 55
_symmetry_cell_setting 'orthorhombic'
loop_
_space_group_symop_operation_xyz
x,y,z
-x,-y,z
1/2+x,1/2-y,-z
1/2-x,1/2+y,-z
-x,-y,-z
x,y,-z
1/2-x,1/2+y,z
1/2+x,1/2-y,z
loop_
_atom_site_type_symbol
_atom_site_label
_atom_site_fract_x
_atom_site_fract_y
_atom_site_fract_z
Si Si1 0.830141 0.305220 0.302940
Si Si2 0.936242 0.401148 0.292653
Si Si3 0.660373 0.451017 0.198150
Si Si4 0.224226 0.482936 0.792243
Si Si5 0.282559 0.758684 0.291636
Si Si6 0.000000 0.000000 0.000000
Si Si7 0.550239 0.371931 0.310977
Si Si8 0.558757 0.138072 0.802753
O O1 0.837481 0.266545 0.500000
O O2 0.889121 0.323913 0.224534
O O3 0.805143 0.422455 0.302966
O O4 0.779705 0.243833 0.222487
O O5 0.942163 0.385569 0.500000
O O6 0.921954 0.524397 0.266866
O O7 0.993375 0.376284 0.206243
O O8 0.712256 0.515845 0.263821
O O9 0.684636 0.333283 0.201968
O O10 0.604530 0.443776 0.300085
O O11 0.647178 0.482526 0.000000
O O12 0.196663 0.373623 0.748146
O O13 0.223305 0.501696 0.000000
O O14 0.282417 0.740063 0.500000
O O15 0.013796 0.088167 0.153228
O O16 0.524121 0.381111 0.500000
O O17 0.568647 0.249807 0.288978
O O18 0.577639 0.147851 0.000000
#
# Coordination Sequence:
#
# PCOD9427198 Si02
#       8
#     8   8   8   8   8   2   8   8
#     4   9  20  37  56  83 119 156 202 253 306 379
#     4  10  20  37  61  92 126 163 210 266 327 394
#     4  10  21  41  63  90 126 163 216 269 315 381
#     4  10  21  36  58  86 123 163 205 260 318 375
#     4  10  20  36  58  87 122 161 206 255 314 383
#     4  12  26  52  68 100 132 160 218 280 316 390
#     4  12  25  46  73  97 127 174 219 272 332 384
#     4  11  22  40  62  92 128 165 213 268 324 386
#
# _framework density 24.029503999999999
#
# number of rings (size 3 to 8) (size 9 to 14) (size 15 to 20)
#    0.000    1.655    1.379    3.931    1.931    3.310 
#    2.483    0.000    0.000    0.000    0.000    0.000 
#    0.000    0.000    0.000    0.000    0.000    0.000 
#
# Total GULP energy -323523.542631 kJ/mol
# GULP energy per Si atom -5577.992114 kJ/mol
# Density = 2.397481 g / cm^3
# Si number density = 24.029504 Si / 1000 Ang^3
#
#
#
# Elastic Constant Matrix: (Units=GPa)
#
#
# Indices 1 2 3 4 5 6 
#
# 1 62.4046 -10.9740 -1.8816 0.0000 0.0000 0.0000
# 2 -10.9740 60.0013 -9.6967 0.0000 0.0000 0.0000
# 3 -1.8816 -9.6967 124.6439 0.0000 0.0000 0.0000
# 4 0.0000 0.0000 0.0000 16.6239 0.0000 0.0000
# 5 0.0000 0.0000 0.0000 0.0000 11.3738 0.0000
# 6 0.0000 0.0000 0.0000 0.0000 0.0000 20.7318
#
#
#
# Elastic Compliance Matrix: (Units=1/GPa)
#
#
# Indices 1 2 3 4 5 6 
#
# 1 0.016587 0.003113 0.000493 0.000000 0.000000 0.000000
# 2 0.003113 0.017463 0.001406 0.000000 0.000000 0.000000
# 3 0.000493 0.001406 0.008140 0.000000 0.000000 0.000000
# 4 0.000000 0.000000 0.000000 0.060154 0.000000 0.000000
# 5 0.000000 0.000000 0.000000 0.000000 0.087921 0.000000
# 6 0.000000 0.000000 0.000000 0.000000 0.000000 0.048235
#
#
# Mechanical properties :
#
#
# Convention : Reuss Voigt Hill
#
# Bulk Modulus (GPa) = 19.15267 22.43836 20.79551
# Shear Modulus (GPa) = 20.33502 27.71937 24.02720
#
# Velocity S-wave (km/s) = 2.91220 3.40009 3.16556
# Velocity P-wave (km/s) = 4.39268 4.97717 4.69403
#
# Compressibility (1/GPa) = 0.05221204
#
# Stress axis : x y z
#
# Youngs Moduli (GPa) = 60.28893 57.26438 122.85568
#
# Poissons Ratio (x) = -0.17828 -0.06052
# Poissons Ratio (y) = -0.18770 -0.17268
# Poissons Ratio (z) = -0.02970 -0.08049
#
# Static dielectric constant tensor:
#      x y z
#    x 1.984360 0.000000 0.000000 
#    y 0.000000 1.948580 0.000000 
#    z 0.000000 0.000000 1.891060 
# 
# From -- ./inp_files/10209.got.cif
#   From: 2010.05.17/outbox.cif.g08.bks.cpg/sg55_6_cif.got.tgz:10209.got - 2010.06.03 13:27:54.
