data_PCOD9427755
_publ_section_title
;
Structure prediction by ZEFSAII (Michael W. Deem and Ramdas Pophale) SiO2 
 PCOD9427755
Probable space group: P B A M
;
_chemical_formula_sum "Si O2"
_cell_formula_units_Z 48
_cell_length_a 10.124605
_cell_length_b 31.214624
_cell_length_c 7.609891
_cell_angle_alpha 90.000000
_cell_angle_beta 90.000000
_cell_angle_gamma 90.000000
_cell_volume 2404.997520
_symmetry_space_group_name_H-M "P B A M"
_symmetry_group_IT_number 55
_symmetry_cell_setting 'orthorhombic'
loop_
_space_group_symop_operation_xyz
x,y,z
-x,-y,z
1/2+x,1/2-y,-z
1/2-x,1/2+y,-z
-x,-y,-z
x,y,-z
1/2-x,1/2+y,z
1/2+x,1/2-y,z
loop_
_atom_site_type_symbol
_atom_site_label
_atom_site_fract_x
_atom_site_fract_y
_atom_site_fract_z
Si Si1 0.019154 0.637916 0.797547
Si Si2 0.931791 0.292566 0.500000
Si Si3 0.371586 0.713284 0.500000
Si Si4 0.229487 0.892487 0.287975
Si Si5 0.743232 0.927562 0.789620
Si Si6 0.550374 0.354268 0.794019
Si Si7 0.360035 0.484806 0.704490
O O1 0.866737 0.624817 0.785078
O O2 0.047959 0.677210 0.669318
O O3 0.111444 0.598057 0.739551
O O4 0.053932 0.647804 0.000000
O O5 0.782618 0.275437 0.500000
O O6 0.036740 0.254655 0.500000
O O7 0.403410 0.683983 0.669529
O O8 0.240752 0.892003 0.500000
O O9 0.199001 0.940846 0.223263
O O10 0.103353 0.864314 0.234885
O O11 0.866059 0.896700 0.741382
O O12 0.763369 0.974738 0.715245
O O13 0.743699 0.932089 0.000000
O O14 0.576190 0.346066 0.000000
O O15 0.500000 0.500000 0.784497
O O16 0.386736 0.475073 0.500000
#
# Coordination Sequence:
#
# PCOD9427755 Si02
#       7
#     8   4   4   8   8   8   8
#     4  11  25  46  69  95 134 178 219 268 331 396
#     4  12  28  48  74 101 132 168 207 273 335 401
#     4  12  28  46  74 101 133 167 210 270 332 402
#     4  11  22  39  65  99 135 180 225 272 327 377
#     4  10  22  39  63  91 126 179 224 262 322 380
#     4  11  23  42  69  97 131 177 220 263 323 391
#     4  10  21  34  58  94 133 174 223 275 320 372
#
# _framework density 19.958441000000001
#
# number of rings (size 3 to 8) (size 9 to 14) (size 15 to 20)
#    0.000    1.167    5.000    0.500    4.667    3.000 
#    0.000    3.333    0.000    0.000    0.000    0.000 
#    0.000    0.000    0.000    0.000    0.000    0.000 
#
# Total GULP energy -268380.786540 kJ/mol
# GULP energy per Si atom -5591.266386 kJ/mol
# Density = 1.991301 g / cm^3
# Si number density = 19.958441 Si / 1000 Ang^3
#
#
#
# Elastic Constant Matrix: (Units=GPa)
#
#
# Indices 1 2 3 4 5 6 
#
# 1 148.1812 37.9766 9.5578 0.0000 0.0000 0.0000
# 2 37.9766 83.2975 31.3862 0.0000 0.0000 0.0000
# 3 9.5578 31.3862 91.0450 0.0000 0.0000 0.0000
# 4 0.0000 0.0000 0.0000 -28.9326 0.0000 0.0000
# 5 0.0000 0.0000 0.0000 0.0000 3.6513 0.0000
# 6 0.0000 0.0000 0.0000 0.0000 0.0000 38.6553
#
#
#
# Elastic Compliance Matrix: (Units=1/GPa)
#
#
# Indices 1 2 3 4 5 6 
#
# 1 0.007658 -0.003664 0.000459 0.000000 0.000000 0.000000
# 2 -0.003664 0.015551 -0.004976 0.000000 0.000000 0.000000
# 3 0.000459 -0.004976 0.012651 0.000000 0.000000 0.000000
# 4 0.000000 0.000000 0.000000 -0.034563 0.000000 0.000000
# 5 0.000000 0.000000 0.000000 0.000000 0.273876 0.000000
# 6 0.000000 0.000000 0.000000 0.000000 0.000000 0.025870
#
#
# Mechanical properties :
#
#
# Convention : Reuss Voigt Hill
#
# Bulk Modulus (GPa) = 51.28992 53.37389 52.33190
# Shear Modulus (GPa) = 15.43670 18.91501 17.17585
#
# Velocity S-wave (km/s) = 2.78410 3.08185 2.93675
# Velocity P-wave (km/s) = 6.00742 6.28206 6.14627
#
# Compressibility (1/GPa) = 0.01949701
#
# Stress axis : x y z
#
# Youngs Moduli (GPa) = 130.58211 64.30503 79.04627
#
# Poissons Ratio (x) = 0.23564 -0.03631
# Poissons Ratio (y) = 0.47852 0.39335
# Poissons Ratio (z) = -0.05998 0.32000
#
# Static dielectric constant tensor:
#      x y z
#    x 1.694450 0.000000 0.000000 
#    y 0.000000 1.672710 0.000000 
#    z 0.000000 0.000000 1.719570 
# 
# From -- ./inp_files/2934.got.cif
#   From: 2010.05.17/outbox.cif.g08.bks.cpg/sg55_2_cif.got.tgz:2934.got - 2010.06.03 13:27:54.
