data_PCOD9427345
_publ_section_title
;
Structure prediction by ZEFSAII (Michael W. Deem and Ramdas Pophale) SiO2 
 PCOD9427345
Probable space group: P B A M
;
_chemical_formula_sum "Si O2"
_cell_formula_units_Z 48
_cell_length_a 7.873222
_cell_length_b 13.760973
_cell_length_c 20.250435
_cell_angle_alpha 90.000000
_cell_angle_beta 90.000000
_cell_angle_gamma 90.000000
_cell_volume 2193.996835
_symmetry_space_group_name_H-M "P B A M"
_symmetry_group_IT_number 55
_symmetry_cell_setting 'orthorhombic'
loop_
_space_group_symop_operation_xyz
x,y,z
-x,-y,z
1/2+x,1/2-y,-z
1/2-x,1/2+y,-z
-x,-y,-z
x,y,-z
1/2-x,1/2+y,z
1/2+x,1/2-y,z
loop_
_atom_site_type_symbol
_atom_site_label
_atom_site_fract_x
_atom_site_fract_y
_atom_site_fract_z
Si Si1 0.321200 0.097159 0.500000
Si Si2 0.189777 0.956254 0.104502
Si Si3 0.812853 0.050818 0.255478
Si Si4 0.185494 0.596405 0.643979
Si Si5 0.452552 0.301417 0.500000
Si Si6 0.666676 0.898291 0.000000
Si Si7 0.707685 0.190501 0.000000
Si Si8 0.555119 0.698818 0.354951
O O1 0.329564 0.048275 0.428662
O O2 0.457350 0.184426 0.500000
O O3 0.138040 0.151173 0.500000
O O4 0.242751 0.940376 0.179972
O O5 0.201393 0.856257 0.063801
O O6 0.000000 0.000000 0.102884
O O7 0.300208 0.034166 0.063458
O O8 0.841225 0.149689 0.295943
O O9 0.693445 0.981623 0.298699
O O10 0.000000 0.000000 0.254338
O O11 0.055184 0.685035 0.651620
O O12 0.367653 0.652546 0.645855
O O13 0.373237 0.325950 0.428646
O O14 0.518256 0.148376 0.000000
O O15 0.790443 0.805914 0.000000
#
# Coordination Sequence:
#
# PCOD9427345 Si02
#       8
#     4   8   8   8   4   4   4   8
#     4   8  14  25  45  67  92 126 170 217 257 295
#     4  10  20  37  57  82 114 143 172 215 260 309
#     4   9  19  33  51  75 106 137 168 206 254 305
#     4   9  17  31  48  70  98 133 173 215 258 302
#     4   8  14  25  45  67  92 126 170 217 257 295
#     4  11  22  39  62  86 108 137 174 213 256 310
#     4  11  22  39  62  86 108 137 174 213 256 310
#     4   9  17  31  48  70  98 133 173 215 258 302
#
# _framework density 21.877880999999999
#
# number of rings (size 3 to 8) (size 9 to 14) (size 15 to 20)
#    0.000    2.667    0.000    3.000    0.000    2.000 
#    0.000   10.833    0.000    0.000    0.000   11.667 
#    0.000    0.000    0.000    0.000    0.000    0.000 
#
# Total GULP energy -267985.180260 kJ/mol
# GULP energy per Si atom -5583.024589 kJ/mol
# Density = 2.182809 g / cm^3
# Si number density = 21.877881 Si / 1000 Ang^3
#
#
#
# Elastic Constant Matrix: (Units=GPa)
#
#
# Indices 1 2 3 4 5 6 
#
# 1 60.3120 13.2881 31.5503 0.0000 0.0000 0.0000
# 2 13.2881 59.2695 32.0219 0.0000 0.0000 0.0000
# 3 31.5503 32.0219 185.6382 0.0000 0.0000 0.0000
# 4 0.0000 0.0000 0.0000 12.6514 0.0000 0.0000
# 5 0.0000 0.0000 0.0000 0.0000 17.2355 0.0000
# 6 0.0000 0.0000 0.0000 0.0000 0.0000 38.0651
#
#
#
# Elastic Compliance Matrix: (Units=1/GPa)
#
#
# Indices 1 2 3 4 5 6 
#
# 1 0.018586 -0.002713 -0.002691 0.000000 0.000000 0.000000
# 2 -0.002713 0.019002 -0.002817 0.000000 0.000000 0.000000
# 3 -0.002691 -0.002817 0.006330 0.000000 0.000000 0.000000
# 4 0.000000 0.000000 0.000000 0.079042 0.000000 0.000000
# 5 0.000000 0.000000 0.000000 0.000000 0.058020 0.000000
# 6 0.000000 0.000000 0.000000 0.000000 0.000000 0.026271
#
#
# Mechanical properties :
#
#
# Convention : Reuss Voigt Hill
#
# Bulk Modulus (GPa) = 36.39439 50.99337 43.69388
# Shear Modulus (GPa) = 21.47297 28.81438 25.14367
#
# Velocity S-wave (km/s) = 3.13628 3.63306 3.39377
# Velocity P-wave (km/s) = 5.45769 6.39982 5.94744
#
# Compressibility (1/GPa) = 0.02747676
#
# Stress axis : x y z
#
# Youngs Moduli (GPa) = 53.80453 52.62563 157.97792
#
# Poissons Ratio (x) = 0.14278 0.42508
# Poissons Ratio (y) = 0.14598 0.44497
# Poissons Ratio (z) = 0.14477 0.14823
#
# Static dielectric constant tensor:
#      x y z
#    x 1.851420 0.000000 0.000000 
#    y 0.000000 1.793520 0.000000 
#    z 0.000000 0.000000 1.780680 
# 
# From -- ./inp_files/22824.got.cif
#   From: 2010.05.17/outbox.cif.g08.bks.cpg/sg55_12_cif.got.tgz:22824.got - 2010.06.03 13:27:54.
