data_PCOD9427516
_publ_section_title
;
Structure prediction by ZEFSAII (Michael W. Deem and Ramdas Pophale) SiO2 
 PCOD9427516
Probable space group: P B A M
;
_chemical_formula_sum "Si O2"
_cell_formula_units_Z 64
_cell_length_a 15.033111
_cell_length_b 11.700970
_cell_length_c 15.624404
_cell_angle_alpha 90.000000
_cell_angle_beta 90.000000
_cell_angle_gamma 90.000000
_cell_volume 2748.363613
_symmetry_space_group_name_H-M "P B A M"
_symmetry_group_IT_number 55
_symmetry_cell_setting 'orthorhombic'
loop_
_space_group_symop_operation_xyz
x,y,z
-x,-y,z
1/2+x,1/2-y,-z
1/2-x,1/2+y,-z
-x,-y,-z
x,y,-z
1/2-x,1/2+y,z
1/2+x,1/2-y,z
loop_
_atom_site_type_symbol
_atom_site_label
_atom_site_fract_x
_atom_site_fract_y
_atom_site_fract_z
Si Si1 0.400191 0.506410 0.135203
Si Si2 0.622362 0.741036 0.904959
Si Si3 0.419001 0.926673 0.243775
Si Si4 0.688905 0.852638 0.265903
Si Si5 0.370184 0.553071 0.325309
Si Si6 0.085478 0.279197 0.596783
Si Si7 0.093689 0.259261 0.903933
Si Si8 0.700359 0.674590 0.404858
O O1 0.500000 0.500000 0.099337
O O2 0.351889 0.392725 0.103968
O O3 0.407099 0.499348 0.238154
O O4 0.368108 0.631660 0.108236
O O5 0.666055 0.809437 0.828157
O O6 0.514534 0.749418 0.894941
O O7 0.645005 0.782008 0.000000
O O8 0.452286 0.853561 0.324900
O O9 0.378823 0.844008 0.171910
O O10 0.500000 0.000000 0.205267
O O11 0.351402 0.021802 0.276175
O O12 0.791553 0.869846 0.286297
O O13 0.658816 0.758646 0.334512
O O14 0.426751 0.645375 0.378331
O O15 0.330088 0.453598 0.383606
O O16 0.053484 0.301300 0.500000
O O17 0.191865 0.310991 0.596741
O O18 0.113388 0.299815 0.000000
O O19 0.671569 0.707137 0.500000
#
# Coordination Sequence:
#
# PCOD9427516 Si02
#       8
#     8   8   8   8   8   8   8   8
#     4  10  20  37  66  90 116 155 202 251 299 348
#     4  10  20  38  62  89 121 159 201 246 298 356
#     4  12  23  38  61  87 124 163 196 243 301 360
#     4  11  23  37  60  91 123 159 201 248 298 359
#     4  11  20  38  67  86 118 154 203 250 304 351
#     4  10  22  39  60  87 118 156 199 242 295 360
#     4  10  21  38  63  90 116 158 208 245 288 358
#     4  10  21  39  65  90 115 156 204 248 294 357
#
# _framework density 23.286584000000001
#
# number of rings (size 3 to 8) (size 9 to 14) (size 15 to 20)
#    0.000    1.500    5.000    0.750    0.000    3.500 
#    0.000    1.250    0.000    0.750    0.000    0.000 
#    0.000    0.000    0.000    0.000    0.000    0.000 
#
# Total GULP energy -357705.653129 kJ/mol
# GULP energy per Si atom -5589.150830 kJ/mol
# Density = 2.323358 g / cm^3
# Si number density = 23.286584 Si / 1000 Ang^3
#
#
#
# Elastic Constant Matrix: (Units=GPa)
#
#
# Indices 1 2 3 4 5 6 
#
# 1 23.0991 -5.6999 -0.6196 0.0000 0.0000 0.0000
# 2 -5.6999 99.0031 47.7909 0.0000 0.0000 0.0000
# 3 -0.6196 47.7909 150.8373 0.0000 0.0000 0.0000
# 4 0.0000 0.0000 0.0000 9.9026 0.0000 0.0000
# 5 0.0000 0.0000 0.0000 0.0000 19.6005 0.0000
# 6 0.0000 0.0000 0.0000 0.0000 0.0000 15.9676
#
#
#
# Elastic Compliance Matrix: (Units=1/GPa)
#
#
# Indices 1 2 3 4 5 6 
#
# 1 0.043984 0.002887 -0.000734 0.000000 0.000000 0.000000
# 2 0.002887 0.012114 -0.003826 0.000000 0.000000 0.000000
# 3 -0.000734 -0.003826 0.007839 0.000000 0.000000 0.000000
# 4 0.000000 0.000000 0.000000 0.100984 0.000000 0.000000
# 5 0.000000 0.000000 0.000000 0.000000 0.051019 0.000000
# 6 0.000000 0.000000 0.000000 0.000000 0.000000 0.062627
#
#
# Mechanical properties :
#
#
# Convention : Reuss Voigt Hill
#
# Bulk Modulus (GPa) = 16.50439 39.54247 28.02343
# Shear Modulus (GPa) = 16.55022 24.52534 20.53778
#
# Velocity S-wave (km/s) = 2.66882 3.24882 2.97300
# Velocity P-wave (km/s) = 4.07428 5.57591 4.88316
#
# Compressibility (1/GPa) = 0.06058993
#
# Stress axis : x y z
#
# Youngs Moduli (GPa) = 22.73541 82.54975 127.56799
#
# Poissons Ratio (x) = -0.23829 0.09362
# Poissons Ratio (y) = -0.06563 0.48811
# Poissons Ratio (z) = 0.01669 0.31586
#
# Static dielectric constant tensor:
#      x y z
#    x 1.962420 0.000000 0.000000 
#    y 0.000000 1.870520 0.000000 
#    z 0.000000 0.000000 1.857320 
# 
# From -- ./inp_files/18550.got.cif
#   From: 2010.05.17/outbox.cif.g08.bks.cpg/sg55_10_cif.got.tgz:18550.got - 2010.06.03 13:27:54.
