data_PCOD9427240
_publ_section_title
;
Structure prediction by ZEFSAII (Michael W. Deem and Ramdas Pophale) SiO2 
 PCOD9427240
Probable space group: P B A M
;
_chemical_formula_sum "Si O2"
_cell_formula_units_Z 48
_cell_length_a 7.876776
_cell_length_b 14.895050
_cell_length_c 17.272908
_cell_angle_alpha 90.000000
_cell_angle_beta 90.000000
_cell_angle_gamma 90.000000
_cell_volume 2026.543454
_symmetry_space_group_name_H-M "P B A M"
_symmetry_group_IT_number 55
_symmetry_cell_setting 'orthorhombic'
loop_
_space_group_symop_operation_xyz
x,y,z
-x,-y,z
1/2+x,1/2-y,-z
1/2-x,1/2+y,-z
-x,-y,-z
x,y,-z
1/2-x,1/2+y,z
1/2+x,1/2-y,z
loop_
_atom_site_type_symbol
_atom_site_label
_atom_site_fract_x
_atom_site_fract_y
_atom_site_fract_z
Si Si1 0.339640 0.389528 0.678672
Si Si2 0.593433 0.858976 0.159589
Si Si3 0.024116 0.710924 0.320787
Si Si4 0.770093 0.042704 0.160687
Si Si5 0.752337 0.793927 0.000000
Si Si6 0.316259 0.050493 0.588509
Si Si7 0.615687 0.608901 0.000000
O O1 0.469418 0.313409 0.650883
O O2 0.371246 0.417351 0.767335
O O3 0.308161 0.480571 0.631188
O O4 0.160340 0.334871 0.676292
O O5 0.585880 0.791052 0.231177
O O6 0.407722 0.903295 0.155077
O O7 0.719797 0.940703 0.178448
O O8 0.653156 0.819756 0.078236
O O9 0.145279 0.643311 0.367860
O O10 0.854894 0.053834 0.077780
O O11 0.933811 0.842287 0.000000
O O12 0.757727 0.686898 0.000000
O O13 0.264438 0.065207 0.500000
O O14 0.500000 0.000000 0.588505
#
# Coordination Sequence:
#
# PCOD9427240 Si02
#       7
#     8   8   8   8   4   8   4
#     4  10  20  36  59  87 116 152 194 236 283 341
#     4  10  20  37  59  81 111 151 193 235 285 343
#     4  10  20  36  59  87 116 152 194 236 283 341
#     4  10  20  37  59  81 111 151 193 235 285 343
#     4  12  25  38  53  79 113 149 193 241 288 339
#     4   9  18  36  61  86 115 152 192 233 283 347
#     4  12  25  38  53  79 113 149 193 241 288 339
#
# _framework density 23.685649000000002
#
# number of rings (size 3 to 8) (size 9 to 14) (size 15 to 20)
#    0.000    1.833    1.667    3.000    0.000    7.333 
#    0.000    0.833    0.000    1.000    0.000    0.000 
#    0.000    0.000    0.000    0.000    0.000    0.000 
#
# Total GULP energy -268761.600651 kJ/mol
# GULP energy per Si atom -5599.200014 kJ/mol
# Density = 2.363174 g / cm^3
# Si number density = 23.685649 Si / 1000 Ang^3
#
#
#
# Elastic Constant Matrix: (Units=GPa)
#
#
# Indices 1 2 3 4 5 6 
#
# 1 89.4884 11.6281 18.0488 0.0000 0.0000 0.0000
# 2 11.6281 69.5999 -0.5709 0.0000 0.0000 0.0000
# 3 18.0488 -0.5709 104.6573 0.0000 0.0000 0.0000
# 4 0.0000 0.0000 0.0000 -0.7216 0.0000 0.0000
# 5 0.0000 0.0000 0.0000 0.0000 -16.5721 0.0000
# 6 0.0000 0.0000 0.0000 0.0000 0.0000 39.3535
#
#
#
# Elastic Compliance Matrix: (Units=1/GPa)
#
#
# Indices 1 2 3 4 5 6 
#
# 1 0.011848 -0.001996 -0.002054 0.000000 0.000000 0.000000
# 2 -0.001996 0.014705 0.000424 0.000000 0.000000 0.000000
# 3 -0.002054 0.000424 0.009912 0.000000 0.000000 0.000000
# 4 0.000000 0.000000 0.000000 -1.385806 0.000000 0.000000
# 5 0.000000 0.000000 0.000000 0.000000 -0.060342 0.000000
# 6 0.000000 0.000000 0.000000 0.000000 0.000000 0.025411
#
#
# Mechanical properties :
#
#
# Convention : Reuss Voigt Hill
#
# Bulk Modulus (GPa) = 34.23176 35.77306 35.00241
# Shear Modulus (GPa) = -3.65689 20.05460 8.19885
#
# Velocity S-wave (km/s) = -1.24390 2.91296 1.86254
# Velocity P-wave (km/s) = 3.52433 5.14294 4.40856
#
# Compressibility (1/GPa) = 0.02921264
#
# Stress axis : x y z
#
# Youngs Moduli (GPa) = 84.39997 68.00474 100.89218
#
# Poissons Ratio (x) = 0.13576 0.20725
# Poissons Ratio (y) = 0.16849 -0.04283
# Poissons Ratio (z) = 0.17338 -0.02887
#
# Static dielectric constant tensor:
#      x y z
#    x 1.947290 0.000000 0.000000 
#    y 0.000000 1.879380 0.000000 
#    z 0.000000 0.000000 1.848670 
# 
# From -- ./inp_files/20806.got.cif
#   From: 2010.05.17/outbox.cif.g08.bks.cpg/sg55_11_cif.got.tgz:20806.got - 2010.06.03 13:27:54.
