data_PCOD9427132
_publ_section_title
;
Structure prediction by ZEFSAII (Michael W. Deem and Ramdas Pophale) SiO2 
 PCOD9427132
Probable space group: P B A M
;
_chemical_formula_sum "Si O2"
_cell_formula_units_Z 48
_cell_length_a 9.327857
_cell_length_b 27.280874
_cell_length_c 8.604501
_cell_angle_alpha 90.000000
_cell_angle_beta 90.000000
_cell_angle_gamma 90.000000
_cell_volume 2189.605366
_symmetry_space_group_name_H-M "P B A M"
_symmetry_group_IT_number 55
_symmetry_cell_setting 'orthorhombic'
loop_
_space_group_symop_operation_xyz
x,y,z
-x,-y,z
1/2+x,1/2-y,-z
1/2-x,1/2+y,-z
-x,-y,-z
x,y,-z
1/2-x,1/2+y,z
1/2+x,1/2-y,z
loop_
_atom_site_type_symbol
_atom_site_label
_atom_site_fract_x
_atom_site_fract_y
_atom_site_fract_z
Si Si1 0.251769 0.496238 0.500000
Si Si2 0.877943 0.136656 0.245630
Si Si3 0.151074 0.190469 0.173726
Si Si4 0.027247 0.075081 0.500000
Si Si5 0.876513 0.706104 0.672405
Si Si6 0.584961 0.868398 0.181539
Si Si7 0.646212 0.053685 0.183385
O O1 0.396949 0.464050 0.500000
O O2 0.316946 0.550775 0.500000
O O3 0.178946 0.481831 0.667499
O O4 0.990628 0.170225 0.156826
O O5 0.986842 0.107893 0.354952
O O6 0.768260 0.174216 0.325220
O O7 0.774353 0.094443 0.176455
O O8 0.151407 0.238653 0.277834
O O9 0.260561 0.149335 0.238050
O O10 0.203090 0.204109 0.000000
O O11 0.939997 0.704090 0.500000
O O12 0.982764 0.678202 0.788339
O O13 0.495583 0.915818 0.235661
O O14 0.601278 0.878306 0.000000
O O15 0.633708 0.035604 0.000000
#
# Coordination Sequence:
#
# PCOD9427132 Si02
#       7
#     4   8   8   4   8   8   8
#     4   9  18  34  61  87 113 144 177 235 291 339
#     4  10  20  36  57  79 112 151 184 229 286 327
#     4  11  23  36  52  78 112 147 188 233 276 325
#     4   9  18  36  55  85 117 136 177 237 285 338
#     4  11  22  35  53  78 106 146 193 229 273 326
#     4   9  20  36  54  76 106 145 187 230 274 330
#     4   9  18  35  59  85 112 146 188 229 281 345
#
# _framework density 21.921758000000001
#
# number of rings (size 3 to 8) (size 9 to 14) (size 15 to 20)
#    0.000    2.167    0.833    2.000    4.667    5.333 
#    0.000    7.500    0.000    2.000    0.000    3.500 
#    0.000    0.000    0.000    0.000    0.000    0.000 
#
# Total GULP energy -267219.782388 kJ/mol
# GULP energy per Si atom -5567.078800 kJ/mol
# Density = 2.187186 g / cm^3
# Si number density = 21.921758 Si / 1000 Ang^3
#
#
#
# Elastic Constant Matrix: (Units=GPa)
#
#
# Indices 1 2 3 4 5 6 
#
# 1 102.1318 32.3623 4.6177 0.0000 0.0000 0.0000
# 2 32.3623 68.1417 35.7847 0.0000 0.0000 0.0000
# 3 4.6177 35.7847 58.2227 0.0000 0.0000 0.0000
# 4 0.0000 0.0000 0.0000 -88.5980 0.0000 0.0000
# 5 0.0000 0.0000 0.0000 0.0000 64.2878 0.0000
# 6 0.0000 0.0000 0.0000 0.0000 0.0000 17.9371
#
#
#
# Elastic Compliance Matrix: (Units=1/GPa)
#
#
# Indices 1 2 3 4 5 6 
#
# 1 0.012066 -0.007720 0.003788 0.000000 0.000000 0.000000
# 2 -0.007720 0.026608 -0.015742 0.000000 0.000000 0.000000
# 3 0.003788 -0.015742 0.026550 0.000000 0.000000 0.000000
# 4 0.000000 0.000000 0.000000 -0.011287 0.000000 0.000000
# 5 0.000000 0.000000 0.000000 0.000000 0.015555 0.000000
# 6 0.000000 0.000000 0.000000 0.000000 0.000000 0.055750
#
#
# Mechanical properties :
#
#
# Convention : Reuss Voigt Hill
#
# Bulk Modulus (GPa) = 38.64399 41.55840 40.10120
# Shear Modulus (GPa) = 28.86571 9.10748 18.98660
#
# Velocity S-wave (km/s) = 3.63266 2.04048 2.94616
# Velocity P-wave (km/s) = 5.93813 4.95481 5.46862
#
# Compressibility (1/GPa) = 0.02587724
#
# Stress axis : x y z
#
# Youngs Moduli (GPa) = 82.87682 37.58227 37.66461
#
# Poissons Ratio (x) = 0.29012 -0.14266
# Poissons Ratio (y) = 0.63977 0.59290
# Poissons Ratio (z) = -0.31390 0.59161
#
# Static dielectric constant tensor:
#      x y z
#    x 1.797470 0.000000 0.000000 
#    y 0.000000 1.820980 0.000000 
#    z 0.000000 0.000000 1.824900 
# 
# From -- ./inp_files/2986.got.cif
#   From: 2010.05.17/outbox.cif.g08.bks.cpg/sg55_2_cif.got.tgz:2986.got - 2010.06.03 13:27:54.
