data_PCOD9427838
_publ_section_title
;
Structure prediction by ZEFSAII (Michael W. Deem and Ramdas Pophale) SiO2 
 PCOD9427838
Probable space group: P B A M
;
_chemical_formula_sum "Si O2"
_cell_formula_units_Z 48
_cell_length_a 17.816735
_cell_length_b 5.109760
_cell_length_c 28.444169
_cell_angle_alpha 90.000000
_cell_angle_beta 90.000000
_cell_angle_gamma 90.000000
_cell_volume 2589.535523
_symmetry_space_group_name_H-M "P B A M"
_symmetry_group_IT_number 55
_symmetry_cell_setting 'orthorhombic'
loop_
_space_group_symop_operation_xyz
x,y,z
-x,-y,z
1/2+x,1/2-y,-z
1/2-x,1/2+y,-z
-x,-y,-z
x,y,-z
1/2-x,1/2+y,z
1/2+x,1/2-y,z
loop_
_atom_site_type_symbol
_atom_site_label
_atom_site_fract_x
_atom_site_fract_y
_atom_site_fract_z
Si Si1 0.299241 0.861060 0.887828
Si Si2 0.089363 0.011994 0.637549
Si Si3 0.297920 0.836398 0.223421
Si Si4 0.300460 0.377074 0.554283
Si Si5 0.410759 0.011288 0.302083
Si Si6 0.550916 0.258114 0.945094
O O1 0.234998 0.645808 0.898197
O O2 0.315934 0.852646 0.831974
O O3 0.373475 0.789258 0.916303
O O4 0.107485 0.796924 0.677619
O O5 0.135149 0.940709 0.591269
O O6 0.107433 0.298006 0.657647
O O7 0.000000 0.000000 0.628940
O O8 0.268975 0.543921 0.232814
O O9 0.365519 0.926765 0.256226
O O10 0.325878 0.400706 0.500000
O O11 0.265493 0.090350 0.561099
O O12 0.500000 0.000000 0.293326
O O13 0.500000 0.500000 0.927977
O O14 0.500000 0.000000 0.942617
O O15 0.569649 0.308325 0.000000
#
# Coordination Sequence:
#
# PCOD9427838 Si02
#       6
#     8   8   8   8   8   8
#     4  10  21  37  56  81 112 145 184 228 274 327
#     4  10  21  36  54  77 105 136 172 213 258 310
#     4  10  21  36  54  78 107 139 177 219 262 313
#     4  10  21  36  54  78 105 133 170 213 256 308
#     4  10  21  36  53  77 106 136 174 217 259 310
#     4  10  21  37  57  83 113 145 185 230 275 327
#
# _framework density 18.536142000000002
#
# number of rings (size 3 to 8) (size 9 to 14) (size 15 to 20)
#    0.000    2.000    0.000    3.000    0.000    5.667 
#    0.000    2.500    0.000    6.000    0.000    0.000 
#    0.000    0.000    0.000    0.000    0.000    0.000 
#
# Total GULP energy -268078.840106 kJ/mol
# GULP energy per Si atom -5584.975836 kJ/mol
# Density = 1.849395 g / cm^3
# Si number density = 18.536142 Si / 1000 Ang^3
#
#
#
# Elastic Constant Matrix: (Units=GPa)
#
#
# Indices 1 2 3 4 5 6 
#
# 1 66.8818 5.0657 64.3635 0.0000 0.0000 0.0000
# 2 5.0657 62.8100 9.9544 0.0000 0.0000 0.0000
# 3 64.3635 9.9544 76.2001 0.0000 0.0000 0.0000
# 4 0.0000 0.0000 0.0000 -1.8581 0.0000 0.0000
# 5 0.0000 0.0000 0.0000 0.0000 59.8802 0.0000
# 6 0.0000 0.0000 0.0000 0.0000 0.0000 24.1195
#
#
#
# Elastic Compliance Matrix: (Units=1/GPa)
#
#
# Indices 1 2 3 4 5 6 
#
# 1 0.081072 0.004405 -0.069055 0.000000 0.000000 0.000000
# 2 0.004405 0.016497 -0.005876 0.000000 0.000000 0.000000
# 3 -0.069055 -0.005876 0.072219 0.000000 0.000000 0.000000
# 4 0.000000 0.000000 0.000000 -0.538197 0.000000 0.000000
# 5 0.000000 0.000000 0.000000 0.000000 0.016700 0.000000
# 6 0.000000 0.000000 0.000000 0.000000 0.000000 0.041460
#
#
# Mechanical properties :
#
#
# Convention : Reuss Voigt Hill
#
# Bulk Modulus (GPa) = 34.79742 40.51769 37.65756
# Shear Modulus (GPa) = -31.32471 24.86221 -3.23125
#
# Velocity S-wave (km/s) = -4.11533 3.66633 -1.32174
# Velocity P-wave (km/s) = 1.94107 6.31101 4.24624
#
# Compressibility (1/GPa) = 0.02873776
#
# Stress axis : x y z
#
# Youngs Moduli (GPa) = 12.33464 60.61708 13.84681
#
# Poissons Ratio (x) = -0.26704 0.95618
# Poissons Ratio (y) = -0.05434 0.08137
# Poissons Ratio (z) = 0.85176 0.35619
#
# Static dielectric constant tensor:
#      x y z
#    x 1.600850 0.000000 0.000000 
#    y 0.000000 1.640640 0.000000 
#    z 0.000000 0.000000 1.615760 
# 
# From -- ./inp_files/23302.got.cif
#   From: 2010.05.17/outbox.cif.g08.bks.cpg/sg55_12_cif.got.tgz:23302.got - 2010.06.03 13:27:54.
