data_PCOD9427348
_publ_section_title
;
Structure prediction by ZEFSAII (Michael W. Deem and Ramdas Pophale) SiO2 
 PCOD9427348
Probable space group: P B A M
;
_chemical_formula_sum "Si O2"
_cell_formula_units_Z 48
_cell_length_a 11.811292
_cell_length_b 13.347629
_cell_length_c 14.346668
_cell_angle_alpha 90.000000
_cell_angle_beta 90.000000
_cell_angle_gamma 90.000000
_cell_volume 2261.791572
_symmetry_space_group_name_H-M "P B A M"
_symmetry_group_IT_number 55
_symmetry_cell_setting 'orthorhombic'
loop_
_space_group_symop_operation_xyz
x,y,z
-x,-y,z
1/2+x,1/2-y,-z
1/2-x,1/2+y,-z
-x,-y,-z
x,y,-z
1/2-x,1/2+y,z
1/2+x,1/2-y,z
loop_
_atom_site_type_symbol
_atom_site_label
_atom_site_fract_x
_atom_site_fract_y
_atom_site_fract_z
Si Si1 0.331201 0.795548 0.604239
Si Si2 0.635579 0.710889 0.259621
Si Si3 0.819805 0.728447 0.108764
Si Si4 0.920325 0.916783 0.202390
Si Si5 0.486722 0.883493 0.765376
Si Si6 0.622241 0.444026 0.398493
O O1 0.341015 0.833955 0.500000
O O2 0.204789 0.805727 0.645822
O O3 0.409463 0.853632 0.676985
O O4 0.366229 0.677752 0.601574
O O5 0.716478 0.689893 0.172057
O O6 0.517692 0.653314 0.249556
O O7 0.604152 0.827557 0.252649
O O8 0.848132 0.843217 0.138483
O O9 0.927345 0.664536 0.143906
O O10 0.799104 0.720000 0.000000
O O11 0.848247 0.964036 0.288730
O O12 0.000000 0.000000 0.154687
O O13 0.500000 0.000000 0.774822
O O14 0.500000 0.500000 0.403163
O O15 0.676519 0.472207 0.500000
#
# Coordination Sequence:
#
# PCOD9427348 Si02
#       6
#     8   8   8   8   8   8
#     4  10  20  37  57  86 120 152 193 234 276 330
#     4  10  20  38  58  83 109 153 185 237 284 339
#     4  10  22  40  58  85 114 144 190 240 291 346
#     4  10  20  37  61  85 116 147 185 234 288 336
#     4  10  22  41  60  81 117 157 194 232 285 341
#     4   9  16  31  56  84 115 147 182 225 273 329
#
# _framework density 21.222113
#
# number of rings (size 3 to 8) (size 9 to 14) (size 15 to 20)
#    0.000    2.167    5.000    0.000    0.000    7.667 
#    0.000    1.667    0.000    0.000    0.000    0.000 
#    0.000    0.000    0.000    0.000    0.000    0.000 
#
# Total GULP energy -267340.547371 kJ/mol
# GULP energy per Si atom -5569.594737 kJ/mol
# Density = 2.117381 g / cm^3
# Si number density = 21.222113 Si / 1000 Ang^3
#
#
#
# Elastic Constant Matrix: (Units=GPa)
#
#
# Indices 1 2 3 4 5 6 
#
# 1 47.2760 -6.0016 10.5872 0.0000 0.0000 0.0000
# 2 -6.0016 64.7430 -9.8474 0.0000 0.0000 0.0000
# 3 10.5872 -9.8474 128.8222 0.0000 0.0000 0.0000
# 4 0.0000 0.0000 0.0000 17.8048 0.0000 0.0000
# 5 0.0000 0.0000 0.0000 0.0000 5.4236 0.0000
# 6 0.0000 0.0000 0.0000 0.0000 0.0000 25.2507
#
#
#
# Elastic Compliance Matrix: (Units=1/GPa)
#
#
# Indices 1 2 3 4 5 6 
#
# 1 0.021746 0.001765 -0.001652 0.000000 0.000000 0.000000
# 2 0.001765 0.015771 0.001061 0.000000 0.000000 0.000000
# 3 -0.001652 0.001061 0.007980 0.000000 0.000000 0.000000
# 4 0.000000 0.000000 0.000000 0.056165 0.000000 0.000000
# 5 0.000000 0.000000 0.000000 0.000000 0.184379 0.000000
# 6 0.000000 0.000000 0.000000 0.000000 0.000000 0.039603
#
#
# Mechanical properties :
#
#
# Convention : Reuss Voigt Hill
#
# Bulk Modulus (GPa) = 20.90218 25.59086 23.24652
# Shear Modulus (GPa) = 14.73860 26.10268 20.42064
#
# Velocity S-wave (km/s) = 2.63818 3.51091 3.10535
# Velocity P-wave (km/s) = 4.37614 5.34042 4.88214
#
# Compressibility (1/GPa) = 0.04784191
#
# Stress axis : x y z
#
# Youngs Moduli (GPa) = 45.98455 63.40928 125.32112
#
# Poissons Ratio (x) = -0.11189 0.20707
# Poissons Ratio (y) = -0.08114 -0.13290
# Poissons Ratio (z) = 0.07598 -0.06725
#
# Static dielectric constant tensor:
#      x y z
#    x 1.806630 0.000000 0.000000 
#    y 0.000000 1.853910 0.000000 
#    z 0.000000 0.000000 1.752160 
# 
# From -- ./inp_files/18261.got.cif
#   From: 2010.05.17/outbox.cif.g08.bks.cpg/sg55_10_cif.got.tgz:18261.got - 2010.06.03 13:27:54.
