data_PCOD9427937
_publ_section_title
;
Structure prediction by ZEFSAII (Michael W. Deem and Ramdas Pophale) SiO2 
 PCOD9427937
Probable space group: P B A M
;
_chemical_formula_sum "Si O2"
_cell_formula_units_Z 64
_cell_length_a 24.354595
_cell_length_b 15.882006
_cell_length_c 7.527709
_cell_angle_alpha 90.000000
_cell_angle_beta 90.000000
_cell_angle_gamma 90.000000
_cell_volume 2911.716516
_symmetry_space_group_name_H-M "P B A M"
_symmetry_group_IT_number 55
_symmetry_cell_setting 'orthorhombic'
loop_
_space_group_symop_operation_xyz
x,y,z
-x,-y,z
1/2+x,1/2-y,-z
1/2-x,1/2+y,-z
-x,-y,-z
x,y,-z
1/2-x,1/2+y,z
1/2+x,1/2-y,z
loop_
_atom_site_type_symbol
_atom_site_label
_atom_site_fract_x
_atom_site_fract_y
_atom_site_fract_z
Si Si1 0.956307 0.247869 0.212999
Si Si2 0.358411 0.651577 0.291496
Si Si3 0.670455 0.750071 0.218357
Si Si4 0.525403 0.412961 0.214035
Si Si5 0.759004 0.408968 0.798409
Si Si6 0.137828 0.341494 0.284853
Si Si7 0.743480 0.594457 0.795872
Si Si8 0.526017 0.085299 0.287149
O O1 0.893067 0.249529 0.274027
O O2 0.988078 0.333932 0.253724
O O3 0.991476 0.168188 0.280589
O O4 0.953792 0.240106 0.000000
O O5 0.345430 0.652559 0.500000
O O6 0.410608 0.593408 0.259729
O O7 0.302536 0.626825 0.197172
O O8 0.375850 0.745447 0.237974
O O9 0.702197 0.835187 0.277890
O O10 0.701993 0.665027 0.278403
O O11 0.673268 0.750133 0.000000
O O12 0.500000 0.500000 0.279080
O O13 0.521634 0.412169 0.000000
O O14 0.752074 0.501609 0.713374
O O15 0.779676 0.423275 0.000000
O O16 0.141824 0.347194 0.500000
O O17 0.196512 0.364546 0.208312
O O18 0.087598 0.398270 0.221400
O O19 0.725193 0.579979 0.000000
O O20 0.530564 0.077108 0.500000
O O21 0.500000 0.000000 0.215446
#
# Coordination Sequence:
#
# PCOD9427937 Si02
#       8
#     8   8   8   8   8   8   8   8
#     4  10  21  37  58  84 115 147 184 238 288 333
#     4  11  22  38  60  84 115 152 192 241 286 333
#     4   9  19  36  54  80 115 144 179 229 280 329
#     4  10  22  38  60  87 114 151 195 238 289 348
#     4  10  21  37  59  85 114 149 189 233 283 342
#     4  10  21  38  58  81 114 149 189 238 281 335
#     4  10  21  36  60  86 110 147 188 230 283 337
#     4  10  22  40  59  81 113 155 191 227 283 342
#
# _framework density 21.980160999999999
#
# number of rings (size 3 to 8) (size 9 to 14) (size 15 to 20)
#    0.000    2.000    2.500    0.375    3.500    2.000 
#    0.000    1.250    0.000    0.000    0.000    0.000 
#    0.000    0.000    0.000    0.000    0.000    0.000 
#
# Total GULP energy -357462.267985 kJ/mol
# GULP energy per Si atom -5585.347937 kJ/mol
# Density = 2.193013 g / cm^3
# Si number density = 21.980161 Si / 1000 Ang^3
#
#
#
# Elastic Constant Matrix: (Units=GPa)
#
#
# Indices 1 2 3 4 5 6 
#
# 1 93.4705 -3.9998 -14.7414 0.0000 0.0000 0.0000
# 2 -3.9998 84.3893 -3.3382 0.0000 0.0000 0.0000
# 3 -14.7414 -3.3382 51.5228 0.0000 0.0000 0.0000
# 4 0.0000 0.0000 0.0000 -43.6218 0.0000 0.0000
# 5 0.0000 0.0000 0.0000 0.0000 -397.3901 0.0000
# 6 0.0000 0.0000 0.0000 0.0000 0.0000 36.7638
#
#
#
# Elastic Compliance Matrix: (Units=1/GPa)
#
#
# Indices 1 2 3 4 5 6 
#
# 1 0.011241 0.000662 0.003259 0.000000 0.000000 0.000000
# 2 0.000662 0.011919 0.000962 0.000000 0.000000 0.000000
# 3 0.003259 0.000962 0.020404 0.000000 0.000000 0.000000
# 4 0.000000 0.000000 0.000000 -0.022924 0.000000 0.000000
# 5 0.000000 0.000000 0.000000 0.000000 -0.002516 0.000000
# 6 0.000000 0.000000 0.000000 0.000000 0.000000 0.027201
#
#
# Mechanical properties :
#
#
# Convention : Reuss Voigt Hill
#
# Bulk Modulus (GPa) = 18.75175 20.58044 19.66609
# Shear Modulus (GPa) = 93.74685 -64.08548 14.83069
#
# Velocity S-wave (km/s) = 6.53783 -5.40549 2.60038
# Velocity P-wave (km/s) = 8.09572 5.43835 4.24059
#
# Compressibility (1/GPa) = 0.05332836
#
# Stress axis : x y z
#
# Youngs Moduli (GPa) = 88.96116 83.89797 49.01086
#
# Poissons Ratio (x) = -0.05552 -0.15973
# Poissons Ratio (y) = -0.05887 -0.04713
# Poissons Ratio (z) = -0.28993 -0.08067
#
# Static dielectric constant tensor:
#      x y z
#    x 1.749410 0.000000 0.000000 
#    y 0.000000 1.813790 0.000000 
#    z 0.000000 0.000000 1.837670 
# 
# From -- ./inp_files/9710.got.cif
#   From: 2010.05.17/outbox.cif.g08.bks.cpg/sg55_5_cif.got.tgz:9710.got - 2010.06.03 13:27:54.
