data_PCOD9427969
_publ_section_title
;
Structure prediction by ZEFSAII (Michael W. Deem and Ramdas Pophale) SiO2 
 PCOD9427969
Probable space group: P B A M
;
_chemical_formula_sum "Si O2"
_cell_formula_units_Z 48
_cell_length_a 15.621927
_cell_length_b 18.980044
_cell_length_c 7.562496
_cell_angle_alpha 90.000000
_cell_angle_beta 90.000000
_cell_angle_gamma 90.000000
_cell_volume 2242.316832
_symmetry_space_group_name_H-M "P B A M"
_symmetry_group_IT_number 55
_symmetry_cell_setting 'orthorhombic'
loop_
_space_group_symop_operation_xyz
x,y,z
-x,-y,z
1/2+x,1/2-y,-z
1/2-x,1/2+y,-z
-x,-y,-z
x,y,-z
1/2-x,1/2+y,z
1/2+x,1/2-y,z
loop_
_atom_site_type_symbol
_atom_site_label
_atom_site_fract_x
_atom_site_fract_y
_atom_site_fract_z
Si Si1 0.060105 0.437483 0.711197
Si Si2 0.300505 0.256145 0.212940
Si Si3 0.094556 0.012860 0.292054
Si Si4 0.989598 0.282542 0.786828
Si Si5 0.864931 0.826661 0.214530
Si Si6 0.248098 0.917109 0.711532
O O1 0.066361 0.447723 0.500000
O O2 0.157416 0.435852 0.781848
O O3 0.000000 0.500000 0.781907
O O4 0.017933 0.361351 0.740980
O O5 0.394946 0.236823 0.279155
O O6 0.226270 0.203566 0.275357
O O7 0.273448 0.335565 0.256890
O O8 0.302766 0.251086 0.000000
O O9 0.089201 0.994258 0.500000
O O10 0.117925 0.094438 0.274746
O O11 0.170873 0.964978 0.216674
O O12 0.000000 0.000000 0.215161
O O13 0.060404 0.226449 0.724942
O O14 0.988197 0.277976 0.000000
O O15 0.865262 0.826574 0.000000
O O16 0.251636 0.927831 0.500000
#
# Coordination Sequence:
#
# PCOD9427969 Si02
#       6
#     8   8   8   8   8   8
#     4  10  22  38  56  81 113 149 189 231 276 331
#     4  10  21  37  58  84 112 144 184 230 278 331
#     4  10  22  38  57  83 114 146 185 231 276 329
#     4  10  21  38  59  83 112 145 185 232 279 331
#     4  10  21  37  56  83 114 143 183 229 275 331
#     4  10  21  38  58  83 114 149 188 228 276 333
#
# _framework density 21.406428999999999
#
# number of rings (size 3 to 8) (size 9 to 14) (size 15 to 20)
#    0.000    2.000    1.667    1.000    2.333    3.333 
#    0.000    0.000    0.000    0.000    0.000    0.000 
#    0.000    0.000    0.000    0.000    0.000    0.000 
#
# Total GULP energy -268274.572382 kJ/mol
# GULP energy per Si atom -5589.053591 kJ/mol
# Density = 2.135771 g / cm^3
# Si number density = 21.406429 Si / 1000 Ang^3
#
#
#
# Elastic Constant Matrix: (Units=GPa)
#
#
# Indices 1 2 3 4 5 6 
#
# 1 218.1899 75.5365 10.0729 0.0000 0.0000 0.0000
# 2 75.5365 117.4447 -17.9574 0.0000 0.0000 0.0000
# 3 10.0729 -17.9574 49.3188 0.0000 0.0000 0.0000
# 4 0.0000 0.0000 0.0000 61.6601 0.0000 0.0000
# 5 0.0000 0.0000 0.0000 0.0000 4.2257 0.0000
# 6 0.0000 0.0000 0.0000 0.0000 0.0000 45.3265
#
#
#
# Elastic Compliance Matrix: (Units=1/GPa)
#
#
# Indices 1 2 3 4 5 6 
#
# 1 0.006267 -0.004476 -0.002910 0.000000 0.000000 0.000000
# 2 -0.004476 0.012213 0.005361 0.000000 0.000000 0.000000
# 3 -0.002910 0.005361 0.022822 0.000000 0.000000 0.000000
# 4 0.000000 0.000000 0.000000 0.016218 0.000000 0.000000
# 5 0.000000 0.000000 0.000000 0.000000 0.236645 0.000000
# 6 0.000000 0.000000 0.000000 0.000000 0.000000 0.022062
#
#
# Mechanical properties :
#
#
# Convention : Reuss Voigt Hill
#
# Bulk Modulus (GPa) = 26.84288 57.80638 42.32463
# Shear Modulus (GPa) = 15.02883 43.39590 29.21237
#
# Velocity S-wave (km/s) = 2.65254 4.50737 3.69813
# Velocity P-wave (km/s) = 4.68488 7.35876 6.16845
#
# Compressibility (1/GPa) = 0.03725382
#
# Stress axis : x y z
#
# Youngs Moduli (GPa) = 159.56870 81.88106 43.81653
#
# Poissons Ratio (x) = 0.36646 0.12749
# Poissons Ratio (y) = 0.71415 -0.23490
# Poissons Ratio (z) = 0.46427 -0.43896
#
# Static dielectric constant tensor:
#      x y z
#    x 1.787040 0.000000 0.000000 
#    y 0.000000 1.691120 0.000000 
#    z 0.000000 0.000000 1.794750 
# 
# From -- ./inp_files/5556.got.cif
#   From: 2010.05.17/outbox.cif.g08.bks.cpg/sg55_3_cif.got.tgz:5556.got - 2010.06.03 13:27:54.
