data_PCOD9427667
_publ_section_title
;
Structure prediction by ZEFSAII (Michael W. Deem and Ramdas Pophale) SiO2 
 PCOD9427667
Probable space group: P B A M
;
_chemical_formula_sum "Si O2"
_cell_formula_units_Z 56
_cell_length_a 14.811549
_cell_length_b 22.174094
_cell_length_c 8.976935
_cell_angle_alpha 90.000000
_cell_angle_beta 90.000000
_cell_angle_gamma 90.000000
_cell_volume 2948.318819
_symmetry_space_group_name_H-M "P B A M"
_symmetry_group_IT_number 55
_symmetry_cell_setting 'orthorhombic'
loop_
_space_group_symop_operation_xyz
x,y,z
-x,-y,z
1/2+x,1/2-y,-z
1/2-x,1/2+y,-z
-x,-y,-z
x,y,-z
1/2-x,1/2+y,z
1/2+x,1/2-y,z
loop_
_atom_site_type_symbol
_atom_site_label
_atom_site_fract_x
_atom_site_fract_y
_atom_site_fract_z
Si Si1 0.723592 0.511552 0.178380
Si Si2 0.573619 0.051572 0.178127
Si Si3 0.616914 0.746202 0.175550
Si Si4 0.568074 0.607790 0.177731
Si Si5 0.377877 0.599053 0.322501
Si Si6 0.535618 0.179498 0.676791
Si Si7 0.327609 0.726504 0.176327
O O1 0.825729 0.529380 0.217570
O O2 0.654557 0.566304 0.210122
O O3 0.687698 0.452956 0.262482
O O4 0.720752 0.500282 0.000000
O O5 0.548860 0.112279 0.263349
O O6 0.500000 0.000000 0.208055
O O7 0.573080 0.063778 0.000000
O O8 0.589102 0.677620 0.213144
O O9 0.559647 0.792916 0.271214
O O10 0.723195 0.755902 0.195398
O O11 0.596211 0.755445 0.000000
O O12 0.479403 0.586801 0.264403
O O13 0.550468 0.603757 0.000000
O O14 0.376466 0.601883 0.500000
O O15 0.348873 0.662962 0.252934
O O16 0.543979 0.181724 0.500000
O O17 0.610099 0.222419 0.752320
O O18 0.346922 0.721865 0.000000
#
# Coordination Sequence:
#
# PCOD9427667 Si02
#       7
#     8   8   8   8   8   8   8
#     4  10  22  41  65  92 122 165 218 265 312 369
#     4  10  23  44  69  94 123 167 223 267 306 370
#     4  10  22  40  67  94 121 164 215 264 308 367
#     4  10  20  39  65  92 122 163 210 261 312 373
#     4  12  25  39  59  93 131 166 205 259 329 382
#     4  12  25  41  64  97 135 168 201 257 328 384
#     4  11  23  42  67  93 124 168 222 266 309 372
#
# _framework density 18.993876
#
# number of rings (size 3 to 8) (size 9 to 14) (size 15 to 20)
#    0.000    1.286    1.429    4.286    2.000    6.571 
#    0.000    1.429    0.000    0.000    0.000    0.000 
#    0.000    0.000    0.000    0.000    0.000    0.000 
#
# Total GULP energy -313284.077971 kJ/mol
# GULP energy per Si atom -5594.358535 kJ/mol
# Density = 1.895065 g / cm^3
# Si number density = 18.993876 Si / 1000 Ang^3
#
#
#
# Elastic Constant Matrix: (Units=GPa)
#
#
# Indices 1 2 3 4 5 6 
#
# 1 -35.7876 -26.2302 -9.6648 0.0000 0.0000 0.0000
# 2 -26.2302 70.6267 27.2558 0.0000 0.0000 0.0000
# 3 -9.6648 27.2558 45.2359 0.0000 0.0000 0.0000
# 4 0.0000 0.0000 0.0000 -8.8491 0.0000 0.0000
# 5 0.0000 0.0000 0.0000 0.0000 -19.5687 0.0000
# 6 0.0000 0.0000 0.0000 0.0000 0.0000 22.5868
#
#
#
# Elastic Compliance Matrix: (Units=1/GPa)
#
#
# Indices 1 2 3 4 5 6 
#
# 1 -0.021961 -0.008268 0.000290 0.000000 0.000000 0.000000
# 2 -0.008268 0.015336 -0.011007 0.000000 0.000000 0.000000
# 3 0.000290 -0.011007 0.028800 0.000000 0.000000 0.000000
# 4 0.000000 0.000000 0.000000 -0.113005 0.000000 0.000000
# 5 0.000000 0.000000 0.000000 0.000000 -0.051102 0.000000
# 6 0.000000 0.000000 0.000000 0.000000 0.000000 0.044274
#
#
# Mechanical properties :
#
#
# Convention : Reuss Voigt Hill
#
# Bulk Modulus (GPa) = -63.31078 6.97741 -28.16668
# Shear Modulus (GPa) = -76.97829 4.74807 -36.11511
#
# Velocity S-wave (km/s) = -6.37306 1.58279 -4.36524
# Velocity P-wave (km/s) = 9.35730 2.64986 6.34576
#
# Compressibility (1/GPa) = -0.01579510
#
# Stress axis : x y z
#
# Youngs Moduli (GPa) = -45.53533 65.20602 34.72212
#
# Poissons Ratio (x) = 0.53912 -0.01005
# Poissons Ratio (y) = -0.37648 0.38218
# Poissons Ratio (z) = 0.01319 0.71771
#
# Static dielectric constant tensor:
#      x y z
#    x 1.645820 0.000000 0.000000 
#    y 0.000000 1.626260 0.000000 
#    z 0.000000 0.000000 1.631990 
# 
# From -- ./inp_files/6065.got.cif
#   From: 2010.05.17/outbox.cif.g08.bks.cpg/sg55_4_cif.got.tgz:6065.got - 2010.06.03 13:27:54.
