data_PCOD9427519
_publ_section_title
;
Structure prediction by ZEFSAII (Michael W. Deem and Ramdas Pophale) SiO2 
 PCOD9427519
Probable space group: P B A M
;
_chemical_formula_sum "Si O2"
_cell_formula_units_Z 48
_cell_length_a 9.030654
_cell_length_b 11.522171
_cell_length_c 19.262153
_cell_angle_alpha 90.000000
_cell_angle_beta 90.000000
_cell_angle_gamma 90.000000
_cell_volume 2004.279791
_symmetry_space_group_name_H-M "P B A M"
_symmetry_group_IT_number 55
_symmetry_cell_setting 'orthorhombic'
loop_
_space_group_symop_operation_xyz
x,y,z
-x,-y,z
1/2+x,1/2-y,-z
1/2-x,1/2+y,-z
-x,-y,-z
x,y,-z
1/2-x,1/2+y,z
1/2+x,1/2-y,z
loop_
_atom_site_type_symbol
_atom_site_label
_atom_site_fract_x
_atom_site_fract_y
_atom_site_fract_z
Si Si1 0.753399 0.473094 0.500000
Si Si2 0.372009 0.314545 0.191690
Si Si3 0.673407 0.514132 0.074130
Si Si4 0.882567 0.356571 0.378370
Si Si5 0.971783 0.184241 0.500000
Si Si6 0.612469 0.267306 0.710135
Si Si7 0.934811 0.368364 0.078399
O O1 0.848487 0.464896 0.429362
O O2 0.638192 0.364686 0.500000
O O3 0.647251 0.582054 0.500000
O O4 0.304302 0.411073 0.141815
O O5 0.232707 0.267585 0.233152
O O6 0.492497 0.347790 0.250377
O O7 0.453019 0.222686 0.139958
O O8 0.500000 0.500000 0.071357
O O9 0.758930 0.393999 0.078911
O O10 0.720705 0.568376 0.000000
O O11 0.937545 0.259840 0.432699
O O12 0.721488 0.326196 0.345915
O O13 0.011227 0.339869 0.319863
O O14 0.000000 0.500000 0.088200
O O15 0.973870 0.328609 0.000000
#
# Coordination Sequence:
#
# PCOD9427519 Si02
#       7
#     4   8   8   8   4   8   8
#     4  10  20  37  68  93 112 151 198 241 282 354
#     4  11  21  39  59  82 118 163 200 240 295 372
#     4  10  21  37  59  86 112 147 202 258 303 348
#     4  10  20  41  59  89 124 152 183 250 286 338
#     4  10  20  37  68  93 112 151 201 234 294 340
#     4  10  22  37  59  83 121 165 190 224 302 356
#     4  10  21  37  59  86 115 150 202 261 306 343
#
# _framework density 23.948754000000001
#
# number of rings (size 3 to 8) (size 9 to 14) (size 15 to 20)
#    0.000    1.833    1.667    2.500    0.000    0.000 
#    0.000   25.000    0.000    0.000    0.000    0.000 
#    0.000    0.000    0.000    0.000    0.000    0.000 
#
# Total GULP energy -267860.169513 kJ/mol
# GULP energy per Si atom -5580.420198 kJ/mol
# Density = 2.389425 g / cm^3
# Si number density = 23.948754 Si / 1000 Ang^3
#
#
#
# Elastic Constant Matrix: (Units=GPa)
#
#
# Indices 1 2 3 4 5 6 
#
# 1 128.6257 -2.0656 26.4619 0.0000 0.0000 0.0000
# 2 -2.0656 12.8639 11.7404 0.0000 0.0000 0.0000
# 3 26.4619 11.7404 123.0201 0.0000 0.0000 0.0000
# 4 0.0000 0.0000 0.0000 -23.9681 0.0000 0.0000
# 5 0.0000 0.0000 0.0000 0.0000 33.5712 0.0000
# 6 0.0000 0.0000 0.0000 0.0000 0.0000 27.8659
#
#
#
# Elastic Compliance Matrix: (Units=1/GPa)
#
#
# Indices 1 2 3 4 5 6 
#
# 1 0.008255 0.003227 -0.002084 0.000000 0.000000 0.000000
# 2 0.003227 0.086415 -0.008941 0.000000 0.000000 0.000000
# 3 -0.002084 -0.008941 0.009430 0.000000 0.000000 0.000000
# 4 0.000000 0.000000 0.000000 -0.041722 0.000000 0.000000
# 5 0.000000 0.000000 0.000000 0.000000 0.029787 0.000000
# 6 0.000000 0.000000 0.000000 0.000000 0.000000 0.035886
#
#
# Mechanical properties :
#
#
# Convention : Reuss Voigt Hill
#
# Bulk Modulus (GPa) = 11.29878 37.42033 24.35956
# Shear Modulus (GPa) = 28.87688 22.71866 25.79777
#
# Velocity S-wave (km/s) = 3.47620 3.08334 3.28564
# Velocity P-wave (km/s) = 4.56509 5.32307 4.95858
#
# Compressibility (1/GPa) = 0.08850511
#
# Stress axis : x y z
#
# Youngs Moduli (GPa) = 121.13890 11.57204 106.04177
#
# Poissons Ratio (x) = -0.03734 0.22095
# Poissons Ratio (y) = -0.39093 0.94814
# Poissons Ratio (z) = 0.25241 0.10347
#
# Static dielectric constant tensor:
#      x y z
#    x 1.943590 0.000000 0.000000 
#    y 0.000000 1.965380 0.000000 
#    z 0.000000 0.000000 1.990750 
# 
# From -- ./inp_files/20800.got.cif
#   From: 2010.05.17/outbox.cif.g08.bks.cpg/sg55_11_cif.got.tgz:20800.got - 2010.06.03 13:27:54.
