data_PCOD9427308
_publ_section_title
;
Structure prediction by ZEFSAII (Michael W. Deem and Ramdas Pophale) SiO2 
 PCOD9427308
Probable space group: P B A M
;
_chemical_formula_sum "Si O2"
_cell_formula_units_Z 48
_cell_length_a 10.013284
_cell_length_b 8.239394
_cell_length_c 25.261167
_cell_angle_alpha 90.000000
_cell_angle_beta 90.000000
_cell_angle_gamma 90.000000
_cell_volume 2084.131966
_symmetry_space_group_name_H-M "P B A M"
_symmetry_group_IT_number 55
_symmetry_cell_setting 'orthorhombic'
loop_
_space_group_symop_operation_xyz
x,y,z
-x,-y,z
1/2+x,1/2-y,-z
1/2-x,1/2+y,-z
-x,-y,-z
x,y,-z
1/2-x,1/2+y,z
1/2+x,1/2-y,z
loop_
_atom_site_type_symbol
_atom_site_label
_atom_site_fract_x
_atom_site_fract_y
_atom_site_fract_z
Si Si1 0.622648 0.375516 0.939006
Si Si2 0.305205 0.181318 0.792956
Si Si3 0.858532 0.055110 0.716920
Si Si4 0.156738 0.427252 0.128087
Si Si5 0.789570 0.086152 0.397077
Si Si6 0.550223 0.270044 0.562503
O O1 0.500000 0.500000 0.937135
O O2 0.587871 0.203741 0.910822
O O3 0.739650 0.472771 0.908972
O O4 0.659095 0.343992 0.000000
O O5 0.386735 0.284284 0.750800
O O6 0.226481 0.307996 0.829548
O O7 0.205396 0.072440 0.757777
O O8 0.389347 0.074948 0.833841
O O9 0.767006 0.082855 0.666072
O O10 0.000000 0.000000 0.694851
O O11 0.649358 0.122058 0.424938
O O12 0.905884 0.219253 0.409562
O O13 0.860336 0.922672 0.417575
O O14 0.527144 0.283405 0.500000
#
# Coordination Sequence:
#
# PCOD9427308 Si02
#       6
#     8   8   8   8   8   8
#     4  10  20  36  62  89 124 166 206 257 317 374
#     4   9  21  37  60  87 118 159 204 253 316 379
#     4  11  21  40  62  87 123 160 206 262 321 381
#     4   9  19  38  58  88 124 158 207 257 307 381
#     4  11  23  40  65  92 128 167 208 270 321 388
#     4  11  22  41  64  94 127 166 212 261 325 388
#
# _framework density 23.031171000000001
#
# number of rings (size 3 to 8) (size 9 to 14) (size 15 to 20)
#    0.000    1.833    1.667    3.500    0.000    6.667 
#    0.000   13.333    0.000    9.000    0.000    0.000 
#    0.000    0.000    0.000    0.000    0.000    0.000 
#
# Total GULP energy -267969.518252 kJ/mol
# GULP energy per Si atom -5582.698297 kJ/mol
# Density = 2.297875 g / cm^3
# Si number density = 23.031171 Si / 1000 Ang^3
#
#
#
# Elastic Constant Matrix: (Units=GPa)
#
#
# Indices 1 2 3 4 5 6 
#
# 1 42.3404 -1.5394 4.6197 0.0000 0.0000 0.0000
# 2 -1.5394 87.2457 35.4726 0.0000 0.0000 0.0000
# 3 4.6197 35.4726 158.4408 0.0000 0.0000 0.0000
# 4 0.0000 0.0000 0.0000 53.4170 0.0000 0.0000
# 5 0.0000 0.0000 0.0000 0.0000 1.1354 0.0000
# 6 0.0000 0.0000 0.0000 0.0000 0.0000 18.7843
#
#
#
# Elastic Compliance Matrix: (Units=1/GPa)
#
#
# Indices 1 2 3 4 5 6 
#
# 1 0.023740 0.000770 -0.000865 0.000000 0.000000 0.000000
# 2 0.000770 0.012635 -0.002851 0.000000 0.000000 0.000000
# 3 -0.000865 -0.002851 0.006975 0.000000 0.000000 0.000000
# 4 0.000000 0.000000 0.000000 0.018721 0.000000 0.000000
# 5 0.000000 0.000000 0.000000 0.000000 0.880740 0.000000
# 6 0.000000 0.000000 0.000000 0.000000 0.000000 0.053236
#
#
# Mechanical properties :
#
#
# Convention : Reuss Voigt Hill
#
# Bulk Modulus (GPa) = 26.69561 40.57031 33.63296
# Shear Modulus (GPa) = 4.92891 31.29895 18.11393
#
# Velocity S-wave (km/s) = 1.46450 3.69044 2.80750
# Velocity P-wave (km/s) = 3.80472 5.98437 5.01441
#
# Compressibility (1/GPa) = 0.03745934
#
# Stress axis : x y z
#
# Youngs Moduli (GPa) = 42.12222 79.14697 143.36796
#
# Poissons Ratio (x) = -0.06098 0.12397
# Poissons Ratio (y) = -0.03245 0.40877
# Poissons Ratio (z) = 0.03642 0.22566
#
# Static dielectric constant tensor:
#      x y z
#    x 1.828530 0.000000 0.000000 
#    y 0.000000 1.953950 0.000000 
#    z 0.000000 0.000000 1.805090 
# 
# From -- ./inp_files/23433.got.cif
#   From: 2010.05.17/outbox.cif.g08.bks.cpg/sg55_12_cif.got.tgz:23433.got - 2010.06.03 13:27:54.
