data_PCOD9427109
_publ_section_title
;
Structure prediction by ZEFSAII (Michael W. Deem and Ramdas Pophale) SiO2 
 PCOD9427109
Probable space group: P B A M
;
_chemical_formula_sum "Si O2"
_cell_formula_units_Z 58
_cell_length_a 24.580754
_cell_length_b 9.088903
_cell_length_c 12.957677
_cell_angle_alpha 90.000000
_cell_angle_beta 90.000000
_cell_angle_gamma 90.000000
_cell_volume 2894.901684
_symmetry_space_group_name_H-M "P B A M"
_symmetry_group_IT_number 55
_symmetry_cell_setting 'orthorhombic'
loop_
_space_group_symop_operation_xyz
x,y,z
-x,-y,z
1/2+x,1/2-y,-z
1/2-x,1/2+y,-z
-x,-y,-z
x,y,-z
1/2-x,1/2+y,z
1/2+x,1/2-y,z
loop_
_atom_site_type_symbol
_atom_site_label
_atom_site_fract_x
_atom_site_fract_y
_atom_site_fract_z
Si Si1 0.590278 0.095786 0.614125
Si Si2 0.291392 0.448074 0.299209
Si Si3 0.387765 0.242969 0.618109
Si Si4 0.134529 0.065911 0.880912
Si Si5 0.054720 0.328617 0.166013
Si Si6 0.795559 0.737537 0.614756
Si Si7 0.038984 0.872130 0.793221
Si Si8 0.000000 0.500000 0.000000
O O1 0.563976 0.106319 0.500000
O O2 0.554257 0.126284 0.714129
O O3 0.640114 0.209869 0.618553
O O4 0.616697 0.933477 0.622293
O O5 0.334653 0.332718 0.346616
O O6 0.317105 0.514116 0.194371
O O7 0.284278 0.591563 0.369397
O O8 0.235232 0.359048 0.299773
O O9 0.400664 0.282859 0.500000
O O10 0.433865 0.288285 0.698806
O O11 0.106939 0.224031 0.853905
O O12 0.085902 0.949123 0.859652
O O13 0.150351 0.065444 0.000000
O O14 0.046205 0.463451 0.090260
O O15 0.001429 0.229622 0.141852
O O16 0.776841 0.691176 0.500000
O O17 0.000000 0.000000 0.750250
#
# Coordination Sequence:
#
# PCOD9427109 Si02
#       8
#     8   8   8   8   8   8   8   2
#     4  10  22  39  61  89 132 171 204 262 325 384
#     4  11  22  39  62  92 123 163 208 261 310 381
#     4  10  20  36  55  84 124 165 202 248 309 372
#     4  10  21  41  64  85 124 166 211 269 319 369
#     4  11  21  39  58  95 123 163 220 260 323 373
#     4  11  21  36  62  93 123 160 203 252 312 380
#     4   9  21  35  57  85 116 158 207 260 302 377
#     4  12  24  32  64  88 120 168 212 276 296 376
#
# _framework density 20.035222999999998
#
# number of rings (size 3 to 8) (size 9 to 14) (size 15 to 20)
#    0.000    1.655    2.069    2.897    0.966    2.759 
#    0.000    2.414    1.517    0.000    0.000    0.000 
#    0.000    0.000    0.000    0.000    0.000    0.000 
#
# Total GULP energy -323143.210791 kJ/mol
# GULP energy per Si atom -5571.434669 kJ/mol
# Density = 1.998962 g / cm^3
# Si number density = 20.035223 Si / 1000 Ang^3
#
#
#
# Elastic Constant Matrix: (Units=GPa)
#
#
# Indices 1 2 3 4 5 6 
#
# 1 34.7229 -7.6666 20.4176 0.0000 0.0000 0.0000
# 2 -7.6666 55.6782 9.3043 0.0000 0.0000 0.0000
# 3 20.4176 9.3043 125.0092 0.0000 0.0000 0.0000
# 4 0.0000 0.0000 0.0000 24.9546 0.0000 0.0000
# 5 0.0000 0.0000 0.0000 0.0000 24.4071 0.0000
# 6 0.0000 0.0000 0.0000 0.0000 0.0000 28.2570
#
#
#
# Elastic Compliance Matrix: (Units=1/GPa)
#
#
# Indices 1 2 3 4 5 6 
#
# 1 0.033497 0.005596 -0.005888 0.000000 0.000000 0.000000
# 2 0.005596 0.019121 -0.002337 0.000000 0.000000 0.000000
# 3 -0.005888 -0.002337 0.009135 0.000000 0.000000 0.000000
# 4 0.000000 0.000000 0.000000 0.040073 0.000000 0.000000
# 5 0.000000 0.000000 0.000000 0.000000 0.040972 0.000000
# 6 0.000000 0.000000 0.000000 0.000000 0.000000 0.035390
#
#
# Mechanical properties :
#
#
# Convention : Reuss Voigt Hill
#
# Bulk Modulus (GPa) = 17.70024 28.83568 23.26796
# Shear Modulus (GPa) = 24.71862 28.41407 26.56634
#
# Velocity S-wave (km/s) = 3.51630 3.76999 3.64535
# Velocity P-wave (km/s) = 5.03384 5.77704 5.41820
#
# Compressibility (1/GPa) = 0.05649641
#
# Stress axis : x y z
#
# Youngs Moduli (GPa) = 29.85339 52.29719 109.46934
#
# Poissons Ratio (x) = -0.29267 0.64451
# Poissons Ratio (y) = -0.16707 0.25585
# Poissons Ratio (z) = 0.17576 0.12223
#
# Static dielectric constant tensor:
#      x y z
#    x 1.716970 0.000000 0.000000 
#    y 0.000000 1.759150 0.000000 
#    z 0.000000 0.000000 0.765430 
# 
# From -- ./inp_files/16026.got.cif
#   From: 2010.05.17/outbox.cif.g08.bks.cpg/sg55_9_cif.got.tgz:16026.got - 2010.06.03 13:27:54.
