data_PCOD9427590
_publ_section_title
;
Structure prediction by ZEFSAII (Michael W. Deem and Ramdas Pophale) SiO2 
 PCOD9427590
Probable space group: P B A M
;
_chemical_formula_sum "Si O2"
_cell_formula_units_Z 38
_cell_length_a 15.524514
_cell_length_b 5.464322
_cell_length_c 18.921929
_cell_angle_alpha 90.000000
_cell_angle_beta 90.000000
_cell_angle_gamma 90.000000
_cell_volume 1605.165088
_symmetry_space_group_name_H-M "P B A M"
_symmetry_group_IT_number 55
_symmetry_cell_setting 'orthorhombic'
loop_
_space_group_symop_operation_xyz
x,y,z
-x,-y,z
1/2+x,1/2-y,-z
1/2-x,1/2+y,-z
-x,-y,-z
x,y,-z
1/2-x,1/2+y,z
1/2+x,1/2-y,z
loop_
_atom_site_type_symbol
_atom_site_label
_atom_site_fract_x
_atom_site_fract_y
_atom_site_fract_z
Si Si1 0.945068 0.249181 0.873867
Si Si2 0.230833 0.262046 0.385716
Si Si3 0.702092 0.733083 0.769899
Si Si4 0.469985 0.756095 0.643969
Si Si5 0.693368 0.760857 0.000000
Si Si6 0.000000 0.500000 0.500000
O O1 0.892532 0.234235 0.800895
O O2 0.000000 0.500000 0.878235
O O3 0.870003 0.258425 0.932721
O O4 0.000000 0.000000 0.883412
O O5 0.247162 0.513961 0.424418
O O6 0.290207 0.265989 0.315375
O O7 0.132449 0.258129 0.362165
O O8 0.749730 0.482763 0.793111
O O9 0.500000 0.500000 0.673317
O O10 0.500000 0.000000 0.683545
O O11 0.506834 0.795075 0.564262
O O12 0.750682 0.512004 0.000000
#
# Coordination Sequence:
#
# PCOD9427590 Si02
#       6
#     8   8   8   8   4   2
#     4  12  24  41  64  95 128 163 214 264 308 372
#     4  10  21  39  60  86 124 160 204 255 307 368
#     4  10  21  41  61  85 124 165 206 257 310 369
#     4  10  20  38  63  89 120 161 201 251 305 372
#     4  12  24  42  68  94 128 174 204 256 324 376
#     4   8  22  36  66  88 126 152 206 244 322 356
#
# _framework density 23.673577000000002
#
# number of rings (size 3 to 8) (size 9 to 14) (size 15 to 20)
#    0.632    0.842    0.000    6.000    0.000    0.000 
#    0.000   26.316    0.000    0.000    0.000    0.000 
#    0.000    0.000    0.000    0.000    0.000    0.000 
#
# Total GULP energy -211991.837409 kJ/mol
# GULP energy per Si atom -5578.732563 kJ/mol
# Density = 2.361969 g / cm^3
# Si number density = 23.673577 Si / 1000 Ang^3
#
#
#
# Elastic Constant Matrix: (Units=GPa)
#
#
# Indices 1 2 3 4 5 6 
#
# 1 126.6543 111.6343 51.3726 0.0000 0.0000 0.0000
# 2 111.6343 317.3697 34.2417 0.0000 0.0000 0.0000
# 3 51.3726 34.2417 108.0446 0.0000 0.0000 0.0000
# 4 0.0000 0.0000 0.0000 10.0157 0.0000 0.0000
# 5 0.0000 0.0000 0.0000 0.0000 19.5441 0.0000
# 6 0.0000 0.0000 0.0000 0.0000 0.0000 67.4137
#
#
#
# Elastic Compliance Matrix: (Units=1/GPa)
#
#
# Indices 1 2 3 4 5 6 
#
# 1 0.013781 -0.004287 -0.005194 0.000000 0.000000 0.000000
# 2 -0.004287 0.004596 0.000582 0.000000 0.000000 0.000000
# 3 -0.005194 0.000582 0.011541 0.000000 0.000000 0.000000
# 4 0.000000 0.000000 0.000000 0.099843 0.000000 0.000000
# 5 0.000000 0.000000 0.000000 0.000000 0.051166 0.000000
# 6 0.000000 0.000000 0.000000 0.000000 0.000000 0.014834
#
#
# Mechanical properties :
#
#
# Convention : Reuss Voigt Hill
#
# Bulk Modulus (GPa) = 82.51231 105.17398 93.84314
# Shear Modulus (GPa) = 22.97813 43.04939 33.01376
#
# Velocity S-wave (km/s) = 3.11886 4.26896 3.73841
# Velocity P-wave (km/s) = 6.92095 8.29590 7.63942
#
# Compressibility (1/GPa) = 0.01211940
#
# Stress axis : x y z
#
# Youngs Moduli (GPa) = 72.56493 217.57705 86.65070
#
# Poissons Ratio (x) = 0.93275 0.45005
# Poissons Ratio (y) = 0.31109 -0.05041
# Poissons Ratio (z) = 0.37689 -0.12658
#
# Static dielectric constant tensor:
#      x y z
#    x 1.879610 0.000000 0.000000 
#    y 0.000000 2.119750 0.000000 
#    z 0.000000 0.000000 1.883160 
# 
# From -- ./inp_files/23590.got.cif
#   From: 2010.05.17/outbox.cif.g08.bks.cpg/sg55_12_cif.got.tgz:23590.got - 2010.06.03 13:27:54.
