data_PCOD9427805
_publ_section_title
;
Structure prediction by ZEFSAII (Michael W. Deem and Ramdas Pophale) SiO2 
 PCOD9427805
Probable space group: P B A M
;
_chemical_formula_sum "Si O2"
_cell_formula_units_Z 64
_cell_length_a 14.684089
_cell_length_b 25.376809
_cell_length_c 7.521314
_cell_angle_alpha 90.000000
_cell_angle_beta 90.000000
_cell_angle_gamma 90.000000
_cell_volume 2802.707263
_symmetry_space_group_name_H-M "P B A M"
_symmetry_group_IT_number 55
_symmetry_cell_setting 'orthorhombic'
loop_
_space_group_symop_operation_xyz
x,y,z
-x,-y,z
1/2+x,1/2-y,-z
1/2-x,1/2+y,-z
-x,-y,-z
x,y,-z
1/2-x,1/2+y,z
1/2+x,1/2-y,z
loop_
_atom_site_type_symbol
_atom_site_label
_atom_site_fract_x
_atom_site_fract_y
_atom_site_fract_z
Si Si1 0.475738 0.851832 0.204159
Si Si2 0.416087 0.365234 0.788915
Si Si3 0.271201 0.829234 0.288764
Si Si4 0.556702 0.452500 0.297501
Si Si5 0.247972 0.094514 0.719195
Si Si6 0.481283 0.736024 0.784225
Si Si7 0.226998 0.213032 0.294501
Si Si8 0.931755 0.457071 0.701568
O O1 0.366335 0.848423 0.210386
O O2 0.505180 0.794755 0.276596
O O3 0.514453 0.901953 0.302638
O O4 0.505713 0.856626 0.000000
O O5 0.310190 0.369341 0.746721
O O6 0.484579 0.405395 0.700352
O O7 0.446206 0.307087 0.730697
O O8 0.429415 0.369787 0.000000
O O9 0.284933 0.824041 0.500000
O O10 0.246910 0.770373 0.216187
O O11 0.500000 0.500000 0.210306
O O12 0.578848 0.469391 0.500000
O O13 0.651785 0.430716 0.222693
O O14 0.247865 0.096400 0.500000
O O15 0.255248 0.155839 0.779513
O O16 0.333233 0.058872 0.777503
O O17 0.383154 0.716889 0.715879
O O18 0.474770 0.738146 0.000000
O O19 0.256174 0.212994 0.500000
O O20 0.913570 0.476117 0.500000
O O21 0.000000 0.500000 0.785774
#
# Coordination Sequence:
#
# PCOD9427805 Si02
#       8
#     8   8   8   8   8   8   8   8
#     4  10  21  39  59  83 116 154 196 246 298 353
#     4  11  22  36  55  84 122 159 192 237 295 355
#     4  10  21  35  56  87 118 156 198 240 294 357
#     4  10  21  38  61  87 116 156 202 249 295 344
#     4   9  18  35  57  83 114 147 191 245 293 342
#     4   9  19  34  53  80 116 151 184 232 295 354
#     4   9  17  32  55  81 110 147 193 241 287 339
#     4  10  22  39  60  85 116 157 202 250 298 346
#
# _framework density 22.835066000000001
#
# number of rings (size 3 to 8) (size 9 to 14) (size 15 to 20)
#    0.000    2.250    1.250    1.125    1.750    3.000 
#    0.000    3.750    0.000    0.000    0.000    0.000 
#    0.000    0.000    0.000    0.000    0.000    0.000 
#
# Total GULP energy -357304.929963 kJ/mol
# GULP energy per Si atom -5582.889531 kJ/mol
# Density = 2.278309 g / cm^3
# Si number density = 22.835066 Si / 1000 Ang^3
#
#
#
# Elastic Constant Matrix: (Units=GPa)
#
#
# Indices 1 2 3 4 5 6 
#
# 1 113.8853 60.6563 -8.3261 0.0000 0.0000 0.0000
# 2 60.6563 86.9047 1.1454 0.0000 0.0000 0.0000
# 3 -8.3261 1.1454 70.9010 0.0000 0.0000 0.0000
# 4 0.0000 0.0000 0.0000 2.2904 0.0000 0.0000
# 5 0.0000 0.0000 0.0000 0.0000 94.0153 0.0000
# 6 0.0000 0.0000 0.0000 0.0000 0.0000 32.8819
#
#
#
# Elastic Compliance Matrix: (Units=1/GPa)
#
#
# Indices 1 2 3 4 5 6 
#
# 1 0.014210 -0.009942 0.001829 0.000000 0.000000 0.000000
# 2 -0.009942 0.018465 -0.001466 0.000000 0.000000 0.000000
# 3 0.001829 -0.001466 0.014343 0.000000 0.000000 0.000000
# 4 0.000000 0.000000 0.000000 0.436602 0.000000 0.000000
# 5 0.000000 0.000000 0.000000 0.000000 0.010637 0.000000
# 6 0.000000 0.000000 0.000000 0.000000 0.000000 0.030412
#
#
# Mechanical properties :
#
#
# Convention : Reuss Voigt Hill
#
# Bulk Modulus (GPa) = 35.89286 42.07137 38.98212
# Shear Modulus (GPa) = 9.03976 40.38520 24.71248
#
# Velocity S-wave (km/s) = 1.99181 4.20999 3.29327
# Velocity P-wave (km/s) = 4.58718 6.48814 5.61864
#
# Compressibility (1/GPa) = 0.02786069
#
# Stress axis : x y z
#
# Youngs Moduli (GPa) = 70.37470 54.15573 69.72197
#
# Poissons Ratio (x) = 0.53841 -0.12754
# Poissons Ratio (y) = 0.69966 0.10220
# Poissons Ratio (z) = -0.12874 0.07938
#
# Static dielectric constant tensor:
#      x y z
#    x 1.839670 0.000000 0.000000 
#    y 0.000000 1.852960 0.000000 
#    z 0.000000 0.000000 1.885370 
# 
# From -- ./inp_files/6670.got.cif
#   From: 2010.05.17/outbox.cif.g08.bks.cpg/sg55_4_cif.got.tgz:6670.got - 2010.06.03 13:27:54.
