data_PCOD9427912
_publ_section_title
;
Structure prediction by ZEFSAII (Michael W. Deem and Ramdas Pophale) SiO2 
 PCOD9427912
Probable space group: P B A M
;
_chemical_formula_sum "Si O2"
_cell_formula_units_Z 58
_cell_length_a 26.399803
_cell_length_b 12.661577
_cell_length_c 7.872981
_cell_angle_alpha 90.000000
_cell_angle_beta 90.000000
_cell_angle_gamma 90.000000
_cell_volume 2631.647338
_symmetry_space_group_name_H-M "P B A M"
_symmetry_group_IT_number 55
_symmetry_cell_setting 'orthorhombic'
loop_
_space_group_symop_operation_xyz
x,y,z
-x,-y,z
1/2+x,1/2-y,-z
1/2-x,1/2+y,-z
-x,-y,-z
x,y,-z
1/2-x,1/2+y,z
1/2+x,1/2-y,z
loop_
_atom_site_type_symbol
_atom_site_label
_atom_site_fract_x
_atom_site_fract_y
_atom_site_fract_z
Si Si1 0.323627 0.985868 0.795167
Si Si2 0.000000 0.500000 0.000000
Si Si3 0.650653 0.253191 0.795917
Si Si4 0.288423 0.541309 0.794716
Si Si5 0.432929 0.029229 0.684470
Si Si6 0.552520 0.365946 0.696223
Si Si7 0.456164 0.246030 0.185999
Si Si8 0.387722 0.423840 0.298570
O O1 0.268753 0.024378 0.735808
O O2 0.372896 0.038914 0.715626
O O3 0.329306 0.861958 0.755780
O O4 0.356046 0.739494 0.000000
O O5 0.041931 0.472672 0.153755
O O6 0.689398 0.345110 0.743428
O O7 0.597114 0.280518 0.712778
O O8 0.826024 0.500568 0.000000
O O9 0.329815 0.456185 0.733795
O O10 0.288157 0.536235 0.000000
O O11 0.442180 0.979810 0.500000
O O12 0.454157 0.148596 0.688315
O O13 0.538291 0.380997 0.500000
O O14 0.503684 0.322621 0.790633
O O15 0.577677 0.475705 0.757896
O O16 0.407267 0.319808 0.205441
O O17 0.459605 0.192605 0.000000
O O18 0.395736 0.410147 0.500000
#
# Coordination Sequence:
#
# PCOD9427912 Si02
#       8
#     8   2   8   8   8   8   8   8
#     4  10  21  40  62  91 129 166 213 266 315 377
#     4  12  26  52  68  94 130 172 214 268 310 386
#     4   9  19  35  58  86 118 162 212 259 312 377
#     4   9  19  37  61  89 123 168 215 260 319 377
#     4  12  27  45  68  97 130 169 213 263 321 384
#     4  10  21  36  57  87 123 163 210 266 322 381
#     4  12  24  40  61  90 127 167 213 263 321 387
#     4  10  21  38  59  88 126 164 212 269 323 382
#
# _framework density 22.039425999999999
#
# number of rings (size 3 to 8) (size 9 to 14) (size 15 to 20)
#    0.000    1.655    1.379    2.690    1.931    5.517 
#    0.000    2.759    0.000    0.000    0.000    0.000 
#    0.000    0.000    0.000    0.000    0.000    0.000 
#
# Total GULP energy -323904.884476 kJ/mol
# GULP energy per Si atom -5584.566974 kJ/mol
# Density = 2.198926 g / cm^3
# Si number density = 22.039426 Si / 1000 Ang^3
#
#
#
# Elastic Constant Matrix: (Units=GPa)
#
#
# Indices 1 2 3 4 5 6 
#
# 1 138.5506 19.1973 28.7354 0.0000 0.0000 0.0000
# 2 19.1973 33.6744 18.2846 0.0000 0.0000 0.0000
# 3 28.7354 18.2846 93.0001 0.0000 0.0000 0.0000
# 4 0.0000 0.0000 0.0000 16.0471 0.0000 0.0000
# 5 0.0000 0.0000 0.0000 0.0000 -44.5140 0.0000
# 6 0.0000 0.0000 0.0000 0.0000 0.0000 12.3777
#
#
#
# Elastic Compliance Matrix: (Units=1/GPa)
#
#
# Indices 1 2 3 4 5 6 
#
# 1 0.008093 -0.003645 -0.001784 0.000000 0.000000 0.000000
# 2 -0.003645 0.034887 -0.005733 0.000000 0.000000 0.000000
# 3 -0.001784 -0.005733 0.012431 0.000000 0.000000 0.000000
# 4 0.000000 0.000000 0.000000 0.062316 0.000000 0.000000
# 5 0.000000 0.000000 0.000000 0.000000 -0.022465 0.000000
# 6 0.000000 0.000000 0.000000 0.000000 0.000000 0.080790
#
#
# Mechanical properties :
#
#
# Convention : Reuss Voigt Hill
#
# Bulk Modulus (GPa) = 30.22311 44.18442 37.20376
# Shear Modulus (GPa) = 23.87723 10.04935 16.96329
#
# Velocity S-wave (km/s) = 3.29506 2.13767 2.77732
# Velocity P-wave (km/s) = 5.31220 5.11705 5.21554
#
# Compressibility (1/GPa) = 0.03308726
#
# Stress axis : x y z
#
# Youngs Moduli (GPa) = 123.57006 28.66413 80.44414
#
# Poissons Ratio (x) = 0.10448 0.14350
# Poissons Ratio (y) = 0.45039 0.46117
# Poissons Ratio (z) = 0.22043 0.16433
#
# Static dielectric constant tensor:
#      x y z
#    x 1.861610 0.000000 0.000000 
#    y 0.000000 1.130260 0.000000 
#    z 0.000000 0.000000 1.806900 
# 
# From -- ./inp_files/10197.got.cif
#   From: 2010.05.17/outbox.cif.g08.bks.cpg/sg55_6_cif.got.tgz:10197.got - 2010.06.03 13:27:54.
