data_PCOD9427452
_publ_section_title
;
Structure prediction by ZEFSAII (Michael W. Deem and Ramdas Pophale) SiO2 
 PCOD9427452
Probable space group: P B A M
;
_chemical_formula_sum "Si O2"
_cell_formula_units_Z 56
_cell_length_a 14.539596
_cell_length_b 8.973085
_cell_length_c 19.885328
_cell_angle_alpha 90.000000
_cell_angle_beta 90.000000
_cell_angle_gamma 90.000000
_cell_volume 2594.339929
_symmetry_space_group_name_H-M "P B A M"
_symmetry_group_IT_number 55
_symmetry_cell_setting 'orthorhombic'
loop_
_space_group_symop_operation_xyz
x,y,z
-x,-y,z
1/2+x,1/2-y,-z
1/2-x,1/2+y,-z
-x,-y,-z
x,y,-z
1/2-x,1/2+y,z
1/2+x,1/2-y,z
loop_
_atom_site_type_symbol
_atom_site_label
_atom_site_fract_x
_atom_site_fract_y
_atom_site_fract_z
Si Si1 0.675297 0.115253 0.898351
Si Si2 0.859899 0.802455 0.298030
Si Si3 0.233372 0.920172 0.755120
Si Si4 0.500000 0.000000 0.831785
Si Si5 0.876858 0.323238 0.424382
Si Si6 0.060310 0.717409 0.722382
Si Si7 0.744524 0.367743 0.000000
Si Si8 0.182371 0.022354 0.573536
O O1 0.733709 0.114109 0.829733
O O2 0.568616 0.097135 0.877169
O O3 0.707386 0.973938 0.941941
O O4 0.697577 0.260959 0.941481
O O5 0.811789 0.642190 0.294831
O O6 0.866302 0.880385 0.369903
O O7 0.960739 0.791498 0.268504
O O8 0.790687 0.908163 0.256597
O O9 0.140437 0.834375 0.735563
O O10 0.436579 0.094118 0.780682
O O11 0.919288 0.338559 0.500000
O O12 0.933277 0.340004 0.354943
O O13 0.789725 0.434097 0.422248
O O14 0.837396 0.153230 0.420488
O O15 0.149109 0.069420 0.500000
#
# Coordination Sequence:
#
# PCOD9427452 Si02
#       8
#     8   8   8   4   8   8   4   8
#     4  11  24  47  75 106 138 188 223 278 350 409
#     4  12  23  40  65  99 131 187 230 295 351 421
#     4  12  24  43  70  99 145 175 228 291 347 412
#     4  12  26  43  73 110 144 184 238 290 334 436
#     4  10  22  40  64  93 136 186 245 302 362 426
#     4  12  25  40  67 104 141 183 246 290 364 410
#     4  10  24  46  76 102 136 180 220 262 338 426
#     4  10  20  37  61  90 130 185 237 299 367 425
#
# _framework density 21.585450999999999
#
# number of rings (size 3 to 8) (size 9 to 14) (size 15 to 20)
#    0.000    0.857    4.286    3.000    0.000    2.857 
#    0.000    1.786    0.000    2.571    0.000    0.000 
#    0.000    0.000    0.000    0.000    0.000    0.000 
#
# Total GULP energy -312017.298986 kJ/mol
# GULP energy per Si atom -5571.737482 kJ/mol
# Density = 2.153632 g / cm^3
# Si number density = 21.585451 Si / 1000 Ang^3
#
#
#
# Elastic Constant Matrix: (Units=GPa)
#
#
# Indices 1 2 3 4 5 6 
#
# 1 81.1409 30.4727 12.6303 0.0000 0.0000 0.0000
# 2 30.4727 65.7124 35.0818 0.0000 0.0000 0.0000
# 3 12.6303 35.0818 125.3816 0.0000 0.0000 0.0000
# 4 0.0000 0.0000 0.0000 -13.1362 0.0000 0.0000
# 5 0.0000 0.0000 0.0000 0.0000 26.9700 0.0000
# 6 0.0000 0.0000 0.0000 0.0000 0.0000 9.0059
#
#
#
# Elastic Compliance Matrix: (Units=1/GPa)
#
#
# Indices 1 2 3 4 5 6 
#
# 1 0.014951 -0.007205 0.000510 0.000000 0.000000 0.000000
# 2 -0.007205 0.021363 -0.005251 0.000000 0.000000 0.000000
# 3 0.000510 -0.005251 0.009394 0.000000 0.000000 0.000000
# 4 0.000000 0.000000 0.000000 -0.076125 0.000000 0.000000
# 5 0.000000 0.000000 0.000000 0.000000 0.037078 0.000000
# 6 0.000000 0.000000 0.000000 0.000000 0.000000 0.111039
#
#
# Mechanical properties :
#
#
# Convention : Reuss Voigt Hill
#
# Bulk Modulus (GPa) = 45.84312 47.62270 46.73291
# Shear Modulus (GPa) = 33.58773 17.50459 25.54616
#
# Velocity S-wave (km/s) = 3.94894 2.85080 3.44392
# Velocity P-wave (km/s) = 6.48662 5.73989 6.12465
#
# Compressibility (1/GPa) = 0.02181353
#
# Stress axis : x y z
#
# Youngs Moduli (GPa) = 66.88569 46.81035 106.45494
#
# Poissons Ratio (x) = 0.33729 -0.05429
# Poissons Ratio (y) = 0.48194 0.55905
# Poissons Ratio (z) = -0.03411 0.24582
#
# Static dielectric constant tensor:
#      x y z
#    x 1.765250 0.000000 0.000000 
#    y 0.000000 1.812190 0.000000 
#    z 0.000000 0.000000 1.811340 
# 
# From -- ./inp_files/23008.got.cif
#   From: 2010.05.17/outbox.cif.g08.bks.cpg/sg55_12_cif.got.tgz:23008.got - 2010.06.03 13:27:54.
