data_PCOD9427883
_publ_section_title
;
Structure prediction by ZEFSAII (Michael W. Deem and Ramdas Pophale) SiO2 
 PCOD9427883
Probable space group: P B A M
;
_chemical_formula_sum "Si O2"
_cell_formula_units_Z 56
_cell_length_a 20.985546
_cell_length_b 16.575841
_cell_length_c 8.239405
_cell_angle_alpha 90.000000
_cell_angle_beta 90.000000
_cell_angle_gamma 90.000000
_cell_volume 2866.102355
_symmetry_space_group_name_H-M "P B A M"
_symmetry_group_IT_number 55
_symmetry_cell_setting 'orthorhombic'
loop_
_space_group_symop_operation_xyz
x,y,z
-x,-y,z
1/2+x,1/2-y,-z
1/2-x,1/2+y,-z
-x,-y,-z
x,y,-z
1/2-x,1/2+y,z
1/2+x,1/2-y,z
loop_
_atom_site_type_symbol
_atom_site_label
_atom_site_fract_x
_atom_site_fract_y
_atom_site_fract_z
Si Si1 0.845587 0.341289 0.305885
Si Si2 0.792935 0.815111 0.804210
Si Si3 0.105848 0.317923 0.195837
Si Si4 0.550842 0.567312 0.801420
Si Si5 0.686248 0.499359 0.195978
Si Si6 0.824948 0.524261 0.693632
Si Si7 0.971467 0.249529 0.195847
O O1 0.846102 0.342307 0.500000
O O2 0.779597 0.301019 0.249061
O O3 0.843268 0.434425 0.246402
O O4 0.907742 0.295831 0.244945
O O5 0.842332 0.747843 0.745902
O O6 0.812216 0.905546 0.749872
O O7 0.794607 0.815168 0.000000
O O8 0.128867 0.406296 0.244342
O O9 0.035583 0.293508 0.254446
O O10 0.105241 0.313984 0.000000
O O11 0.500000 0.500000 0.749952
O O12 0.621976 0.543034 0.748837
O O13 0.531871 0.656787 0.747848
O O14 0.550779 0.567249 0.000000
O O15 0.752061 0.539021 0.252647
O O16 0.686148 0.499528 0.000000
O O17 0.827051 0.523276 0.500000
O O18 0.974100 0.247673 0.000000
#
# Coordination Sequence:
#
# PCOD9427883 Si02
#       7
#     8   8   8   8   8   8   8
#     4  10  22  39  56  78 110 148 187 229 279 332
#     4   9  18  34  57  82 110 143 182 228 274 325
#     4  10  21  36  56  82 111 143 184 230 279 330
#     4   9  17  31  55  85 115 143 175 218 273 332
#     4   9  17  32  56  83 109 140 179 223 270 326
#     4  10  22  38  55  77 107 145 188 232 277 326
#     4  10  21  36  56  84 114 145 182 228 278 331
#
# _framework density 19.538730999999999
#
# number of rings (size 3 to 8) (size 9 to 14) (size 15 to 20)
#    0.000    2.429    0.000    1.714    2.000    6.857 
#    0.000    2.857    0.000    3.429    0.000    0.000 
#    0.000    0.000    0.000    0.000    0.000    0.000 
#
# Total GULP energy -312665.428625 kJ/mol
# GULP energy per Si atom -5583.311225 kJ/mol
# Density = 1.949426 g / cm^3
# Si number density = 19.538731 Si / 1000 Ang^3
#
#
#
# Elastic Constant Matrix: (Units=GPa)
#
#
# Indices 1 2 3 4 5 6 
#
# 1 148.5263 58.9476 11.7221 0.0000 0.0000 0.0000
# 2 58.9476 56.8417 8.2108 0.0000 0.0000 0.0000
# 3 11.7221 8.2108 7.7155 0.0000 0.0000 0.0000
# 4 0.0000 0.0000 0.0000 13.5404 0.0000 0.0000
# 5 0.0000 0.0000 0.0000 0.0000 -41.0540 0.0000
# 6 0.0000 0.0000 0.0000 0.0000 0.0000 36.3532
#
#
#
# Elastic Compliance Matrix: (Units=1/GPa)
#
#
# Indices 1 2 3 4 5 6 
#
# 1 0.011652 -0.011257 -0.005723 0.000000 0.000000 0.000000
# 2 -0.011257 0.031664 -0.016594 0.000000 0.000000 0.000000
# 3 -0.005723 -0.016594 0.155964 0.000000 0.000000 0.000000
# 4 0.000000 0.000000 0.000000 0.073853 0.000000 0.000000
# 5 0.000000 0.000000 0.000000 0.000000 -0.024358 0.000000
# 6 0.000000 0.000000 0.000000 0.000000 0.000000 0.027508
#
#
# Mechanical properties :
#
#
# Convention : Reuss Voigt Hill
#
# Bulk Modulus (GPa) = 7.56821 41.20493 24.38657
# Shear Modulus (GPa) = 12.90403 10.71478 11.80940
#
# Velocity S-wave (km/s) = 2.57268 2.34431 2.46114
# Velocity P-wave (km/s) = 3.56465 5.33501 4.53702
#
# Compressibility (1/GPa) = 0.13213164
#
# Stress axis : x y z
#
# Youngs Moduli (GPa) = 85.81954 31.58150 6.41174
#
# Poissons Ratio (x) = 0.35552 0.03670
# Poissons Ratio (y) = 0.96610 0.10639
# Poissons Ratio (z) = 0.49117 0.52405
#
# Static dielectric constant tensor:
#      x y z
#    x 1.655780 0.000000 0.000000 
#    y 0.000000 1.681010 0.000000 
#    z 0.000000 0.000000 1.681580 
# 
# From -- ./inp_files/5999.got.cif
#   From: 2010.05.17/outbox.cif.g08.bks.cpg/sg55_3_cif.got.tgz:5999.got - 2010.06.03 13:27:54.
