data_PCOD9427034
_publ_section_title
;
Structure prediction by ZEFSAII (Michael W. Deem and Ramdas Pophale) SiO2 
 PCOD9427034
Probable space group: P B A M
;
_chemical_formula_sum "Si O2"
_cell_formula_units_Z 56
_cell_length_a 20.485160
_cell_length_b 15.649440
_cell_length_c 7.909353
_cell_angle_alpha 90.000000
_cell_angle_beta 90.000000
_cell_angle_gamma 90.000000
_cell_volume 2535.590527
_symmetry_space_group_name_H-M "P B A M"
_symmetry_group_IT_number 55
_symmetry_cell_setting 'orthorhombic'
loop_
_space_group_symop_operation_xyz
x,y,z
-x,-y,z
1/2+x,1/2-y,-z
1/2-x,1/2+y,-z
-x,-y,-z
x,y,-z
1/2-x,1/2+y,z
1/2+x,1/2-y,z
loop_
_atom_site_type_symbol
_atom_site_label
_atom_site_fract_x
_atom_site_fract_y
_atom_site_fract_z
Si Si1 0.410526 0.351379 0.802555
Si Si2 0.821806 0.809109 0.194807
Si Si3 0.538129 0.266816 0.199908
Si Si4 0.674213 0.002733 0.705506
Si Si5 0.824068 0.306157 0.302358
Si Si6 0.957692 0.582021 0.704268
Si Si7 0.181125 0.001281 0.697415
O O1 0.482291 0.329262 0.731633
O O2 0.366689 0.266116 0.785717
O O3 0.372728 0.429278 0.718243
O O4 0.417006 0.372434 0.000000
O O5 0.888772 0.772953 0.272181
O O6 0.753398 0.788632 0.283726
O O7 0.831269 0.911568 0.203381
O O8 0.815025 0.781683 0.000000
O O9 0.515538 0.169818 0.223773
O O10 0.544084 0.284972 0.000000
O O11 0.670433 0.001737 0.500000
O O12 0.665627 0.903695 0.760057
O O13 0.615876 0.062581 0.764472
O O14 0.747049 0.031553 0.751647
O O15 0.841581 0.304063 0.500000
O O16 0.958817 0.588890 0.500000
O O17 0.000000 0.500000 0.751085
O O18 0.186276 0.025641 0.500000
#
# Coordination Sequence:
#
# PCOD9427034 Si02
#       7
#     8   8   8   8   8   8   8
#     4  11  23  39  58  83 117 156 198 243 298 355
#     4  10  21  40  61  85 118 156 198 243 299 357
#     4  10  24  41  57  83 119 158 198 242 293 356
#     4   8  17  34  55  82 113 145 184 234 290 344
#     4  10  20  37  61  87 118 153 194 246 297 349
#     4  10  20  35  58  86 117 153 192 237 292 354
#     4  10  21  38  59  86 116 150 198 248 297 349
#
# _framework density 22.085584999999998
#
# number of rings (size 3 to 8) (size 9 to 14) (size 15 to 20)
#    0.000    2.143    0.000    3.429    2.000    4.286 
#    0.000    6.429    0.000    0.000    0.000    0.000 
#    0.000    0.000    0.000    0.000    0.000    0.000 
#
# Total GULP energy -312869.412619 kJ/mol
# GULP energy per Si atom -5586.953797 kJ/mol
# Density = 2.203532 g / cm^3
# Si number density = 22.085585 Si / 1000 Ang^3
#
#
#
# Elastic Constant Matrix: (Units=GPa)
#
#
# Indices 1 2 3 4 5 6 
#
# 1 64.4843 6.2264 -6.1554 0.0000 0.0000 0.0000
# 2 6.2264 21.0743 -10.5032 0.0000 0.0000 0.0000
# 3 -6.1554 -10.5032 30.4716 0.0000 0.0000 0.0000
# 4 0.0000 0.0000 0.0000 27.0306 0.0000 0.0000
# 5 0.0000 0.0000 0.0000 0.0000 11.0262 0.0000
# 6 0.0000 0.0000 0.0000 0.0000 0.0000 35.1267
#
#
#
# Elastic Compliance Matrix: (Units=1/GPa)
#
#
# Indices 1 2 3 4 5 6 
#
# 1 0.016058 -0.003776 0.001942 0.000000 0.000000 0.000000
# 2 -0.003776 0.058182 0.019292 0.000000 0.000000 0.000000
# 3 0.001942 0.019292 0.039859 0.000000 0.000000 0.000000
# 4 0.000000 0.000000 0.000000 0.036995 0.000000 0.000000
# 5 0.000000 0.000000 0.000000 0.000000 0.090693 0.000000
# 6 0.000000 0.000000 0.000000 0.000000 0.000000 0.028468
#
#
# Mechanical properties :
#
#
# Convention : Reuss Voigt Hill
#
# Bulk Modulus (GPa) = 6.71079 10.57397 8.64238
# Shear Modulus (GPa) = 17.54313 23.06752 20.30533
#
# Velocity S-wave (km/s) = 2.82143 3.23532 3.03544
# Velocity P-wave (km/s) = 3.69583 4.33065 4.02577
#
# Compressibility (1/GPa) = 0.14901382
#
# Stress axis : x y z
#
# Youngs Moduli (GPa) = 62.27553 17.18752 25.08816
#
# Poissons Ratio (x) = 0.06491 -0.04872
# Poissons Ratio (y) = 0.23517 -0.48400
# Poissons Ratio (z) = -0.12094 -0.33158
#
# Static dielectric constant tensor:
#      x y z
#    x 1.850220 0.000000 0.000000 
#    y 0.000000 1.779070 0.000000 
#    z 0.000000 0.000000 1.786720 
# 
# From -- ./inp_files/8683.got.cif
#   From: 2010.05.17/outbox.cif.g08.bks.cpg/sg55_5_cif.got.tgz:8683.got - 2010.06.03 13:27:54.
