data_PCOD9427859
_publ_section_title
;
Structure prediction by ZEFSAII (Michael W. Deem and Ramdas Pophale) SiO2 
 PCOD9427859
Probable space group: P B A M
;
_chemical_formula_sum "Si O2"
_cell_formula_units_Z 48
_cell_length_a 10.297630
_cell_length_b 26.019602
_cell_length_c 8.772811
_cell_angle_alpha 90.000000
_cell_angle_beta 90.000000
_cell_angle_gamma 90.000000
_cell_volume 2350.589033
_symmetry_space_group_name_H-M "P B A M"
_symmetry_group_IT_number 55
_symmetry_cell_setting 'orthorhombic'
loop_
_space_group_symop_operation_xyz
x,y,z
-x,-y,z
1/2+x,1/2-y,-z
1/2-x,1/2+y,-z
-x,-y,-z
x,y,-z
1/2-x,1/2+y,z
1/2+x,1/2-y,z
loop_
_atom_site_type_symbol
_atom_site_label
_atom_site_fract_x
_atom_site_fract_y
_atom_site_fract_z
Si Si1 0.782872 0.402698 0.183860
Si Si2 0.711269 0.288977 0.182737
Si Si3 0.838677 0.113777 0.679092
Si Si4 0.942093 0.223237 0.316850
Si Si5 0.436126 0.922438 0.320315
Si Si6 0.721992 0.512415 0.181441
O O1 0.720310 0.348919 0.229081
O O2 0.704894 0.453825 0.232909
O O3 0.928766 0.406527 0.248156
O O4 0.790594 0.403590 0.000000
O O5 0.839864 0.260997 0.240129
O O6 0.586478 0.264750 0.262638
O O7 0.700443 0.285691 0.000000
O O8 0.864255 0.108413 0.500000
O O9 0.907999 0.164847 0.735189
O O10 0.681360 0.119042 0.697715
O O11 0.866747 0.058686 0.756026
O O12 0.930975 0.225554 0.500000
O O13 0.452002 0.932343 0.500000
O O14 0.365713 0.970798 0.239848
O O15 0.716833 0.514301 0.000000
#
# Coordination Sequence:
#
# PCOD9427859 Si02
#       6
#     8   8   8   8   8   8
#     4  10  21  36  54  84 124 160 201 250 302 361
#     4  11  26  45  66  93 125 162 207 261 315 371
#     4   8  19  36  56  84 117 152 195 245 296 354
#     4  11  24  46  68  91 122 161 209 258 312 375
#     4   9  18  31  52  84 119 157 199 245 296 353
#     4   9  17  31  54  85 120 161 201 245 299 359
#
# _framework density 20.420414000000001
#
# number of rings (size 3 to 8) (size 9 to 14) (size 15 to 20)
#    1.000    1.333    0.000    2.000    2.333    6.000 
#    0.000    0.833    0.000    5.000    0.000    0.000 
#    0.000    0.000    0.000    0.000    0.000    0.000 
#
# Total GULP energy -267645.412441 kJ/mol
# GULP energy per Si atom -5575.946093 kJ/mol
# Density = 2.037394 g / cm^3
# Si number density = 20.420414 Si / 1000 Ang^3
#
#
#
# Elastic Constant Matrix: (Units=GPa)
#
#
# Indices 1 2 3 4 5 6 
#
# 1 77.9149 35.7286 9.9620 0.0000 0.0000 0.0000
# 2 35.7286 96.3776 26.4387 0.0000 0.0000 0.0000
# 3 9.9620 26.4387 25.1739 0.0000 0.0000 0.0000
# 4 0.0000 0.0000 0.0000 14.0091 0.0000 0.0000
# 5 0.0000 0.0000 0.0000 0.0000 14.7237 0.0000
# 6 0.0000 0.0000 0.0000 0.0000 0.0000 22.5576
#
#
#
# Elastic Compliance Matrix: (Units=1/GPa)
#
#
# Indices 1 2 3 4 5 6 
#
# 1 0.015464 -0.005694 -0.000139 0.000000 0.000000 0.000000
# 2 -0.005694 0.016672 -0.015256 0.000000 0.000000 0.000000
# 3 -0.000139 -0.015256 0.055801 0.000000 0.000000 0.000000
# 4 0.000000 0.000000 0.000000 0.071382 0.000000 0.000000
# 5 0.000000 0.000000 0.000000 0.000000 0.067918 0.000000
# 6 0.000000 0.000000 0.000000 0.000000 0.000000 0.044331
#
#
# Mechanical properties :
#
#
# Convention : Reuss Voigt Hill
#
# Bulk Modulus (GPa) = 21.85415 38.19167 30.02291
# Shear Modulus (GPa) = 15.19762 18.74722 16.97242
#
# Velocity S-wave (km/s) = 2.73103 3.03324 2.88609
# Velocity P-wave (km/s) = 4.54643 5.56873 5.08334
#
# Compressibility (1/GPa) = 0.04575790
#
# Stress axis : x y z
#
# Youngs Moduli (GPa) = 64.66832 59.98076 17.92077
#
# Poissons Ratio (x) = 0.34156 0.00249
# Poissons Ratio (y) = 0.36825 0.27340
# Poissons Ratio (z) = 0.00897 0.91507
#
# Static dielectric constant tensor:
#      x y z
#    x 1.745420 0.000000 0.000000 
#    y 0.000000 1.771540 0.000000 
#    z 0.000000 0.000000 1.682070 
# 
# From -- ./inp_files/4184.got.cif
#   From: 2010.05.17/outbox.cif.g08.bks.cpg/sg55_3_cif.got.tgz:4184.got - 2010.06.03 13:27:54.
