data_PCOD9427124
_publ_section_title
;
Structure prediction by ZEFSAII (Michael W. Deem and Ramdas Pophale) SiO2 
 PCOD9427124
Probable space group: P B A M
;
_chemical_formula_sum "Si O2"
_cell_formula_units_Z 40
_cell_length_a 10.198124
_cell_length_b 17.712662
_cell_length_c 13.181262
_cell_angle_alpha 90.000000
_cell_angle_beta 90.000000
_cell_angle_gamma 90.000000
_cell_volume 2381.009434
_symmetry_space_group_name_H-M "P B A M"
_symmetry_group_IT_number 55
_symmetry_cell_setting 'orthorhombic'
loop_
_space_group_symop_operation_xyz
x,y,z
-x,-y,z
1/2+x,1/2-y,-z
1/2-x,1/2+y,-z
-x,-y,-z
x,y,-z
1/2-x,1/2+y,z
1/2+x,1/2-y,z
loop_
_atom_site_type_symbol
_atom_site_label
_atom_site_fract_x
_atom_site_fract_y
_atom_site_fract_z
Si Si1 0.053678 0.914240 0.883602
Si Si2 0.524572 0.356568 0.681071
Si Si3 0.204617 0.570332 0.382933
Si Si4 0.533565 0.183653 0.619912
Si Si5 0.247897 0.915729 0.283637
O O1 0.969506 0.865005 0.803882
O O2 0.197945 0.913136 0.832392
O O3 0.050753 0.890217 0.000000
O O4 0.000000 0.000000 0.877103
O O5 0.652399 0.393605 0.633224
O O6 0.511164 0.270558 0.647606
O O7 0.390460 0.402024 0.657211
O O8 0.187814 0.546968 0.500000
O O9 0.194519 0.496333 0.314053
O O10 0.095169 0.633162 0.360732
O O11 0.564440 0.178105 0.500000
O O12 0.652023 0.148744 0.684271
#
# Coordination Sequence:
#
# PCOD9427124 Si02
#       5
#     8   8   8   8   8
#     4   9  18  38  63  83 103 138 189 244 287 312
#     4  10  20  36  56  84 103 145 190 231 268 329
#     4  11  21  34  53  82 114 150 187 219 271 335
#     4  11  23  35  52  80 125 156 168 218 290 336
#     4  10  20  37  56  81 108 147 192 228 265 332
#
# _framework density 16.799598
#
# number of rings (size 3 to 8) (size 9 to 14) (size 15 to 20)
#    1.200    0.600    2.000    3.600    0.000    7.200 
#    0.000    1.000    0.000    4.800    0.000    0.000 
#    0.000    0.000    0.000    0.000    0.000    0.000 
#
# Total GULP energy -222832.624401 kJ/mol
# GULP energy per Si atom -5570.815610 kJ/mol
# Density = 1.676136 g / cm^3
# Si number density = 16.799598 Si / 1000 Ang^3
#
#
#
# Elastic Constant Matrix: (Units=GPa)
#
#
# Indices 1 2 3 4 5 6 
#
# 1 38.5962 -10.3956 9.5630 0.0000 0.0000 0.0000
# 2 -10.3956 53.2084 7.1392 0.0000 0.0000 0.0000
# 3 9.5630 7.1392 65.1179 0.0000 0.0000 0.0000
# 4 0.0000 0.0000 0.0000 22.5819 0.0000 0.0000
# 5 0.0000 0.0000 0.0000 0.0000 -10.8094 0.0000
# 6 0.0000 0.0000 0.0000 0.0000 0.0000 27.5191
#
#
#
# Elastic Compliance Matrix: (Units=1/GPa)
#
#
# Indices 1 2 3 4 5 6 
#
# 1 0.028824 0.006292 -0.004923 0.000000 0.000000 0.000000
# 2 0.006292 0.020448 -0.003166 0.000000 0.000000 0.000000
# 3 -0.004923 -0.003166 0.016427 0.000000 0.000000 0.000000
# 4 0.000000 0.000000 0.000000 0.044283 0.000000 0.000000
# 5 0.000000 0.000000 0.000000 0.000000 -0.092512 0.000000
# 6 0.000000 0.000000 0.000000 0.000000 0.000000 0.036338
#
#
# Mechanical properties :
#
#
# Convention : Reuss Voigt Hill
#
# Bulk Modulus (GPa) = 16.10172 18.83732 17.46952
# Shear Modulus (GPa) = 64.01758 17.89937 40.95847
#
# Velocity S-wave (km/s) = 6.17975 3.26769 4.94303
# Velocity P-wave (km/s) = 7.77975 5.04721 6.55739
#
# Compressibility (1/GPa) = 0.06210518
#
# Stress axis : x y z
#
# Youngs Moduli (GPa) = 34.69369 48.90431 60.87615
#
# Poissons Ratio (x) = -0.30770 0.29968
# Poissons Ratio (y) = -0.21829 0.19272
# Poissons Ratio (z) = 0.17079 0.15482
#
# Static dielectric constant tensor:
#      x y z
#    x 1.571370 0.000000 0.000000 
#    y 0.000000 1.544480 0.000000 
#    z 0.000000 0.000000 1.560690 
# 
# From -- ./inp_files/17188.got.cif
#   From: 2010.05.17/outbox.cif.g08.bks.cpg/sg55_9_cif.got.tgz:17188.got - 2010.06.03 13:27:54.
