data_PCOD9427653
_publ_section_title
;
Structure prediction by ZEFSAII (Michael W. Deem and Ramdas Pophale) SiO2 
 PCOD9427653
Probable space group: P B A M
;
_chemical_formula_sum "Si O2"
_cell_formula_units_Z 48
_cell_length_a 18.725722
_cell_length_b 15.183722
_cell_length_c 8.578907
_cell_angle_alpha 90.000000
_cell_angle_beta 90.000000
_cell_angle_gamma 90.000000
_cell_volume 2439.207659
_symmetry_space_group_name_H-M "P B A M"
_symmetry_group_IT_number 55
_symmetry_cell_setting 'orthorhombic'
loop_
_space_group_symop_operation_xyz
x,y,z
-x,-y,z
1/2+x,1/2-y,-z
1/2-x,1/2+y,-z
-x,-y,-z
x,y,-z
1/2-x,1/2+y,z
1/2+x,1/2-y,z
loop_
_atom_site_type_symbol
_atom_site_label
_atom_site_fract_x
_atom_site_fract_y
_atom_site_fract_z
Si Si1 0.922352 0.228045 0.185105
Si Si2 0.202467 0.894680 0.312698
Si Si3 0.638436 0.902993 0.312631
Si Si4 0.425826 0.728479 0.687358
Si Si5 0.860892 0.597054 0.185603
Si Si6 0.197618 0.096620 0.688539
O O1 0.856821 0.172211 0.253727
O O2 0.910308 0.328847 0.237207
O O3 0.997425 0.196382 0.254849
O O4 0.923115 0.221409 0.000000
O O5 0.802159 0.898867 0.500000
O O6 0.280327 0.879118 0.239853
O O7 0.181728 0.995245 0.270590
O O8 0.634478 0.897578 0.500000
O O9 0.720929 0.884397 0.262885
O O10 0.621731 0.002070 0.259421
O O11 0.424882 0.730989 0.500000
O O12 0.411035 0.825571 0.752730
O O13 0.361906 0.664655 0.743650
O O14 0.864057 0.591019 0.000000
O O15 0.209169 0.888514 0.500000
#
# Coordination Sequence:
#
# PCOD9427653 Si02
#       6
#     8   8   8   8   8   8
#     4  12  25  39  55  85 122 155 191 242 299 348
#     4  10  20  39  63  87 114 153 199 240 283 345
#     4  10  20  39  64  88 112 150 197 240 287 351
#     4  11  22  39  60  84 115 157 199 238 287 352
#     4  11  22  38  60  90 121 150 187 242 297 343
#     4   8  18  36  62  88 110 141 193 244 279 327
#
# _framework density 19.678522999999998
#
# number of rings (size 3 to 8) (size 9 to 14) (size 15 to 20)
#    0.000    1.667    0.000    6.500    0.000    2.667 
#    0.000   15.833    0.000    0.000    0.000    0.000 
#    0.000    0.000    0.000    0.000    0.000    0.000 
#
# Total GULP energy -268351.762698 kJ/mol
# GULP energy per Si atom -5590.661723 kJ/mol
# Density = 1.963373 g / cm^3
# Si number density = 19.678523 Si / 1000 Ang^3
#
#
#
# Elastic Constant Matrix: (Units=GPa)
#
#
# Indices 1 2 3 4 5 6 
#
# 1 29.2029 19.3402 8.0979 0.0000 0.0000 0.0000
# 2 19.3402 43.3332 4.9521 0.0000 0.0000 0.0000
# 3 8.0979 4.9521 79.7795 0.0000 0.0000 0.0000
# 4 0.0000 0.0000 0.0000 7.4951 0.0000 0.0000
# 5 0.0000 0.0000 0.0000 0.0000 23.3161 0.0000
# 6 0.0000 0.0000 0.0000 0.0000 0.0000 0.6285
#
#
#
# Elastic Compliance Matrix: (Units=1/GPa)
#
#
# Indices 1 2 3 4 5 6 
#
# 1 0.049668 -0.021746 -0.003692 0.000000 0.000000 0.000000
# 2 -0.021746 0.032763 0.000174 0.000000 0.000000 0.000000
# 3 -0.003692 0.000174 0.012898 0.000000 0.000000 0.000000
# 4 0.000000 0.000000 0.000000 0.133420 0.000000 0.000000
# 5 0.000000 0.000000 0.000000 0.000000 0.042889 0.000000
# 6 0.000000 0.000000 0.000000 0.000000 0.000000 1.591072
#
#
# Mechanical properties :
#
#
# Convention : Reuss Voigt Hill
#
# Bulk Modulus (GPa) = 22.32055 24.12177 23.22116
# Shear Modulus (GPa) = 2.59313 14.28297 8.43805
#
# Velocity S-wave (km/s) = 1.14918 2.69702 2.07298
# Velocity P-wave (km/s) = 3.62326 4.68861 4.18993
#
# Compressibility (1/GPa) = 0.04480176
#
# Stress axis : x y z
#
# Youngs Moduli (GPa) = 20.13349 30.52263 77.52840
#
# Poissons Ratio (x) = 0.66374 0.28621
# Poissons Ratio (y) = 0.43782 -0.01346
# Poissons Ratio (z) = 0.07433 -0.00530
#
# Static dielectric constant tensor:
#      x y z
#    x 1.690580 0.000000 0.000000 
#    y 0.000000 1.683210 0.000000 
#    z 0.000000 0.000000 1.658790 
# 
# From -- ./inp_files/5645.got.cif
#   From: 2010.05.17/outbox.cif.g08.bks.cpg/sg55_3_cif.got.tgz:5645.got - 2010.06.03 13:27:54.
