data_PCOD9427666
_publ_section_title
;
Structure prediction by ZEFSAII (Michael W. Deem and Ramdas Pophale) SiO2 
 PCOD9427666
Probable space group: P B A M
;
_chemical_formula_sum "Si O2"
_cell_formula_units_Z 58
_cell_length_a 17.144348
_cell_length_b 19.041581
_cell_length_c 7.554218
_cell_angle_alpha 90.000000
_cell_angle_beta 90.000000
_cell_angle_gamma 90.000000
_cell_volume 2466.115947
_symmetry_space_group_name_H-M "P B A M"
_symmetry_group_IT_number 55
_symmetry_cell_setting 'orthorhombic'
loop_
_space_group_symop_operation_xyz
x,y,z
-x,-y,z
1/2+x,1/2-y,-z
1/2-x,1/2+y,-z
-x,-y,-z
x,y,-z
1/2-x,1/2+y,z
1/2+x,1/2-y,z
loop_
_atom_site_type_symbol
_atom_site_label
_atom_site_fract_x
_atom_site_fract_y
_atom_site_fract_z
Si Si1 0.970459 0.705891 0.795175
Si Si2 0.922988 0.418360 0.213886
Si Si3 0.771281 0.325508 0.213204
Si Si4 0.370911 0.585708 0.795741
Si Si5 0.205349 0.318135 0.707287
Si Si6 0.968965 0.143872 0.215922
Si Si7 0.500000 0.000000 0.500000
Si Si8 0.186784 0.935122 0.296366
O O1 0.877340 0.704793 0.785415
O O2 0.007062 0.777846 0.724155
O O3 0.007074 0.634219 0.724133
O O4 0.994445 0.705343 0.000000
O O5 0.845536 0.373250 0.254714
O O6 0.934567 0.483921 0.341375
O O7 0.925623 0.432964 0.000000
O O8 0.693355 0.362915 0.285182
O O9 0.767231 0.245086 0.271775
O O10 0.768870 0.323737 0.000000
O O11 0.458319 0.594709 0.726904
O O12 0.337438 0.507722 0.791436
O O13 0.377878 0.608150 0.000000
O O14 0.191512 0.328588 0.500000
O O15 0.242293 0.389690 0.781250
O O16 0.888702 0.114839 0.288657
O O17 0.961573 0.142621 0.000000
O O18 0.204420 0.951823 0.500000
#
# Coordination Sequence:
#
# PCOD9427666 Si02
#       8
#     8   8   8   8   8   8   2   8
#     4  10  21  41  67  94 126 165 216 272 324 383
#     4  10  24  44  69 100 130 174 228 275 332 405
#     4  10  21  43  69  93 125 167 219 268 322 388
#     4  10  21  39  64  92 123 164 209 256 315 381
#     4  11  24  39  61  94 132 167 213 266 320 389
#     4  10  20  39  65  92 121 159 209 259 315 381
#     4  12  26  44  68  90 136 172 214 288 340 390
#     4  11  25  40  55  89 131 165 203 252 311 379
#
# _framework density 23.518764000000001
#
# number of rings (size 3 to 8) (size 9 to 14) (size 15 to 20)
#    0.000    1.655    1.379    2.276    1.931    7.724 
#    2.483    2.759    0.000    0.000    0.000    0.000 
#    0.000    0.000    0.000    0.000    0.000    0.000 
#
# Total GULP energy -323631.989894 kJ/mol
# GULP energy per Si atom -5579.861895 kJ/mol
# Density = 2.346523 g / cm^3
# Si number density = 23.518764 Si / 1000 Ang^3
#
#
#
# Elastic Constant Matrix: (Units=GPa)
#
#
# Indices 1 2 3 4 5 6 
#
# 1 45.7149 2.2741 -3.1337 0.0000 0.0000 0.0000
# 2 2.2741 48.2795 -14.2466 0.0000 0.0000 0.0000
# 3 -3.1337 -14.2466 74.6605 0.0000 0.0000 0.0000
# 4 0.0000 0.0000 0.0000 12.9882 0.0000 0.0000
# 5 0.0000 0.0000 0.0000 0.0000 0.3108 0.0000
# 6 0.0000 0.0000 0.0000 0.0000 0.0000 18.2479
#
#
#
# Elastic Compliance Matrix: (Units=1/GPa)
#
#
# Indices 1 2 3 4 5 6 
#
# 1 0.021968 -0.000808 0.000768 0.000000 0.000000 0.000000
# 2 -0.000808 0.021978 0.004160 0.000000 0.000000 0.000000
# 3 0.000768 0.004160 0.014220 0.000000 0.000000 0.000000
# 4 0.000000 0.000000 0.000000 0.076993 0.000000 0.000000
# 5 0.000000 0.000000 0.000000 0.000000 3.217336 0.000000
# 6 0.000000 0.000000 0.000000 0.000000 0.000000 0.054801
#
#
# Mechanical properties :
#
#
# Convention : Reuss Voigt Hill
#
# Bulk Modulus (GPa) = 15.05909 15.38251 15.22080
# Shear Modulus (GPa) = 1.46148 18.56012 10.01080
#
# Velocity S-wave (km/s) = 0.78915 2.81225 2.06537
# Velocity P-wave (km/s) = 2.69207 4.13518 3.48905
#
# Compressibility (1/GPa) = 0.06640508
#
# Stress axis : x y z
#
# Youngs Moduli (GPa) = 45.52174 45.49930 70.32354
#
# Poissons Ratio (x) = 0.03677 -0.05400
# Poissons Ratio (y) = 0.03679 -0.29254
# Poissons Ratio (z) = -0.03495 -0.18928
#
# Static dielectric constant tensor:
#      x y z
#    x 1.901170 0.000000 0.000000 
#    y 0.000000 1.930600 0.000000 
#    z 0.000000 0.000000 1.891170 
# 
# From -- ./inp_files/7731.got.cif
#   From: 2010.05.17/outbox.cif.g08.bks.cpg/sg55_4_cif.got.tgz:7731.got - 2010.06.03 13:27:54.
