data_PCOD9427476
_publ_section_title
;
Structure prediction by ZEFSAII (Michael W. Deem and Ramdas Pophale) SiO2 
 PCOD9427476
Probable space group: P B A M
;
_chemical_formula_sum "Si O2"
_cell_formula_units_Z 40
_cell_length_a 9.854103
_cell_length_b 8.451950
_cell_length_c 20.750067
_cell_angle_alpha 90.000000
_cell_angle_beta 90.000000
_cell_angle_gamma 90.000000
_cell_volume 1728.198087
_symmetry_space_group_name_H-M "P B A M"
_symmetry_group_IT_number 55
_symmetry_cell_setting 'orthorhombic'
loop_
_space_group_symop_operation_xyz
x,y,z
-x,-y,z
1/2+x,1/2-y,-z
1/2-x,1/2+y,-z
-x,-y,-z
x,y,-z
1/2-x,1/2+y,z
1/2+x,1/2-y,z
loop_
_atom_site_type_symbol
_atom_site_label
_atom_site_fract_x
_atom_site_fract_y
_atom_site_fract_z
Si Si1 0.705441 0.424104 0.258097
Si Si2 0.637064 0.151664 0.348339
Si Si3 0.688792 0.662004 0.839182
Si Si4 0.142856 0.577934 0.929097
Si Si5 0.921845 0.169938 0.575781
O O1 0.631246 0.315720 0.308803
O O2 0.832751 0.510367 0.295896
O O3 0.738147 0.299554 0.201532
O O4 0.630340 0.563832 0.220424
O O5 0.507168 0.182428 0.394029
O O6 0.776352 0.154564 0.389459
O O7 0.775583 0.542220 0.883010
O O8 0.608393 0.759896 0.891901
O O9 0.000000 0.500000 0.938195
O O10 0.207698 0.604074 0.000000
O O11 0.902059 0.199431 0.500000
O O12 0.000000 0.000000 0.581362
#
# Coordination Sequence:
#
# PCOD9427476 Si02
#       5
#     8   8   8   8   8
#     4   9  20  39  61  86 122 159 214 246 316 377
#     4  11  21  44  62  98 123 171 210 268 318 379
#     4   9  19  40  56  90 121 163 202 248 312 353
#     4  10  20  37  62  91 121 160 207 254 309 368
#     4  11  24  43  67  95 131 165 212 265 321 385
#
# _framework density 23.145495
#
# number of rings (size 3 to 8) (size 9 to 14) (size 15 to 20)
#    0.000    2.000    2.000    1.200    0.000    0.800 
#   36.000    4.000    0.000   10.800    0.000    0.000 
#    0.000    0.000    0.000    0.000    0.000    0.000 
#
# Total GULP energy -222674.956487 kJ/mol
# GULP energy per Si atom -5566.873912 kJ/mol
# Density = 2.309282 g / cm^3
# Si number density = 23.145495 Si / 1000 Ang^3
#
#
#
# Elastic Constant Matrix: (Units=GPa)
#
#
# Indices 1 2 3 4 5 6 
#
# 1 53.7544 -2.8985 21.6997 0.0000 0.0000 0.0000
# 2 -2.8985 94.9564 43.9181 0.0000 0.0000 0.0000
# 3 21.6997 43.9181 155.9348 0.0000 0.0000 0.0000
# 4 0.0000 0.0000 0.0000 53.4750 0.0000 0.0000
# 5 0.0000 0.0000 0.0000 0.0000 11.5341 0.0000
# 6 0.0000 0.0000 0.0000 0.0000 0.0000 25.4934
#
#
#
# Elastic Compliance Matrix: (Units=1/GPa)
#
#
# Indices 1 2 3 4 5 6 
#
# 1 0.020100 0.002193 -0.003415 0.000000 0.000000 0.000000
# 2 0.002193 0.012348 -0.003783 0.000000 0.000000 0.000000
# 3 -0.003415 -0.003783 0.007954 0.000000 0.000000 0.000000
# 4 0.000000 0.000000 0.000000 0.018700 0.000000 0.000000
# 5 0.000000 0.000000 0.000000 0.000000 0.086700 0.000000
# 6 0.000000 0.000000 0.000000 0.000000 0.000000 0.039226
#
#
# Mechanical properties :
#
#
# Convention : Reuss Voigt Hill
#
# Bulk Modulus (GPa) = 32.90367 47.78713 40.34540
# Shear Modulus (GPa) = 24.37043 34.22891 29.29967
#
# Velocity S-wave (km/s) = 3.24840 3.84976 3.56180
# Velocity P-wave (km/s) = 5.32131 6.36020 5.86381
#
# Compressibility (1/GPa) = 0.03039175
#
# Stress axis : x y z
#
# Youngs Moduli (GPa) = 49.75172 80.98702 125.73045
#
# Poissons Ratio (x) = -0.17759 0.42933
# Poissons Ratio (y) = -0.10910 0.47561
# Poissons Ratio (z) = 0.16989 0.30636
#
# Static dielectric constant tensor:
#      x y z
#    x 1.908130 0.000000 0.000000 
#    y 0.000000 1.977270 0.000000 
#    z 0.000000 0.000000 1.932600 
# 
# From -- ./inp_files/23411.got.cif
#   From: 2010.05.17/outbox.cif.g08.bks.cpg/sg55_12_cif.got.tgz:23411.got - 2010.06.03 13:27:54.
