data_PCOD9427753
_publ_section_title
;
Structure prediction by ZEFSAII (Michael W. Deem and Ramdas Pophale) SiO2 
 PCOD9427753
Probable space group: P B A M
;
_chemical_formula_sum "Si O2"
_cell_formula_units_Z 38
_cell_length_a 4.899305
_cell_length_b 27.978932
_cell_length_c 11.055611
_cell_angle_alpha 90.000000
_cell_angle_beta 90.000000
_cell_angle_gamma 90.000000
_cell_volume 1515.473543
_symmetry_space_group_name_H-M "P B A M"
_symmetry_group_IT_number 55
_symmetry_cell_setting 'orthorhombic'
loop_
_space_group_symop_operation_xyz
x,y,z
-x,-y,z
1/2+x,1/2-y,-z
1/2-x,1/2+y,-z
-x,-y,-z
x,y,-z
1/2-x,1/2+y,z
1/2+x,1/2-y,z
loop_
_atom_site_type_symbol
_atom_site_label
_atom_site_fract_x
_atom_site_fract_y
_atom_site_fract_z
Si Si1 0.000000 0.500000 0.500000
Si Si2 0.824856 0.423413 0.142050
Si Si3 0.542710 0.347320 0.291126
Si Si4 0.156556 0.946654 0.292800
Si Si5 0.837188 0.716923 0.137121
Si Si6 0.213731 0.716743 0.500000
O O1 0.204542 0.478107 0.605249
O O2 0.730099 0.370602 0.185378
O O3 0.622913 0.456995 0.219829
O O4 0.124787 0.434272 0.188956
O O5 0.797463 0.429373 0.000000
O O6 0.423634 0.395206 0.352912
O O7 0.292861 0.318741 0.232522
O O8 0.707020 0.314900 0.384348
O O9 0.143247 0.736043 0.149301
O O10 0.800992 0.698338 0.000000
O O11 0.907194 0.736249 0.500000
#
# Coordination Sequence:
#
# PCOD9427753 Si02
#       6
#     2   8   8   8   8   4
#     4  12  26  56  70 110 136 182 232 280 342 432
#     4  10  23  44  70 105 133 174 225 278 343 414
#     4  10  24  42  64  96 129 184 219 283 342 402
#     4  10  26  41  77  98 138 181 226 285 342 421
#     4  10  21  34  56  87 125 171 216 265 319 383
#     4  12  27  39  62  91 137 181 237 292 331 403
#
# _framework density 25.074669
#
# number of rings (size 3 to 8) (size 9 to 14) (size 15 to 20)
#    1.263    0.421    0.000    3.158    5.895    3.368 
#    0.000    3.158    0.000    0.000    0.000    0.000 
#    0.000    0.000    0.000    0.000    0.000    0.000 
#
# Total GULP energy -212189.758914 kJ/mol
# GULP energy per Si atom -5583.941024 kJ/mol
# Density = 2.501760 g / cm^3
# Si number density = 25.074669 Si / 1000 Ang^3
#
#
#
# Elastic Constant Matrix: (Units=GPa)
#
#
# Indices 1 2 3 4 5 6 
#
# 1 90.6843 8.8236 25.2385 0.0000 0.0000 0.0000
# 2 8.8236 58.5238 41.0944 0.0000 0.0000 0.0000
# 3 25.2385 41.0944 195.7885 0.0000 0.0000 0.0000
# 4 0.0000 0.0000 0.0000 19.8582 0.0000 0.0000
# 5 0.0000 0.0000 0.0000 0.0000 21.9549 0.0000
# 6 0.0000 0.0000 0.0000 0.0000 0.0000 32.8393
#
#
#
# Elastic Compliance Matrix: (Units=1/GPa)
#
#
# Indices 1 2 3 4 5 6 
#
# 1 0.011470 -0.000811 -0.001308 0.000000 0.000000 0.000000
# 2 -0.000811 0.020098 -0.004114 0.000000 0.000000 0.000000
# 3 -0.001308 -0.004114 0.006140 0.000000 0.000000 0.000000
# 4 0.000000 0.000000 0.000000 0.050357 0.000000 0.000000
# 5 0.000000 0.000000 0.000000 0.000000 0.045548 0.000000
# 6 0.000000 0.000000 0.000000 0.000000 0.000000 0.030451
#
#
# Mechanical properties :
#
#
# Convention : Reuss Voigt Hill
#
# Bulk Modulus (GPa) = 39.61646 55.03443 47.32544
# Shear Modulus (GPa) = 27.03516 32.91981 29.97748
#
# Velocity S-wave (km/s) = 3.28714 3.62729 3.46139
# Velocity P-wave (km/s) = 5.49916 6.28799 5.90676
#
# Compressibility (1/GPa) = 0.02524204
#
# Stress axis : x y z
#
# Youngs Moduli (GPa) = 87.18173 49.75621 162.87441
#
# Poissons Ratio (x) = 0.04033 0.21312
# Poissons Ratio (y) = 0.07067 0.67005
# Poissons Ratio (z) = 0.11407 0.20469
#
# Static dielectric constant tensor:
#      x y z
#    x 1.942470 0.000000 0.000000 
#    y 0.000000 2.161830 0.000000 
#    z 0.000000 0.000000 1.904110 
# 
# From -- ./inp_files/11339.got.cif
#   From: 2010.05.17/outbox.cif.g08.bks.cpg/sg55_6_cif.got.tgz:11339.got - 2010.06.03 13:27:54.
