data_PCOD9427089
_publ_section_title
;
Structure prediction by ZEFSAII (Michael W. Deem and Ramdas Pophale) SiO2 
 PCOD9427089
Probable space group: P B A M
;
_chemical_formula_sum "Si O2"
_cell_formula_units_Z 56
_cell_length_a 19.385460
_cell_length_b 9.428807
_cell_length_c 14.579243
_cell_angle_alpha 90.000000
_cell_angle_beta 90.000000
_cell_angle_gamma 90.000000
_cell_volume 2664.819709
_symmetry_space_group_name_H-M "P B A M"
_symmetry_group_IT_number 55
_symmetry_cell_setting 'orthorhombic'
loop_
_space_group_symop_operation_xyz
x,y,z
-x,-y,z
1/2+x,1/2-y,-z
1/2-x,1/2+y,-z
-x,-y,-z
x,y,-z
1/2-x,1/2+y,z
1/2+x,1/2-y,z
loop_
_atom_site_type_symbol
_atom_site_label
_atom_site_fract_x
_atom_site_fract_y
_atom_site_fract_z
Si Si1 0.904617 0.633353 0.201412
Si Si2 0.871066 0.519695 0.601597
Si Si3 0.633046 0.840911 0.892134
Si Si4 0.526310 0.653867 0.799021
Si Si5 0.281833 0.426659 0.335943
Si Si6 0.772722 0.814843 0.207145
Si Si7 0.419972 0.307333 0.599885
O O1 0.900489 0.604893 0.311366
O O2 0.899546 0.481204 0.153770
O O3 0.837389 0.724078 0.174129
O O4 0.970607 0.725645 0.177916
O O5 0.889877 0.574002 0.500000
O O6 0.787883 0.525677 0.612371
O O7 0.897811 0.358276 0.608147
O O8 0.596999 0.705181 0.845520
O O9 0.713903 0.843490 0.866970
O O10 0.622008 0.840067 0.000000
O O11 0.500000 0.500000 0.828378
O O12 0.536635 0.654605 0.689229
O O13 0.262937 0.280177 0.285911
O O14 0.295944 0.541813 0.256905
O O15 0.349686 0.398983 0.394289
O O16 0.452873 0.327373 0.500000
#
# Coordination Sequence:
#
# PCOD9427089 Si02
#       7
#     8   8   8   8   8   8   8
#     4  11  24  43  70  98 132 176 220 270 332 397
#     4  10  20  35  61  97 130 173 225 268 319 385
#     4  12  26  48  73  97 130 171 222 279 339 409
#     4  12  26  46  68  96 137 178 220 276 335 391
#     4  11  17  38  62  93 133 175 216 269 323 390
#     4  11  21  41  70  96 131 168 216 270 338 395
#     4  11  22  38  63  98 139 182 226 274 327 388
#
# _framework density 21.014555000000001
#
# number of rings (size 3 to 8) (size 9 to 14) (size 15 to 20)
#    0.000    0.857    7.143    1.714    0.000    2.857 
#    0.000    5.000    0.000    0.000    0.000    0.000 
#    0.000    0.000    0.000    0.000    0.000    0.000 
#
# Total GULP energy -313133.242266 kJ/mol
# GULP energy per Si atom -5591.665040 kJ/mol
# Density = 2.096673 g / cm^3
# Si number density = 21.014555 Si / 1000 Ang^3
#
#
#
# Elastic Constant Matrix: (Units=GPa)
#
#
# Indices 1 2 3 4 5 6 
#
# 1 50.8071 21.8537 9.4426 0.0000 0.0000 0.0000
# 2 21.8537 86.6407 20.0915 0.0000 0.0000 0.0000
# 3 9.4426 20.0915 88.0053 0.0000 0.0000 0.0000
# 4 0.0000 0.0000 0.0000 0.9794 0.0000 0.0000
# 5 0.0000 0.0000 0.0000 0.0000 -5.7881 0.0000
# 6 0.0000 0.0000 0.0000 0.0000 0.0000 32.0965
#
#
#
# Elastic Compliance Matrix: (Units=1/GPa)
#
#
# Indices 1 2 3 4 5 6 
#
# 1 0.022190 -0.005327 -0.001165 0.000000 0.000000 0.000000
# 2 -0.005327 0.013466 -0.002503 0.000000 0.000000 0.000000
# 3 -0.001165 -0.002503 0.012059 0.000000 0.000000 0.000000
# 4 0.000000 0.000000 0.000000 1.021029 0.000000 0.000000
# 5 0.000000 0.000000 0.000000 0.000000 -0.172768 0.000000
# 6 0.000000 0.000000 0.000000 0.000000 0.000000 0.031156
#
#
# Mechanical properties :
#
#
# Convention : Reuss Voigt Hill
#
# Bulk Modulus (GPa) = 33.64014 36.46987 35.05501
# Shear Modulus (GPa) = 5.23543 17.06191 11.14867
#
# Velocity S-wave (km/s) = 1.58011 2.85249 2.30580
# Velocity P-wave (km/s) = 4.40134 5.31425 4.87919
#
# Compressibility (1/GPa) = 0.02972639
#
# Stress axis : x y z
#
# Youngs Moduli (GPa) = 45.06525 74.26153 82.92367
#
# Poissons Ratio (x) = 0.39559 0.09659
# Poissons Ratio (y) = 0.24006 0.20753
# Poissons Ratio (z) = 0.05249 0.18585
#
# Static dielectric constant tensor:
#      x y z
#    x 1.766270 0.000000 0.000000 
#    y 0.000000 1.744710 0.000000 
#    z 0.000000 0.000000 1.737440 
# 
# From -- ./inp_files/19722.got.cif
#   From: 2010.05.17/outbox.cif.g08.bks.cpg/sg55_10_cif.got.tgz:19722.got - 2010.06.03 13:27:54.
