data_PCOD9427990
_publ_section_title
;
Structure prediction by ZEFSAII (Michael W. Deem and Ramdas Pophale) SiO2 
 PCOD9427990
Probable space group: P B A M
;
_chemical_formula_sum "Si O2"
_cell_formula_units_Z 58
_cell_length_a 12.042938
_cell_length_b 29.731366
_cell_length_c 7.570933
_cell_angle_alpha 90.000000
_cell_angle_beta 90.000000
_cell_angle_gamma 90.000000
_cell_volume 2710.795254
_symmetry_space_group_name_H-M "P B A M"
_symmetry_group_IT_number 55
_symmetry_cell_setting 'orthorhombic'
loop_
_space_group_symop_operation_xyz
x,y,z
-x,-y,z
1/2+x,1/2-y,-z
1/2-x,1/2+y,-z
-x,-y,-z
x,y,-z
1/2-x,1/2+y,z
1/2+x,1/2-y,z
loop_
_atom_site_type_symbol
_atom_site_label
_atom_site_fract_x
_atom_site_fract_y
_atom_site_fract_z
Si Si1 0.500000 0.500000 0.500000
Si Si2 0.904069 0.157280 0.790405
Si Si3 0.851942 0.810742 0.293777
Si Si4 0.313875 0.789183 0.286950
Si Si5 0.269535 0.428641 0.788674
Si Si6 0.648735 0.473746 0.794316
Si Si7 0.196939 0.609164 0.284698
Si Si8 0.052652 0.375539 0.288863
O O1 0.549549 0.466581 0.657552
O O2 0.810878 0.195077 0.755500
O O3 0.850257 0.110859 0.719989
O O4 0.023130 0.170988 0.718392
O O5 0.917444 0.152196 0.000000
O O6 0.822742 0.806443 0.500000
O O7 0.841092 0.760485 0.218627
O O8 0.767272 0.847750 0.221434
O O9 0.324680 0.788978 0.500000
O O10 0.395612 0.828626 0.219882
O O11 0.301188 0.478380 0.728376
O O12 0.144678 0.413493 0.746566
O O13 0.279794 0.429279 0.000000
O O14 0.740615 0.435378 0.777771
O O15 0.614811 0.476278 0.000000
O O16 0.198377 0.608173 0.500000
O O17 0.069830 0.612947 0.223847
O O18 0.043723 0.370946 0.500000
#
# Coordination Sequence:
#
# PCOD9427990 Si02
#       8
#     2   8   8   8   8   8   8   8
#     4  12  26  44  68  92 132 168 214 256 314 378
#     4  10  21  37  57  83 118 153 196 251 306 369
#     4  10  22  36  60  85 119 159 203 256 311 370
#     4   9  19  37  60  88 113 156 207 253 307 373
#     4   9  21  40  61  88 120 159 207 259 309 370
#     4  11  25  43  66  96 128 170 217 262 319 379
#     4  10  22  40  58  92 129 165 206 260 318 377
#     4   9  19  36  63  89 123 160 208 260 315 377
#
# _framework density 21.395935999999999
#
# number of rings (size 3 to 8) (size 9 to 14) (size 15 to 20)
#    0.000    2.207    0.690    0.621    4.828    2.759 
#    0.000    2.759    0.000    0.000    0.000    0.000 
#    0.000    0.000    0.000    0.000    0.000    0.000 
#
# Total GULP energy -323505.756087 kJ/mol
# GULP energy per Si atom -5577.685450 kJ/mol
# Density = 2.134724 g / cm^3
# Si number density = 21.395936 Si / 1000 Ang^3
#
#
#
# Elastic Constant Matrix: (Units=GPa)
#
#
# Indices 1 2 3 4 5 6 
#
# 1 124.9560 62.8093 0.5163 0.0000 0.0000 0.0000
# 2 62.8093 125.1378 9.3446 0.0000 0.0000 0.0000
# 3 0.5163 9.3446 78.1737 0.0000 0.0000 0.0000
# 4 0.0000 0.0000 0.0000 13.0329 0.0000 0.0000
# 5 0.0000 0.0000 0.0000 0.0000 18.0761 0.0000
# 6 0.0000 0.0000 0.0000 0.0000 0.0000 22.4359
#
#
#
# Elastic Compliance Matrix: (Units=1/GPa)
#
#
# Indices 1 2 3 4 5 6 
#
# 1 0.010729 -0.005428 0.000578 0.000000 0.000000 0.000000
# 2 -0.005428 0.010810 -0.001256 0.000000 0.000000 0.000000
# 3 0.000578 -0.001256 0.012938 0.000000 0.000000 0.000000
# 4 0.000000 0.000000 0.000000 0.076729 0.000000 0.000000
# 5 0.000000 0.000000 0.000000 0.000000 0.055322 0.000000
# 6 0.000000 0.000000 0.000000 0.000000 0.000000 0.044571
#
#
# Mechanical properties :
#
#
# Convention : Reuss Voigt Hill
#
# Bulk Modulus (GPa) = 44.91587 52.62310 48.76949
# Shear Modulus (GPa) = 21.67007 27.74881 24.70944
#
# Velocity S-wave (km/s) = 3.18592 3.60518 3.40202
# Velocity P-wave (km/s) = 5.87978 6.47905 6.18667
#
# Compressibility (1/GPa) = 0.02226385
#
# Stress axis : x y z
#
# Youngs Moduli (GPa) = 93.20587 92.51081 77.28941
#
# Poissons Ratio (x) = 0.50217 -0.04467
# Poissons Ratio (y) = 0.50594 0.09710
# Poissons Ratio (z) = -0.05387 0.11622
#
# Static dielectric constant tensor:
#      x y z
#    x 1.763350 0.000000 0.000000 
#    y 0.000000 1.807450 0.000000 
#    z 0.000000 0.000000 1.796380 
# 
# From -- ./inp_files/4336.got.cif
#   From: 2010.05.17/outbox.cif.g08.bks.cpg/sg55_3_cif.got.tgz:4336.got - 2010.06.03 13:27:54.
