data_PCOD9427608
_publ_section_title
;
Structure prediction by ZEFSAII (Michael W. Deem and Ramdas Pophale) SiO2 
 PCOD9427608
Probable space group: P B A M
;
_chemical_formula_sum "Si O2"
_cell_formula_units_Z 40
_cell_length_a 12.422616
_cell_length_b 17.723922
_cell_length_c 9.291792
_cell_angle_alpha 90.000000
_cell_angle_beta 90.000000
_cell_angle_gamma 90.000000
_cell_volume 2045.843320
_symmetry_space_group_name_H-M "P B A M"
_symmetry_group_IT_number 55
_symmetry_cell_setting 'orthorhombic'
loop_
_space_group_symop_operation_xyz
x,y,z
-x,-y,z
1/2+x,1/2-y,-z
1/2-x,1/2+y,-z
-x,-y,-z
x,y,-z
1/2-x,1/2+y,z
1/2+x,1/2-y,z
loop_
_atom_site_type_symbol
_atom_site_label
_atom_site_fract_x
_atom_site_fract_y
_atom_site_fract_z
Si Si1 0.312733 0.872426 0.167859
Si Si2 0.057335 0.080861 0.329509
Si Si3 0.961613 0.372571 0.668096
Si Si4 0.271968 0.047127 0.168113
Si Si5 0.875475 0.202473 0.332419
O O1 0.423446 0.872436 0.255163
O O2 0.227330 0.815328 0.235904
O O3 0.263602 0.956605 0.179616
O O4 0.332543 0.856627 0.000000
O O5 0.082397 0.087024 0.500000
O O6 0.166853 0.083302 0.240096
O O7 0.973629 0.146867 0.292012
O O8 0.000000 0.000000 0.306292
O O9 0.971706 0.392769 0.500000
O O10 0.878559 0.427029 0.748691
O O11 0.913237 0.288308 0.677662
O O12 0.280289 0.066944 0.000000
O O13 0.848787 0.185832 0.500000
#
# Coordination Sequence:
#
# PCOD9427608 Si02
#       5
#     8   8   8   8   8
#     4  11  24  42  64  91 126 163 204 256 310 368
#     4  10  20  38  65  92 120 160 207 254 304 362
#     4  11  25  42  64  91 125 166 209 257 307 365
#     4  11  24  41  63  93 127 162 207 257 309 369
#     4  10  23  42  63  91 124 160 206 256 306 367
#
# _framework density 19.551838
#
# number of rings (size 3 to 8) (size 9 to 14) (size 15 to 20)
#    0.000    1.400    2.000    2.400    2.800    7.600 
#    0.000    0.000    0.000    0.000    0.000    0.000 
#    0.000    0.000    0.000    0.000    0.000    0.000 
#
# Total GULP energy -223740.593278 kJ/mol
# GULP energy per Si atom -5593.514832 kJ/mol
# Density = 1.950734 g / cm^3
# Si number density = 19.551838 Si / 1000 Ang^3
#
#
#
# Elastic Constant Matrix: (Units=GPa)
#
#
# Indices 1 2 3 4 5 6 
#
# 1 108.0685 -7.8588 72.5710 0.0000 0.0000 0.0000
# 2 -7.8588 24.7312 13.9423 0.0000 0.0000 0.0000
# 3 72.5710 13.9423 111.7240 0.0000 0.0000 0.0000
# 4 0.0000 0.0000 0.0000 22.4891 0.0000 0.0000
# 5 0.0000 0.0000 0.0000 0.0000 118.4674 0.0000
# 6 0.0000 0.0000 0.0000 0.0000 0.0000 11.5624
#
#
#
# Elastic Compliance Matrix: (Units=1/GPa)
#
#
# Indices 1 2 3 4 5 6 
#
# 1 0.020625 0.015174 -0.015291 0.000000 0.000000 0.000000
# 2 0.015174 0.054659 -0.016677 0.000000 0.000000 0.000000
# 3 -0.015291 -0.016677 0.020964 0.000000 0.000000 0.000000
# 4 0.000000 0.000000 0.000000 0.044466 0.000000 0.000000
# 5 0.000000 0.000000 0.000000 0.000000 0.008441 0.000000
# 6 0.000000 0.000000 0.000000 0.000000 0.000000 0.086488
#
#
# Mechanical properties :
#
#
# Convention : Reuss Voigt Hill
#
# Bulk Modulus (GPa) = 15.95925 44.64807 30.30366
# Shear Modulus (GPa) = 17.23444 41.56171 29.39807
#
# Velocity S-wave (km/s) = 2.97218 4.61555 3.88183
# Velocity P-wave (km/s) = 4.46752 7.16169 5.96861
#
# Compressibility (1/GPa) = 0.06265957
#
# Stress axis : x y z
#
# Youngs Moduli (GPa) = 48.48487 18.29541 47.70081
#
# Poissons Ratio (x) = -0.27762 0.72938
# Poissons Ratio (y) = -0.73572 0.79553
# Poissons Ratio (z) = 0.74137 0.30512
#
# Static dielectric constant tensor:
#      x y z
#    x 1.639490 0.000000 0.000000 
#    y 0.000000 1.677440 0.000000 
#    z 0.000000 0.000000 1.658920 
# 
# From -- ./inp_files/3602.got.cif
#   From: 2010.05.17/outbox.cif.g08.bks.cpg/sg55_2_cif.got.tgz:3602.got - 2010.06.03 13:27:54.
