data_PCOD9427665
_publ_section_title
;
Structure prediction by ZEFSAII (Michael W. Deem and Ramdas Pophale) SiO2 
 PCOD9427665
Probable space group: P B A M
;
_chemical_formula_sum "Si O2"
_cell_formula_units_Z 64
_cell_length_a 30.938363
_cell_length_b 12.194517
_cell_length_c 8.903587
_cell_angle_alpha 90.000000
_cell_angle_beta 90.000000
_cell_angle_gamma 90.000000
_cell_volume 3359.131000
_symmetry_space_group_name_H-M "P B A M"
_symmetry_group_IT_number 55
_symmetry_cell_setting 'orthorhombic'
loop_
_space_group_symop_operation_xyz
x,y,z
-x,-y,z
1/2+x,1/2-y,-z
1/2-x,1/2+y,-z
-x,-y,-z
x,y,-z
1/2-x,1/2+y,z
1/2+x,1/2-y,z
loop_
_atom_site_type_symbol
_atom_site_label
_atom_site_fract_x
_atom_site_fract_y
_atom_site_fract_z
Si Si1 0.952756 0.543716 0.821704
Si Si2 0.620221 0.664500 0.180587
Si Si3 0.326167 0.729435 0.326362
Si Si4 0.050825 0.994809 0.680091
Si Si5 0.211523 0.457677 0.318781
Si Si6 0.695972 0.496377 0.178636
Si Si7 0.625904 0.906714 0.319169
Si Si8 0.073593 0.241688 0.672750
O O1 0.914586 0.477723 0.739401
O O2 0.949864 0.670825 0.775728
O O3 0.000000 0.500000 0.778975
O O4 0.947219 0.530652 0.000000
O O5 0.577985 0.598679 0.237166
O O6 0.661783 0.590318 0.225632
O O7 0.623158 0.784603 0.252457
O O8 0.619312 0.673040 0.000000
O O9 0.315028 0.702508 0.500000
O O10 0.298096 0.832109 0.274004
O O11 0.321615 0.621590 0.228593
O O12 0.375676 0.768426 0.325768
O O13 0.055685 0.978850 0.500000
O O14 0.068805 0.115386 0.718348
O O15 0.000000 0.000000 0.714905
O O16 0.213375 0.460376 0.500000
O O17 0.257158 0.491462 0.252012
O O18 0.171023 0.534233 0.273941
O O19 0.699854 0.501859 0.000000
O O20 0.624596 0.902822 0.500000
O O21 0.057919 0.251018 0.500000
#
# Coordination Sequence:
#
# PCOD9427665 Si02
#       8
#     8   8   8   8   8   8   8   8
#     4  11  25  42  62  93 130 166 203 248 310 372
#     4  11  25  43  61  90 130 168 205 250 312 375
#     4  10  20  40  66  90 118 155 206 259 305 357
#     4  10  22  40  64  95 124 161 212 259 307 361
#     4  10  23  42  64  91 120 158 208 257 308 361
#     4  11  25  41  61  92 126 162 203 247 307 373
#     4  11  24  44  67  91 121 163 213 259 306 361
#     4  10  20  39  65  91 122 159 209 262 302 357
#
# _framework density 19.052548000000002
#
# number of rings (size 3 to 8) (size 9 to 14) (size 15 to 20)
#    0.000    1.500    2.500    1.500    3.500    5.250 
#    0.000    0.000    0.000    0.000    0.000    0.000 
#    0.000    0.000    0.000    0.000    0.000    0.000 
#
# Total GULP energy -357597.799239 kJ/mol
# GULP energy per Si atom -5587.465613 kJ/mol
# Density = 1.900918 g / cm^3
# Si number density = 19.052548 Si / 1000 Ang^3
#
#
#
# Elastic Constant Matrix: (Units=GPa)
#
#
# Indices 1 2 3 4 5 6 
#
# 1 91.9163 28.4852 31.6761 0.0000 0.0000 0.0000
# 2 28.4852 94.1078 31.5074 0.0000 0.0000 0.0000
# 3 31.6761 31.5074 36.0175 0.0000 0.0000 0.0000
# 4 0.0000 0.0000 0.0000 19.0525 0.0000 0.0000
# 5 0.0000 0.0000 0.0000 0.0000 19.3248 0.0000
# 6 0.0000 0.0000 0.0000 0.0000 0.0000 27.9405
#
#
#
# Elastic Compliance Matrix: (Units=1/GPa)
#
#
# Indices 1 2 3 4 5 6 
#
# 1 0.015613 -0.000182 -0.013572 0.000000 0.000000 0.000000
# 2 -0.000182 0.015029 -0.012987 0.000000 0.000000 0.000000
# 3 -0.013572 -0.012987 0.051062 0.000000 0.000000 0.000000
# 4 0.000000 0.000000 0.000000 0.052487 0.000000 0.000000
# 5 0.000000 0.000000 0.000000 0.000000 0.051747 0.000000
# 6 0.000000 0.000000 0.000000 0.000000 0.000000 0.035790
#
#
# Mechanical properties :
#
#
# Convention : Reuss Voigt Hill
#
# Bulk Modulus (GPa) = 35.43423 45.04212 40.23817
# Shear Modulus (GPa) = 17.56745 21.95510 19.76127
#
# Velocity S-wave (km/s) = 3.03983 3.39830 3.22405
# Velocity P-wave (km/s) = 5.56410 6.25222 5.91817
#
# Compressibility (1/GPa) = 0.02822130
#
# Stress axis : x y z
#
# Youngs Moduli (GPa) = 64.04915 66.53633 19.58422
#
# Poissons Ratio (x) = 0.01211 0.26580
# Poissons Ratio (y) = 0.01165 0.25435
# Poissons Ratio (z) = 0.86927 0.86413
#
# Static dielectric constant tensor:
#      x y z
#    x 1.685840 0.000000 0.000000 
#    y 0.000000 1.647510 0.000000 
#    z 0.000000 0.000000 1.647690 
# 
# From -- ./inp_files/10817.got.cif
#   From: 2010.05.17/outbox.cif.g08.bks.cpg/sg55_6_cif.got.tgz:10817.got - 2010.06.03 13:27:54.
