data_PCOD9427301
_publ_section_title
;
Structure prediction by ZEFSAII (Michael W. Deem and Ramdas Pophale) SiO2 
 PCOD9427301
Probable space group: P B A M
;
_chemical_formula_sum "Si O2"
_cell_formula_units_Z 64
_cell_length_a 17.002807
_cell_length_b 20.572569
_cell_length_c 9.016477
_cell_angle_alpha 90.000000
_cell_angle_beta 90.000000
_cell_angle_gamma 90.000000
_cell_volume 3153.886295
_symmetry_space_group_name_H-M "P B A M"
_symmetry_group_IT_number 55
_symmetry_cell_setting 'orthorhombic'
loop_
_space_group_symop_operation_xyz
x,y,z
-x,-y,z
1/2+x,1/2-y,-z
1/2-x,1/2+y,-z
-x,-y,-z
x,y,-z
1/2-x,1/2+y,z
1/2+x,1/2-y,z
loop_
_atom_site_type_symbol
_atom_site_label
_atom_site_fract_x
_atom_site_fract_y
_atom_site_fract_z
Si Si1 0.084496 0.255317 0.327891
Si Si2 0.349158 0.400514 0.675473
Si Si3 0.326606 0.078886 0.324077
Si Si4 0.172866 0.037303 0.824783
Si Si5 0.464796 0.605742 0.330515
Si Si6 0.390128 0.951604 0.170739
Si Si7 0.469122 0.143190 0.176506
Si Si8 0.778500 0.676108 0.827786
O O1 0.088065 0.275865 0.500000
O O2 0.063364 0.179904 0.321670
O O3 0.167368 0.270490 0.250331
O O4 0.017657 0.297314 0.245682
O O5 0.333658 0.405222 0.500000
O O6 0.320560 0.465362 0.757485
O O7 0.442510 0.396035 0.698357
O O8 0.301675 0.340333 0.743704
O O9 0.321977 0.085227 0.500000
O O10 0.240379 0.080366 0.251809
O O11 0.386211 0.130888 0.254002
O O12 0.362595 0.008580 0.277818
O O13 0.087550 0.063836 0.779820
O O14 0.184336 0.035739 0.000000
O O15 0.451338 0.581818 0.500000
O O16 0.475486 0.920525 0.200804
O O17 0.331486 0.889879 0.179517
O O18 0.388318 0.976046 0.000000
O O19 0.461382 0.151428 0.000000
O O20 0.765214 0.691122 0.000000
#
# Coordination Sequence:
#
# PCOD9427301 Si02
#       8
#     8   8   8   8   8   8   8   8
#     4  10  21  41  65  89 122 163 208 253 302 364
#     4  11  22  40  67  95 123 159 206 255 308 370
#     4  12  23  35  56  86 122 161 204 251 303 367
#     4  12  25  41  63  92 126 161 202 256 317 372
#     4  10  24  45  66  91 123 162 206 257 310 364
#     4   9  18  33  54  82 121 159 195 246 304 360
#     4  10  21  37  58  85 121 162 203 252 304 363
#     4  10  20  36  61  92 126 162 203 253 304 363
#
# _framework density 20.292425000000001
#
# number of rings (size 3 to 8) (size 9 to 14) (size 15 to 20)
#    0.000    1.500    1.250    5.250    0.000    7.500 
#    2.250    0.000    0.000    0.000    0.000    0.000 
#    0.000    0.000    0.000    0.000    0.000    0.000 
#
# Total GULP energy -357992.158502 kJ/mol
# GULP energy per Si atom -5593.627477 kJ/mol
# Density = 2.024624 g / cm^3
# Si number density = 20.292425 Si / 1000 Ang^3
#
#
#
# Elastic Constant Matrix: (Units=GPa)
#
#
# Indices 1 2 3 4 5 6 
#
# 1 96.8757 4.3587 60.8743 0.0000 0.0000 0.0000
# 2 4.3587 26.1371 19.7594 0.0000 0.0000 0.0000
# 3 60.8743 19.7594 139.0436 0.0000 0.0000 0.0000
# 4 0.0000 0.0000 0.0000 28.7251 0.0000 0.0000
# 5 0.0000 0.0000 0.0000 0.0000 30.0012 0.0000
# 6 0.0000 0.0000 0.0000 0.0000 0.0000 5.9834
#
#
#
# Elastic Compliance Matrix: (Units=1/GPa)
#
#
# Indices 1 2 3 4 5 6 
#
# 1 0.014402 0.002650 -0.006682 0.000000 0.000000 0.000000
# 2 0.002650 0.043352 -0.007321 0.000000 0.000000 0.000000
# 3 -0.006682 -0.007321 0.011158 0.000000 0.000000 0.000000
# 4 0.000000 0.000000 0.000000 0.034813 0.000000 0.000000
# 5 0.000000 0.000000 0.000000 0.000000 0.033332 0.000000
# 6 0.000000 0.000000 0.000000 0.000000 0.000000 0.167130
#
#
# Mechanical properties :
#
#
# Convention : Reuss Voigt Hill
#
# Bulk Modulus (GPa) = 21.64216 48.00460 34.82338
# Shear Modulus (GPa) = 14.60728 24.74619 19.67673
#
# Velocity S-wave (km/s) = 2.68589 3.49589 3.11731
# Velocity P-wave (km/s) = 4.50633 6.32478 5.49135
#
# Compressibility (1/GPa) = 0.04620611
#
# Stress axis : x y z
#
# Youngs Moduli (GPa) = 69.43482 23.06676 89.62411
#
# Poissons Ratio (x) = -0.06112 0.59885
# Poissons Ratio (y) = -0.18398 0.65612
# Poissons Ratio (z) = 0.46395 0.16887
#
# Static dielectric constant tensor:
#      x y z
#    x 1.735940 0.000000 0.000000 
#    y 0.000000 1.708860 0.000000 
#    z 0.000000 0.000000 1.682460 
# 
# From -- ./inp_files/6618.got.cif
#   From: 2010.05.17/outbox.cif.g08.bks.cpg/sg55_4_cif.got.tgz:6618.got - 2010.06.03 13:27:54.
