data_PCOD9427150
_publ_section_title
;
Structure prediction by ZEFSAII (Michael W. Deem and Ramdas Pophale) SiO2 
 PCOD9427150
Probable space group: P B A M
;
_chemical_formula_sum "Si O2"
_cell_formula_units_Z 56
_cell_length_a 21.703313
_cell_length_b 15.184278
_cell_length_c 8.729269
_cell_angle_alpha 90.000000
_cell_angle_beta 90.000000
_cell_angle_gamma 90.000000
_cell_volume 2876.723075
_symmetry_space_group_name_H-M "P B A M"
_symmetry_group_IT_number 55
_symmetry_cell_setting 'orthorhombic'
loop_
_space_group_symop_operation_xyz
x,y,z
-x,-y,z
1/2+x,1/2-y,-z
1/2-x,1/2+y,-z
-x,-y,-z
x,y,-z
1/2-x,1/2+y,z
1/2+x,1/2-y,z
loop_
_atom_site_type_symbol
_atom_site_label
_atom_site_fract_x
_atom_site_fract_y
_atom_site_fract_z
Si Si1 0.570205 0.515383 0.315557
Si Si2 0.412064 0.973797 0.320038
Si Si3 0.182633 0.079806 0.817653
Si Si4 0.216101 0.432745 0.820974
Si Si5 0.984246 0.362517 0.817900
Si Si6 0.099523 0.784814 0.683633
Si Si7 0.269159 0.238855 0.182257
O O1 0.500000 0.500000 0.263904
O O2 0.570739 0.513621 0.500000
O O3 0.617257 0.441560 0.256714
O O4 0.593148 0.612974 0.267782
O O5 0.422321 0.987013 0.500000
O O6 0.341184 0.959218 0.282084
O O7 0.451833 0.890822 0.260903
O O8 0.437903 0.058577 0.230157
O O9 0.222702 0.162999 0.762661
O O10 0.226011 0.995345 0.790807
O O11 0.173689 0.090253 0.000000
O O12 0.236343 0.332627 0.797890
O O13 0.198506 0.444559 0.000000
O O14 0.954918 0.272942 0.756154
O O15 0.991364 0.360473 0.000000
O O16 0.095516 0.780571 0.500000
O O17 0.164730 0.744479 0.737009
O O18 0.280172 0.224614 0.000000
#
# Coordination Sequence:
#
# PCOD9427150 Si02
#       7
#     8   8   8   8   8   8   8
#     4  10  23  42  62  86 122 162 201 251 310 367
#     4  11  22  37  58  87 121 154 197 248 301 360
#     4  10  21  38  61  88 118 155 202 254 301 359
#     4  10  20  36  57  84 121 157 195 245 300 358
#     4  11  22  38  60  84 117 158 198 243 303 364
#     4  11  22  38  61  89 119 157 207 254 306 369
#     4  10  21  37  60  89 119 156 204 251 303 362
#
# _framework density 19.466594000000001
#
# number of rings (size 3 to 8) (size 9 to 14) (size 15 to 20)
#    0.000    1.571    1.429    4.714    0.000    4.857 
#    0.000    2.857    0.000    0.000    0.000    0.000 
#    0.000    0.000    0.000    0.000    0.000    0.000 
#
# Total GULP energy -312966.372514 kJ/mol
# GULP energy per Si atom -5588.685223 kJ/mol
# Density = 1.942229 g / cm^3
# Si number density = 19.466594 Si / 1000 Ang^3
#
#
#
# Elastic Constant Matrix: (Units=GPa)
#
#
# Indices 1 2 3 4 5 6 
#
# 1 81.8671 14.9247 22.8138 0.0000 0.0000 0.0000
# 2 14.9247 72.6118 15.5810 0.0000 0.0000 0.0000
# 3 22.8138 15.5810 32.1991 0.0000 0.0000 0.0000
# 4 0.0000 0.0000 0.0000 16.6894 0.0000 0.0000
# 5 0.0000 0.0000 0.0000 0.0000 34.8650 0.0000
# 6 0.0000 0.0000 0.0000 0.0000 0.0000 22.8428
#
#
#
# Elastic Compliance Matrix: (Units=1/GPa)
#
#
# Indices 1 2 3 4 5 6 
#
# 1 0.015274 -0.000912 -0.010381 0.000000 0.000000 0.000000
# 2 -0.000912 0.015422 -0.006817 0.000000 0.000000 0.000000
# 3 -0.010381 -0.006817 0.041710 0.000000 0.000000 0.000000
# 4 0.000000 0.000000 0.000000 0.059918 0.000000 0.000000
# 5 0.000000 0.000000 0.000000 0.000000 0.028682 0.000000
# 6 0.000000 0.000000 0.000000 0.000000 0.000000 0.043777
#
#
# Mechanical properties :
#
#
# Convention : Reuss Voigt Hill
#
# Bulk Modulus (GPa) = 27.63352 32.59077 30.11214
# Shear Modulus (GPa) = 19.75778 23.77001 21.76390
#
# Velocity S-wave (km/s) = 3.18930 3.49817 3.34730
# Velocity P-wave (km/s) = 5.27146 5.75278 5.51737
#
# Compressibility (1/GPa) = 0.03618794
#
# Stress axis : x y z
#
# Youngs Moduli (GPa) = 65.47110 64.84248 23.97494
#
# Poissons Ratio (x) = 0.05913 0.24888
# Poissons Ratio (y) = 0.05971 0.16343
# Poissons Ratio (z) = 0.67963 0.44200
#
# Static dielectric constant tensor:
#      x y z
#    x 1.666840 0.000000 0.000000 
#    y 0.000000 1.681110 0.000000 
#    z 0.000000 0.000000 1.663870 
# 
# From -- ./inp_files/6075.got.cif
#   From: 2010.05.17/outbox.cif.g08.bks.cpg/sg55_4_cif.got.tgz:6075.got - 2010.06.03 13:27:54.
