data_PCOD9427169
_publ_section_title
;
Structure prediction by ZEFSAII (Michael W. Deem and Ramdas Pophale) SiO2 
 PCOD9427169
Probable space group: P B A M
;
_chemical_formula_sum "Si O2"
_cell_formula_units_Z 56
_cell_length_a 21.914335
_cell_length_b 14.864695
_cell_length_c 8.685918
_cell_angle_alpha 90.000000
_cell_angle_beta 90.000000
_cell_angle_gamma 90.000000
_cell_volume 2829.436971
_symmetry_space_group_name_H-M "P B A M"
_symmetry_group_IT_number 55
_symmetry_cell_setting 'orthorhombic'
loop_
_space_group_symop_operation_xyz
x,y,z
-x,-y,z
1/2+x,1/2-y,-z
1/2-x,1/2+y,-z
-x,-y,-z
x,y,-z
1/2-x,1/2+y,z
1/2+x,1/2-y,z
loop_
_atom_site_type_symbol
_atom_site_label
_atom_site_fract_x
_atom_site_fract_y
_atom_site_fract_z
Si Si1 0.429771 0.492163 0.811984
Si Si2 0.818432 0.896194 0.818247
Si Si3 0.732123 0.043471 0.318505
Si Si4 0.101913 0.791588 0.816514
Si Si5 0.515815 0.853031 0.314268
Si Si6 0.406725 0.970227 0.686706
Si Si7 0.770392 0.250679 0.677963
O O1 0.500000 0.500000 0.762931
O O2 0.385617 0.573541 0.761545
O O3 0.402968 0.395289 0.762095
O O4 0.429050 0.492770 0.000000
O O5 0.782941 0.813627 0.742254
O O6 0.776574 0.982474 0.780921
O O7 0.821646 0.880183 0.000000
O O8 0.736252 0.016869 0.500000
O O9 0.662766 0.031838 0.263252
O O10 0.749727 0.147511 0.308908
O O11 0.043814 0.735823 0.757947
O O12 0.163976 0.744333 0.759628
O O13 0.102180 0.792473 0.000000
O O14 0.516483 0.844813 0.500000
O O15 0.448675 0.886087 0.264097
O O16 0.559647 0.937162 0.271747
O O17 0.406332 0.967206 0.500000
O O18 0.780130 0.274032 0.500000
#
# Coordination Sequence:
#
# PCOD9427169 Si02
#       7
#     8   8   8   8   8   8   8
#     4   9  20  39  60  82 115 157 196 240 298 354
#     4  11  22  38  61  87 117 154 199 249 296 350
#     4  10  20  36  58  82 114 152 191 237 291 347
#     4  11  21  36  58  84 113 149 198 245 292 352
#     4   9  17  32  55  80 110 147 186 227 284 349
#     4   8  16  32  53  78 109 148 186 226 282 348
#     4  11  23  37  57  84 116 154 195 243 299 355
#
# _framework density 19.791922
#
# number of rings (size 3 to 8) (size 9 to 14) (size 15 to 20)
#    0.000    2.143    1.429    3.000    0.000    2.857 
#    0.000    2.143    0.000    6.000    0.000    0.000 
#    0.000    0.000    0.000    0.000    0.000    0.000 
#
# Total GULP energy -312580.611948 kJ/mol
# GULP energy per Si atom -5581.796642 kJ/mol
# Density = 1.974688 g / cm^3
# Si number density = 19.791922 Si / 1000 Ang^3
#
#
#
# Elastic Constant Matrix: (Units=GPa)
#
#
# Indices 1 2 3 4 5 6 
#
# 1 93.9619 -9.9506 1.0515 0.0000 0.0000 0.0000
# 2 -9.9506 30.6478 6.4097 0.0000 0.0000 0.0000
# 3 1.0515 6.4097 27.7909 0.0000 0.0000 0.0000
# 4 0.0000 0.0000 0.0000 22.2874 0.0000 0.0000
# 5 0.0000 0.0000 0.0000 0.0000 21.3305 0.0000
# 6 0.0000 0.0000 0.0000 0.0000 0.0000 30.3787
#
#
#
# Elastic Compliance Matrix: (Units=1/GPa)
#
#
# Indices 1 2 3 4 5 6 
#
# 1 0.011067 0.003867 -0.001311 0.000000 0.000000 0.000000
# 2 0.003867 0.035634 -0.008365 0.000000 0.000000 0.000000
# 3 -0.001311 -0.008365 0.037962 0.000000 0.000000 0.000000
# 4 0.000000 0.000000 0.000000 0.044868 0.000000 0.000000
# 5 0.000000 0.000000 0.000000 0.000000 0.046881 0.000000
# 6 0.000000 0.000000 0.000000 0.000000 0.000000 0.032918
#
#
# Mechanical properties :
#
#
# Convention : Reuss Voigt Hill
#
# Bulk Modulus (GPa) = 13.69003 16.38020 15.03511
# Shear Modulus (GPa) = 20.38362 25.12533 22.75448
#
# Velocity S-wave (km/s) = 3.21268 3.56683 3.39438
# Velocity P-wave (km/s) = 4.54904 5.02566 4.79328
#
# Compressibility (1/GPa) = 0.07304588
#
# Stress axis : x y z
#
# Youngs Moduli (GPa) = 90.36020 28.06323 26.34225
#
# Poissons Ratio (x) = -0.10853 0.03453
# Poissons Ratio (y) = -0.34944 0.22035
# Poissons Ratio (z) = 0.11843 0.23474
#
# Static dielectric constant tensor:
#      x y z
#    x 1.704000 0.000000 0.000000 
#    y 0.000000 1.693740 0.000000 
#    z 0.000000 0.000000 1.676860 
# 
# From -- ./inp_files/5980.got.cif
#   From: 2010.05.17/outbox.cif.g08.bks.cpg/sg55_3_cif.got.tgz:5980.got - 2010.06.03 13:27:54.
