data_PCOD9427909
_publ_section_title
;
Structure prediction by ZEFSAII (Michael W. Deem and Ramdas Pophale) SiO2 
 PCOD9427909
Probable space group: P B A M
;
_chemical_formula_sum "Si O2"
_cell_formula_units_Z 64
_cell_length_a 12.900999
_cell_length_b 28.310081
_cell_length_c 9.048080
_cell_angle_alpha 90.000000
_cell_angle_beta 90.000000
_cell_angle_gamma 90.000000
_cell_volume 3304.615118
_symmetry_space_group_name_H-M "P B A M"
_symmetry_group_IT_number 55
_symmetry_cell_setting 'orthorhombic'
loop_
_space_group_symop_operation_xyz
x,y,z
-x,-y,z
1/2+x,1/2-y,-z
1/2-x,1/2+y,-z
-x,-y,-z
x,y,-z
1/2-x,1/2+y,z
1/2+x,1/2-y,z
loop_
_atom_site_type_symbol
_atom_site_label
_atom_site_fract_x
_atom_site_fract_y
_atom_site_fract_z
Si Si1 0.084963 0.936491 0.828822
Si Si2 0.651676 0.944864 0.323366
Si Si3 0.952385 0.618063 0.323654
Si Si4 0.309207 0.960090 0.822241
Si Si5 0.567113 0.302167 0.674770
Si Si6 0.633629 0.675122 0.168981
Si Si7 0.368482 0.792481 0.825587
Si Si8 0.619347 0.409591 0.323008
O O1 0.188133 0.962800 0.773365
O O2 0.119067 0.881301 0.821581
O O3 0.975697 0.939018 0.745965
O O4 0.068566 0.948957 0.000000
O O5 0.649733 0.954665 0.500000
O O6 0.562947 0.906502 0.293374
O O7 0.765939 0.926302 0.282653
O O8 0.634492 0.993070 0.235000
O O9 0.936694 0.619107 0.500000
O O10 0.865774 0.584862 0.248337
O O11 0.941909 0.670226 0.257402
O O12 0.310594 0.956161 0.000000
O O13 0.581939 0.296988 0.500000
O O14 0.446087 0.301714 0.718088
O O15 0.620337 0.259624 0.760448
O O16 0.605937 0.354450 0.720096
O O17 0.751236 0.689401 0.196505
O O18 0.606403 0.688872 0.000000
O O19 0.390429 0.792854 0.000000
O O20 0.609346 0.411985 0.500000
#
# Coordination Sequence:
#
# PCOD9427909 Si02
#       8
#     8   8   8   8   8   8   8   8
#     4   9  18  35  58  83 113 146 189 240 288 340
#     4  10  23  41  58  83 121 159 194 240 294 350
#     4  11  23  39  60  85 117 156 199 246 296 349
#     4  11  22  38  60  88 118 153 196 245 296 351
#     4  10  21  36  57  87 116 150 195 240 294 354
#     4   9  18  36  57  78 110 150 188 237 291 341
#     4  11  22  38  60  87 117 151 195 242 295 354
#     4   9  20  39  59  81 115 155 195 241 293 348
#
# _framework density 19.366855000000001
#
# number of rings (size 3 to 8) (size 9 to 14) (size 15 to 20)
#    0.000    2.000    1.250    1.875    0.000    7.000 
#    0.000    3.750    0.000    0.000    0.000    0.000 
#    0.000    0.000    0.000    0.000    0.000    0.000 
#
# Total GULP energy -357459.020615 kJ/mol
# GULP energy per Si atom -5585.297197 kJ/mol
# Density = 1.932278 g / cm^3
# Si number density = 19.366855 Si / 1000 Ang^3
#
#
#
# Elastic Constant Matrix: (Units=GPa)
#
#
# Indices 1 2 3 4 5 6 
#
# 1 87.3094 17.5771 31.8354 0.0000 0.0000 0.0000
# 2 17.5771 56.2866 21.2242 0.0000 0.0000 0.0000
# 3 31.8354 21.2242 38.6674 0.0000 0.0000 0.0000
# 4 0.0000 0.0000 0.0000 14.5636 0.0000 0.0000
# 5 0.0000 0.0000 0.0000 0.0000 39.2038 0.0000
# 6 0.0000 0.0000 0.0000 0.0000 0.0000 26.4486
#
#
#
# Elastic Compliance Matrix: (Units=1/GPa)
#
#
# Indices 1 2 3 4 5 6 
#
# 1 0.016367 -0.000038 -0.013454 0.000000 0.000000 0.000000
# 2 -0.000038 0.022403 -0.012266 0.000000 0.000000 0.000000
# 3 -0.013454 -0.012266 0.043671 0.000000 0.000000 0.000000
# 4 0.000000 0.000000 0.000000 0.068664 0.000000 0.000000
# 5 0.000000 0.000000 0.000000 0.000000 0.025508 0.000000
# 6 0.000000 0.000000 0.000000 0.000000 0.000000 0.037809
#
#
# Mechanical properties :
#
#
# Convention : Reuss Voigt Hill
#
# Bulk Modulus (GPa) = 32.33574 35.94854 34.14214
# Shear Modulus (GPa) = 18.09972 23.48499 20.79236
#
# Velocity S-wave (km/s) = 3.06039 3.48607 3.28015
# Velocity P-wave (km/s) = 5.40562 5.89964 5.65802
#
# Compressibility (1/GPa) = 0.03092553
#
# Stress axis : x y z
#
# Youngs Moduli (GPa) = 61.09860 44.63671 22.89824
#
# Poissons Ratio (x) = 0.00168 0.30808
# Poissons Ratio (y) = 0.00231 0.28087
# Poissons Ratio (z) = 0.82205 0.54750
#
# Static dielectric constant tensor:
#      x y z
#    x 1.677940 0.000000 0.000000 
#    y 0.000000 1.668490 0.000000 
#    z 0.000000 0.000000 1.650760 
# 
# From -- ./inp_files/4567.got.cif
#   From: 2010.05.17/outbox.cif.g08.bks.cpg/sg55_3_cif.got.tgz:4567.got - 2010.06.03 13:27:54.
