data_PCOD9427839
_publ_section_title
;
Structure prediction by ZEFSAII (Michael W. Deem and Ramdas Pophale) SiO2 
 PCOD9427839
Probable space group: P B A M
;
_chemical_formula_sum "Si O2"
_cell_formula_units_Z 64
_cell_length_a 20.259799
_cell_length_b 17.912805
_cell_length_c 7.964301
_cell_angle_alpha 90.000000
_cell_angle_beta 90.000000
_cell_angle_gamma 90.000000
_cell_volume 2890.323113
_symmetry_space_group_name_H-M "P B A M"
_symmetry_group_IT_number 55
_symmetry_cell_setting 'orthorhombic'
loop_
_space_group_symop_operation_xyz
x,y,z
-x,-y,z
1/2+x,1/2-y,-z
1/2-x,1/2+y,-z
-x,-y,-z
x,y,-z
1/2-x,1/2+y,z
1/2+x,1/2-y,z
loop_
_atom_site_type_symbol
_atom_site_label
_atom_site_fract_x
_atom_site_fract_y
_atom_site_fract_z
Si Si1 0.770339 0.091890 0.303096
Si Si2 0.704900 0.239703 0.701179
Si Si3 0.475507 0.619375 0.804379
Si Si4 0.544799 0.763793 0.799615
Si Si5 0.102370 0.987911 0.194590
Si Si6 0.649185 0.997163 0.703238
Si Si7 0.923690 0.647260 0.296715
Si Si8 0.176989 0.669548 0.197671
O O1 0.755796 0.098653 0.500000
O O2 0.753441 0.173287 0.234399
O O3 0.841865 0.059538 0.280928
O O4 0.718518 0.032024 0.236902
O O5 0.699517 0.241305 0.500000
O O6 0.632415 0.209044 0.758535
O O7 0.748202 0.312912 0.743731
O O8 0.503340 0.694455 0.725046
O O9 0.537741 0.563757 0.805359
O O10 0.416446 0.569085 0.731413
O O11 0.457626 0.634398 0.000000
O O12 0.495352 0.832449 0.772034
O O13 0.618270 0.777288 0.730455
O O14 0.551615 0.749816 0.000000
O O15 0.121504 0.998536 0.000000
O O16 0.646790 0.992213 0.500000
O O17 0.649460 0.913283 0.767874
O O18 0.598368 0.063216 0.751582
O O19 0.925274 0.649377 0.500000
O O20 0.178529 0.680725 0.000000
#
# Coordination Sequence:
#
# PCOD9427839 Si02
#       8
#     8   8   8   8   8   8   8   8
#     4   9  18  33  53  76 102 133 169 211 261 312
#     4   9  19  37  58  79 107 142 178 219 267 318
#     4   8  16  31  48  69 101 140 174 204 254 319
#     4  10  21  36  53  77 111 144 177 225 277 321
#     4   9  16  29  51  74 100 137 175 210 251 308
#     4   9  20  39  57  74 103 140 176 219 270 320
#     4   9  20  39  60  80 103 140 188 227 267 323
#     4  11  23  36  55  85 113 139 178 223 267 320
#
# _framework density 22.142852999999999
#
# number of rings (size 3 to 8) (size 9 to 14) (size 15 to 20)
#    0.000    2.750    0.000    3.375    0.000    5.500 
#    0.000   10.000    0.000    0.000    0.000    0.000 
#    0.000    0.000    0.000    0.000    0.000    0.000 
#
# Total GULP energy -356413.060657 kJ/mol
# GULP energy per Si atom -5568.954073 kJ/mol
# Density = 2.209245 g / cm^3
# Si number density = 22.142853 Si / 1000 Ang^3
#
#
#
# Elastic Constant Matrix: (Units=GPa)
#
#
# Indices 1 2 3 4 5 6 
#
# 1 46.9003 -2.4692 -3.2071 0.0000 0.0000 0.0000
# 2 -2.4692 50.0940 -2.3174 0.0000 0.0000 0.0000
# 3 -3.2071 -2.3174 18.7035 0.0000 0.0000 0.0000
# 4 0.0000 0.0000 0.0000 18.9609 0.0000 0.0000
# 5 0.0000 0.0000 0.0000 0.0000 13.7971 0.0000
# 6 0.0000 0.0000 0.0000 0.0000 0.0000 -3.6473
#
#
#
# Elastic Compliance Matrix: (Units=1/GPa)
#
#
# Indices 1 2 3 4 5 6 
#
# 1 0.021652 0.001246 0.003867 0.000000 0.000000 0.000000
# 2 0.001246 0.020149 0.002710 0.000000 0.000000 0.000000
# 3 0.003867 0.002710 0.054465 0.000000 0.000000 0.000000
# 4 0.000000 0.000000 0.000000 0.052740 0.000000 0.000000
# 5 0.000000 0.000000 0.000000 0.000000 0.072479 0.000000
# 6 0.000000 0.000000 0.000000 0.000000 0.000000 -0.274175
#
#
# Mechanical properties :
#
#
# Convention : Reuss Voigt Hill
#
# Bulk Modulus (GPa) = 8.93554 11.07895 10.00724
# Shear Modulus (GPa) = -161.12523 14.06822 -73.52850
#
# Velocity S-wave (km/s) = -8.53957 2.52333 -5.76875
# Velocity P-wave (km/s) = 9.65340 3.67476 6.31206
#
# Compressibility (1/GPa) = 0.11191268
#
# Stress axis : x y z
#
# Youngs Moduli (GPa) = 46.18542 49.62958 18.36047
#
# Poissons Ratio (x) = -0.06184 -0.07100
# Poissons Ratio (y) = -0.05755 -0.04976
# Poissons Ratio (z) = -0.17860 -0.13451
#
# Static dielectric constant tensor:
#      x y z
#    x 1.840790 0.000000 0.000000 
#    y 0.000000 1.895940 0.000000 
#    z 0.000000 0.000000 1.810380 
# 
# From -- ./inp_files/7951.got.cif
#   From: 2010.05.17/outbox.cif.g08.bks.cpg/sg55_4_cif.got.tgz:7951.got - 2010.06.03 13:27:54.
