data_PCOD9427117
_publ_section_title
;
Structure prediction by ZEFSAII (Michael W. Deem and Ramdas Pophale) SiO2 
 PCOD9427117
Probable space group: P B A M
;
_chemical_formula_sum "Si O2"
_cell_formula_units_Z 64
_cell_length_a 25.301733
_cell_length_b 14.712959
_cell_length_c 7.773078
_cell_angle_alpha 90.000000
_cell_angle_beta 90.000000
_cell_angle_gamma 90.000000
_cell_volume 2893.632136
_symmetry_space_group_name_H-M "P B A M"
_symmetry_group_IT_number 55
_symmetry_cell_setting 'orthorhombic'
loop_
_space_group_symop_operation_xyz
x,y,z
-x,-y,z
1/2+x,1/2-y,-z
1/2-x,1/2+y,-z
-x,-y,-z
x,y,-z
1/2-x,1/2+y,z
1/2+x,1/2-y,z
loop_
_atom_site_type_symbol
_atom_site_label
_atom_site_fract_x
_atom_site_fract_y
_atom_site_fract_z
Si Si1 0.506878 0.722020 0.791717
Si Si2 0.172704 0.051054 0.197544
Si Si3 0.714185 0.968455 0.699327
Si Si4 0.553272 0.904246 0.200321
Si Si5 0.387853 0.924678 0.200830
Si Si6 0.658599 0.796642 0.291874
Si Si7 0.387700 0.385107 0.297613
Si Si8 0.389490 0.719462 0.789140
O O1 0.514163 0.826921 0.728694
O O2 0.554663 0.658840 0.730051
O O3 0.448858 0.689137 0.743271
O O4 0.510209 0.725012 0.000000
O O5 0.224808 0.008507 0.281052
O O6 0.152990 0.146501 0.273710
O O7 0.125042 0.979343 0.208004
O O8 0.187147 0.065713 0.000000
O O9 0.699205 0.975150 0.500000
O O10 0.707144 0.862141 0.751531
O O11 0.669953 0.028704 0.791264
O O12 0.608635 0.849781 0.214240
O O13 0.568844 0.003221 0.274353
O O14 0.539625 0.917402 0.000000
O O15 0.383729 0.823185 0.272075
O O16 0.402350 0.914741 0.000000
O O17 0.652622 0.794763 0.500000
O O18 0.653461 0.692934 0.235085
O O19 0.380188 0.399950 0.500000
O O20 0.386321 0.719276 0.000000
#
# Coordination Sequence:
#
# PCOD9427117 Si02
#       8
#     8   8   8   8   8   8   8   8
#     4   9  17  33  55  80 108 141 176 215 263 314
#     4  11  23  38  53  73 101 139 182 222 261 309
#     4  10  20  36  56  79 105 135 168 211 264 318
#     4   8  14  25  49  81 108 133 168 208 250 302
#     4   9  17  33  55  82 112 141 172 212 260 317
#     4   8  16  31  52  75 102 131 162 204 258 310
#     4  10  20  36  56  79 104 135 177 224 265 309
#     4   9  20  36  54  77 109 143 178 217 260 310
#
# _framework density 22.117529999999999
#
# number of rings (size 3 to 8) (size 9 to 14) (size 15 to 20)
#    0.000    2.750    0.000    1.125    0.000    3.000 
#    0.000   10.625    0.000    0.000    0.000    8.750 
#    0.000    0.000    0.000    0.000    0.000    0.000 
#
# Total GULP energy -356772.263516 kJ/mol
# GULP energy per Si atom -5574.566617 kJ/mol
# Density = 2.206719 g / cm^3
# Si number density = 22.117530 Si / 1000 Ang^3
#
#
#
# Elastic Constant Matrix: (Units=GPa)
#
#
# Indices 1 2 3 4 5 6 
#
# 1 63.5873 13.8867 -6.0112 0.0000 0.0000 0.0000
# 2 13.8867 74.1357 2.9408 0.0000 0.0000 0.0000
# 3 -6.0112 2.9408 32.2452 0.0000 0.0000 0.0000
# 4 0.0000 0.0000 0.0000 9.2644 0.0000 0.0000
# 5 0.0000 0.0000 0.0000 0.0000 567.6499 0.0000
# 6 0.0000 0.0000 0.0000 0.0000 0.0000 27.4614
#
#
#
# Elastic Compliance Matrix: (Units=1/GPa)
#
#
# Indices 1 2 3 4 5 6 
#
# 1 0.016766 -0.003276 0.003424 0.000000 0.000000 0.000000
# 2 -0.003276 0.014178 -0.001904 0.000000 0.000000 0.000000
# 3 0.003424 -0.001904 0.031824 0.000000 0.000000 0.000000
# 4 0.000000 0.000000 0.000000 0.107940 0.000000 0.000000
# 5 0.000000 0.000000 0.000000 0.000000 0.001762 0.000000
# 6 0.000000 0.000000 0.000000 0.000000 0.000000 0.036415
#
#
# Mechanical properties :
#
#
# Convention : Reuss Voigt Hill
#
# Bulk Modulus (GPa) = 16.87586 21.28900 19.08243
# Shear Modulus (GPa) = 21.53797 131.48527 76.51162
#
# Velocity S-wave (km/s) = 3.12396 7.71865 5.88798
# Velocity P-wave (km/s) = 4.54519 9.43838 7.40749
#
# Compressibility (1/GPa) = 0.05925625
#
# Stress axis : x y z
#
# Youngs Moduli (GPa) = 59.64586 70.53183 31.42250
#
# Poissons Ratio (x) = 0.23108 -0.10760
# Poissons Ratio (y) = 0.19542 0.05982
# Poissons Ratio (z) = -0.20424 0.13428
#
# Static dielectric constant tensor:
#      x y z
#    x 1.821410 0.000000 0.000000 
#    y 0.000000 1.856960 0.000000 
#    z 0.000000 0.000000 1.918250 
# 
# From -- ./inp_files/9794.got.cif
#   From: 2010.05.17/outbox.cif.g08.bks.cpg/sg55_5_cif.got.tgz:9794.got - 2010.06.03 13:27:54.
