data_PCOD9427927
_publ_section_title
;
Structure prediction by ZEFSAII (Michael W. Deem and Ramdas Pophale) SiO2 
 PCOD9427927
Probable space group: P B A M
;
_chemical_formula_sum "Si O2"
_cell_formula_units_Z 40
_cell_length_a 8.359361
_cell_length_b 19.896869
_cell_length_c 12.422643
_cell_angle_alpha 90.000000
_cell_angle_beta 90.000000
_cell_angle_gamma 90.000000
_cell_volume 2066.197473
_symmetry_space_group_name_H-M "P B A M"
_symmetry_group_IT_number 55
_symmetry_cell_setting 'orthorhombic'
loop_
_space_group_symop_operation_xyz
x,y,z
-x,-y,z
1/2+x,1/2-y,-z
1/2-x,1/2+y,-z
-x,-y,-z
x,y,-z
1/2-x,1/2+y,z
1/2+x,1/2-y,z
loop_
_atom_site_type_symbol
_atom_site_label
_atom_site_fract_x
_atom_site_fract_y
_atom_site_fract_z
Si Si1 0.274023 0.224070 0.124582
Si Si2 0.583220 0.927196 0.372383
Si Si3 0.638072 0.412174 0.793540
Si Si4 0.406147 0.841353 0.205650
Si Si5 0.187785 0.948966 0.119907
O O1 0.163714 0.160870 0.156213
O O2 0.450593 0.196069 0.144971
O O3 0.234633 0.286742 0.201394
O O4 0.253699 0.243614 0.000000
O O5 0.596412 0.919472 0.500000
O O6 0.756238 0.919928 0.314378
O O7 0.473080 0.869829 0.317646
O O8 0.500000 0.000000 0.350932
O O9 0.710273 0.471656 0.867654
O O10 0.449111 0.427771 0.794456
O O11 0.344466 0.906489 0.142462
O O12 0.127397 0.933706 0.000000
#
# Coordination Sequence:
#
# PCOD9427927 Si02
#       5
#     8   8   8   8   8
#     4  11  21  35  55  85 125 164 198 244 307 376
#     4  10  21  43  66  87 118 161 213 273 317 353
#     4  10  21  36  58  90 122 162 208 252 306 370
#     4  11  23  38  60  91 122 168 211 253 307 375
#     4  11  20  35  57  89 131 166 203 251 306 373
#
# _framework density 19.359235000000002
#
# number of rings (size 3 to 8) (size 9 to 14) (size 15 to 20)
#    0.000    1.400    2.000    5.400    0.000    0.000 
#    0.000   10.000    0.000    0.000    0.000    0.000 
#    0.000    0.000    0.000    0.000    0.000    0.000 
#
# Total GULP energy -223178.570284 kJ/mol
# GULP energy per Si atom -5579.464257 kJ/mol
# Density = 1.931517 g / cm^3
# Si number density = 19.359235 Si / 1000 Ang^3
#
#
#
# Elastic Constant Matrix: (Units=GPa)
#
#
# Indices 1 2 3 4 5 6 
#
# 1 43.4932 15.4970 47.9620 0.0000 0.0000 0.0000
# 2 15.4970 89.5878 35.9336 0.0000 0.0000 0.0000
# 3 47.9620 35.9336 122.1670 0.0000 0.0000 0.0000
# 4 0.0000 0.0000 0.0000 22.0383 0.0000 0.0000
# 5 0.0000 0.0000 0.0000 0.0000 22.0341 0.0000
# 6 0.0000 0.0000 0.0000 0.0000 0.0000 43.6340
#
#
#
# Elastic Compliance Matrix: (Units=1/GPa)
#
#
# Indices 1 2 3 4 5 6 
#
# 1 0.040586 -0.000714 -0.015724 0.000000 0.000000 0.000000
# 2 -0.000714 0.012668 -0.003446 0.000000 0.000000 0.000000
# 3 -0.015724 -0.003446 0.015372 0.000000 0.000000 0.000000
# 4 0.000000 0.000000 0.000000 0.045376 0.000000 0.000000
# 5 0.000000 0.000000 0.000000 0.000000 0.045384 0.000000
# 6 0.000000 0.000000 0.000000 0.000000 0.000000 0.022918
#
#
# Mechanical properties :
#
#
# Convention : Reuss Voigt Hill
#
# Bulk Modulus (GPa) = 34.65130 50.44814 42.54972
# Shear Modulus (GPa) = 21.58056 27.93164 24.75610
#
# Velocity S-wave (km/s) = 3.34240 3.80255 3.57988
# Velocity P-wave (km/s) = 5.73005 6.73756 6.25413
#
# Compressibility (1/GPa) = 0.02885895
#
# Stress axis : x y z
#
# Youngs Moduli (GPa) = 24.63912 78.94021 65.05282
#
# Poissons Ratio (x) = 0.05635 1.02288
# Poissons Ratio (y) = 0.01759 0.22416
# Poissons Ratio (z) = 0.38742 0.27201
#
# Static dielectric constant tensor:
#      x y z
#    x 1.754160 0.000000 0.000000 
#    y 0.000000 1.700150 0.000000 
#    z 0.000000 0.000000 1.627030 
# 
# From -- ./inp_files/11866.got.cif
#   From: 2010.05.17/outbox.cif.g08.bks.cpg/sg55_6_cif.got.tgz:11866.got - 2010.06.03 13:27:54.
