data_PCOD9427718
_publ_section_title
;
Structure prediction by ZEFSAII (Michael W. Deem and Ramdas Pophale) SiO2 
 PCOD9427718
Probable space group: P B A M
;
_chemical_formula_sum "Si O2"
_cell_formula_units_Z 64
_cell_length_a 11.732849
_cell_length_b 15.753369
_cell_length_c 14.637949
_cell_angle_alpha 90.000000
_cell_angle_beta 90.000000
_cell_angle_gamma 90.000000
_cell_volume 2705.559922
_symmetry_space_group_name_H-M "P B A M"
_symmetry_group_IT_number 55
_symmetry_cell_setting 'orthorhombic'
loop_
_space_group_symop_operation_xyz
x,y,z
-x,-y,z
1/2+x,1/2-y,-z
1/2-x,1/2+y,-z
-x,-y,-z
x,y,-z
1/2-x,1/2+y,z
1/2+x,1/2-y,z
loop_
_atom_site_type_symbol
_atom_site_label
_atom_site_fract_x
_atom_site_fract_y
_atom_site_fract_z
Si Si1 0.536265 0.598120 0.322640
Si Si2 0.791405 0.324645 0.890838
Si Si3 0.118180 0.035810 0.897449
Si Si4 0.204115 0.146959 0.387867
Si Si5 0.240817 0.830900 0.600922
Si Si6 0.028117 0.400649 0.892421
Si Si7 0.370541 0.993376 0.611588
Si Si8 0.726607 0.630051 0.163418
O O1 0.500000 0.500000 0.329463
O O2 0.416762 0.644780 0.336915
O O3 0.617049 0.628023 0.404334
O O4 0.627715 0.621419 0.241897
O O5 0.688268 0.385425 0.855460
O O6 0.783996 0.224785 0.875131
O O7 0.914293 0.355121 0.857356
O O8 0.792098 0.341053 0.000000
O O9 0.196931 0.952846 0.897385
O O10 0.086968 0.063202 0.000000
O O11 0.000000 0.000000 0.856509
O O12 0.190878 0.140158 0.500000
O O13 0.260750 0.236540 0.360142
O O14 0.285790 0.068899 0.360113
O O15 0.289283 0.817984 0.500000
O O16 0.319165 0.903903 0.642222
O O17 0.136988 0.379835 0.831447
O O18 0.000000 0.500000 0.892483
O O19 0.050091 0.375818 0.000000
O O20 0.371392 0.995558 0.500000
O O21 0.500000 0.000000 0.643278
#
# Coordination Sequence:
#
# PCOD9427718 Si02
#       8
#     8   8   8   8   8   8   8   8
#     4  12  26  46  66  95 139 191 235 277 344 423
#     4  10  22  40  69 103 132 177 233 283 344 410
#     4  10  21  40  66  97 133 175 227 289 345 400
#     4  10  22  41  71 102 135 177 227 290 348 408
#     4  10  22  41  68  99 128 171 233 292 344 399
#     4  10  20  41  70  98 131 173 228 287 345 410
#     4   9  18  35  63  99 132 160 205 276 345 401
#     4  12  25  41  63  96 140 180 224 287 345 415
#
# _framework density 23.654993999999999
#
# number of rings (size 3 to 8) (size 9 to 14) (size 15 to 20)
#    0.000    1.625    2.500    1.875    3.500    1.500 
#    2.250    0.625    0.000    0.000    0.000    0.000 
#    0.000    0.000    0.000    0.000    0.000    0.000 
#
# Total GULP energy -356972.834034 kJ/mol
# GULP energy per Si atom -5577.700532 kJ/mol
# Density = 2.360115 g / cm^3
# Si number density = 23.654994 Si / 1000 Ang^3
#
#
#
# Elastic Constant Matrix: (Units=GPa)
#
#
# Indices 1 2 3 4 5 6 
#
# 1 137.1054 9.0315 26.7386 0.0000 0.0000 0.0000
# 2 9.0315 89.3994 0.3072 0.0000 0.0000 0.0000
# 3 26.7386 0.3072 68.4154 0.0000 0.0000 0.0000
# 4 0.0000 0.0000 0.0000 3.3849 0.0000 0.0000
# 5 0.0000 0.0000 0.0000 0.0000 36.7624 0.0000
# 6 0.0000 0.0000 0.0000 0.0000 0.0000 40.1467
#
#
#
# Elastic Compliance Matrix: (Units=1/GPa)
#
#
# Indices 1 2 3 4 5 6 
#
# 1 0.007951 -0.000793 -0.003104 0.000000 0.000000 0.000000
# 2 -0.000793 0.011265 0.000259 0.000000 0.000000 0.000000
# 3 -0.003104 0.000259 0.015829 0.000000 0.000000 0.000000
# 4 0.000000 0.000000 0.000000 0.295434 0.000000 0.000000
# 5 0.000000 0.000000 0.000000 0.000000 0.027202 0.000000
# 6 0.000000 0.000000 0.000000 0.000000 0.000000 0.024909
#
#
# Mechanical properties :
#
#
# Convention : Reuss Voigt Hill
#
# Bulk Modulus (GPa) = 36.01020 40.78609 38.39814
# Shear Modulus (GPa) = 12.52756 33.31498 22.92127
#
# Velocity S-wave (km/s) = 2.30379 3.75690 3.11622
# Velocity P-wave (km/s) = 4.72575 6.00820 5.40515
#
# Compressibility (1/GPa) = 0.02776991
#
# Stress axis : x y z
#
# Youngs Moduli (GPa) = 125.76687 88.77098 63.17699
#
# Poissons Ratio (x) = 0.07036 0.19610
# Poissons Ratio (y) = 0.09968 -0.01638
# Poissons Ratio (z) = 0.39038 -0.02301
#
# Static dielectric constant tensor:
#      x y z
#    x 1.888110 0.000000 0.000000 
#    y 0.000000 1.887080 0.000000 
#    z 0.000000 0.000000 2.022750 
# 
# From -- ./inp_files/21325.got.cif
#   From: 2010.05.17/outbox.cif.g08.bks.cpg/sg55_11_cif.got.tgz:21325.got - 2010.06.03 13:27:54.
