data_PCOD9427478
_publ_section_title
;
Structure prediction by ZEFSAII (Michael W. Deem and Ramdas Pophale) SiO2 
 PCOD9427478
Probable space group: P B A M
;
_chemical_formula_sum "Si O2"
_cell_formula_units_Z 40
_cell_length_a 14.689946
_cell_length_b 14.429317
_cell_length_c 8.783103
_cell_angle_alpha 90.000000
_cell_angle_beta 90.000000
_cell_angle_gamma 90.000000
_cell_volume 1861.718223
_symmetry_space_group_name_H-M "P B A M"
_symmetry_group_IT_number 55
_symmetry_cell_setting 'orthorhombic'
loop_
_space_group_symop_operation_xyz
x,y,z
-x,-y,z
1/2+x,1/2-y,-z
1/2-x,1/2+y,-z
-x,-y,-z
x,y,-z
1/2-x,1/2+y,z
1/2+x,1/2-y,z
loop_
_atom_site_type_symbol
_atom_site_label
_atom_site_fract_x
_atom_site_fract_y
_atom_site_fract_z
Si Si1 0.739359 0.000914 0.818639
Si Si2 0.053349 0.594775 0.818913
Si Si3 0.762932 0.708609 0.818395
Si Si4 0.881554 0.875068 0.318394
Si Si5 0.937438 0.215592 0.319297
O O1 0.658617 0.928994 0.785024
O O2 0.831307 0.966556 0.740878
O O3 0.707431 0.104048 0.777015
O O4 0.752985 0.000681 0.000000
O O5 0.023788 0.682575 0.721672
O O6 0.000000 0.500000 0.789202
O O7 0.043888 0.615306 0.000000
O O8 0.822045 0.788076 0.740455
O O9 0.657444 0.710490 0.769062
O O10 0.770216 0.721099 0.000000
O O11 0.880033 0.875440 0.500000
O O12 0.985870 0.858049 0.270761
O O13 0.921455 0.207547 0.500000
#
# Coordination Sequence:
#
# PCOD9427478 Si02
#       5
#     8   8   8   8   8
#     4  10  22  39  62  91 122 162 208 256 310 368
#     4  10  20  37  62  92 122 157 205 259 312 365
#     4  11  23  41  65  92 124 163 209 261 312 368
#     4  11  24  41  62  90 127 167 206 256 313 374
#     4  11  24  40  60  90 126 166 208 252 312 373
#
# _framework density 21.485529
#
# number of rings (size 3 to 8) (size 9 to 14) (size 15 to 20)
#    0.000    1.400    2.000    3.000    0.000    7.600 
#    0.000    4.000    0.000    0.000    0.000    0.000 
#    0.000    0.000    0.000    0.000    0.000    0.000 
#
# Total GULP energy -223697.800798 kJ/mol
# GULP energy per Si atom -5592.445020 kJ/mol
# Density = 2.143663 g / cm^3
# Si number density = 21.485529 Si / 1000 Ang^3
#
#
#
# Elastic Constant Matrix: (Units=GPa)
#
#
# Indices 1 2 3 4 5 6 
#
# 1 57.0493 -14.3085 0.8749 0.0000 0.0000 0.0000
# 2 -14.3085 32.3014 2.4337 0.0000 0.0000 0.0000
# 3 0.8749 2.4337 -5.2538 0.0000 0.0000 0.0000
# 4 0.0000 0.0000 0.0000 154.5295 0.0000 0.0000
# 5 0.0000 0.0000 0.0000 0.0000 21.7498 0.0000
# 6 0.0000 0.0000 0.0000 0.0000 0.0000 35.7564
#
#
#
# Elastic Compliance Matrix: (Units=1/GPa)
#
#
# Indices 1 2 3 4 5 6 
#
# 1 0.019450 0.008090 0.006986 0.000000 0.000000 0.000000
# 2 0.008090 0.033279 0.016763 0.000000 0.000000 0.000000
# 3 0.006986 0.016763 -0.181412 0.000000 0.000000 0.000000
# 4 0.000000 0.000000 0.000000 0.006471 0.000000 0.000000
# 5 0.000000 0.000000 0.000000 0.000000 0.045977 0.000000
# 6 0.000000 0.000000 0.000000 0.000000 0.000000 0.027967
#
#
# Mechanical properties :
#
#
# Convention : Reuss Voigt Hill
#
# Bulk Modulus (GPa) = -15.38337 6.89969 -4.24184
# Shear Modulus (GPa) = -37.42170 48.74693 5.66261
#
# Velocity S-wave (km/s) = -4.17792 4.76839 1.62520
# Velocity P-wave (km/s) = 5.51804 5.79094 1.24223
#
# Compressibility (1/GPa) = -0.06500526
#
# Stress axis : x y z
#
# Youngs Moduli (GPa) = 51.41261 30.04912 -5.51232
#
# Poissons Ratio (x) = -0.24308 0.03851
# Poissons Ratio (y) = -0.41591 0.09240
# Poissons Ratio (z) = -0.35919 -0.50370
#
# Static dielectric constant tensor:
#      x y z
#    x 1.812180 0.000000 0.000000 
#    y 0.000000 1.814400 0.000000 
#    z 0.000000 0.000000 1.714160 
# 
# From -- ./inp_files/5181.got.cif
#   From: 2010.05.17/outbox.cif.g08.bks.cpg/sg55_3_cif.got.tgz:5181.got - 2010.06.03 13:27:54.
