data_PCOD9427205
_publ_section_title
;
Structure prediction by ZEFSAII (Michael W. Deem and Ramdas Pophale) SiO2 
 PCOD9427205
Probable space group: P B A M
;
_chemical_formula_sum "Si O2"
_cell_formula_units_Z 48
_cell_length_a 10.441846
_cell_length_b 27.389002
_cell_length_c 7.579912
_cell_angle_alpha 90.000000
_cell_angle_beta 90.000000
_cell_angle_gamma 90.000000
_cell_volume 2167.792229
_symmetry_space_group_name_H-M "P B A M"
_symmetry_group_IT_number 55
_symmetry_cell_setting 'orthorhombic'
loop_
_space_group_symop_operation_xyz
x,y,z
-x,-y,z
1/2+x,1/2-y,-z
1/2-x,1/2+y,-z
-x,-y,-z
x,y,-z
1/2-x,1/2+y,z
1/2+x,1/2-y,z
loop_
_atom_site_type_symbol
_atom_site_label
_atom_site_fract_x
_atom_site_fract_y
_atom_site_fract_z
Si Si1 0.630090 0.295455 0.703330
Si Si2 0.620007 0.648637 0.796585
Si Si3 0.395147 0.812903 0.707515
Si Si4 0.111518 0.963161 0.286149
Si Si5 0.637397 0.979670 0.715589
Si Si6 0.350676 0.132352 0.716656
O O1 0.671070 0.288297 0.500000
O O2 0.491016 0.320059 0.706523
O O3 0.621630 0.241490 0.784216
O O4 0.734008 0.333320 0.777850
O O5 0.761357 0.659163 0.724524
O O6 0.590862 0.591513 0.778051
O O7 0.619462 0.662922 0.000000
O O8 0.423837 0.806542 0.500000
O O9 0.515471 0.843653 0.776063
O O10 0.110528 0.961236 0.500000
O O11 0.247384 0.985209 0.228771
O O12 0.000000 0.000000 0.230770
O O13 0.637570 0.979686 0.500000
O O14 0.659300 0.923897 0.772900
O O15 0.500000 0.000000 0.772373
O O16 0.348397 0.130762 0.500000
#
# Coordination Sequence:
#
# PCOD9427205 Si02
#       6
#     8   8   8   8   8   8
#     4  10  20  37  61  86 111 144 192 243 287 334
#     4  12  25  38  55  83 122 161 190 225 282 352
#     4  10  20  37  62  87 111 144 190 241 285 333
#     4  10  20  36  59  82 106 143 193 245 288 329
#     4   9  16  27  48  78 106 132 170 227 288 334
#     4   9  17  31  55  85 110 135 179 241 296 334
#
# _framework density 22.142344000000001
#
# number of rings (size 3 to 8) (size 9 to 14) (size 15 to 20)
#    0.000    2.000    0.000    4.500    0.000    9.000 
#    0.000    0.833    0.000    4.500    0.000    0.000 
#    0.000    0.000    0.000    0.000    0.000    0.000 
#
# Total GULP energy -268335.295262 kJ/mol
# GULP energy per Si atom -5590.318651 kJ/mol
# Density = 2.209195 g / cm^3
# Si number density = 22.142344 Si / 1000 Ang^3
#
#
#
# Elastic Constant Matrix: (Units=GPa)
#
#
# Indices 1 2 3 4 5 6 
#
# 1 62.8363 -23.7122 -11.6118 0.0000 0.0000 0.0000
# 2 -23.7122 82.7038 -4.5573 0.0000 0.0000 0.0000
# 3 -11.6118 -4.5573 44.7568 0.0000 0.0000 0.0000
# 4 0.0000 0.0000 0.0000 30.3309 0.0000 0.0000
# 5 0.0000 0.0000 0.0000 0.0000 78.4105 0.0000
# 6 0.0000 0.0000 0.0000 0.0000 0.0000 -170.9206
#
#
#
# Elastic Compliance Matrix: (Units=1/GPa)
#
#
# Indices 1 2 3 4 5 6 
#
# 1 0.019125 0.005789 0.005551 0.000000 0.000000 0.000000
# 2 0.005789 0.013912 0.002919 0.000000 0.000000 0.000000
# 3 0.005551 0.002919 0.024080 0.000000 0.000000 0.000000
# 4 0.000000 0.000000 0.000000 0.032970 0.000000 0.000000
# 5 0.000000 0.000000 0.000000 0.000000 0.012753 0.000000
# 6 0.000000 0.000000 0.000000 0.000000 0.000000 -0.005851
#
#
# Mechanical properties :
#
#
# Convention : Reuss Voigt Hill
#
# Bulk Modulus (GPa) = 11.67742 12.28159 11.97950
# Shear Modulus (GPa) = 51.53752 2.90936 27.22344
#
# Velocity S-wave (km/s) = 4.82971 1.14751 3.51019
# Velocity P-wave (km/s) = 6.03214 2.70452 4.67446
#
# Compressibility (1/GPa) = 0.08563539
#
# Stress axis : x y z
#
# Youngs Moduli (GPa) = 52.28796 71.88041 41.52755
#
# Poissons Ratio (x) = -0.41613 -0.23053
# Poissons Ratio (y) = -0.30271 -0.12120
# Poissons Ratio (z) = -0.29027 -0.20979
#
# Static dielectric constant tensor:
#      x y z
#    x 1.768330 0.000000 0.000000 
#    y 0.000000 1.773410 0.000000 
#    z 0.000000 0.000000 1.906740 
# 
# From -- ./inp_files/2845.got.cif
#   From: 2010.05.17/outbox.cif.g08.bks.cpg/sg55_2_cif.got.tgz:2845.got - 2010.06.03 13:27:54.
