data_PCOD9427621
_publ_section_title
;
Structure prediction by ZEFSAII (Michael W. Deem and Ramdas Pophale) SiO2 
 PCOD9427621
Probable space group: P B A M
;
_chemical_formula_sum "Si O2"
_cell_formula_units_Z 40
_cell_length_a 14.555067
_cell_length_b 8.097606
_cell_length_c 13.847055
_cell_angle_alpha 90.000000
_cell_angle_beta 90.000000
_cell_angle_gamma 90.000000
_cell_volume 1632.030489
_symmetry_space_group_name_H-M "P B A M"
_symmetry_group_IT_number 55
_symmetry_cell_setting 'orthorhombic'
loop_
_space_group_symop_operation_xyz
x,y,z
-x,-y,z
1/2+x,1/2-y,-z
1/2-x,1/2+y,-z
-x,-y,-z
x,y,-z
1/2-x,1/2+y,z
1/2+x,1/2-y,z
loop_
_atom_site_type_symbol
_atom_site_label
_atom_site_fract_x
_atom_site_fract_y
_atom_site_fract_z
Si Si1 0.626087 0.897558 0.392274
Si Si2 0.117556 0.137972 0.807717
Si Si3 0.725829 0.670492 0.111010
Si Si4 0.052957 0.664323 0.817080
Si Si5 0.836832 0.790418 0.393734
O O1 0.588206 0.860013 0.500000
O O2 0.569781 0.842188 0.298625
O O3 0.726942 0.815795 0.385508
O O4 0.639637 0.096067 0.386927
O O5 0.185498 0.294682 0.824122
O O6 0.117917 0.109915 0.693279
O O7 0.016693 0.187209 0.840666
O O8 0.169948 0.992797 0.861431
O O9 0.650159 0.811739 0.132174
O O10 0.753284 0.670281 0.000000
O O11 0.000000 0.500000 0.846308
O O12 0.863629 0.850578 0.500000
#
# Coordination Sequence:
#
# PCOD9427621 Si02
#       5
#     8   8   8   8   8
#     4  10  21  39  66 103 143 186 229 277 342 413
#     4  12  24  45  72 101 138 179 230 283 352 413
#     4  12  28  49  73  99 134 180 232 296 355 408
#     4  12  25  43  70 104 137 182 228 284 343 417
#     4  10  20  38  68 101 140 184 226 272 336 413
#
# _framework density 24.509345
#
# number of rings (size 3 to 8) (size 9 to 14) (size 15 to 20)
#    0.000    0.800    4.000    3.600    0.000    4.000 
#    0.000    0.000    0.000    2.400    0.000    0.000 
#    0.000    0.000    0.000    0.000    0.000    0.000 
#
# Total GULP energy -224167.076755 kJ/mol
# GULP energy per Si atom -5604.176919 kJ/mol
# Density = 2.445356 g / cm^3
# Si number density = 24.509345 Si / 1000 Ang^3
#
#
#
# Elastic Constant Matrix: (Units=GPa)
#
#
# Indices 1 2 3 4 5 6 
#
# 1 82.5266 -10.0725 -11.1948 0.0000 0.0000 0.0000
# 2 -10.0725 47.7694 -6.7176 0.0000 0.0000 0.0000
# 3 -11.1948 -6.7176 98.6229 0.0000 0.0000 0.0000
# 4 0.0000 0.0000 0.0000 34.1569 0.0000 0.0000
# 5 0.0000 0.0000 0.0000 0.0000 0.3953 0.0000
# 6 0.0000 0.0000 0.0000 0.0000 0.0000 42.6559
#
#
#
# Elastic Compliance Matrix: (Units=1/GPa)
#
#
# Indices 1 2 3 4 5 6 
#
# 1 0.012694 0.002907 0.001639 0.000000 0.000000 0.000000
# 2 0.002907 0.021802 0.001815 0.000000 0.000000 0.000000
# 3 0.001639 0.001815 0.010449 0.000000 0.000000 0.000000
# 4 0.000000 0.000000 0.000000 0.029277 0.000000 0.000000
# 5 0.000000 0.000000 0.000000 0.000000 2.529942 0.000000
# 6 0.000000 0.000000 0.000000 0.000000 0.000000 0.023443
#
#
# Mechanical properties :
#
#
# Convention : Reuss Voigt Hill
#
# Bulk Modulus (GPa) = 17.34053 19.21656 18.27855
# Shear Modulus (GPa) = 1.89818 32.56852 17.23335
#
# Velocity S-wave (km/s) = 0.88099 3.64925 2.65454
# Velocity P-wave (km/s) = 2.85049 5.06099 4.10724
#
# Compressibility (1/GPa) = 0.05766835
#
# Stress axis : x y z
#
# Youngs Moduli (GPa) = 78.77446 45.86708 95.70016
#
# Poissons Ratio (x) = -0.13334 -0.15685
# Poissons Ratio (y) = -0.22901 -0.17370
# Poissons Ratio (z) = -0.12911 -0.08325
#
# Static dielectric constant tensor:
#      x y z
#    x 1.890760 0.000000 0.000000 
#    y 0.000000 2.058670 0.000000 
#    z 0.000000 0.000000 1.895950 
# 
# From -- ./inp_files/17078.got.cif
#   From: 2010.05.17/outbox.cif.g08.bks.cpg/sg55_9_cif.got.tgz:17078.got - 2010.06.03 13:27:54.
