data_PCOD9427804
_publ_section_title
;
Structure prediction by ZEFSAII (Michael W. Deem and Ramdas Pophale) SiO2 
 PCOD9427804
Probable space group: P B A M
;
_chemical_formula_sum "Si O2"
_cell_formula_units_Z 64
_cell_length_a 11.209904
_cell_length_b 32.877744
_cell_length_c 8.961677
_cell_angle_alpha 90.000000
_cell_angle_beta 90.000000
_cell_angle_gamma 90.000000
_cell_volume 3302.883001
_symmetry_space_group_name_H-M "P B A M"
_symmetry_group_IT_number 55
_symmetry_cell_setting 'orthorhombic'
loop_
_space_group_symop_operation_xyz
x,y,z
-x,-y,z
1/2+x,1/2-y,-z
1/2-x,1/2+y,-z
-x,-y,-z
x,y,-z
1/2-x,1/2+y,z
1/2+x,1/2-y,z
loop_
_atom_site_type_symbol
_atom_site_label
_atom_site_fract_x
_atom_site_fract_y
_atom_site_fract_z
Si Si1 0.653297 0.099326 0.172952
Si Si2 0.524725 0.177957 0.169427
Si Si3 0.370948 0.337452 0.823830
Si Si4 0.132713 0.486399 0.321059
Si Si5 0.783228 0.729949 0.324626
Si Si6 0.116089 0.026275 0.681803
Si Si7 0.746087 0.313939 0.829005
Si Si8 0.098791 0.120556 0.321279
O O1 0.543489 0.130095 0.198090
O O2 0.767385 0.128536 0.195746
O O3 0.650756 0.060435 0.276578
O O4 0.652844 0.086056 0.000000
O O5 0.600116 0.203664 0.285614
O O6 0.388240 0.189472 0.170925
O O7 0.573774 0.185113 0.000000
O O8 0.323209 0.295545 0.753314
O O9 0.485687 0.355252 0.742653
O O10 0.391468 0.332112 0.000000
O O11 0.130882 0.490836 0.500000
O O12 0.253257 0.509914 0.268221
O O13 0.000000 0.500000 0.266377
O O14 0.762549 0.732703 0.500000
O O15 0.800805 0.774165 0.254278
O O16 0.116669 0.024431 0.500000
O O17 0.098854 0.073334 0.724925
O O18 0.000000 0.000000 0.730900
O O19 0.709498 0.354850 0.745143
O O20 0.703517 0.315019 0.000000
O O21 0.098786 0.122077 0.500000
#
# Coordination Sequence:
#
# PCOD9427804 Si02
#       8
#     8   8   8   8   8   8   8   8
#     4   9  19  37  60  86 114 150 198 246 291 350
#     4   9  21  41  62  84 116 159 202 242 298 363
#     4  10  21  40  63  87 120 159 199 242 297 363
#     4  10  21  35  56  86 118 156 199 244 302 369
#     4  11  23  39  62  91 120 152 200 253 297 350
#     4   9  19  37  59  85 121 160 197 247 310 370
#     4  11  24  41  61  84 120 164 200 243 303 364
#     4  11  23  38  61  91 122 156 202 254 304 355
#
# _framework density 19.377009999999999
#
# number of rings (size 3 to 8) (size 9 to 14) (size 15 to 20)
#    0.000    2.000    0.000    3.750    3.500    4.750 
#    0.000    1.250    0.000    3.375    0.000    0.000 
#    0.000    0.000    0.000    0.000    0.000    0.000 
#
# Total GULP energy -357248.699466 kJ/mol
# GULP energy per Si atom -5582.010929 kJ/mol
# Density = 1.933291 g / cm^3
# Si number density = 19.377010 Si / 1000 Ang^3
#
#
#
# Elastic Constant Matrix: (Units=GPa)
#
#
# Indices 1 2 3 4 5 6 
#
# 1 74.9530 22.3712 20.3724 0.0000 0.0000 0.0000
# 2 22.3712 95.2710 35.2400 0.0000 0.0000 0.0000
# 3 20.3724 35.2400 71.2297 0.0000 0.0000 0.0000
# 4 0.0000 0.0000 0.0000 23.7524 0.0000 0.0000
# 5 0.0000 0.0000 0.0000 0.0000 21.9175 0.0000
# 6 0.0000 0.0000 0.0000 0.0000 0.0000 20.8267
#
#
#
# Elastic Compliance Matrix: (Units=1/GPa)
#
#
# Indices 1 2 3 4 5 6 
#
# 1 0.014884 -0.002351 -0.003094 0.000000 0.000000 0.000000
# 2 -0.002351 0.013219 -0.005867 0.000000 0.000000 0.000000
# 3 -0.003094 -0.005867 0.017827 0.000000 0.000000 0.000000
# 4 0.000000 0.000000 0.000000 0.042101 0.000000 0.000000
# 5 0.000000 0.000000 0.000000 0.000000 0.045626 0.000000
# 6 0.000000 0.000000 0.000000 0.000000 0.000000 0.048015
#
#
# Mechanical properties :
#
#
# Convention : Reuss Voigt Hill
#
# Bulk Modulus (GPa) = 42.90840 44.15787 43.53314
# Shear Modulus (GPa) = 23.57769 24.19730 23.88750
#
# Velocity S-wave (km/s) = 3.49203 3.53762 3.51490
# Velocity P-wave (km/s) = 6.20089 6.28686 6.24402
#
# Compressibility (1/GPa) = 0.02330546
#
# Stress axis : x y z
#
# Youngs Moduli (GPa) = 67.18509 75.65058 56.09497
#
# Poissons Ratio (x) = 0.17782 0.17356
# Poissons Ratio (y) = 0.15792 0.32914
# Poissons Ratio (z) = 0.20788 0.44388
#
# Static dielectric constant tensor:
#      x y z
#    x 1.723830 0.000000 0.000000 
#    y 0.000000 1.654410 0.000000 
#    z 0.000000 0.000000 1.658260 
# 
# From -- ./inp_files/4685.got.cif
#   From: 2010.05.17/outbox.cif.g08.bks.cpg/sg55_3_cif.got.tgz:4685.got - 2010.06.03 13:27:54.
