data_PCOD9427047
_publ_section_title
;
Structure prediction by ZEFSAII (Michael W. Deem and Ramdas Pophale) SiO2 
 PCOD9427047
Probable space group: P B A M
;
_chemical_formula_sum "Si O2"
_cell_formula_units_Z 64
_cell_length_a 13.617667
_cell_length_b 12.422675
_cell_length_c 17.000697
_cell_angle_alpha 90.000000
_cell_angle_beta 90.000000
_cell_angle_gamma 90.000000
_cell_volume 2875.971384
_symmetry_space_group_name_H-M "P B A M"
_symmetry_group_IT_number 55
_symmetry_cell_setting 'orthorhombic'
loop_
_space_group_symop_operation_xyz
x,y,z
-x,-y,z
1/2+x,1/2-y,-z
1/2-x,1/2+y,-z
-x,-y,-z
x,y,-z
1/2-x,1/2+y,z
1/2+x,1/2-y,z
loop_
_atom_site_type_symbol
_atom_site_label
_atom_site_fract_x
_atom_site_fract_y
_atom_site_fract_z
Si Si1 0.233310 0.342035 0.716519
Si Si2 0.238991 0.527895 0.169666
Si Si3 0.297193 0.495217 0.589272
Si Si4 0.927798 0.332697 0.909209
Si Si5 0.890522 0.859649 0.285834
Si Si6 0.934034 0.265013 0.254066
Si Si7 0.913438 0.074124 0.911666
Si Si8 0.421667 0.097211 0.411861
O O1 0.194837 0.446089 0.765050
O O2 0.281349 0.385819 0.636793
O O3 0.147233 0.260633 0.697403
O O4 0.321786 0.275459 0.758316
O O5 0.169316 0.597631 0.112993
O O6 0.318099 0.598300 0.217913
O O7 0.306921 0.448933 0.120972
O O8 0.327175 0.479781 0.500000
O O9 0.372386 0.566471 0.639328
O O10 0.190188 0.553073 0.590889
O O11 0.974014 0.336879 0.819710
O O12 0.927560 0.202359 0.913374
O O13 0.958983 0.365084 0.000000
O O14 0.001600 0.842748 0.260381
O O15 0.934586 0.327213 0.336446
O O16 0.907397 0.033369 0.000000
O O17 0.000000 0.000000 0.875488
O O18 0.435636 0.145767 0.500000
O O19 0.500000 0.000000 0.405964
#
# Coordination Sequence:
#
# PCOD9427047 Si02
#       8
#     8   8   8   8   8   8   8   8
#     4  11  22  40  61  92 125 172 223 266 342 412
#     4  11  20  37  61  86 126 166 215 275 335 403
#     4  10  22  39  61  92 132 166 213 279 337 400
#     4  11  23  41  63  94 133 173 226 287 343 411
#     4  11  23  38  64  91 124 173 221 272 338 408
#     4  12  22  40  65  91 129 176 216 279 336 408
#     4  10  20  35  58  88 120 160 216 276 338 408
#     4  10  21  40  66  96 127 171 227 276 330 406
#
# _framework density 22.253350999999999
#
# number of rings (size 3 to 8) (size 9 to 14) (size 15 to 20)
#    0.000    1.250    3.750    2.625    0.000    3.000 
#    0.000    1.250    0.000    2.625    0.000    0.000 
#    0.000    0.000    0.000    0.000    0.000    0.000 
#
# Total GULP energy -356582.191497 kJ/mol
# GULP energy per Si atom -5571.596742 kJ/mol
# Density = 2.220270 g / cm^3
# Si number density = 22.253351 Si / 1000 Ang^3
#
#
#
# Elastic Constant Matrix: (Units=GPa)
#
#
# Indices 1 2 3 4 5 6 
#
# 1 34.2202 2.3835 1.1992 0.0000 0.0000 0.0000
# 2 2.3835 48.1791 18.2703 0.0000 0.0000 0.0000
# 3 1.1992 18.2703 160.9879 0.0000 0.0000 0.0000
# 4 0.0000 0.0000 0.0000 34.1056 0.0000 0.0000
# 5 0.0000 0.0000 0.0000 0.0000 -169.7803 0.0000
# 6 0.0000 0.0000 0.0000 0.0000 0.0000 30.9529
#
#
#
# Elastic Compliance Matrix: (Units=1/GPa)
#
#
# Indices 1 2 3 4 5 6 
#
# 1 0.029324 -0.001429 -0.000056 0.000000 0.000000 0.000000
# 2 -0.001429 0.021759 -0.002459 0.000000 0.000000 0.000000
# 3 -0.000056 -0.002459 0.006491 0.000000 0.000000 0.000000
# 4 0.000000 0.000000 0.000000 0.029321 0.000000 0.000000
# 5 0.000000 0.000000 0.000000 0.000000 -0.005890 0.000000
# 6 0.000000 0.000000 0.000000 0.000000 0.000000 0.032307
#
#
# Mechanical properties :
#
#
# Convention : Reuss Voigt Hill
#
# Bulk Modulus (GPa) = 20.12663 31.89923 26.01293
# Shear Modulus (GPa) = 36.29433 -6.17541 15.05946
#
# Velocity S-wave (km/s) = 4.04290 -1.66765 2.60422
# Velocity P-wave (km/s) = 5.55493 3.26460 4.55603
#
# Compressibility (1/GPa) = 0.04968543
#
# Stress axis : x y z
#
# Youngs Moduli (GPa) = 34.10170 45.95797 154.05690
#
# Poissons Ratio (x) = 0.06569 0.00866
# Poissons Ratio (y) = 0.04875 0.37879
# Poissons Ratio (z) = 0.00192 0.11300
#
# Static dielectric constant tensor:
#      x y z
#    x 1.883390 0.000000 0.000000 
#    y 0.000000 1.852100 0.000000 
#    z 0.000000 0.000000 1.888240 
# 
# From -- ./inp_files/21667.got.cif
#   From: 2010.05.17/outbox.cif.g08.bks.cpg/sg55_11_cif.got.tgz:21667.got - 2010.06.03 13:27:54.
