data_PCOD9427304
_publ_section_title
;
Structure prediction by ZEFSAII (Michael W. Deem and Ramdas Pophale) SiO2 
 PCOD9427304
Probable space group: P B A M
;
_chemical_formula_sum "Si O2"
_cell_formula_units_Z 48
_cell_length_a 8.645011
_cell_length_b 17.026213
_cell_length_c 15.333637
_cell_angle_alpha 90.000000
_cell_angle_beta 90.000000
_cell_angle_gamma 90.000000
_cell_volume 2256.985610
_symmetry_space_group_name_H-M "P B A M"
_symmetry_group_IT_number 55
_symmetry_cell_setting 'orthorhombic'
loop_
_space_group_symop_operation_xyz
x,y,z
-x,-y,z
1/2+x,1/2-y,-z
1/2-x,1/2+y,-z
-x,-y,-z
x,y,-z
1/2-x,1/2+y,z
1/2+x,1/2-y,z
loop_
_atom_site_type_symbol
_atom_site_label
_atom_site_fract_x
_atom_site_fract_y
_atom_site_fract_z
Si Si1 0.787082 0.336996 0.000000
Si Si2 0.343893 0.839211 0.809526
Si Si3 0.876216 0.939512 0.341167
Si Si4 0.217651 0.661625 0.809100
Si Si5 0.517523 0.840600 0.500000
Si Si6 0.840864 0.659773 0.000000
Si Si7 0.870150 0.557125 0.653177
Si Si8 0.109307 0.164686 0.500000
O O1 0.739089 0.370194 0.905980
O O2 0.726509 0.247696 0.000000
O O3 0.973161 0.335768 0.000000
O O4 0.278648 0.751102 0.802286
O O5 0.531209 0.836422 0.803117
O O6 0.298273 0.873410 0.904857
O O7 0.292566 0.892020 0.728959
O O8 0.792404 0.889632 0.266711
O O9 0.943467 0.881346 0.413709
O O10 0.751787 0.996906 0.387392
O O11 0.000000 0.000000 0.304004
O O12 0.451956 0.887074 0.416468
O O13 0.703187 0.836025 0.500000
O O14 0.451878 0.752768 0.500000
O O15 0.000000 0.500000 0.693984
#
# Coordination Sequence:
#
# PCOD9427304 Si02
#       8
#     4   8   8   8   4   4   8   4
#     4   8  16  32  58  82 118 153 197 249 291 341
#     4  10  20  36  62  87 120 157 204 247 296 352
#     4  12  27  42  62  88 126 158 199 244 300 354
#     4  10  20  38  60  90 118 158 204 247 294 353
#     4  12  26  43  70  91 119 154 199 243 293 354
#     4   8  16  32  54  87 114 153 199 248 291 345
#     4  12  23  43  62  86 122 161 191 240 301 356
#     4  12  26  46  66  95 117 153 201 243 291 356
#
# _framework density 21.267302999999998
#
# number of rings (size 3 to 8) (size 9 to 14) (size 15 to 20)
#    0.000    1.333    3.333    2.000    4.667    0.000 
#    0.000    1.667    0.000    0.000    0.000    0.000 
#    0.000    0.000    0.000    0.000    0.000    0.000 
#
# Total GULP energy -268058.688175 kJ/mol
# GULP energy per Si atom -5584.556004 kJ/mol
# Density = 2.121890 g / cm^3
# Si number density = 21.267303 Si / 1000 Ang^3
#
#
#
# Elastic Constant Matrix: (Units=GPa)
#
#
# Indices 1 2 3 4 5 6 
#
# 1 17.4192 19.1474 -1.0792 0.0000 0.0000 0.0000
# 2 19.1474 100.8537 49.8858 0.0000 0.0000 0.0000
# 3 -1.0792 49.8858 133.7122 0.0000 0.0000 0.0000
# 4 0.0000 0.0000 0.0000 -75.1220 0.0000 0.0000
# 5 0.0000 0.0000 0.0000 0.0000 9.9655 0.0000
# 6 0.0000 0.0000 0.0000 0.0000 0.0000 25.2842
#
#
#
# Elastic Compliance Matrix: (Units=1/GPa)
#
#
# Indices 1 2 3 4 5 6 
#
# 1 0.078350 -0.018625 0.007581 0.000000 0.000000 0.000000
# 2 -0.018625 0.016587 -0.006338 0.000000 0.000000 0.000000
# 3 0.007581 -0.006338 0.009905 0.000000 0.000000 0.000000
# 4 0.000000 0.000000 0.000000 -0.013312 0.000000 0.000000
# 5 0.000000 0.000000 0.000000 0.000000 0.100346 0.000000
# 6 0.000000 0.000000 0.000000 0.000000 0.000000 0.039550
#
#
# Mechanical properties :
#
#
# Convention : Reuss Voigt Hill
#
# Bulk Modulus (GPa) = 14.27007 43.09921 28.68464
# Shear Modulus (GPa) = 17.26819 4.29430 10.78125
#
# Velocity S-wave (km/s) = 2.85258 1.42253 2.25398
# Velocity P-wave (km/s) = 4.19214 4.79662 4.50453
#
# Compressibility (1/GPa) = 0.07007676
#
# Stress axis : x y z
#
# Youngs Moduli (GPa) = 12.76322 60.28974 100.96193
#
# Poissons Ratio (x) = 1.12289 -0.76539
# Poissons Ratio (y) = 0.23771 0.63995
# Poissons Ratio (z) = -0.09676 0.38215
#
# Static dielectric constant tensor:
#      x y z
#    x 1.784780 0.000000 0.000000 
#    y 0.000000 1.707500 0.000000 
#    z 0.000000 0.000000 1.799840 
# 
# From -- ./inp_files/17439.got.cif
#   From: 2010.05.17/outbox.cif.g08.bks.cpg/sg55_9_cif.got.tgz:17439.got - 2010.06.03 13:27:54.
