data_PCOD9427961
_publ_section_title
;
Structure prediction by ZEFSAII (Michael W. Deem and Ramdas Pophale) SiO2 
 PCOD9427961
Probable space group: P B A M
;
_chemical_formula_sum "Si O2"
_cell_formula_units_Z 40
_cell_length_a 18.591129
_cell_length_b 13.460996
_cell_length_c 9.038681
_cell_angle_alpha 90.000000
_cell_angle_beta 90.000000
_cell_angle_gamma 90.000000
_cell_volume 2261.976136
_symmetry_space_group_name_H-M "P B A M"
_symmetry_group_IT_number 55
_symmetry_cell_setting 'orthorhombic'
loop_
_space_group_symop_operation_xyz
x,y,z
-x,-y,z
1/2+x,1/2-y,-z
1/2-x,1/2+y,-z
-x,-y,-z
x,y,-z
1/2-x,1/2+y,z
1/2+x,1/2-y,z
loop_
_atom_site_type_symbol
_atom_site_label
_atom_site_fract_x
_atom_site_fract_y
_atom_site_fract_z
Si Si1 0.955887 0.597560 0.676938
Si Si2 0.482971 0.314254 0.323991
Si Si3 0.814420 0.674566 0.175861
Si Si4 0.670854 0.594219 0.677023
Si Si5 0.123249 0.106882 0.175649
O O1 0.943014 0.592354 0.500000
O O2 0.001042 0.698256 0.705602
O O3 0.000000 0.500000 0.721302
O O4 0.880288 0.610302 0.759167
O O5 0.493578 0.331222 0.500000
O O6 0.402348 0.346110 0.286340
O O7 0.542621 0.376883 0.236641
O O8 0.740440 0.644811 0.252635
O O9 0.835463 0.789457 0.204648
O O10 0.809440 0.660601 0.000000
O O11 0.677852 0.590795 0.500000
O O12 0.660161 0.484253 0.741725
O O13 0.121991 0.089598 0.000000
#
# Coordination Sequence:
#
# PCOD9427961 Si02
#       5
#     8   8   8   8   8
#     4   9  18  35  58  81 107 142 182 222 267 321
#     4   9  19  35  54  79 108 138 178 223 267 321
#     4  10  22  38  54  78 111 143 178 222 272 322
#     4  11  22  35  55  81 109 143 181 223 270 320
#     4  10  21  37  56  78 107 142 178 221 272 323
#
# _framework density 17.683651999999999
#
# number of rings (size 3 to 8) (size 9 to 14) (size 15 to 20)
#    0.000    2.200    0.000    2.400    0.000    8.400 
#    0.000    2.000    0.000    0.000    0.000    0.000 
#    0.000    0.000    0.000    0.000    0.000    0.000 
#
# Total GULP energy -223378.083101 kJ/mol
# GULP energy per Si atom -5584.452078 kJ/mol
# Density = 1.764340 g / cm^3
# Si number density = 17.683652 Si / 1000 Ang^3
#
#
#
# Elastic Constant Matrix: (Units=GPa)
#
#
# Indices 1 2 3 4 5 6 
#
# 1 183.6122 86.0440 89.4364 0.0000 0.0000 0.0000
# 2 86.0440 80.7523 61.0777 0.0000 0.0000 0.0000
# 3 89.4364 61.0777 67.6196 0.0000 0.0000 0.0000
# 4 0.0000 0.0000 0.0000 27.8107 0.0000 0.0000
# 5 0.0000 0.0000 0.0000 0.0000 -14.0087 0.0000
# 6 0.0000 0.0000 0.0000 0.0000 0.0000 24.1754
#
#
#
# Elastic Compliance Matrix: (Units=1/GPa)
#
#
# Indices 1 2 3 4 5 6 
#
# 1 0.015567 -0.003201 -0.017698 0.000000 0.000000 0.000000
# 2 -0.003201 0.039746 -0.031667 0.000000 0.000000 0.000000
# 3 -0.017698 -0.031667 0.066801 0.000000 0.000000 0.000000
# 4 0.000000 0.000000 0.000000 0.035957 0.000000 0.000000
# 5 0.000000 0.000000 0.000000 0.000000 -0.071384 0.000000
# 6 0.000000 0.000000 0.000000 0.000000 0.000000 0.041364
#
#
# Mechanical properties :
#
#
# Convention : Reuss Voigt Hill
#
# Bulk Modulus (GPa) = 58.88969 89.45557 74.17263
# Shear Modulus (GPa) = 20.93422 13.95721 17.44571
#
# Velocity S-wave (km/s) = 3.44440 2.81245 3.14434
# Velocity P-wave (km/s) = 7.01374 7.82578 7.43086
#
# Compressibility (1/GPa) = 0.01698090
#
# Stress axis : x y z
#
# Youngs Moduli (GPa) = 64.23849 25.16004 14.96992
#
# Poissons Ratio (x) = 0.08053 0.26494
# Poissons Ratio (y) = 0.20561 0.47405
# Poissons Ratio (z) = 1.13692 0.79674
#
# Static dielectric constant tensor:
#      x y z
#    x 1.567810 0.000000 0.000000 
#    y 0.000000 1.593820 0.000000 
#    z 0.000000 0.000000 1.588460 
# 
# From -- ./inp_files/3612.got.cif
#   From: 2010.05.17/outbox.cif.g08.bks.cpg/sg55_2_cif.got.tgz:3612.got - 2010.06.03 13:27:54.
