data_PCOD9427029
_publ_section_title
;
Structure prediction by ZEFSAII (Michael W. Deem and Ramdas Pophale) SiO2 
 PCOD9427029
Probable space group: P B A M
;
_chemical_formula_sum "Si O2"
_cell_formula_units_Z 56
_cell_length_a 21.393558
_cell_length_b 14.627032
_cell_length_c 8.522827
_cell_angle_alpha 90.000000
_cell_angle_beta 90.000000
_cell_angle_gamma 90.000000
_cell_volume 2666.999310
_symmetry_space_group_name_H-M "P B A M"
_symmetry_group_IT_number 55
_symmetry_cell_setting 'orthorhombic'
loop_
_space_group_symop_operation_xyz
x,y,z
-x,-y,z
1/2+x,1/2-y,-z
1/2-x,1/2+y,-z
-x,-y,-z
x,y,-z
1/2-x,1/2+y,z
1/2+x,1/2-y,z
loop_
_atom_site_type_symbol
_atom_site_label
_atom_site_fract_x
_atom_site_fract_y
_atom_site_fract_z
Si Si1 0.394345 0.289499 0.689768
Si Si2 0.587964 0.014880 0.820397
Si Si3 0.678489 0.374143 0.683140
Si Si4 0.736466 0.720580 0.816632
Si Si5 0.719086 0.033946 0.677527
Si Si6 0.928096 0.005940 0.691475
Si Si7 0.493855 0.143634 0.316374
O O1 0.388888 0.284681 0.500000
O O2 0.332277 0.245664 0.763912
O O3 0.400332 0.395517 0.737817
O O4 0.457130 0.234636 0.733287
O O5 0.661140 0.018532 0.791135
O O6 0.554848 0.110781 0.776596
O O7 0.555909 0.938174 0.712145
O O8 0.574211 0.991742 0.000000
O O9 0.670662 0.346577 0.500000
O O10 0.708906 0.291856 0.777848
O O11 0.729453 0.455313 0.687876
O O12 0.614619 0.420782 0.741986
O O13 0.749237 0.629772 0.717383
O O14 0.735607 0.699558 0.000000
O O15 0.694237 0.035371 0.500000
O O16 0.926546 0.004598 0.500000
O O17 0.000000 0.000000 0.740605
O O18 0.509200 0.150797 0.500000
#
# Coordination Sequence:
#
# PCOD9427029 Si02
#       7
#     8   8   8   8   8   8   8
#     4  10  20  38  61  88 118 157 209 253 299 368
#     4  11  22  36  55  84 123 158 195 250 315 367
#     4  10  21  39  64  90 120 159 202 256 308 364
#     4  12  25  38  59  90 123 160 201 252 314 373
#     4  11  22  40  63  86 116 156 205 253 300 362
#     4   9  18  36  63  92 119 151 198 253 306 359
#     4  10  20  35  58  85 116 159 208 249 294 360
#
# _framework density 20.997381000000001
#
# number of rings (size 3 to 8) (size 9 to 14) (size 15 to 20)
#    0.000    1.571    1.429    5.143    0.000    6.857 
#    0.000    2.857    0.000    1.714    0.000    0.000 
#    0.000    0.000    0.000    0.000    0.000    0.000 
#
# Total GULP energy -312984.512420 kJ/mol
# GULP energy per Si atom -5589.009150 kJ/mol
# Density = 2.094959 g / cm^3
# Si number density = 20.997381 Si / 1000 Ang^3
#
#
#
# Elastic Constant Matrix: (Units=GPa)
#
#
# Indices 1 2 3 4 5 6 
#
# 1 83.5807 -14.8107 -0.0095 0.0000 0.0000 0.0000
# 2 -14.8107 27.8454 -5.9609 0.0000 0.0000 0.0000
# 3 -0.0095 -5.9609 24.3728 0.0000 0.0000 0.0000
# 4 0.0000 0.0000 0.0000 -55.8815 0.0000 0.0000
# 5 0.0000 0.0000 0.0000 0.0000 -22.4977 0.0000
# 6 0.0000 0.0000 0.0000 0.0000 0.0000 32.0088
#
#
#
# Elastic Compliance Matrix: (Units=1/GPa)
#
#
# Indices 1 2 3 4 5 6 
#
# 1 0.013286 0.007458 0.001829 0.000000 0.000000 0.000000
# 2 0.007458 0.042084 0.010295 0.000000 0.000000 0.000000
# 3 0.001829 0.010295 0.043548 0.000000 0.000000 0.000000
# 4 0.000000 0.000000 0.000000 -0.017895 0.000000 0.000000
# 5 0.000000 0.000000 0.000000 0.000000 -0.044449 0.000000
# 6 0.000000 0.000000 0.000000 0.000000 0.000000 0.031241
#
#
# Mechanical properties :
#
#
# Convention : Reuss Voigt Hill
#
# Bulk Modulus (GPa) = 7.24194 10.47075 8.85634
# Shear Modulus (GPa) = 66.95474 1.16458 34.05966
#
# Velocity S-wave (km/s) = 5.65300 0.74554 4.03189
# Velocity P-wave (km/s) = 6.78712 2.39554 5.08938
#
# Compressibility (1/GPa) = 0.13808448
#
# Stress axis : x y z
#
# Youngs Moduli (GPa) = 75.26522 23.76220 22.96312
#
# Poissons Ratio (x) = -0.17723 -0.04201
# Poissons Ratio (y) = -0.56136 -0.23641
# Poissons Ratio (z) = -0.13768 -0.24464
#
# Static dielectric constant tensor:
#      x y z
#    x 1.762710 0.000000 0.000000 
#    y 0.000000 1.759330 0.000000 
#    z 0.000000 0.000000 1.729390 
# 
# From -- ./inp_files/8751.got.cif
#   From: 2010.05.17/outbox.cif.g08.bks.cpg/sg55_5_cif.got.tgz:8751.got - 2010.06.03 13:27:54.
