data_PCOD9427437
_publ_section_title
;
Structure prediction by ZEFSAII (Michael W. Deem and Ramdas Pophale) SiO2 
 PCOD9427437
Probable space group: P B A M
;
_chemical_formula_sum "Si O2"
_cell_formula_units_Z 64
_cell_length_a 24.206515
_cell_length_b 15.910934
_cell_length_c 7.693187
_cell_angle_alpha 90.000000
_cell_angle_beta 90.000000
_cell_angle_gamma 90.000000
_cell_volume 2963.017606
_symmetry_space_group_name_H-M "P B A M"
_symmetry_group_IT_number 55
_symmetry_cell_setting 'orthorhombic'
loop_
_space_group_symop_operation_xyz
x,y,z
-x,-y,z
1/2+x,1/2-y,-z
1/2-x,1/2+y,-z
-x,-y,-z
x,y,-z
1/2-x,1/2+y,z
1/2+x,1/2-y,z
loop_
_atom_site_type_symbol
_atom_site_label
_atom_site_fract_x
_atom_site_fract_y
_atom_site_fract_z
Si Si1 0.950296 0.254294 0.297194
Si Si2 0.363112 0.652207 0.293651
Si Si3 0.676212 0.744598 0.204064
Si Si4 0.518753 0.409907 0.795053
Si Si5 0.756765 0.403264 0.800184
Si Si6 0.139439 0.346760 0.291848
Si Si7 0.743533 0.588581 0.800608
Si Si8 0.523695 0.089235 0.287232
O O1 0.940541 0.270930 0.500000
O O2 0.889645 0.246185 0.216670
O O3 0.986249 0.332529 0.227591
O O4 0.985857 0.169281 0.281332
O O5 0.355788 0.640536 0.500000
O O6 0.416021 0.600674 0.233204
O O7 0.305715 0.630048 0.204312
O O8 0.375480 0.749910 0.261681
O O9 0.704414 0.829805 0.277556
O O10 0.701928 0.657890 0.278288
O O11 0.692274 0.743762 0.000000
O O12 0.500000 0.500000 0.723976
O O13 0.506754 0.408249 0.000000
O O14 0.752603 0.496396 0.718847
O O15 0.776009 0.415349 0.000000
O O16 0.147286 0.357624 0.500000
O O17 0.196533 0.368978 0.202568
O O18 0.087076 0.400273 0.232839
O O19 0.724611 0.573179 0.000000
O O20 0.524098 0.092294 0.500000
O O21 0.500000 0.000000 0.233033
#
# Coordination Sequence:
#
# PCOD9427437 Si02
#       8
#     8   8   8   8   8   8   8   8
#     4  11  23  40  62  89 122 156 198 250 300 351
#     4  11  22  39  63  91 120 150 197 254 299 348
#     4  10  22  40  58  82 121 161 198 243 294 351
#     4  11  25  43  64  88 118 160 202 241 298 365
#     4  10  22  40  61  86 119 160 202 243 293 354
#     4  10  20  37  61  87 118 151 194 245 292 350
#     4  10  22  39  60  85 116 155 199 243 290 348
#     4   9  19  37  59  85 119 158 192 233 295 356
#
# _framework density 21.599601
#
# number of rings (size 3 to 8) (size 9 to 14) (size 15 to 20)
#    0.000    1.750    2.500    1.125    3.500    3.000 
#    0.000    0.000    0.000    1.875    0.000    0.000 
#    0.000    0.000    0.000    0.000    0.000    0.000 
#
# Total GULP energy -357458.003733 kJ/mol
# GULP energy per Si atom -5585.281308 kJ/mol
# Density = 2.155044 g / cm^3
# Si number density = 21.599601 Si / 1000 Ang^3
#
#
#
# Elastic Constant Matrix: (Units=GPa)
#
#
# Indices 1 2 3 4 5 6 
#
# 1 96.5492 7.9907 -13.4212 0.0000 0.0000 0.0000
# 2 7.9907 91.0341 6.1674 0.0000 0.0000 0.0000
# 3 -13.4212 6.1674 33.1287 0.0000 0.0000 0.0000
# 4 0.0000 0.0000 0.0000 -35.4499 0.0000 0.0000
# 5 0.0000 0.0000 0.0000 0.0000 14.0126 0.0000
# 6 0.0000 0.0000 0.0000 0.0000 0.0000 33.4343
#
#
#
# Elastic Compliance Matrix: (Units=1/GPa)
#
#
# Indices 1 2 3 4 5 6 
#
# 1 0.011125 -0.001298 0.004749 0.000000 0.000000 0.000000
# 2 -0.001298 0.011277 -0.002625 0.000000 0.000000 0.000000
# 3 0.004749 -0.002625 0.032598 0.000000 0.000000 0.000000
# 4 0.000000 0.000000 0.000000 -0.028209 0.000000 0.000000
# 5 0.000000 0.000000 0.000000 0.000000 0.071364 0.000000
# 6 0.000000 0.000000 0.000000 0.000000 0.000000 0.029909
#
#
# Mechanical properties :
#
#
# Convention : Reuss Voigt Hill
#
# Bulk Modulus (GPa) = 17.65230 24.68731 21.16981
# Shear Modulus (GPa) = 34.41220 17.06442 25.73831
#
# Velocity S-wave (km/s) = 3.99580 2.81380 3.45572
# Velocity P-wave (km/s) = 5.42944 4.69159 5.07395
#
# Compressibility (1/GPa) = 0.05664983
#
# Stress axis : x y z
#
# Youngs Moduli (GPa) = 89.88794 88.67838 30.67687
#
# Poissons Ratio (x) = 0.11512 -0.14567
# Poissons Ratio (y) = 0.11669 0.08054
# Poissons Ratio (z) = -0.42685 0.23281
#
# Static dielectric constant tensor:
#      x y z
#    x 1.728820 0.000000 0.000000 
#    y 0.000000 1.809060 0.000000 
#    z 0.000000 0.000000 1.808400 
# 
# From -- ./inp_files/9769.got.cif
#   From: 2010.05.17/outbox.cif.g08.bks.cpg/sg55_5_cif.got.tgz:9769.got - 2010.06.03 13:27:54.
