data_PCOD9427651
_publ_section_title
;
Structure prediction by ZEFSAII (Michael W. Deem and Ramdas Pophale) SiO2 
 PCOD9427651
Probable space group: P B A M
;
_chemical_formula_sum "Si O2"
_cell_formula_units_Z 40
_cell_length_a 9.128786
_cell_length_b 29.853599
_cell_length_c 7.831495
_cell_angle_alpha 90.000000
_cell_angle_beta 90.000000
_cell_angle_gamma 90.000000
_cell_volume 2134.294751
_symmetry_space_group_name_H-M "P B A M"
_symmetry_group_IT_number 55
_symmetry_cell_setting 'orthorhombic'
loop_
_space_group_symop_operation_xyz
x,y,z
-x,-y,z
1/2+x,1/2-y,-z
1/2-x,1/2+y,-z
-x,-y,-z
x,y,-z
1/2-x,1/2+y,z
1/2+x,1/2-y,z
loop_
_atom_site_type_symbol
_atom_site_label
_atom_site_fract_x
_atom_site_fract_y
_atom_site_fract_z
Si Si1 0.571275 0.045951 0.300303
Si Si2 0.923874 0.363526 0.809384
Si Si3 0.929994 0.298886 0.500000
Si Si4 0.074898 0.134788 0.800546
Si Si5 0.092548 0.956888 0.793812
Si Si6 0.922446 0.797527 0.500000
O O1 0.531381 0.049971 0.500000
O O2 0.508909 0.089946 0.210531
O O3 0.745309 0.043250 0.280887
O O4 0.500000 0.000000 0.233416
O O5 0.969982 0.328322 0.665638
O O6 0.750107 0.372606 0.786746
O O7 0.946138 0.345477 0.000000
O O8 0.753980 0.293134 0.500000
O O9 0.005375 0.250922 0.500000
O O10 0.035751 0.173830 0.668041
O O11 0.991948 0.089058 0.754120
O O12 0.043216 0.145462 0.000000
O O13 0.105542 0.959383 0.000000
O O14 0.000000 0.000000 0.736538
#
# Coordination Sequence:
#
# PCOD9427651 Si02
#       6
#     8   8   4   8   8   4
#     4  11  23  36  54  85 120 153 194 234 277 338
#     4  10  20  39  63  83 114 152 188 237 284 332
#     4  10  22  40  57  88 113 144 193 230 286 350
#     4   9  20  38  60  86 113 149 194 234 282 339
#     4  10  21  37  56  83 117 154 196 235 279 336
#     4  10  22  38  61  82 117 150 181 238 290 338
#
# _framework density 18.741553
#
# number of rings (size 3 to 8) (size 9 to 14) (size 15 to 20)
#    0.000    2.000    1.000    1.800    1.400    6.000 
#    0.000    0.000    0.000    0.000    0.000    0.000 
#    0.000    0.000    0.000    0.000    0.000    0.000 
#
# Total GULP energy -223447.209513 kJ/mol
# GULP energy per Si atom -5586.180238 kJ/mol
# Density = 1.869890 g / cm^3
# Si number density = 18.741553 Si / 1000 Ang^3
#
#
#
# Elastic Constant Matrix: (Units=GPa)
#
#
# Indices 1 2 3 4 5 6 
#
# 1 53.4105 62.8776 44.4451 0.0000 0.0000 0.0000
# 2 62.8776 170.0567 80.9995 0.0000 0.0000 0.0000
# 3 44.4451 80.9995 99.2244 0.0000 0.0000 0.0000
# 4 0.0000 0.0000 0.0000 -21.1721 0.0000 0.0000
# 5 0.0000 0.0000 0.0000 0.0000 14.2602 0.0000
# 6 0.0000 0.0000 0.0000 0.0000 0.0000 41.4742
#
#
#
# Elastic Compliance Matrix: (Units=1/GPa)
#
#
# Indices 1 2 3 4 5 6 
#
# 1 0.037458 -0.009585 -0.008954 0.000000 0.000000 0.000000
# 2 -0.009585 0.012074 -0.005563 0.000000 0.000000 0.000000
# 3 -0.008954 -0.005563 0.018630 0.000000 0.000000 0.000000
# 4 0.000000 0.000000 0.000000 -0.047232 0.000000 0.000000
# 5 0.000000 0.000000 0.000000 0.000000 0.070125 0.000000
# 6 0.000000 0.000000 0.000000 0.000000 0.000000 0.024111
#
#
# Mechanical properties :
#
#
# Convention : Reuss Voigt Hill
#
# Bulk Modulus (GPa) = 50.10469 77.70399 63.90434
# Shear Modulus (GPa) = 29.40781 15.87042 22.63911
#
# Velocity S-wave (km/s) = 3.96551 2.91315 3.47935
# Velocity P-wave (km/s) = 6.91084 7.27090 7.09315
#
# Compressibility (1/GPa) = 0.01995821
#
# Stress axis : x y z
#
# Youngs Moduli (GPa) = 26.69679 82.82160 53.67677
#
# Poissons Ratio (x) = 0.79385 0.48061
# Poissons Ratio (y) = 0.25589 0.29861
# Poissons Ratio (z) = 0.23904 0.46074
#
# Static dielectric constant tensor:
#      x y z
#    x 1.619710 0.000000 0.000000 
#    y 0.000000 1.599860 0.000000 
#    z 0.000000 0.000000 1.668840 
# 
# From -- ./inp_files/2361.got.cif
#   From: 2010.05.17/outbox.cif.g08.bks.cpg/sg55_2_cif.got.tgz:2361.got - 2010.06.03 13:27:54.
