data_PCOD9427071
_publ_section_title
;
Structure prediction by ZEFSAII (Michael W. Deem and Ramdas Pophale) SiO2 
 PCOD9427071
Probable space group: P B A M
;
_chemical_formula_sum "Si O2"
_cell_formula_units_Z 40
_cell_length_a 16.360242
_cell_length_b 6.748523
_cell_length_c 13.275957
_cell_angle_alpha 90.000000
_cell_angle_beta 90.000000
_cell_angle_gamma 90.000000
_cell_volume 1465.764817
_symmetry_space_group_name_H-M "P B A M"
_symmetry_group_IT_number 55
_symmetry_cell_setting 'orthorhombic'
loop_
_space_group_symop_operation_xyz
x,y,z
-x,-y,z
1/2+x,1/2-y,-z
1/2-x,1/2+y,-z
-x,-y,-z
x,y,-z
1/2-x,1/2+y,z
1/2+x,1/2-y,z
loop_
_atom_site_type_symbol
_atom_site_label
_atom_site_fract_x
_atom_site_fract_y
_atom_site_fract_z
Si Si1 0.090467 0.340058 0.325799
Si Si2 0.735619 0.687155 0.264938
Si Si3 0.556391 0.311689 0.888343
Si Si4 0.574407 0.706728 0.612700
Si Si5 0.743635 0.436444 0.890536
O O1 0.184850 0.281537 0.336206
O O2 0.066428 0.337827 0.205561
O O3 0.081290 0.553014 0.375474
O O4 0.023465 0.188269 0.368742
O O5 0.768383 0.442275 0.235153
O O6 0.645685 0.644835 0.309757
O O7 0.736217 0.687604 0.134703
O O8 0.500000 0.500000 0.862514
O O9 0.646616 0.398823 0.898094
O O10 0.531393 0.236280 0.000000
O O11 0.596310 0.648225 0.500000
O O12 0.786581 0.451872 0.000000
#
# Coordination Sequence:
#
# PCOD9427071 Si02
#       5
#     8   8   8   8   8
#     4  10  21  40  63  89 126 160 210 260 312 376
#     4  11  21  40  63  93 125 163 210 254 308 383
#     4   9  18  34  59  90 128 164 199 251 314 377
#     4  11  24  42  64  87 120 167 214 268 325 364
#     4  10  20  35  59  91 127 164 197 244 310 378
#
# _framework density 27.289508999999999
#
# number of rings (size 3 to 8) (size 9 to 14) (size 15 to 20)
#    0.000    1.800    2.000    3.000    0.000    2.400 
#    0.000    3.000    0.000    7.200    0.000    0.000 
#    0.000    0.000    0.000    0.000    0.000    0.000 
#
# Total GULP energy -223297.592660 kJ/mol
# GULP energy per Si atom -5582.439817 kJ/mol
# Density = 2.722740 g / cm^3
# Si number density = 27.289509 Si / 1000 Ang^3
#
#
#
# Elastic Constant Matrix: (Units=GPa)
#
#
# Indices 1 2 3 4 5 6 
#
# 1 151.2205 3.8281 43.7517 0.0000 0.0000 0.0000
# 2 3.8281 139.1185 13.5754 0.0000 0.0000 0.0000
# 3 43.7517 13.5754 153.1267 0.0000 0.0000 0.0000
# 4 0.0000 0.0000 0.0000 37.8336 0.0000 0.0000
# 5 0.0000 0.0000 0.0000 0.0000 29.3049 0.0000
# 6 0.0000 0.0000 0.0000 0.0000 0.0000 46.0161
#
#
#
# Elastic Compliance Matrix: (Units=1/GPa)
#
#
# Indices 1 2 3 4 5 6 
#
# 1 0.007209 0.000003 -0.002060 0.000000 0.000000 0.000000
# 2 0.000003 0.007251 -0.000644 0.000000 0.000000 0.000000
# 3 -0.002060 -0.000644 0.007176 0.000000 0.000000 0.000000
# 4 0.000000 0.000000 0.000000 0.026432 0.000000 0.000000
# 5 0.000000 0.000000 0.000000 0.000000 0.034124 0.000000
# 6 0.000000 0.000000 0.000000 0.000000 0.000000 0.021732
#
#
# Mechanical properties :
#
#
# Convention : Reuss Voigt Hill
#
# Bulk Modulus (GPa) = 61.59893 62.86402 62.23147
# Shear Modulus (GPa) = 43.57835 48.11831 45.84833
#
# Velocity S-wave (km/s) = 4.00045 4.20367 4.10331
# Velocity P-wave (km/s) = 6.63019 6.82986 6.73077
#
# Compressibility (1/GPa) = 0.01623405
#
# Stress axis : x y z
#
# Youngs Moduli (GPa) = 138.71967 137.91496 139.35014
#
# Poissons Ratio (x) = -0.00037 0.28705
# Poissons Ratio (y) = -0.00037 0.08968
# Poissons Ratio (z) = 0.28575 0.08876
#
# Static dielectric constant tensor:
#      x y z
#    x 1.968520 0.000000 0.000000 
#    y 0.000000 2.367420 0.000000 
#    z 0.000000 0.000000 2.132340 
# 
# From -- ./inp_files/8482.got.cif
#   From: 2010.05.17/outbox.cif.g08.bks.cpg/sg55_5_cif.got.tgz:8482.got - 2010.06.03 13:27:54.
