data_PCOD9427989
_publ_section_title
;
Structure prediction by ZEFSAII (Michael W. Deem and Ramdas Pophale) SiO2 
 PCOD9427989
Probable space group: P B A M
;
_chemical_formula_sum "Si O2"
_cell_formula_units_Z 56
_cell_length_a 13.670522
_cell_length_b 13.741382
_cell_length_c 15.029423
_cell_angle_alpha 90.000000
_cell_angle_beta 90.000000
_cell_angle_gamma 90.000000
_cell_volume 2823.305140
_symmetry_space_group_name_H-M "P B A M"
_symmetry_group_IT_number 55
_symmetry_cell_setting 'orthorhombic'
loop_
_space_group_symop_operation_xyz
x,y,z
-x,-y,z
1/2+x,1/2-y,-z
1/2-x,1/2+y,-z
-x,-y,-z
x,y,-z
1/2-x,1/2+y,z
1/2+x,1/2-y,z
loop_
_atom_site_type_symbol
_atom_site_label
_atom_site_fract_x
_atom_site_fract_y
_atom_site_fract_z
Si Si1 0.702292 0.580106 0.789070
Si Si2 0.748143 0.529258 0.403049
Si Si3 0.374644 0.167087 0.597478
Si Si4 0.724310 0.383641 0.105697
Si Si5 0.607637 0.773317 0.792808
Si Si6 0.601116 0.207847 0.405764
Si Si7 0.384782 0.773763 0.787097
O O1 0.688309 0.541742 0.687863
O O2 0.705853 0.489593 0.854399
O O3 0.622584 0.660451 0.816299
O O4 0.805812 0.639311 0.792963
O O5 0.697098 0.525068 0.500000
O O6 0.817738 0.434477 0.396478
O O7 0.820327 0.621955 0.405578
O O8 0.348689 0.211331 0.500000
O O9 0.355196 0.221892 0.689771
O O10 0.492845 0.160150 0.597086
O O11 0.824139 0.341117 0.147984
O O12 0.644295 0.308602 0.143710
O O13 0.727499 0.383774 0.000000
O O14 0.496107 0.806035 0.800049
O O15 0.608452 0.262491 0.500000
O O16 0.617046 0.266009 0.314943
#
# Coordination Sequence:
#
# PCOD9427989 Si02
#       7
#     8   8   8   8   8   8   8
#     4  10  21  37  57  83 118 150 189 236 288 336
#     4   9  15  26  47  79 115 151 188 223 267 331
#     4   9  15  26  50  82 116 151 184 222 272 331
#     4  11  24  42  61  83 112 144 189 244 300 348
#     4  10  21  39  61  87 117 151 191 236 285 341
#     4   8  14  26  49  83 118 149 181 221 270 329
#     4   9  21  39  61  87 117 151 189 234 281 348
#
# _framework density 19.834909
#
# number of rings (size 3 to 8) (size 9 to 14) (size 15 to 20)
#    0.000    2.571    1.429    0.429    0.000    6.286 
#    0.000    4.286    0.000    0.000    0.000    5.000 
#    0.000    0.000    0.000    0.000    0.000    0.000 
#
# Total GULP energy -312204.911453 kJ/mol
# GULP energy per Si atom -5575.087705 kJ/mol
# Density = 1.978976 g / cm^3
# Si number density = 19.834909 Si / 1000 Ang^3
#
#
#
# Elastic Constant Matrix: (Units=GPa)
#
#
# Indices 1 2 3 4 5 6 
#
# 1 16.1999 -17.6852 -10.6930 0.0000 0.0000 0.0000
# 2 -17.6852 55.3637 45.6519 0.0000 0.0000 0.0000
# 3 -10.6930 45.6519 143.4851 0.0000 0.0000 0.0000
# 4 0.0000 0.0000 0.0000 16.9214 0.0000 0.0000
# 5 0.0000 0.0000 0.0000 0.0000 17.7844 0.0000
# 6 0.0000 0.0000 0.0000 0.0000 0.0000 4.8058
#
#
#
# Elastic Compliance Matrix: (Units=1/GPa)
#
#
# Indices 1 2 3 4 5 6 
#
# 1 0.096083 0.033604 -0.003531 0.000000 0.000000 0.000000
# 2 0.033604 0.036239 -0.009026 0.000000 0.000000 0.000000
# 3 -0.003531 -0.009026 0.009578 0.000000 0.000000 0.000000
# 4 0.000000 0.000000 0.000000 0.059097 0.000000 0.000000
# 5 0.000000 0.000000 0.000000 0.000000 0.056229 0.000000
# 6 0.000000 0.000000 0.000000 0.000000 0.000000 0.208080
#
#
# Mechanical properties :
#
#
# Convention : Reuss Voigt Hill
#
# Bulk Modulus (GPa) = 5.43494 27.73290 16.58392
# Shear Modulus (GPa) = 10.31899 21.08733 15.70316
#
# Velocity S-wave (km/s) = 2.28336 3.26412 2.81676
# Velocity P-wave (km/s) = 3.11411 5.31208 4.35407
#
# Compressibility (1/GPa) = 0.18399478
#
# Stress axis : x y z
#
# Youngs Moduli (GPa) = 10.40765 27.59444 104.40737
#
# Poissons Ratio (x) = -0.92729 0.36868
# Poissons Ratio (y) = -0.34974 0.94235
# Poissons Ratio (z) = 0.03675 0.24906
#
# Static dielectric constant tensor:
#      x y z
#    x 1.700570 0.000000 0.000000 
#    y 0.000000 1.677940 0.000000 
#    z 0.000000 0.000000 1.736020 
# 
# From -- ./inp_files/18967.got.cif
#   From: 2010.05.17/outbox.cif.g08.bks.cpg/sg55_10_cif.got.tgz:18967.got - 2010.06.03 13:27:54.
