data_PCOD9427263
_publ_section_title
;
Structure prediction by ZEFSAII (Michael W. Deem and Ramdas Pophale) SiO2 
 PCOD9427263
Probable space group: P B A M
;
_chemical_formula_sum "Si O2"
_cell_formula_units_Z 48
_cell_length_a 14.435448
_cell_length_b 20.521071
_cell_length_c 8.794314
_cell_angle_alpha 90.000000
_cell_angle_beta 90.000000
_cell_angle_gamma 90.000000
_cell_volume 2605.147141
_symmetry_space_group_name_H-M "P B A M"
_symmetry_group_IT_number 55
_symmetry_cell_setting 'orthorhombic'
loop_
_space_group_symop_operation_xyz
x,y,z
-x,-y,z
1/2+x,1/2-y,-z
1/2-x,1/2+y,-z
-x,-y,-z
x,y,-z
1/2-x,1/2+y,z
1/2+x,1/2-y,z
loop_
_atom_site_type_symbol
_atom_site_label
_atom_site_fract_x
_atom_site_fract_y
_atom_site_fract_z
Si Si1 0.444767 0.313751 0.683889
Si Si2 0.443664 0.816399 0.681168
Si Si3 0.750687 0.143181 0.182828
Si Si4 0.749371 0.991191 0.817324
Si Si5 0.942525 0.433107 0.177461
Si Si6 0.433852 0.562471 0.321695
O O1 0.435263 0.315672 0.500000
O O2 0.498511 0.247846 0.726019
O O3 0.343355 0.322790 0.754960
O O4 0.508920 0.374757 0.730855
O O5 0.430550 0.814725 0.500000
O O6 0.343312 0.823470 0.758491
O O7 0.504518 0.878486 0.729213
O O8 0.750439 0.066843 0.234434
O O9 0.751455 0.143964 0.000000
O O10 0.658995 0.952129 0.763711
O O11 0.841029 0.954042 0.767101
O O12 0.743456 0.993564 0.000000
O O13 0.000000 0.500000 0.180477
O O14 0.937173 0.412203 0.000000
O O15 0.500000 0.500000 0.308308
O O16 0.411312 0.571542 0.500000
#
# Coordination Sequence:
#
# PCOD9427263 Si02
#       6
#     8   8   8   8   8   8
#     4  10  23  42  60  86 123 158 196 246 299 350
#     4  11  24  40  61  89 124 160 197 245 300 359
#     4  11  22  39  63  88 117 157 200 243 301 361
#     4  10  21  36  59  89 119 153 193 249 301 343
#     4  10  20  39  61  85 120 155 197 250 295 346
#     4  10  20  36  60  86 114 153 196 242 292 350
#
# _framework density 18.425063000000002
#
# number of rings (size 3 to 8) (size 9 to 14) (size 15 to 20)
#    0.000    1.667    3.333    1.000    0.000    5.333 
#    0.000    5.000    0.000    0.000    0.000    0.000 
#    0.000    0.000    0.000    0.000    0.000    0.000 
#
# Total GULP energy -268072.108009 kJ/mol
# GULP energy per Si atom -5584.835584 kJ/mol
# Density = 1.838313 g / cm^3
# Si number density = 18.425063 Si / 1000 Ang^3
#
#
#
# Elastic Constant Matrix: (Units=GPa)
#
#
# Indices 1 2 3 4 5 6 
#
# 1 174.2827 71.6627 43.8327 0.0000 0.0000 0.0000
# 2 71.6627 122.6137 35.0072 0.0000 0.0000 0.0000
# 3 43.8327 35.0072 26.4680 0.0000 0.0000 0.0000
# 4 0.0000 0.0000 0.0000 33.0333 0.0000 0.0000
# 5 0.0000 0.0000 0.0000 0.0000 37.3368 0.0000
# 6 0.0000 0.0000 0.0000 0.0000 0.0000 26.6011
#
#
#
# Elastic Compliance Matrix: (Units=1/GPa)
#
#
# Indices 1 2 3 4 5 6 
#
# 1 0.010077 -0.001808 -0.014297 0.000000 0.000000 0.000000
# 2 -0.001808 0.013428 -0.014767 0.000000 0.000000 0.000000
# 3 -0.014297 -0.014767 0.080990 0.000000 0.000000 0.000000
# 4 0.000000 0.000000 0.000000 0.030273 0.000000 0.000000
# 5 0.000000 0.000000 0.000000 0.000000 0.026783 0.000000
# 6 0.000000 0.000000 0.000000 0.000000 0.000000 0.037592
#
#
# Mechanical properties :
#
#
# Convention : Reuss Voigt Hill
#
# Bulk Modulus (GPa) = 23.39113 69.37439 46.38276
# Shear Modulus (GPa) = 18.17277 30.91836 24.54556
#
# Velocity S-wave (km/s) = 3.14396 4.10086 3.65387
# Velocity P-wave (km/s) = 5.08941 7.75607 6.55968
#
# Compressibility (1/GPa) = 0.04275125
#
# Stress axis : x y z
#
# Youngs Moduli (GPa) = 99.23760 74.46985 12.34724
#
# Poissons Ratio (x) = 0.13461 0.17653
# Poissons Ratio (y) = 0.17938 0.18233
# Poissons Ratio (z) = 1.41882 1.09970
#
# Static dielectric constant tensor:
#      x y z
#    x 1.637720 0.000000 0.000000 
#    y 0.000000 1.618820 0.000000 
#    z 0.000000 0.000000 1.631860 
# 
# From -- ./inp_files/5658.got.cif
#   From: 2010.05.17/outbox.cif.g08.bks.cpg/sg55_3_cif.got.tgz:5658.got - 2010.06.03 13:27:54.
