data_PCOD9427957
_publ_section_title
;
Structure prediction by ZEFSAII (Michael W. Deem and Ramdas Pophale) SiO2 
 PCOD9427957
Probable space group: P B A M
;
_chemical_formula_sum "Si O2"
_cell_formula_units_Z 48
_cell_length_a 9.500995
_cell_length_b 18.099390
_cell_length_c 14.211649
_cell_angle_alpha 90.000000
_cell_angle_beta 90.000000
_cell_angle_gamma 90.000000
_cell_volume 2443.866625
_symmetry_space_group_name_H-M "P B A M"
_symmetry_group_IT_number 55
_symmetry_cell_setting 'orthorhombic'
loop_
_space_group_symop_operation_xyz
x,y,z
-x,-y,z
1/2+x,1/2-y,-z
1/2-x,1/2+y,-z
-x,-y,-z
x,y,-z
1/2-x,1/2+y,z
1/2+x,1/2-y,z
loop_
_atom_site_type_symbol
_atom_site_label
_atom_site_fract_x
_atom_site_fract_y
_atom_site_fract_z
Si Si1 0.798525 0.252392 0.305241
Si Si2 0.376910 0.093095 0.239467
Si Si3 0.165568 0.998019 0.110210
Si Si4 0.053565 0.159935 0.392278
Si Si5 0.782073 0.984583 0.387402
Si Si6 0.800517 0.604642 0.763254
O O1 0.845751 0.320027 0.240267
O O2 0.697662 0.292729 0.381120
O O3 0.704277 0.190685 0.256141
O O4 0.933224 0.205884 0.339811
O O5 0.264225 0.052601 0.171929
O O6 0.349216 0.061946 0.345145
O O7 0.539599 0.080394 0.219464
O O8 0.214378 0.917864 0.145083
O O9 0.186693 0.011022 0.000000
O O10 0.000000 0.000000 0.131293
O O11 0.010515 0.155800 0.500000
O O12 0.091901 0.074626 0.365003
O O13 0.779675 0.996278 0.500000
O O14 0.767665 0.059245 0.325594
#
# Coordination Sequence:
#
# PCOD9427957 Si02
#       6
#     8   8   8   8   8   8
#     4  11  22  38  57  87 123 167 210 258 307 367
#     4  10  22  41  61  90 124 167 206 251 312 362
#     4  10  23  42  69  97 121 151 194 249 312 375
#     4  10  21  37  55  81 123 169 216 261 306 358
#     4   9  20  36  57  86 121 162 209 257 300 357
#     4  11  23  37  63  91 122 166 208 255 311 366
#
# _framework density 19.641006999999998
#
# number of rings (size 3 to 8) (size 9 to 14) (size 15 to 20)
#    0.000    1.833    1.667    2.500    7.000    4.667 
#    0.000    2.500    0.000    0.000    0.000    0.000 
#    0.000    0.000    0.000    0.000    0.000    0.000 
#
# Total GULP energy -267441.781865 kJ/mol
# GULP energy per Si atom -5571.703789 kJ/mol
# Density = 1.959630 g / cm^3
# Si number density = 19.641007 Si / 1000 Ang^3
#
#
#
# Elastic Constant Matrix: (Units=GPa)
#
#
# Indices 1 2 3 4 5 6 
#
# 1 103.2727 20.6533 52.9311 0.0000 0.0000 0.0000
# 2 20.6533 125.1953 29.2827 0.0000 0.0000 0.0000
# 3 52.9311 29.2827 79.5552 0.0000 0.0000 0.0000
# 4 0.0000 0.0000 0.0000 -2.0564 0.0000 0.0000
# 5 0.0000 0.0000 0.0000 0.0000 20.3301 0.0000
# 6 0.0000 0.0000 0.0000 0.0000 0.0000 25.0224
#
#
#
# Elastic Compliance Matrix: (Units=1/GPa)
#
#
# Indices 1 2 3 4 5 6 
#
# 1 0.014696 -0.000150 -0.009723 0.000000 0.000000 0.000000
# 2 -0.000150 0.008742 -0.003118 0.000000 0.000000 0.000000
# 3 -0.009723 -0.003118 0.020186 0.000000 0.000000 0.000000
# 4 0.000000 0.000000 0.000000 -0.486295 0.000000 0.000000
# 5 0.000000 0.000000 0.000000 0.000000 0.049188 0.000000
# 6 0.000000 0.000000 0.000000 0.000000 0.000000 0.039964
#
#
# Mechanical properties :
#
#
# Convention : Reuss Voigt Hill
#
# Bulk Modulus (GPa) = 56.67984 57.08417 56.88200
# Shear Modulus (GPa) = -15.54457 22.33629 3.39586
#
# Velocity S-wave (km/s) = -2.81630 3.37594 1.31633
# Velocity P-wave (km/s) = 4.28313 6.65754 5.59768
#
# Compressibility (1/GPa) = 0.01764296
#
# Stress axis : x y z
#
# Youngs Moduli (GPa) = 68.04360 114.39675 49.53845
#
# Poissons Ratio (x) = 0.01720 0.48165
# Poissons Ratio (y) = 0.01023 0.15444
# Poissons Ratio (z) = 0.66157 0.35664
#
# Static dielectric constant tensor:
#      x y z
#    x 1.740660 0.000000 0.000000 
#    y 0.000000 1.725760 0.000000 
#    z 0.000000 0.000000 1.673970 
# 
# From -- ./inp_files/17343.got.cif
#   From: 2010.05.17/outbox.cif.g08.bks.cpg/sg55_9_cif.got.tgz:17343.got - 2010.06.03 13:27:54.
