data_PCOD9427189
_publ_section_title
;
Structure prediction by ZEFSAII (Michael W. Deem and Ramdas Pophale) SiO2 
 PCOD9427189
Probable space group: P B A M
;
_chemical_formula_sum "Si O2"
_cell_formula_units_Z 64
_cell_length_a 24.251590
_cell_length_b 15.518909
_cell_length_c 7.876383
_cell_angle_alpha 90.000000
_cell_angle_beta 90.000000
_cell_angle_gamma 90.000000
_cell_volume 2964.341473
_symmetry_space_group_name_H-M "P B A M"
_symmetry_group_IT_number 55
_symmetry_cell_setting 'orthorhombic'
loop_
_space_group_symop_operation_xyz
x,y,z
-x,-y,z
1/2+x,1/2-y,-z
1/2-x,1/2+y,-z
-x,-y,-z
x,y,-z
1/2-x,1/2+y,z
1/2+x,1/2-y,z
loop_
_atom_site_type_symbol
_atom_site_label
_atom_site_fract_x
_atom_site_fract_y
_atom_site_fract_z
Si Si1 0.167363 0.512069 0.205407
Si Si2 0.373947 0.374842 0.307731
Si Si3 0.288603 0.512365 0.196963
Si Si4 0.996266 0.098865 0.292737
Si Si5 0.817097 0.288689 0.805042
Si Si6 0.695314 0.296912 0.302954
Si Si7 0.550610 0.060283 0.795364
Si Si8 0.924283 0.750378 0.294929
O O1 0.228299 0.480349 0.260346
O O2 0.169559 0.613671 0.246316
O O3 0.110956 0.470190 0.270473
O O4 0.165535 0.503184 0.000000
O O5 0.376616 0.408953 0.500000
O O6 0.333669 0.438681 0.210053
O O7 0.435760 0.370270 0.240989
O O8 0.348270 0.280819 0.304455
O O9 0.308096 0.598927 0.290454
O O10 0.281198 0.537913 0.000000
O O11 0.999511 0.099321 0.500000
O O12 0.042566 0.165598 0.233194
O O13 0.000000 0.000000 0.237153
O O14 0.751663 0.273817 0.790632
O O15 0.834189 0.277673 0.000000
O O16 0.701744 0.272824 0.500000
O O17 0.639128 0.255323 0.234152
O O18 0.546324 0.161257 0.752910
O O19 0.500000 0.000000 0.734041
O O20 0.551149 0.052290 0.000000
O O21 0.921983 0.754676 0.500000
#
# Coordination Sequence:
#
# PCOD9427189 Si02
#       8
#     8   8   8   8   8   8   8   8
#     4   8  18  37  57  79 109 149 191 230 287 350
#     4  11  22  35  57  87 117 151 196 242 288 351
#     4  10  20  36  58  85 118 157 192 234 294 355
#     4   9  19  38  61  84 116 158 195 236 299 359
#     4  10  21  37  58  82 116 155 190 240 298 354
#     4  10  20  37  60  87 118 150 193 243 292 352
#     4  10  22  39  60  84 113 154 200 246 296 352
#     4  10  22  39  61  89 119 154 197 245 297 354
#
# _framework density 21.589953999999999
#
# number of rings (size 3 to 8) (size 9 to 14) (size 15 to 20)
#    0.000    2.250    0.000    3.000    3.500    3.250 
#    0.000    3.750    0.000    2.625    0.000    0.000 
#    0.000    0.000    0.000    0.000    0.000    0.000 
#
# Total GULP energy -357375.117260 kJ/mol
# GULP energy per Si atom -5583.986207 kJ/mol
# Density = 2.154081 g / cm^3
# Si number density = 21.589954 Si / 1000 Ang^3
#
#
#
# Elastic Constant Matrix: (Units=GPa)
#
#
# Indices 1 2 3 4 5 6 
#
# 1 103.0680 42.9705 1.1520 0.0000 0.0000 0.0000
# 2 42.9705 68.3306 -3.3269 0.0000 0.0000 0.0000
# 3 1.1520 -3.3269 28.5827 0.0000 0.0000 0.0000
# 4 0.0000 0.0000 0.0000 23.0247 0.0000 0.0000
# 5 0.0000 0.0000 0.0000 0.0000 16.7206 0.0000
# 6 0.0000 0.0000 0.0000 0.0000 0.0000 34.2170
#
#
#
# Elastic Compliance Matrix: (Units=1/GPa)
#
#
# Indices 1 2 3 4 5 6 
#
# 1 0.013214 -0.008383 -0.001508 0.000000 0.000000 0.000000
# 2 -0.008383 0.020037 0.002670 0.000000 0.000000 0.000000
# 3 -0.001508 0.002670 0.035358 0.000000 0.000000 0.000000
# 4 0.000000 0.000000 0.000000 0.043432 0.000000 0.000000
# 5 0.000000 0.000000 0.000000 0.000000 0.059806 0.000000
# 6 0.000000 0.000000 0.000000 0.000000 0.000000 0.029225
#
#
# Mechanical properties :
#
#
# Convention : Reuss Voigt Hill
#
# Bulk Modulus (GPa) = 18.46200 31.28583 24.87391
# Shear Modulus (GPa) = 21.40679 25.40485 23.40582
#
# Velocity S-wave (km/s) = 3.15225 3.43402 3.29615
# Velocity P-wave (km/s) = 4.67105 5.49961 5.10218
#
# Compressibility (1/GPa) = 0.05416532
#
# Stress axis : x y z
#
# Youngs Moduli (GPa) = 75.67521 49.90825 28.28236
#
# Poissons Ratio (x) = 0.41840 0.04266
# Poissons Ratio (y) = 0.63442 -0.07552
# Poissons Ratio (z) = 0.11415 -0.13326
#
# Static dielectric constant tensor:
#      x y z
#    x 1.788410 0.000000 0.000000 
#    y 0.000000 1.746980 0.000000 
#    z 0.000000 0.000000 1.772620 
# 
# From -- ./inp_files/9669.got.cif
#   From: 2010.05.17/outbox.cif.g08.bks.cpg/sg55_5_cif.got.tgz:9669.got - 2010.06.03 13:27:54.
