data_PCOD9427070
_publ_section_title
;
Structure prediction by ZEFSAII (Michael W. Deem and Ramdas Pophale) SiO2 
 PCOD9427070
Probable space group: P B A M
;
_chemical_formula_sum "Si O2"
_cell_formula_units_Z 56
_cell_length_a 16.081871
_cell_length_b 16.250841
_cell_length_c 11.017137
_cell_angle_alpha 90.000000
_cell_angle_beta 90.000000
_cell_angle_gamma 90.000000
_cell_volume 2879.261866
_symmetry_space_group_name_H-M "P B A M"
_symmetry_group_IT_number 55
_symmetry_cell_setting 'orthorhombic'
loop_
_space_group_symop_operation_xyz
x,y,z
-x,-y,z
1/2+x,1/2-y,-z
1/2-x,1/2+y,-z
-x,-y,-z
x,y,-z
1/2-x,1/2+y,z
1/2+x,1/2-y,z
loop_
_atom_site_type_symbol
_atom_site_label
_atom_site_fract_x
_atom_site_fract_y
_atom_site_fract_z
Si Si1 0.767902 0.750703 0.285647
Si Si2 0.812954 0.572089 0.368687
Si Si3 0.599738 0.493919 0.863361
Si Si4 0.317453 0.576752 0.367940
Si Si5 0.614530 0.683569 0.856018
Si Si6 0.940134 0.753572 0.861241
Si Si7 0.426423 0.934976 0.866436
O O1 0.777801 0.665104 0.358592
O O2 0.768419 0.837028 0.355814
O O3 0.684979 0.737501 0.207247
O O4 0.852242 0.756539 0.205822
O O5 0.857557 0.566251 0.500000
O O6 0.743512 0.501517 0.368807
O O7 0.867320 0.556977 0.248967
O O8 0.500000 0.500000 0.865022
O O9 0.627746 0.437076 0.752503
O O10 0.633069 0.586626 0.842316
O O11 0.626254 0.468244 0.000000
O O12 0.361681 0.577944 0.500000
O O13 0.520900 0.700539 0.809321
O O14 0.613679 0.701304 0.000000
O O15 0.962731 0.657004 0.862707
O O16 0.928579 0.781817 0.000000
O O17 0.500000 0.000000 0.860393
O O18 0.384084 0.943276 0.000000
#
# Coordination Sequence:
#
# PCOD9427070 Si02
#       7
#     8   8   8   8   8   8   8
#     4  11  21  38  63  83 118 164 206 253 306 365
#     4  10  22  40  59  84 119 156 198 251 300 355
#     4  10  21  39  63  93 126 160 205 262 317 376
#     4  11  24  40  60  88 121 162 207 251 307 369
#     4  10  20  35  59  91 124 161 203 252 316 375
#     4   9  19  35  55  86 123 153 197 253 304 366
#     4   9  19  35  58  86 118 152 193 248 305 360
#
# _framework density 19.44943
#
# number of rings (size 3 to 8) (size 9 to 14) (size 15 to 20)
#    0.000    2.000    1.429    1.714    2.000    4.000 
#    0.000    0.000    0.000    2.571    0.000    0.000 
#    0.000    0.000    0.000    0.000    0.000    0.000 
#
# Total GULP energy -312168.498225 kJ/mol
# GULP energy per Si atom -5574.437468 kJ/mol
# Density = 1.940516 g / cm^3
# Si number density = 19.449430 Si / 1000 Ang^3
#
#
#
# Elastic Constant Matrix: (Units=GPa)
#
#
# Indices 1 2 3 4 5 6 
#
# 1 66.9655 31.8136 43.0465 0.0000 0.0000 0.0000
# 2 31.8136 110.1195 37.8227 0.0000 0.0000 0.0000
# 3 43.0465 37.8227 137.0387 0.0000 0.0000 0.0000
# 4 0.0000 0.0000 0.0000 0.0201 0.0000 0.0000
# 5 0.0000 0.0000 0.0000 0.0000 5.4859 0.0000
# 6 0.0000 0.0000 0.0000 0.0000 0.0000 28.8489
#
#
#
# Elastic Compliance Matrix: (Units=1/GPa)
#
#
# Indices 1 2 3 4 5 6 
#
# 1 0.020219 -0.004043 -0.005235 0.000000 0.000000 0.000000
# 2 -0.004043 0.010841 -0.001722 0.000000 0.000000 0.000000
# 3 -0.005235 -0.001722 0.009417 0.000000 0.000000 0.000000
# 4 0.000000 0.000000 0.000000 49.775873 0.000000 0.000000
# 5 0.000000 0.000000 0.000000 0.000000 0.182287 0.000000
# 6 0.000000 0.000000 0.000000 0.000000 0.000000 0.034663
#
#
# Mechanical properties :
#
#
# Convention : Reuss Voigt Hill
#
# Bulk Modulus (GPa) = 54.12472 59.94327 57.03400
# Shear Modulus (GPa) = 0.09988 20.30037 10.20012
#
# Velocity S-wave (km/s) = 0.22686 3.23422 2.29256
# Velocity P-wave (km/s) = 5.28748 6.69581 6.03288
#
# Compressibility (1/GPa) = 0.01847585
#
# Stress axis : x y z
#
# Youngs Moduli (GPa) = 49.45785 92.24615 106.19109
#
# Poissons Ratio (x) = 0.37297 0.55595
# Poissons Ratio (y) = 0.19997 0.18286
# Poissons Ratio (z) = 0.25893 0.15884
#
# Static dielectric constant tensor:
#      x y z
#    x 1.657980 0.000000 0.000000 
#    y 0.000000 1.715000 0.000000 
#    z 0.000000 0.000000 1.722670 
# 
# From -- ./inp_files/14243.got.cif
#   From: 2010.05.17/outbox.cif.g08.bks.cpg/sg55_8_cif.got.tgz:14243.got - 2010.06.03 13:27:54.
