data_PCOD9427529
_publ_section_title
;
Structure prediction by ZEFSAII (Michael W. Deem and Ramdas Pophale) SiO2 
 PCOD9427529
Probable space group: P B A M
;
_chemical_formula_sum "Si O2"
_cell_formula_units_Z 56
_cell_length_a 8.314541
_cell_length_b 24.361633
_cell_length_c 14.025688
_cell_angle_alpha 90.000000
_cell_angle_beta 90.000000
_cell_angle_gamma 90.000000
_cell_volume 2840.984403
_symmetry_space_group_name_H-M "P B A M"
_symmetry_group_IT_number 55
_symmetry_cell_setting 'orthorhombic'
loop_
_space_group_symop_operation_xyz
x,y,z
-x,-y,z
1/2+x,1/2-y,-z
1/2-x,1/2+y,-z
-x,-y,-z
x,y,-z
1/2-x,1/2+y,z
1/2+x,1/2-y,z
loop_
_atom_site_type_symbol
_atom_site_label
_atom_site_fract_x
_atom_site_fract_y
_atom_site_fract_z
Si Si1 0.285020 0.309937 0.393085
Si Si2 0.323458 0.727834 0.887648
Si Si3 0.162221 0.628715 0.199886
Si Si4 0.335937 0.530796 0.887386
Si Si5 0.851457 0.577815 0.889615
Si Si6 0.354625 0.329562 0.812045
Si Si7 0.398161 0.184002 0.606161
O O1 0.334853 0.327916 0.500000
O O2 0.360132 0.339379 0.301258
O O3 0.334507 0.246116 0.383938
O O4 0.091999 0.314696 0.387262
O O5 0.185920 0.683127 0.863997
O O6 0.484888 0.698919 0.850543
O O7 0.282935 0.783726 0.832623
O O8 0.332307 0.738668 0.000000
O O9 0.297092 0.584742 0.171601
O O10 0.169036 0.647907 0.308448
O O11 0.993696 0.600048 0.175767
O O12 0.500000 0.500000 0.862396
O O13 0.197347 0.485101 0.874421
O O14 0.342078 0.545076 0.000000
O O15 0.697346 0.616209 0.868215
O O16 0.899301 0.584290 0.000000
O O17 0.353857 0.164699 0.500000
#
# Coordination Sequence:
#
# PCOD9427529 Si02
#       7
#     8   8   8   8   8   8   8
#     4  10  20  38  59  84 117 154 198 242 289 347
#     4  12  24  35  53  82 122 160 190 233 296 360
#     4  12  22  38  60  86 117 152 198 247 298 350
#     4  10  22  41  62  85 114 155 204 247 290 350
#     4  11  22  37  59  84 115 156 201 242 289 355
#     4  12  22  38  54  84 118 157 193 241 293 355
#     4  10  21  38  61  88 119 155 197 246 295 352
#
# _framework density 19.711478
#
# number of rings (size 3 to 8) (size 9 to 14) (size 15 to 20)
#    0.000    1.000    2.857    5.571    0.000    2.286 
#    0.000    0.000    0.000    3.000    0.000    0.000 
#    0.000    0.000    0.000    0.000    0.000    0.000 
#
# Total GULP energy -313308.793937 kJ/mol
# GULP energy per Si atom -5594.799892 kJ/mol
# Density = 1.966661 g / cm^3
# Si number density = 19.711478 Si / 1000 Ang^3
#
#
#
# Elastic Constant Matrix: (Units=GPa)
#
#
# Indices 1 2 3 4 5 6 
#
# 1 38.7524 -19.2310 -9.0539 0.0000 0.0000 0.0000
# 2 -19.2310 38.5969 1.3278 0.0000 0.0000 0.0000
# 3 -9.0539 1.3278 93.9655 0.0000 0.0000 0.0000
# 4 0.0000 0.0000 0.0000 22.4626 0.0000 0.0000
# 5 0.0000 0.0000 0.0000 0.0000 317.7553 0.0000
# 6 0.0000 0.0000 0.0000 0.0000 0.0000 26.0601
#
#
#
# Elastic Compliance Matrix: (Units=1/GPa)
#
#
# Indices 1 2 3 4 5 6 
#
# 1 0.035186 0.017423 0.003144 0.000000 0.000000 0.000000
# 2 0.017423 0.034549 0.001191 0.000000 0.000000 0.000000
# 3 0.003144 0.001191 0.010928 0.000000 0.000000 0.000000
# 4 0.000000 0.000000 0.000000 0.044518 0.000000 0.000000
# 5 0.000000 0.000000 0.000000 0.000000 0.003147 0.000000
# 6 0.000000 0.000000 0.000000 0.000000 0.000000 0.038373
#
#
# Mechanical properties :
#
#
# Convention : Reuss Voigt Hill
#
# Bulk Modulus (GPa) = 8.05291 13.04451 10.54871
# Shear Modulus (GPa) = 30.38062 86.47373 58.42717
#
# Velocity S-wave (km/s) = 3.93015 6.63061 5.45028
# Velocity P-wave (km/s) = 4.96881 8.07787 6.70601
#
# Compressibility (1/GPa) = 0.12417871
#
# Stress axis : x y z
#
# Youngs Moduli (GPa) = 28.42060 28.94442 91.50533
#
# Poissons Ratio (x) = -0.50430 -0.28770
# Poissons Ratio (y) = -0.49518 -0.10894
# Poissons Ratio (z) = -0.08936 -0.03446
#
# Static dielectric constant tensor:
#      x y z
#    x 1.771760 0.000000 0.000000 
#    y 0.000000 1.662520 0.000000 
#    z 0.000000 0.000000 1.674660 
# 
# From -- ./inp_files/17629.got.cif
#   From: 2010.05.17/outbox.cif.g08.bks.cpg/sg55_9_cif.got.tgz:17629.got - 2010.06.03 13:27:54.
