data_PCOD9427175
_publ_section_title
;
Structure prediction by ZEFSAII (Michael W. Deem and Ramdas Pophale) SiO2 
 PCOD9427175
Probable space group: P B A M
;
_chemical_formula_sum "Si O2"
_cell_formula_units_Z 64
_cell_length_a 14.061873
_cell_length_b 25.538085
_cell_length_c 7.551278
_cell_angle_alpha 90.000000
_cell_angle_beta 90.000000
_cell_angle_gamma 90.000000
_cell_volume 2711.764422
_symmetry_space_group_name_H-M "P B A M"
_symmetry_group_IT_number 55
_symmetry_cell_setting 'orthorhombic'
loop_
_space_group_symop_operation_xyz
x,y,z
-x,-y,z
1/2+x,1/2-y,-z
1/2-x,1/2+y,-z
-x,-y,-z
x,y,-z
1/2-x,1/2+y,z
1/2+x,1/2-y,z
loop_
_atom_site_type_symbol
_atom_site_label
_atom_site_fract_x
_atom_site_fract_y
_atom_site_fract_z
Si Si1 0.759927 0.937589 0.783463
Si Si2 0.958188 0.444166 0.786129
Si Si3 0.023325 0.260759 0.290788
Si Si4 0.184569 0.751308 0.204370
Si Si5 0.598141 0.526915 0.782949
Si Si6 0.828466 0.133492 0.202023
Si Si7 0.123478 0.363068 0.707912
Si Si8 0.657922 0.328104 0.786861
O O1 0.650213 0.935524 0.725291
O O2 0.819660 0.886580 0.725085
O O3 0.814478 0.990010 0.728467
O O4 0.759189 0.937408 0.000000
O O5 0.000000 0.500000 0.725942
O O6 0.031519 0.399013 0.733336
O O7 0.955753 0.444993 0.000000
O O8 0.013946 0.268023 0.500000
O O9 0.097769 0.304581 0.226464
O O10 0.061102 0.202319 0.256155
O O11 0.921228 0.271307 0.208405
O O12 0.175401 0.809036 0.287143
O O13 0.259384 0.710760 0.282679
O O14 0.213690 0.758747 0.000000
O O15 0.500000 0.500000 0.729823
O O16 0.611427 0.586236 0.719057
O O17 0.598816 0.528913 0.000000
O O18 0.718099 0.115773 0.200093
O O19 0.863130 0.140897 0.000000
O O20 0.145111 0.360725 0.500000
O O21 0.663392 0.330421 0.000000
#
# Coordination Sequence:
#
# PCOD9427175 Si02
#       8
#     8   8   8   8   8   8   8   8
#     4   9  18  32  53  83 117 148 183 233 290 339
#     4  10  20  36  61  89 116 150 191 241 294 345
#     4  11  24  38  55  81 115 155 192 232 289 353
#     4  10  21  36  58  87 112 145 193 244 293 339
#     4   9  18  32  54  86 117 145 183 233 285 339
#     4  10  20  36  60  87 113 147 191 239 289 341
#     4  11  23  38  57  84 118 156 190 233 291 352
#     4  10  20  36  58  83 113 147 188 239 285 333
#
# _framework density 23.600871000000001
#
# number of rings (size 3 to 8) (size 9 to 14) (size 15 to 20)
#    0.000    2.000    1.250    2.250    1.750    5.750 
#    0.000    0.625    0.000    1.125    0.000    0.000 
#    0.000    0.000    0.000    0.000    0.000    0.000 
#
# Total GULP energy -357800.942331 kJ/mol
# GULP energy per Si atom -5590.639724 kJ/mol
# Density = 2.354715 g / cm^3
# Si number density = 23.600871 Si / 1000 Ang^3
#
#
#
# Elastic Constant Matrix: (Units=GPa)
#
#
# Indices 1 2 3 4 5 6 
#
# 1 42.4991 -30.3167 -3.4893 0.0000 0.0000 0.0000
# 2 -30.3167 76.7632 5.6231 0.0000 0.0000 0.0000
# 3 -3.4893 5.6231 66.2267 0.0000 0.0000 0.0000
# 4 0.0000 0.0000 0.0000 -40.9860 0.0000 0.0000
# 5 0.0000 0.0000 0.0000 0.0000 -11.8377 0.0000
# 6 0.0000 0.0000 0.0000 0.0000 0.0000 43.0280
#
#
#
# Elastic Compliance Matrix: (Units=1/GPa)
#
#
# Indices 1 2 3 4 5 6 
#
# 1 0.032785 0.012902 0.000632 0.000000 0.000000 0.000000
# 2 0.012902 0.018186 -0.000864 0.000000 0.000000 0.000000
# 3 0.000632 -0.000864 0.015206 0.000000 0.000000 0.000000
# 4 0.000000 0.000000 0.000000 -0.024399 0.000000 0.000000
# 5 0.000000 0.000000 0.000000 0.000000 -0.084476 0.000000
# 6 0.000000 0.000000 0.000000 0.000000 0.000000 0.023241
#
#
# Mechanical properties :
#
#
# Convention : Reuss Voigt Hill
#
# Bulk Modulus (GPa) = 10.92702 14.34703 12.63702
# Shear Modulus (GPa) = -349.89148 12.28567 -168.80290
#
# Velocity S-wave (km/s) = -12.18915 2.28405 -8.46636
# Velocity P-wave (km/s) = 13.90901 3.61221 9.49770
#
# Compressibility (1/GPa) = 0.09151624
#
# Stress axis : x y z
#
# Youngs Moduli (GPa) = 30.50151 54.98796 65.76206
#
# Poissons Ratio (x) = -0.70945 -0.04156
# Poissons Ratio (y) = -0.39353 0.05684
# Poissons Ratio (z) = -0.01927 0.04753
#
# Static dielectric constant tensor:
#      x y z
#    x 1.869050 0.000000 0.000000 
#    y 0.000000 1.891490 0.000000 
#    z 0.000000 0.000000 1.901830 
# 
# From -- ./inp_files/6595.got.cif
#   From: 2010.05.17/outbox.cif.g08.bks.cpg/sg55_4_cif.got.tgz:6595.got - 2010.06.03 13:27:54.
