data_PCOD9427582
_publ_section_title
;
Structure prediction by ZEFSAII (Michael W. Deem and Ramdas Pophale) SiO2 
 PCOD9427582
Probable space group: P B A M
;
_chemical_formula_sum "Si O2"
_cell_formula_units_Z 40
_cell_length_a 6.925250
_cell_length_b 25.071522
_cell_length_c 9.120784
_cell_angle_alpha 90.000000
_cell_angle_beta 90.000000
_cell_angle_gamma 90.000000
_cell_volume 1583.610330
_symmetry_space_group_name_H-M "P B A M"
_symmetry_group_IT_number 55
_symmetry_cell_setting 'orthorhombic'
loop_
_space_group_symop_operation_xyz
x,y,z
-x,-y,z
1/2+x,1/2-y,-z
1/2-x,1/2+y,-z
-x,-y,-z
x,y,-z
1/2-x,1/2+y,z
1/2+x,1/2-y,z
loop_
_atom_site_type_symbol
_atom_site_label
_atom_site_fract_x
_atom_site_fract_y
_atom_site_fract_z
Si Si1 0.494711 0.660398 0.000000
Si Si2 0.768319 0.011636 0.166037
Si Si3 0.603510 0.611098 0.295554
Si Si4 0.428671 0.806427 0.669303
Si Si5 0.171967 0.587456 0.341956
Si Si6 0.356701 0.761275 0.000000
O O1 0.528795 0.623906 0.865238
O O2 0.310462 0.697996 0.000000
O O3 0.657984 0.705926 0.000000
O O4 0.754883 0.060736 0.279569
O O5 0.661616 0.958630 0.220828
O O6 0.713366 0.025786 0.000000
O O7 0.000000 0.000000 0.165366
O O8 0.722697 0.662916 0.341824
O O9 0.401029 0.596565 0.363267
O O10 0.463344 0.783478 0.500000
O O11 0.579890 0.854952 0.691167
O O12 0.428035 0.774399 0.826851
O O13 0.093718 0.569737 0.500000
#
# Coordination Sequence:
#
# PCOD9427582 Si02
#       6
#     4   8   8   8   8   4
#     4  10  22  40  64  93 114 155 210 249 316 370
#     4   9  18  33  56  89 121 160 203 246 287 356
#     4  10  20  38  63  85 123 160 202 250 302 360
#     4  10  23  42  61  91 127 157 203 257 303 365
#     4  10  22  36  59  91 124 166 202 239 302 358
#     4  10  24  42  65  93 117 159 203 260 313 368
#
# _framework density 25.25874
#
# number of rings (size 3 to 8) (size 9 to 14) (size 15 to 20)
#    0.000    2.200    1.000    0.600    5.600    5.200 
#    0.000    8.000    0.000    0.000    0.000    0.000 
#    0.000    0.000    0.000    0.000    0.000    0.000 
#
# Total GULP energy -222869.849800 kJ/mol
# GULP energy per Si atom -5571.746245 kJ/mol
# Density = 2.520125 g / cm^3
# Si number density = 25.258740 Si / 1000 Ang^3
#
#
#
# Elastic Constant Matrix: (Units=GPa)
#
#
# Indices 1 2 3 4 5 6 
#
# 1 57.5274 12.8446 24.4880 0.0000 0.0000 0.0000
# 2 12.8446 42.2406 31.9442 0.0000 0.0000 0.0000
# 3 24.4880 31.9442 200.6354 0.0000 0.0000 0.0000
# 4 0.0000 0.0000 0.0000 -23.8676 0.0000 0.0000
# 5 0.0000 0.0000 0.0000 0.0000 -40.5159 0.0000
# 6 0.0000 0.0000 0.0000 0.0000 0.0000 34.5313
#
#
#
# Elastic Compliance Matrix: (Units=1/GPa)
#
#
# Indices 1 2 3 4 5 6 
#
# 1 0.019090 -0.004596 -0.001598 0.000000 0.000000 0.000000
# 2 -0.004596 0.028021 -0.003900 0.000000 0.000000 0.000000
# 3 -0.001598 -0.003900 0.005800 0.000000 0.000000 0.000000
# 4 0.000000 0.000000 0.000000 -0.041898 0.000000 0.000000
# 5 0.000000 0.000000 0.000000 0.000000 -0.024682 0.000000
# 6 0.000000 0.000000 0.000000 0.000000 0.000000 0.028959
#
#
# Mechanical properties :
#
#
# Convention : Reuss Voigt Hill
#
# Bulk Modulus (GPa) = 30.56100 48.77299 39.66700
# Shear Modulus (GPa) = 107.78784 9.43800 58.61292
#
# Velocity S-wave (km/s) = 6.53958 1.93511 4.82238
# Velocity P-wave (km/s) = 8.31546 4.93398 6.83707
#
# Compressibility (1/GPa) = 0.03272144
#
# Stress axis : x y z
#
# Youngs Moduli (GPa) = 52.38472 35.68725 172.40712
#
# Poissons Ratio (x) = 0.16403 0.27553
# Poissons Ratio (y) = 0.24077 0.67246
# Poissons Ratio (z) = 0.08372 0.13920
#
# Static dielectric constant tensor:
#      x y z
#    x 2.119060 0.000000 0.000000 
#    y 0.000000 3.548840 0.000000 
#    z 0.000000 0.000000 2.030840 
# 
# From -- ./inp_files/2632.got.cif
#   From: 2010.05.17/outbox.cif.g08.bks.cpg/sg55_2_cif.got.tgz:2632.got - 2010.06.03 13:27:54.
