data_PCOD9427574
_publ_section_title
;
Structure prediction by ZEFSAII (Michael W. Deem and Ramdas Pophale) SiO2 
 PCOD9427574
Probable space group: P B A M
;
_chemical_formula_sum "Si O2"
_cell_formula_units_Z 40
_cell_length_a 23.969400
_cell_length_b 6.060866
_cell_length_c 12.307600
_cell_angle_alpha 90.000000
_cell_angle_beta 90.000000
_cell_angle_gamma 90.000000
_cell_volume 1787.990547
_symmetry_space_group_name_H-M "P B A M"
_symmetry_group_IT_number 55
_symmetry_cell_setting 'orthorhombic'
loop_
_space_group_symop_operation_xyz
x,y,z
-x,-y,z
1/2+x,1/2-y,-z
1/2-x,1/2+y,-z
-x,-y,-z
x,y,-z
1/2-x,1/2+y,z
1/2+x,1/2-y,z
loop_
_atom_site_type_symbol
_atom_site_label
_atom_site_fract_x
_atom_site_fract_y
_atom_site_fract_z
Si Si1 0.673632 0.736913 0.379648
Si Si2 0.372748 0.884121 0.252018
Si Si3 0.948869 0.326616 0.121805
Si Si4 0.440831 0.501761 0.677979
Si Si5 0.241650 0.260049 0.823174
O O1 0.697678 0.712064 0.500000
O O2 0.616905 0.591455 0.371601
O O3 0.719148 0.709792 0.284036
O O4 0.650550 0.980302 0.353616
O O5 0.425649 0.748233 0.289453
O O6 0.322972 0.735940 0.208705
O O7 0.392945 0.043246 0.155730
O O8 0.951699 0.142355 0.213836
O O9 0.000000 0.500000 0.124749
O O10 0.945761 0.235228 0.000000
O O11 0.500000 0.500000 0.617723
O O12 0.244059 0.514467 0.872151
#
# Coordination Sequence:
#
# PCOD9427574 Si02
#       5
#     8   8   8   8   8
#     4  10  23  39  59  90 123 165 218 265 315 381
#     4  10  21  39  59  87 125 162 203 265 324 377
#     4  10  21  37  63  95 123 158 208 263 322 393
#     4  11  21  38  61  89 126 165 204 262 328 385
#     4  10  20  38  62  90 120 164 212 266 317 370
#
# _framework density 22.371483999999999
#
# number of rings (size 3 to 8) (size 9 to 14) (size 15 to 20)
#    0.000    1.800    4.000    0.000    0.000    5.600 
#    0.000    1.000    0.000   10.800    0.000    0.000 
#    0.000    0.000    0.000    0.000    0.000    0.000 
#
# Total GULP energy -222760.318344 kJ/mol
# GULP energy per Si atom -5569.007959 kJ/mol
# Density = 2.232057 g / cm^3
# Si number density = 22.371484 Si / 1000 Ang^3
#
#
#
# Elastic Constant Matrix: (Units=GPa)
#
#
# Indices 1 2 3 4 5 6 
#
# 1 111.5025 1.6319 10.2232 0.0000 0.0000 0.0000
# 2 1.6319 85.1452 11.6038 0.0000 0.0000 0.0000
# 3 10.2232 11.6038 111.3384 0.0000 0.0000 0.0000
# 4 0.0000 0.0000 0.0000 -96.3559 0.0000 0.0000
# 5 0.0000 0.0000 0.0000 0.0000 9.9878 0.0000
# 6 0.0000 0.0000 0.0000 0.0000 0.0000 52.2187
#
#
#
# Elastic Compliance Matrix: (Units=1/GPa)
#
#
# Indices 1 2 3 4 5 6 
#
# 1 0.009045 -0.000061 -0.000824 0.000000 0.000000 0.000000
# 2 -0.000061 0.011914 -0.001236 0.000000 0.000000 0.000000
# 3 -0.000824 -0.001236 0.009186 0.000000 0.000000 0.000000
# 4 0.000000 0.000000 0.000000 -0.010378 0.000000 0.000000
# 5 0.000000 0.000000 0.000000 0.000000 0.100123 0.000000
# 6 0.000000 0.000000 0.000000 0.000000 0.000000 0.019150
#
#
# Mechanical properties :
#
#
# Convention : Reuss Voigt Hill
#
# Bulk Modulus (GPa) = 38.60606 39.43378 39.01992
# Shear Modulus (GPa) = 32.91277 12.13857 22.52567
#
# Velocity S-wave (km/s) = 3.83977 2.33189 3.17660
# Velocity P-wave (km/s) = 6.07888 4.99153 5.56184
#
# Compressibility (1/GPa) = 0.02590267
#
# Stress axis : x y z
#
# Youngs Moduli (GPa) = 110.55994 83.93296 108.85980
#
# Poissons Ratio (x) = 0.00512 0.08972
# Poissons Ratio (y) = 0.00675 0.13456
# Poissons Ratio (z) = 0.09112 0.10375
#
# Static dielectric constant tensor:
#      x y z
#    x 2.076200 0.000000 0.000000 
#    y 0.000000 1.909020 0.000000 
#    z 0.000000 0.000000 1.812030 
# 
# From -- ./inp_files/11308.got.cif
#   From: 2010.05.17/outbox.cif.g08.bks.cpg/sg55_6_cif.got.tgz:11308.got - 2010.06.03 13:27:54.
