data_PCOD9427749
_publ_section_title
;
Structure prediction by ZEFSAII (Michael W. Deem and Ramdas Pophale) SiO2 
 PCOD9427749
Probable space group: P B A M
;
_chemical_formula_sum "Si O2"
_cell_formula_units_Z 58
_cell_length_a 13.168007
_cell_length_b 26.964138
_cell_length_c 7.456464
_cell_angle_alpha 90.000000
_cell_angle_beta 90.000000
_cell_angle_gamma 90.000000
_cell_volume 2647.521620
_symmetry_space_group_name_H-M "P B A M"
_symmetry_group_IT_number 55
_symmetry_cell_setting 'orthorhombic'
loop_
_space_group_symop_operation_xyz
x,y,z
-x,-y,z
1/2+x,1/2-y,-z
1/2-x,1/2+y,-z
-x,-y,-z
x,y,-z
1/2-x,1/2+y,z
1/2+x,1/2-y,z
loop_
_atom_site_type_symbol
_atom_site_label
_atom_site_fract_x
_atom_site_fract_y
_atom_site_fract_z
Si Si1 0.179575 0.057879 0.289959
Si Si2 0.261778 0.448390 0.795450
Si Si3 0.535669 0.075452 0.218569
Si Si4 0.985169 0.313887 0.795326
Si Si5 0.500000 0.000000 0.500000
Si Si6 0.760578 0.337426 0.284847
Si Si7 0.037138 0.896004 0.217815
Si Si8 0.954969 0.791776 0.788058
O O1 0.200921 0.052692 0.500000
O O2 0.238661 0.106415 0.220459
O O3 0.060291 0.070894 0.268788
O O4 0.209360 0.006054 0.204748
O O5 0.357132 0.418727 0.715884
O O6 0.149749 0.439954 0.720140
O O7 0.252096 0.430579 0.000000
O O8 0.519869 0.132573 0.272880
O O9 0.467034 0.039956 0.339585
O O10 0.522164 0.069750 0.000000
O O11 0.863637 0.315786 0.791025
O O12 0.020479 0.262198 0.710845
O O13 0.023241 0.313454 0.000000
O O14 0.768066 0.338785 0.500000
O O15 0.662656 0.305310 0.235022
O O16 0.015598 0.839926 0.281883
O O17 0.038695 0.896005 0.000000
O O18 0.978915 0.789764 0.000000
#
# Coordination Sequence:
#
# PCOD9427749 Si02
#       8
#     8   8   8   8   2   8   8   8
#     4  10  21  34  53  82 117 155 200 246 295 361
#     4  10  21  36  55  83 120 157 197 249 303 362
#     4  10  25  43  63  94 125 161 208 255 307 370
#     4  10  22  40  63  89 118 154 201 254 302 362
#     4  12  26  44  68  86 126 172 202 260 302 374
#     4  10  22  37  57  85 118 154 197 248 303 364
#     4   9  18  35  58  84 115 154 197 244 303 362
#     4   9  19  38  63  87 114 153 200 247 302 363
#
# _framework density 21.907281000000001
#
# number of rings (size 3 to 8) (size 9 to 14) (size 15 to 20)
#    0.000    2.207    0.000    1.448    3.862    5.517 
#    0.000    4.138    0.000    0.000    0.000    0.000 
#    0.000    0.000    0.000    0.000    0.000    0.000 
#
# Total GULP energy -323399.628593 kJ/mol
# GULP energy per Si atom -5575.855665 kJ/mol
# Density = 2.185742 g / cm^3
# Si number density = 21.907281 Si / 1000 Ang^3
#
#
#
# Elastic Constant Matrix: (Units=GPa)
#
#
# Indices 1 2 3 4 5 6 
#
# 1 74.0140 65.9166 -4.9878 0.0000 0.0000 0.0000
# 2 65.9166 169.4348 10.9210 0.0000 0.0000 0.0000
# 3 -4.9878 10.9210 84.1411 0.0000 0.0000 0.0000
# 4 0.0000 0.0000 0.0000 -22.2315 0.0000 0.0000
# 5 0.0000 0.0000 0.0000 0.0000 42.9088 0.0000
# 6 0.0000 0.0000 0.0000 0.0000 0.0000 21.1536
#
#
#
# Elastic Compliance Matrix: (Units=1/GPa)
#
#
# Indices 1 2 3 4 5 6 
#
# 1 0.021120 -0.008367 0.002338 0.000000 0.000000 0.000000
# 2 -0.008367 0.009267 -0.001699 0.000000 0.000000 0.000000
# 3 0.002338 -0.001699 0.012244 0.000000 0.000000 0.000000
# 4 0.000000 0.000000 0.000000 -0.044981 0.000000 0.000000
# 5 0.000000 0.000000 0.000000 0.000000 0.023305 0.000000
# 6 0.000000 0.000000 0.000000 0.000000 0.000000 0.047273
#
#
# Mechanical properties :
#
#
# Convention : Reuss Voigt Hill
#
# Bulk Modulus (GPa) = 36.79876 52.36552 44.58214
# Shear Modulus (GPa) = 53.91252 25.41552 39.66402
#
# Velocity S-wave (km/s) = 4.96617 3.40978 4.25966
# Velocity P-wave (km/s) = 7.05108 6.28150 6.67739
#
# Compressibility (1/GPa) = 0.02717483
#
# Stress axis : x y z
#
# Youngs Moduli (GPa) = 47.34741 107.91326 81.67344
#
# Poissons Ratio (x) = 0.90295 -0.19095
# Poissons Ratio (y) = 0.39617 0.13874
# Poissons Ratio (z) = -0.11070 0.18332
#
# Static dielectric constant tensor:
#      x y z
#    x 1.811220 0.000000 0.000000 
#    y 0.000000 1.812440 0.000000 
#    z 0.000000 0.000000 1.873330 
# 
# From -- ./inp_files/4305.got.cif
#   From: 2010.05.17/outbox.cif.g08.bks.cpg/sg55_3_cif.got.tgz:4305.got - 2010.06.03 13:27:54.
