data_PCOD9427236
_publ_section_title
;
Structure prediction by ZEFSAII (Michael W. Deem and Ramdas Pophale) SiO2 
 PCOD9427236
Probable space group: P B A M
;
_chemical_formula_sum "Si O2"
_cell_formula_units_Z 64
_cell_length_a 17.371286
_cell_length_b 14.997250
_cell_length_c 12.690257
_cell_angle_alpha 90.000000
_cell_angle_beta 90.000000
_cell_angle_gamma 90.000000
_cell_volume 3306.085030
_symmetry_space_group_name_H-M "P B A M"
_symmetry_group_IT_number 55
_symmetry_cell_setting 'orthorhombic'
loop_
_space_group_symop_operation_xyz
x,y,z
-x,-y,z
1/2+x,1/2-y,-z
1/2-x,1/2+y,-z
-x,-y,-z
x,y,-z
1/2-x,1/2+y,z
1/2+x,1/2-y,z
loop_
_atom_site_type_symbol
_atom_site_label
_atom_site_fract_x
_atom_site_fract_y
_atom_site_fract_z
Si Si1 0.799985 0.273235 0.625716
Si Si2 0.043596 0.083061 0.243127
Si Si3 0.053441 0.618611 0.118951
Si Si4 0.553900 0.082372 0.316812
Si Si5 0.878193 0.765969 0.620897
Si Si6 0.174061 0.986395 0.880477
Si Si7 0.394299 0.308853 0.812631
Si Si8 0.317120 0.038817 0.742646
O O1 0.814667 0.266781 0.500000
O O2 0.711241 0.245825 0.647667
O O3 0.857132 0.215882 0.699192
O O4 0.810388 0.374888 0.667628
O O5 0.093826 0.149741 0.312464
O O6 0.096739 0.038368 0.153931
O O7 0.975839 0.143508 0.198765
O O8 0.000000 0.000000 0.299359
O O9 0.088033 0.717736 0.127786
O O10 0.123629 0.559926 0.162430
O O11 0.984980 0.604152 0.203188
O O12 0.030480 0.599322 0.000000
O O13 0.565944 0.179873 0.367048
O O14 0.500000 0.000000 0.359707
O O15 0.639093 0.040964 0.315281
O O16 0.878439 0.793135 0.500000
O O17 0.237241 0.013768 0.794945
O O18 0.159326 0.880746 0.869683
O O19 0.195728 0.008898 0.000000
#
# Coordination Sequence:
#
# PCOD9427236 Si02
#       8
#     8   8   8   8   8   8   8   8
#     4  10  22  41  65  88 120 167 208 260 315 365
#     4  10  22  40  61  90 124 157 203 260 310 372
#     4  10  20  36  59  86 122 165 205 248 311 369
#     4  10  22  39  59  91 125 164 203 260 306 370
#     4  11  22  41  63  87 123 164 208 258 319 368
#     4  11  22  38  63  90 123 162 205 257 315 367
#     4  10  21  39  60  89 120 156 205 256 299 377
#     4  10  21  38  60  86 128 156 210 261 303 375
#
# _framework density 19.358243999999999
#
# number of rings (size 3 to 8) (size 9 to 14) (size 15 to 20)
#    0.000    1.750    2.500    1.500    0.000    7.000 
#    0.000    2.500    0.000    0.000    0.000    0.000 
#    0.000    0.000    0.000    0.000    0.000    0.000 
#
# Total GULP energy -356779.490792 kJ/mol
# GULP energy per Si atom -5574.679544 kJ/mol
# Density = 1.931418 g / cm^3
# Si number density = 19.358244 Si / 1000 Ang^3
#
#
#
# Elastic Constant Matrix: (Units=GPa)
#
#
# Indices 1 2 3 4 5 6 
#
# 1 58.0483 -1.3457 10.3828 0.0000 0.0000 0.0000
# 2 -1.3457 82.9180 3.3847 0.0000 0.0000 0.0000
# 3 10.3828 3.3847 49.1056 0.0000 0.0000 0.0000
# 4 0.0000 0.0000 0.0000 13.9296 0.0000 0.0000
# 5 0.0000 0.0000 0.0000 0.0000 18.9706 0.0000
# 6 0.0000 0.0000 0.0000 0.0000 0.0000 36.8871
#
#
#
# Elastic Compliance Matrix: (Units=1/GPa)
#
#
# Indices 1 2 3 4 5 6 
#
# 1 0.017921 0.000447 -0.003820 0.000000 0.000000 0.000000
# 2 0.000447 0.012105 -0.000929 0.000000 0.000000 0.000000
# 3 -0.003820 -0.000929 0.021236 0.000000 0.000000 0.000000
# 4 0.000000 0.000000 0.000000 0.071789 0.000000 0.000000
# 5 0.000000 0.000000 0.000000 0.000000 0.052713 0.000000
# 6 0.000000 0.000000 0.000000 0.000000 0.000000 0.027110
#
#
# Mechanical properties :
#
#
# Convention : Reuss Voigt Hill
#
# Bulk Modulus (GPa) = 23.44231 23.87951 23.66091
# Shear Modulus (GPa) = 22.15355 25.80081 23.97718
#
# Velocity S-wave (km/s) = 3.38657 3.65472 3.52320
# Velocity P-wave (km/s) = 5.23716 5.49288 5.36654
#
# Compressibility (1/GPa) = 0.04265791
#
# Stress axis : x y z
#
# Youngs Moduli (GPa) = 55.80157 82.60859 47.08990
#
# Poissons Ratio (x) = -0.03691 0.17988
# Poissons Ratio (y) = -0.02493 0.04374
# Poissons Ratio (z) = 0.21316 0.07673
#
# Static dielectric constant tensor:
#      x y z
#    x 1.693400 0.000000 0.000000 
#    y 0.000000 1.712320 0.000000 
#    z 0.000000 0.000000 1.658660 
# 
# From -- ./inp_files/14988.got.cif
#   From: 2010.05.17/outbox.cif.g08.bks.cpg/sg55_8_cif.got.tgz:14988.got - 2010.06.03 13:27:54.
