data_PCOD9427584
_publ_section_title
;
Structure prediction by ZEFSAII (Michael W. Deem and Ramdas Pophale) SiO2 
 PCOD9427584
Probable space group: P B A M
;
_chemical_formula_sum "Si O2"
_cell_formula_units_Z 48
_cell_length_a 14.604644
_cell_length_b 18.281437
_cell_length_c 7.653431
_cell_angle_alpha 90.000000
_cell_angle_beta 90.000000
_cell_angle_gamma 90.000000
_cell_volume 2043.419232
_symmetry_space_group_name_H-M "P B A M"
_symmetry_group_IT_number 55
_symmetry_cell_setting 'orthorhombic'
loop_
_space_group_symop_operation_xyz
x,y,z
-x,-y,z
1/2+x,1/2-y,-z
1/2-x,1/2+y,-z
-x,-y,-z
x,y,-z
1/2-x,1/2+y,z
1/2+x,1/2-y,z
loop_
_atom_site_type_symbol
_atom_site_label
_atom_site_fract_x
_atom_site_fract_y
_atom_site_fract_z
Si Si1 0.040747 0.887876 0.288297
Si Si2 0.936820 0.369326 0.288673
Si Si3 0.318626 0.264074 0.714486
Si Si4 0.135323 0.334221 0.698185
Si Si5 0.637655 0.457431 0.710351
Si Si6 0.667407 0.007641 0.195851
O O1 0.037014 0.882961 0.500000
O O2 0.104185 0.822106 0.227212
O O3 0.935555 0.896692 0.228807
O O4 0.091681 0.964053 0.248156
O O5 0.941048 0.369668 0.500000
O O6 0.855606 0.314992 0.235385
O O7 0.913358 0.451108 0.233626
O O8 0.034061 0.338977 0.222671
O O9 0.316002 0.267300 0.500000
O O10 0.218347 0.287886 0.777120
O O11 0.122879 0.306056 0.500000
O O12 0.167930 0.418977 0.690872
O O13 0.644841 0.451618 0.500000
O O14 0.739315 0.462125 0.781147
O O15 0.660710 0.035276 0.000000
#
# Coordination Sequence:
#
# PCOD9427584 Si02
#       6
#     8   8   8   8   8   8
#     4   8  14  27  54  88 114 139 176 226 281 329
#     4  10  22  37  58  87 113 145 189 237 287 337
#     4   9  17  33  59  89 116 142 182 235 290 343
#     4  10  20  38  63  86 112 147 188 236 284 338
#     4   9  16  30  56  86 113 143 181 230 280 330
#     4  12  24  37  55  81 115 157 196 236 281 331
#
# _framework density 23.490037999999998
#
# number of rings (size 3 to 8) (size 9 to 14) (size 15 to 20)
#    0.000    2.333    1.667    3.000    0.000    4.000 
#    0.000    7.500    0.000    2.000    0.000    0.000 
#    0.000    0.000    0.000    0.000    0.000    0.000 
#
# Total GULP energy -268120.665743 kJ/mol
# GULP energy per Si atom -5585.847203 kJ/mol
# Density = 2.343657 g / cm^3
# Si number density = 23.490038 Si / 1000 Ang^3
#
#
#
# Elastic Constant Matrix: (Units=GPa)
#
#
# Indices 1 2 3 4 5 6 
#
# 1 154.1293 47.3211 5.2357 0.0000 0.0000 0.0000
# 2 47.3211 40.4511 2.1617 0.0000 0.0000 0.0000
# 3 5.2357 2.1617 51.9619 0.0000 0.0000 0.0000
# 4 0.0000 0.0000 0.0000 -60.0821 0.0000 0.0000
# 5 0.0000 0.0000 0.0000 0.0000 -336.8148 0.0000
# 6 0.0000 0.0000 0.0000 0.0000 0.0000 15.0958
#
#
#
# Elastic Compliance Matrix: (Units=1/GPa)
#
#
# Indices 1 2 3 4 5 6 
#
# 1 0.010139 -0.011833 -0.000529 0.000000 0.000000 0.000000
# 2 -0.011833 0.038585 -0.000413 0.000000 0.000000 0.000000
# 3 -0.000529 -0.000413 0.019315 0.000000 0.000000 0.000000
# 4 0.000000 0.000000 0.000000 -0.016644 0.000000 0.000000
# 5 0.000000 0.000000 0.000000 0.000000 -0.002969 0.000000
# 6 0.000000 0.000000 0.000000 0.000000 0.000000 0.066244
#
#
# Mechanical properties :
#
#
# Convention : Reuss Voigt Hill
#
# Bulk Modulus (GPa) = 23.53497 39.55327 31.54412
# Shear Modulus (GPa) = 32.38683 -63.57198 -15.59257
#
# Velocity S-wave (km/s) = 3.71718 -5.20789 -2.57922
# Velocity P-wave (km/s) = 5.33517 4.39181 2.14198
#
# Compressibility (1/GPa) = 0.04248997
#
# Stress axis : x y z
#
# Youngs Moduli (GPa) = 98.63002 25.91650 51.77224
#
# Poissons Ratio (x) = 0.30666 0.02741
# Poissons Ratio (y) = 1.16705 0.02138
# Poissons Ratio (z) = 0.05221 0.01070
#
# Static dielectric constant tensor:
#      x y z
#    x 1.906470 0.000000 0.000000 
#    y 0.000000 1.850330 0.000000 
#    z 0.000000 0.000000 1.959150 
# 
# From -- ./inp_files/5804.got.cif
#   From: 2010.05.17/outbox.cif.g08.bks.cpg/sg55_3_cif.got.tgz:5804.got - 2010.06.03 13:27:54.
