data_PCOD9427796
_publ_section_title
;
Structure prediction by ZEFSAII (Michael W. Deem and Ramdas Pophale) SiO2 
 PCOD9427796
Probable space group: P B A M
;
_chemical_formula_sum "Si O2"
_cell_formula_units_Z 48
_cell_length_a 16.049918
_cell_length_b 19.176081
_cell_length_c 7.523074
_cell_angle_alpha 90.000000
_cell_angle_beta 90.000000
_cell_angle_gamma 90.000000
_cell_volume 2315.410547
_symmetry_space_group_name_H-M "P B A M"
_symmetry_group_IT_number 55
_symmetry_cell_setting 'orthorhombic'
loop_
_space_group_symop_operation_xyz
x,y,z
-x,-y,z
1/2+x,1/2-y,-z
1/2-x,1/2+y,-z
-x,-y,-z
x,y,-z
1/2-x,1/2+y,z
1/2+x,1/2-y,z
loop_
_atom_site_type_symbol
_atom_site_label
_atom_site_fract_x
_atom_site_fract_y
_atom_site_fract_z
Si Si1 0.542682 0.764762 0.716117
Si Si2 0.734895 0.585901 0.796265
Si Si3 0.133741 0.488322 0.000000
Si Si4 0.092700 0.011935 0.212942
Si Si5 0.767932 0.238894 0.703771
Si Si6 0.520678 0.882606 0.000000
Si Si7 0.385858 0.672521 0.286803
O O1 0.539073 0.773093 0.500000
O O2 0.637212 0.744810 0.771081
O O3 0.473817 0.706855 0.769016
O O4 0.520616 0.834042 0.825940
O O5 0.657483 0.544815 0.715214
O O6 0.757946 0.657903 0.706216
O O7 0.713996 0.607662 0.000000
O O8 0.809071 0.530911 0.829987
O O9 0.100224 0.566179 0.000000
O O10 0.058456 0.433549 0.000000
O O11 0.119021 0.091261 0.243681
O O12 0.091712 0.001756 0.000000
O O13 0.000000 0.000000 0.282515
O O14 0.774690 0.262365 0.500000
O O15 0.693941 0.284960 0.785597
O O16 0.385331 0.679230 0.500000
#
# Coordination Sequence:
#
# PCOD9427796 Si02
#       7
#     8   8   4   8   8   4   8
#     4  10  23  39  59  91 122 150 202 251 293 361
#     4   9  20  36  56  78 119 151 188 246 285 345
#     4   9  22  39  54  89 113 148 215 244 278 381
#     4  10  21  35  55  84 118 150 191 235 294 360
#     4  10  21  37  58  86 118 153 198 243 295 357
#     4  11  22  39  65  81 118 162 194 250 311 340
#     4  10  22  38  58  86 118 152 195 245 292 354
#
# _framework density 20.730664999999998
#
# number of rings (size 3 to 8) (size 9 to 14) (size 15 to 20)
#    0.500    1.667    0.000    2.000    4.667    1.667 
#    0.000    2.500    0.000    0.000    0.000    0.000 
#    0.000    0.000    0.000    0.000    0.000    0.000 
#
# Total GULP energy -267670.306686 kJ/mol
# GULP energy per Si atom -5576.464723 kJ/mol
# Density = 2.068348 g / cm^3
# Si number density = 20.730665 Si / 1000 Ang^3
#
#
#
# Elastic Constant Matrix: (Units=GPa)
#
#
# Indices 1 2 3 4 5 6 
#
# 1 81.6691 4.6070 -0.3732 0.0000 0.0000 0.0000
# 2 4.6070 73.4934 -7.3611 0.0000 0.0000 0.0000
# 3 -0.3732 -7.3611 55.5046 0.0000 0.0000 0.0000
# 4 0.0000 0.0000 0.0000 32.1245 0.0000 0.0000
# 5 0.0000 0.0000 0.0000 0.0000 -10.8214 0.0000
# 6 0.0000 0.0000 0.0000 0.0000 0.0000 33.7140
#
#
#
# Elastic Compliance Matrix: (Units=1/GPa)
#
#
# Indices 1 2 3 4 5 6 
#
# 1 0.012288 -0.000772 -0.000020 0.000000 0.000000 0.000000
# 2 -0.000772 0.013838 0.001830 0.000000 0.000000 0.000000
# 3 -0.000020 0.001830 0.018259 0.000000 0.000000 0.000000
# 4 0.000000 0.000000 0.000000 0.031129 0.000000 0.000000
# 5 0.000000 0.000000 0.000000 0.000000 -0.092410 0.000000
# 6 0.000000 0.000000 0.000000 0.000000 0.000000 0.029661
#
#
# Mechanical properties :
#
#
# Convention : Reuss Voigt Hill
#
# Bulk Modulus (GPa) = 21.52320 22.71250 22.11785
# Shear Modulus (GPa) = 191.00720 25.25638 108.13179
#
# Velocity S-wave (km/s) = 9.60924 3.49422 7.23004
# Velocity P-wave (km/s) = 11.55515 5.22103 8.96607
#
# Compressibility (1/GPa) = 0.04646150
#
# Stress axis : x y z
#
# Youngs Moduli (GPa) = 81.38019 72.26279 54.76725
#
# Poissons Ratio (x) = 0.05581 0.00108
# Poissons Ratio (y) = 0.06285 -0.10023
# Poissons Ratio (z) = 0.00161 -0.13225
#
# Static dielectric constant tensor:
#      x y z
#    x 1.793250 0.000000 0.000000 
#    y 0.000000 1.690280 0.000000 
#    z 0.000000 0.000000 1.751830 
# 
# From -- ./inp_files/5707.got.cif
#   From: 2010.05.17/outbox.cif.g08.bks.cpg/sg55_3_cif.got.tgz:5707.got - 2010.06.03 13:27:54.
