data_PCOD9427322
_publ_section_title
;
Structure prediction by ZEFSAII (Michael W. Deem and Ramdas Pophale) SiO2 
 PCOD9427322
Probable space group: P B A M
;
_chemical_formula_sum "Si O2"
_cell_formula_units_Z 48
_cell_length_a 15.781648
_cell_length_b 9.764397
_cell_length_c 14.664663
_cell_angle_alpha 90.000000
_cell_angle_beta 90.000000
_cell_angle_gamma 90.000000
_cell_volume 2259.799292
_symmetry_space_group_name_H-M "P B A M"
_symmetry_group_IT_number 55
_symmetry_cell_setting 'orthorhombic'
loop_
_space_group_symop_operation_xyz
x,y,z
-x,-y,z
1/2+x,1/2-y,-z
1/2-x,1/2+y,-z
-x,-y,-z
x,y,-z
1/2-x,1/2+y,z
1/2+x,1/2-y,z
loop_
_atom_site_type_symbol
_atom_site_label
_atom_site_fract_x
_atom_site_fract_y
_atom_site_fract_z
Si Si1 0.346206 0.677441 0.810684
Si Si2 0.907838 0.571085 0.298209
Si Si3 0.933330 0.122000 0.500000
Si Si4 0.656130 0.789770 0.000000
Si Si5 0.094869 0.938996 0.693642
Si Si6 0.650968 0.814990 0.196010
Si Si7 0.936887 0.626712 0.500000
Si Si8 0.665797 0.454478 0.000000
O O1 0.401097 0.800745 0.769945
O O2 0.348775 0.556876 0.736595
O O3 0.249121 0.728413 0.818359
O O4 0.373504 0.607902 0.906695
O O5 0.850517 0.451618 0.255851
O O6 0.888825 0.619399 0.402490
O O7 0.000000 0.500000 0.299311
O O8 0.881150 0.107190 0.592060
O O9 0.996430 0.249572 0.500000
O O10 0.000000 0.000000 0.500000
O O11 0.612877 0.830080 0.905064
O O12 0.740561 0.885852 0.000000
O O13 0.668234 0.621745 0.000000
O O14 0.101738 0.804671 0.753899
O O15 0.000000 0.000000 0.693500
O O16 0.000000 0.500000 0.500000
#
# Coordination Sequence:
#
# PCOD9427322 Si02
#       8
#     8   8   4   4   8   8   4   4
#     4  11  23  40  63  91 126 161 210 261 317 373
#     4  11  23  41  64  92 125 166 212 260 310 375
#     4  10  20  36  63  88 117 164 211 242 299 388
#     4  10  22  40  65  90 124 170 214 246 312 398
#     4  11  21  39  62  90 121 162 211 259 310 371
#     4  11  23  40  63  91 124 163 209 259 314 373
#     4  10  20  40  63  88 121 170 211 242 301 388
#     4  10  22  40  65  90 124 172 212 248 310 398
#
# _framework density 21.240824
#
# number of rings (size 3 to 8) (size 9 to 14) (size 15 to 20)
#    0.000    1.333    1.667    6.000    7.000    0.000 
#    0.000   10.000    0.000    0.000    0.000    0.000 
#    0.000    0.000    0.000    0.000    0.000    0.000 
#
# Total GULP energy -267766.572929 kJ/mol
# GULP energy per Si atom -5578.470269 kJ/mol
# Density = 2.119248 g / cm^3
# Si number density = 21.240824 Si / 1000 Ang^3
#
#
#
# Elastic Constant Matrix: (Units=GPa)
#
#
# Indices 1 2 3 4 5 6 
#
# 1 33.6417 4.5777 22.2325 0.0000 0.0000 0.0000
# 2 4.5777 127.1501 33.7658 0.0000 0.0000 0.0000
# 3 22.2325 33.7658 169.0143 0.0000 0.0000 0.0000
# 4 0.0000 0.0000 0.0000 34.8600 0.0000 0.0000
# 5 0.0000 0.0000 0.0000 0.0000 27.8542 0.0000
# 6 0.0000 0.0000 0.0000 0.0000 0.0000 38.1651
#
#
#
# Elastic Compliance Matrix: (Units=1/GPa)
#
#
# Indices 1 2 3 4 5 6 
#
# 1 0.032555 -0.000037 -0.004275 0.000000 0.000000 0.000000
# 2 -0.000037 0.008305 -0.001654 0.000000 0.000000 0.000000
# 3 -0.004275 -0.001654 0.006810 0.000000 0.000000 0.000000
# 4 0.000000 0.000000 0.000000 0.028686 0.000000 0.000000
# 5 0.000000 0.000000 0.000000 0.000000 0.035901 0.000000
# 6 0.000000 0.000000 0.000000 0.000000 0.000000 0.026202
#
#
# Mechanical properties :
#
#
# Convention : Reuss Voigt Hill
#
# Bulk Modulus (GPa) = 27.98169 50.10644 39.04407
# Shear Modulus (GPa) = 30.80631 38.12455 34.46543
#
# Velocity S-wave (km/s) = 3.81246 4.24119 4.03253
# Velocity P-wave (km/s) = 5.70806 6.90105 6.33271
#
# Compressibility (1/GPa) = 0.03573765
#
# Stress axis : x y z
#
# Youngs Moduli (GPa) = 30.71707 120.40376 146.85311
#
# Poissons Ratio (x) = 0.00443 0.62780
# Poissons Ratio (y) = 0.00113 0.24296
# Poissons Ratio (z) = 0.13132 0.19920
#
# Static dielectric constant tensor:
#      x y z
#    x 1.806340 0.000000 0.000000 
#    y 0.000000 1.757430 0.000000 
#    z 0.000000 0.000000 1.909900 
# 
# From -- ./inp_files/19422.got.cif
#   From: 2010.05.17/outbox.cif.g08.bks.cpg/sg55_10_cif.got.tgz:19422.got - 2010.06.03 13:27:54.
