data_PCOD9427503
_publ_section_title
;
Structure prediction by ZEFSAII (Michael W. Deem and Ramdas Pophale) SiO2 
 PCOD9427503
Probable space group: P B A M
;
_chemical_formula_sum "Si O2"
_cell_formula_units_Z 64
_cell_length_a 20.584504
_cell_length_b 11.549398
_cell_length_c 13.425366
_cell_angle_alpha 90.000000
_cell_angle_beta 90.000000
_cell_angle_gamma 90.000000
_cell_volume 3191.728111
_symmetry_space_group_name_H-M "P B A M"
_symmetry_group_IT_number 55
_symmetry_cell_setting 'orthorhombic'
loop_
_space_group_symop_operation_xyz
x,y,z
-x,-y,z
1/2+x,1/2-y,-z
1/2-x,1/2+y,-z
-x,-y,-z
x,y,-z
1/2-x,1/2+y,z
1/2+x,1/2-y,z
loop_
_atom_site_type_symbol
_atom_site_label
_atom_site_fract_x
_atom_site_fract_y
_atom_site_fract_z
Si Si1 0.678587 0.128583 0.616406
Si Si2 0.513705 0.366707 0.886774
Si Si3 0.818280 0.208293 0.384698
Si Si4 0.871150 0.237386 0.887192
Si Si5 0.826518 0.424872 0.744104
Si Si6 0.576287 0.528772 0.618193
Si Si7 0.131186 0.165838 0.756724
Si Si8 0.285674 0.491205 0.880549
O O1 0.661879 0.150228 0.500000
O O2 0.757604 0.119689 0.620139
O O3 0.658163 0.228996 0.692671
O O4 0.647301 0.012738 0.661584
O O5 0.500000 0.500000 0.858347
O O6 0.443859 0.309144 0.887494
O O7 0.563827 0.307401 0.812864
O O8 0.539998 0.368541 0.000000
O O9 0.824296 0.243635 0.500000
O O10 0.797307 0.319003 0.320524
O O11 0.887433 0.150075 0.354555
O O12 0.869417 0.350174 0.819238
O O13 0.824470 0.128601 0.858435
O O14 0.851582 0.268580 0.000000
O O15 0.779230 0.498681 0.815464
O O16 0.500000 0.500000 0.635977
O O17 0.586001 0.518067 0.500000
O O18 0.616107 0.434176 0.677695
O O19 0.174933 0.103620 0.841009
O O20 0.276614 0.496383 0.000000
#
# Coordination Sequence:
#
# PCOD9427503 Si02
#       8
#     8   8   8   8   8   8   8   8
#     4  11  25  42  62  91 127 170 218 262 313 384
#     4  10  20  37  63  95 125 160 209 266 318 380
#     4  10  22  39  62  90 121 160 209 265 320 378
#     4  10  22  40  63  92 125 160 207 260 319 385
#     4  12  22  40  61  89 123 172 209 257 316 380
#     4  10  22  38  62  95 125 156 210 279 334 376
#     4  12  21  37  61  91 126 168 204 255 319 386
#     4  11  23  38  61  97 132 159 199 263 327 386
#
# _framework density 20.051832000000001
#
# number of rings (size 3 to 8) (size 9 to 14) (size 15 to 20)
#    0.000    1.250    2.500    4.125    1.750    0.000 
#    0.000    2.500    0.000    2.250    0.000    0.000 
#    0.000    0.000    0.000    0.000    0.000    0.000 
#
# Total GULP energy -356950.431782 kJ/mol
# GULP energy per Si atom -5577.350497 kJ/mol
# Density = 2.000619 g / cm^3
# Si number density = 20.051832 Si / 1000 Ang^3
#
#
#
# Elastic Constant Matrix: (Units=GPa)
#
#
# Indices 1 2 3 4 5 6 
#
# 1 50.5255 12.5539 32.6028 0.0000 0.0000 0.0000
# 2 12.5539 63.0921 38.6537 0.0000 0.0000 0.0000
# 3 32.6028 38.6537 117.1472 0.0000 0.0000 0.0000
# 4 0.0000 0.0000 0.0000 54.8200 0.0000 0.0000
# 5 0.0000 0.0000 0.0000 0.0000 28.9546 0.0000
# 6 0.0000 0.0000 0.0000 0.0000 0.0000 20.3604
#
#
#
# Elastic Compliance Matrix: (Units=1/GPa)
#
#
# Indices 1 2 3 4 5 6 
#
# 1 0.024162 -0.000862 -0.006440 0.000000 0.000000 0.000000
# 2 -0.000862 0.019896 -0.006325 0.000000 0.000000 0.000000
# 3 -0.006440 -0.006325 0.012416 0.000000 0.000000 0.000000
# 4 0.000000 0.000000 0.000000 0.018242 0.000000 0.000000
# 5 0.000000 0.000000 0.000000 0.000000 0.034537 0.000000
# 6 0.000000 0.000000 0.000000 0.000000 0.000000 0.049115
#
#
# Mechanical properties :
#
#
# Convention : Reuss Voigt Hill
#
# Bulk Modulus (GPa) = 34.22379 44.26508 39.24444
# Shear Modulus (GPa) = 25.59362 30.62394 28.10878
#
# Velocity S-wave (km/s) = 3.57651 3.91223 3.74813
# Velocity P-wave (km/s) = 5.84465 6.52155 6.19236
#
# Compressibility (1/GPa) = 0.02921944
#
# Stress axis : x y z
#
# Youngs Moduli (GPa) = 41.38783 50.26013 80.54427
#
# Poissons Ratio (x) = 0.04334 0.51869
# Poissons Ratio (y) = 0.03569 0.50945
# Poissons Ratio (z) = 0.26653 0.31790
#
# Static dielectric constant tensor:
#      x y z
#    x 1.743790 0.000000 0.000000 
#    y 0.000000 1.669130 0.000000 
#    z 0.000000 0.000000 1.757130 
# 
# From -- ./inp_files/19967.got.cif
#   From: 2010.05.17/outbox.cif.g08.bks.cpg/sg55_10_cif.got.tgz:19967.got - 2010.06.03 13:27:54.
