data_PCOD9427219
_publ_section_title
;
Structure prediction by ZEFSAII (Michael W. Deem and Ramdas Pophale) SiO2 
 PCOD9427219
Probable space group: P B A M
;
_chemical_formula_sum "Si O2"
_cell_formula_units_Z 64
_cell_length_a 26.836848
_cell_length_b 15.162771
_cell_length_c 8.072180
_cell_angle_alpha 90.000000
_cell_angle_beta 90.000000
_cell_angle_gamma 90.000000
_cell_volume 3284.739401
_symmetry_space_group_name_H-M "P B A M"
_symmetry_group_IT_number 55
_symmetry_cell_setting 'orthorhombic'
loop_
_space_group_symop_operation_xyz
x,y,z
-x,-y,z
1/2+x,1/2-y,-z
1/2-x,1/2+y,-z
-x,-y,-z
x,y,-z
1/2-x,1/2+y,z
1/2+x,1/2-y,z
loop_
_atom_site_type_symbol
_atom_site_label
_atom_site_fract_x
_atom_site_fract_y
_atom_site_fract_z
Si Si1 0.000742 0.397505 0.800005
Si Si2 0.609081 0.160235 0.805220
Si Si3 0.213667 0.000837 0.702776
Si Si4 0.364061 0.647276 0.305505
Si Si5 0.826751 0.496411 0.697328
Si Si6 0.366828 0.360212 0.299160
Si Si7 0.056791 0.007279 0.802419
Si Si8 0.606908 0.834148 0.300396
O O1 0.950731 0.349405 0.742909
O O2 0.000000 0.500000 0.745364
O O3 0.052330 0.353048 0.742655
O O4 0.000199 0.396893 0.000000
O O5 0.628298 0.258763 0.777516
O O6 0.644978 0.087818 0.726036
O O7 0.608155 0.141171 0.000000
O O8 0.213573 0.001373 0.500000
O O9 0.270297 0.002080 0.762374
O O10 0.182571 0.913914 0.753177
O O11 0.181715 0.086359 0.755818
O O12 0.356520 0.662786 0.500000
O O13 0.412800 0.586946 0.279350
O O14 0.822713 0.483141 0.500000
O O15 0.860401 0.416186 0.764101
O O16 0.367492 0.360550 0.500000
O O17 0.413141 0.418542 0.238367
O O18 0.372423 0.259997 0.241247
O O19 0.057063 0.021764 0.000000
O O20 0.000000 0.000000 0.745510
O O21 0.610381 0.833971 0.500000
#
# Coordination Sequence:
#
# PCOD9427219 Si02
#       8
#     8   8   8   8   8   8   8   8
#     4  10  21  38  56  74 107 153 186 220 277 338
#     4  11  23  38  56  82 115 149 188 231 278 338
#     4   8  17  36  60  82 109 144 182 226 277 329
#     4  10  21  38  60  84 111 146 187 233 283 332
#     4  10  20  36  59  85 111 146 189 232 277 329
#     4   9  19  36  55  80 112 146 184 232 280 327
#     4  10  21  36  54  79 111 147 186 229 277 335
#     4  10  21  34  54  85 113 139 183 236 277 320
#
# _framework density 19.484043
#
# number of rings (size 3 to 8) (size 9 to 14) (size 15 to 20)
#    0.000    2.250    1.250    1.875    1.750    3.750 
#    0.000    6.875    0.000    1.500    0.000    0.000 
#    0.000    0.000    0.000    0.000    0.000    0.000 
#
# Total GULP energy -357256.786505 kJ/mol
# GULP energy per Si atom -5582.137289 kJ/mol
# Density = 1.943970 g / cm^3
# Si number density = 19.484043 Si / 1000 Ang^3
#
#
#
# Elastic Constant Matrix: (Units=GPa)
#
#
# Indices 1 2 3 4 5 6 
#
# 1 183.4320 75.4333 2.1893 0.0000 0.0000 0.0000
# 2 75.4333 137.6255 -6.2152 0.0000 0.0000 0.0000
# 3 2.1893 -6.2152 10.6267 0.0000 0.0000 0.0000
# 4 0.0000 0.0000 0.0000 -49.4237 0.0000 0.0000
# 5 0.0000 0.0000 0.0000 0.0000 61.9960 0.0000
# 6 0.0000 0.0000 0.0000 0.0000 0.0000 1.8952
#
#
#
# Elastic Compliance Matrix: (Units=1/GPa)
#
#
# Indices 1 2 3 4 5 6 
#
# 1 0.007191 -0.004117 -0.003889 0.000000 0.000000 0.000000
# 2 -0.004117 0.009820 0.006592 0.000000 0.000000 0.000000
# 3 -0.003889 0.006592 0.098760 0.000000 0.000000 0.000000
# 4 0.000000 0.000000 0.000000 -0.020233 0.000000 0.000000
# 5 0.000000 0.000000 0.000000 0.000000 0.016130 0.000000
# 6 0.000000 0.000000 0.000000 0.000000 0.000000 0.527640
#
#
# Mechanical properties :
#
#
# Convention : Reuss Voigt Hill
#
# Bulk Modulus (GPa) = 8.85414 52.72210 30.78812
# Shear Modulus (GPa) = 7.35527 20.24530 13.80029
#
# Velocity S-wave (km/s) = 1.94505 3.22696 2.66425
# Velocity P-wave (km/s) = 3.09814 6.40330 5.02994
#
# Compressibility (1/GPa) = 0.11294158
#
# Stress axis : x y z
#
# Youngs Moduli (GPa) = 139.06000 101.82873 10.12559
#
# Poissons Ratio (x) = 0.41924 0.03938
# Poissons Ratio (y) = 0.57253 -0.06675
# Poissons Ratio (z) = 0.54087 -0.67124
#
# Static dielectric constant tensor:
#      x y z
#    x 1.669600 0.000000 0.000000 
#    y 0.000000 1.655690 0.000000 
#    z 0.000000 0.000000 1.690490 
# 
# From -- ./inp_files/9830.got.cif
#   From: 2010.05.17/outbox.cif.g08.bks.cpg/sg55_5_cif.got.tgz:9830.got - 2010.06.03 13:27:54.
