data_PCOD9427678
_publ_section_title
;
Structure prediction by ZEFSAII (Michael W. Deem and Ramdas Pophale) SiO2 
 PCOD9427678
Probable space group: P B A M
;
_chemical_formula_sum "Si O2"
_cell_formula_units_Z 64
_cell_length_a 22.027194
_cell_length_b 11.243311
_cell_length_c 12.770234
_cell_angle_alpha 90.000000
_cell_angle_beta 90.000000
_cell_angle_gamma 90.000000
_cell_volume 3162.658180
_symmetry_space_group_name_H-M "P B A M"
_symmetry_group_IT_number 55
_symmetry_cell_setting 'orthorhombic'
loop_
_space_group_symop_operation_xyz
x,y,z
-x,-y,z
1/2+x,1/2-y,-z
1/2-x,1/2+y,-z
-x,-y,-z
x,y,-z
1/2-x,1/2+y,z
1/2+x,1/2-y,z
loop_
_atom_site_type_symbol
_atom_site_label
_atom_site_fract_x
_atom_site_fract_y
_atom_site_fract_z
Si Si1 0.788007 0.195426 0.615815
Si Si2 0.039315 0.618051 0.121843
Si Si3 0.337535 0.105059 0.251958
Si Si4 0.432999 0.658230 0.375282
Si Si5 0.645905 0.524171 0.238427
Si Si6 0.523446 0.629757 0.804920
Si Si7 0.336425 0.829142 0.297527
Si Si8 0.283287 0.668876 0.877786
O O1 0.803029 0.155145 0.500000
O O2 0.827276 0.308618 0.649490
O O3 0.803054 0.094664 0.699861
O O4 0.716616 0.220733 0.626867
O O5 0.098522 0.618930 0.194333
O O6 0.006929 0.746978 0.137898
O O7 0.000000 0.500000 0.146692
O O8 0.056631 0.608621 0.000000
O O9 0.282047 0.142114 0.174727
O O10 0.333719 0.969681 0.289072
O O11 0.438348 0.647116 0.500000
O O12 0.389020 0.559900 0.321623
O O13 0.495808 0.643518 0.311982
O O14 0.400058 0.780317 0.340439
O O15 0.595589 0.614052 0.195987
O O16 0.675240 0.445567 0.148029
O O17 0.500000 0.500000 0.845247
O O18 0.317608 0.773518 0.185277
O O19 0.277854 0.692486 0.000000
#
# Coordination Sequence:
#
# PCOD9427678 Si02
#       8
#     8   8   8   8   8   8   8   8
#     4  11  22  37  61  89 125 165 203 257 322 374
#     4  11  24  42  64  89 124 171 213 263 330 388
#     4  11  22  42  61  89 122 164 214 261 305 392
#     4  10  21  38  64  89 121 166 208 256 315 371
#     4  10  20  40  59  93 126 153 204 265 308 376
#     4  10  22  41  64  91 125 162 213 270 313 371
#     4  10  22  40  59  90 129 159 209 259 314 386
#     4  10  22  39  63  92 124 164 204 259 324 381
#
# _framework density 20.236142000000001
#
# number of rings (size 3 to 8) (size 9 to 14) (size 15 to 20)
#    0.000    1.625    2.500    1.875    0.000    5.500 
#    0.000    7.500    0.000    1.500    0.000    0.000 
#    0.000    0.000    0.000    0.000    0.000    0.000 
#
# Total GULP energy -357238.427603 kJ/mol
# GULP energy per Si atom -5581.850431 kJ/mol
# Density = 2.019008 g / cm^3
# Si number density = 20.236142 Si / 1000 Ang^3
#
#
#
# Elastic Constant Matrix: (Units=GPa)
#
#
# Indices 1 2 3 4 5 6 
#
# 1 51.9065 -8.2414 -12.5642 0.0000 0.0000 0.0000
# 2 -8.2414 96.6811 -3.0337 0.0000 0.0000 0.0000
# 3 -12.5642 -3.0337 32.8456 0.0000 0.0000 0.0000
# 4 0.0000 0.0000 0.0000 14.5954 0.0000 0.0000
# 5 0.0000 0.0000 0.0000 0.0000 12.1804 0.0000
# 6 0.0000 0.0000 0.0000 0.0000 0.0000 21.7913
#
#
#
# Elastic Compliance Matrix: (Units=1/GPa)
#
#
# Indices 1 2 3 4 5 6 
#
# 1 0.021653 0.002112 0.008478 0.000000 0.000000 0.000000
# 2 0.002112 0.010579 0.001785 0.000000 0.000000 0.000000
# 3 0.008478 0.001785 0.033853 0.000000 0.000000 0.000000
# 4 0.000000 0.000000 0.000000 0.068515 0.000000 0.000000
# 5 0.000000 0.000000 0.000000 0.000000 0.082099 0.000000
# 6 0.000000 0.000000 0.000000 0.000000 0.000000 0.045890
#
#
# Mechanical properties :
#
#
# Convention : Reuss Voigt Hill
#
# Bulk Modulus (GPa) = 11.00908 14.86164 12.93536
# Shear Modulus (GPa) = 18.64846 23.39823 21.02335
#
# Velocity S-wave (km/s) = 3.03898 3.40407 3.22670
# Velocity P-wave (km/s) = 4.21498 4.77601 4.50424
#
# Compressibility (1/GPa) = 0.09083412
#
# Stress axis : x y z
#
# Youngs Moduli (GPa) = 46.18351 94.52417 29.53924
#
# Poissons Ratio (x) = -0.19961 -0.25043
# Poissons Ratio (y) = -0.09753 -0.05273
# Poissons Ratio (z) = -0.39153 -0.16872
#
# Static dielectric constant tensor:
#      x y z
#    x 1.737180 0.000000 0.000000 
#    y 0.000000 1.756850 0.000000 
#    z 0.000000 0.000000 1.669190 
# 
# From -- ./inp_files/15746.got.cif
#   From: 2010.05.17/outbox.cif.g08.bks.cpg/sg55_8_cif.got.tgz:15746.got - 2010.06.03 13:27:54.
