data_PCOD9427853
_publ_section_title
;
Structure prediction by ZEFSAII (Michael W. Deem and Ramdas Pophale) SiO2 
 PCOD9427853
Probable space group: P B A M
;
_chemical_formula_sum "Si O2"
_cell_formula_units_Z 40
_cell_length_a 18.366752
_cell_length_b 13.724378
_cell_length_c 9.022552
_cell_angle_alpha 90.000000
_cell_angle_beta 90.000000
_cell_angle_gamma 90.000000
_cell_volume 2274.334957
_symmetry_space_group_name_H-M "P B A M"
_symmetry_group_IT_number 55
_symmetry_cell_setting 'orthorhombic'
loop_
_space_group_symop_operation_xyz
x,y,z
-x,-y,z
1/2+x,1/2-y,-z
1/2-x,1/2+y,-z
-x,-y,-z
x,y,-z
1/2-x,1/2+y,z
1/2+x,1/2-y,z
loop_
_atom_site_type_symbol
_atom_site_label
_atom_site_fract_x
_atom_site_fract_y
_atom_site_fract_z
Si Si1 0.979844 0.197227 0.822975
Si Si2 0.877286 0.886678 0.323139
Si Si3 0.669400 0.586001 0.176636
Si Si4 0.970305 0.606206 0.322204
Si Si5 0.689952 0.177064 0.675974
O O1 0.901571 0.151316 0.788528
O O2 0.044072 0.133746 0.749325
O O3 0.988772 0.305964 0.759388
O O4 0.989719 0.197494 0.000000
O O5 0.885411 0.895594 0.500000
O O6 0.829346 0.789945 0.293652
O O7 0.841674 0.982353 0.255184
O O8 0.741928 0.637881 0.234244
O O9 0.672257 0.572659 0.000000
O O10 0.978742 0.619581 0.500000
O O11 0.884481 0.618610 0.289650
O O12 0.000000 0.500000 0.282360
O O13 0.704105 0.167137 0.500000
#
# Coordination Sequence:
#
# PCOD9427853 Si02
#       5
#     8   8   8   8   8
#     4  10  21  36  54  80 111 141 179 223 268 323
#     4  10  21  38  59  80 105 141 182 224 270 317
#     4  11  23  36  54  82 113 144 177 218 270 323
#     4   9  19  37  59  81 107 142 184 227 270 318
#     4   9  20  37  55  79 108 139 179 223 266 315
#
# _framework density 17.587558999999999
#
# number of rings (size 3 to 8) (size 9 to 14) (size 15 to 20)
#    0.000    2.200    0.000    3.600    0.000   11.600 
#    0.000    6.000    0.000    0.000    0.000    0.000 
#    0.000    0.000    0.000    0.000    0.000    0.000 
#
# Total GULP energy -223371.337651 kJ/mol
# GULP energy per Si atom -5584.283441 kJ/mol
# Density = 1.754753 g / cm^3
# Si number density = 17.587559 Si / 1000 Ang^3
#
#
#
# Elastic Constant Matrix: (Units=GPa)
#
#
# Indices 1 2 3 4 5 6 
#
# 1 137.4764 107.0171 79.3992 0.0000 0.0000 0.0000
# 2 107.0171 123.4907 75.8065 0.0000 0.0000 0.0000
# 3 79.3992 75.8065 68.8305 0.0000 0.0000 0.0000
# 4 0.0000 0.0000 0.0000 25.8881 0.0000 0.0000
# 5 0.0000 0.0000 0.0000 0.0000 29.6915 0.0000
# 6 0.0000 0.0000 0.0000 0.0000 0.0000 16.6723
#
#
#
# Elastic Compliance Matrix: (Units=1/GPa)
#
#
# Indices 1 2 3 4 5 6 
#
# 1 0.027540 -0.013474 -0.016929 0.000000 0.000000 0.000000
# 2 -0.013474 0.031592 -0.019250 0.000000 0.000000 0.000000
# 3 -0.016929 -0.019250 0.055259 0.000000 0.000000 0.000000
# 4 0.000000 0.000000 0.000000 0.038628 0.000000 0.000000
# 5 0.000000 0.000000 0.000000 0.000000 0.033680 0.000000
# 6 0.000000 0.000000 0.000000 0.000000 0.000000 0.059980
#
#
# Mechanical properties :
#
#
# Convention : Reuss Voigt Hill
#
# Bulk Modulus (GPa) = 66.30028 94.91592 80.60810
# Shear Modulus (GPa) = 14.24451 18.95535 16.59993
#
# Velocity S-wave (km/s) = 2.84900 3.28650 3.07554
# Velocity P-wave (km/s) = 6.97148 8.27564 7.65140
#
# Compressibility (1/GPa) = 0.01508289
#
# Stress axis : x y z
#
# Youngs Moduli (GPa) = 36.31062 31.65405 18.09676
#
# Poissons Ratio (x) = 0.42651 0.30636
# Poissons Ratio (y) = 0.48925 0.34837
# Poissons Ratio (z) = 0.61471 0.60935
#
# Static dielectric constant tensor:
#      x y z
#    x 1.570920 0.000000 0.000000 
#    y 0.000000 1.579800 0.000000 
#    z 0.000000 0.000000 1.584880 
# 
# From -- ./inp_files/3598.got.cif
#   From: 2010.05.17/outbox.cif.g08.bks.cpg/sg55_2_cif.got.tgz:3598.got - 2010.06.03 13:27:54.
