data_PCOD9427846
_publ_section_title
;
Structure prediction by ZEFSAII (Michael W. Deem and Ramdas Pophale) SiO2 
 PCOD9427846
Probable space group: P B A M
;
_chemical_formula_sum "Si O2"
_cell_formula_units_Z 38
_cell_length_a 5.001797
_cell_length_b 10.174509
_cell_length_c 28.174462
_cell_angle_alpha 90.000000
_cell_angle_beta 90.000000
_cell_angle_gamma 90.000000
_cell_volume 1433.821716
_symmetry_space_group_name_H-M "P B A M"
_symmetry_group_IT_number 55
_symmetry_cell_setting 'orthorhombic'
loop_
_space_group_symop_operation_xyz
x,y,z
-x,-y,z
1/2+x,1/2-y,-z
1/2-x,1/2+y,-z
-x,-y,-z
x,y,-z
1/2-x,1/2+y,z
1/2+x,1/2-y,z
loop_
_atom_site_type_symbol
_atom_site_label
_atom_site_fract_x
_atom_site_fract_y
_atom_site_fract_z
Si Si1 0.197388 0.343353 0.050985
Si Si2 0.196350 0.341486 0.750169
Si Si3 0.184480 0.842748 0.850013
Si Si4 0.242681 0.165568 0.585684
Si Si5 0.500000 0.000000 0.500000
Si Si6 0.500000 0.000000 0.667794
O O1 0.406012 0.221749 0.051709
O O2 0.254537 0.415189 0.100522
O O3 0.236290 0.411669 0.000000
O O4 0.405306 0.223193 0.749488
O O5 0.253109 0.412536 0.800305
O O6 0.203010 0.427198 0.703254
O O7 0.389619 0.718561 0.850016
O O8 0.432589 0.295148 0.583146
O O9 0.328562 0.077743 0.541453
O O10 0.332765 0.095957 0.633950
#
# Coordination Sequence:
#
# PCOD9427846 Si02
#       6
#     8   8   8   8   2   4
#     4   8  12  18  31  53  81 114 154 201 256 318
#     4  10  21  36  54  78 108 143 187 234 279 334
#     4   8  14  25  40  60  90 125 163 214 267 317
#     4  11  25  43  64  94 127 157 196 240 279 329
#     4  10  24  42  72  96 124 166 198 230 286 332
#     4  11  24  39  62  86 115 158 193 232 288 332
#
# _framework density 26.502596
#
# number of rings (size 3 to 8) (size 9 to 14) (size 15 to 20)
#    0.000    2.526    0.000    1.895    0.000    6.737 
#    0.000    0.000    0.000    0.000    0.000    0.737 
#    0.000    0.000    0.000   70.316    0.000    3.789 
#
# Total GULP energy -212370.632305 kJ/mol
# GULP energy per Si atom -5588.700850 kJ/mol
# Density = 2.644227 g / cm^3
# Si number density = 26.502596 Si / 1000 Ang^3
#
#
#
# Elastic Constant Matrix: (Units=GPa)
#
#
# Indices 1 2 3 4 5 6 
#
# 1 102.3600 27.4778 6.8104 0.0000 0.0000 0.0000
# 2 27.4778 59.9212 47.1203 0.0000 0.0000 0.0000
# 3 6.8104 47.1203 282.7355 0.0000 0.0000 0.0000
# 4 0.0000 0.0000 0.0000 11.1780 0.0000 0.0000
# 5 0.0000 0.0000 0.0000 0.0000 28.1797 0.0000
# 6 0.0000 0.0000 0.0000 0.0000 0.0000 46.9101
#
#
#
# Elastic Compliance Matrix: (Units=1/GPa)
#
#
# Indices 1 2 3 4 5 6 
#
# 1 0.011253 -0.005693 0.000678 0.000000 0.000000 0.000000
# 2 -0.005693 0.022086 -0.003544 0.000000 0.000000 0.000000
# 3 0.000678 -0.003544 0.004111 0.000000 0.000000 0.000000
# 4 0.000000 0.000000 0.000000 0.089461 0.000000 0.000000
# 5 0.000000 0.000000 0.000000 0.000000 0.035487 0.000000
# 6 0.000000 0.000000 0.000000 0.000000 0.000000 0.021317
#
#
# Mechanical properties :
#
#
# Convention : Reuss Voigt Hill
#
# Bulk Modulus (GPa) = 49.18428 67.53709 58.36069
# Shear Modulus (GPa) = 24.08362 41.49410 32.78886
#
# Velocity S-wave (km/s) = 3.01778 3.96114 3.52119
# Velocity P-wave (km/s) = 5.54448 6.81611 6.21291
#
# Compressibility (1/GPa) = 0.02033170
#
# Stress axis : x y z
#
# Youngs Moduli (GPa) = 88.86841 45.27789 243.24208
#
# Poissons Ratio (x) = 0.25777 -0.16485
# Poissons Ratio (y) = 0.50593 0.86197
# Poissons Ratio (z) = -0.06023 0.16045
#
# Static dielectric constant tensor:
#      x y z
#    x 2.111460 0.000000 0.000000 
#    y 0.000000 2.224730 0.000000 
#    z 0.000000 0.000000 2.092840 
# 
# From -- ./inp_files/23755.got.cif
#   From: 2010.05.17/outbox.cif.g08.bks.cpg/sg55_12_cif.got.tgz:23755.got - 2010.06.03 13:27:54.
