data_PCOD9427176
_publ_section_title
;
Structure prediction by ZEFSAII (Michael W. Deem and Ramdas Pophale) SiO2 
 PCOD9427176
Probable space group: P B A M
;
_chemical_formula_sum "Si O2"
_cell_formula_units_Z 56
_cell_length_a 14.456394
_cell_length_b 8.302138
_cell_length_c 24.149760
_cell_angle_alpha 90.000000
_cell_angle_beta 90.000000
_cell_angle_gamma 90.000000
_cell_volume 2898.429513
_symmetry_space_group_name_H-M "P B A M"
_symmetry_group_IT_number 55
_symmetry_cell_setting 'orthorhombic'
loop_
_space_group_symop_operation_xyz
x,y,z
-x,-y,z
1/2+x,1/2-y,-z
1/2-x,1/2+y,-z
-x,-y,-z
x,y,-z
1/2-x,1/2+y,z
1/2+x,1/2-y,z
loop_
_atom_site_type_symbol
_atom_site_label
_atom_site_fract_x
_atom_site_fract_y
_atom_site_fract_z
Si Si1 0.991815 0.804779 0.937428
Si Si2 0.307921 0.806573 0.436455
Si Si3 0.865410 0.192277 0.157351
Si Si4 0.984492 0.688005 0.241394
Si Si5 0.886663 0.333586 0.436842
Si Si6 0.462192 0.678808 0.637274
Si Si7 0.156160 0.192742 0.849532
O O1 0.073437 0.753674 0.895706
O O2 0.895281 0.763804 0.907153
O O3 0.998740 0.743381 0.000000
O O4 0.000000 0.000000 0.939672
O O5 0.326438 0.752316 0.500000
O O6 0.198503 0.788568 0.428371
O O7 0.363912 0.702781 0.392177
O O8 0.342939 0.989299 0.431353
O O9 0.763323 0.264093 0.153452
O O10 0.923802 0.244454 0.211050
O O11 0.858151 0.998688 0.157633
O O12 0.900931 0.717778 0.198521
O O13 0.000000 0.500000 0.251881
O O14 0.962353 0.777313 0.298351
O O15 0.921705 0.317077 0.500000
O O16 0.967530 0.297960 0.394431
O O17 0.500000 0.500000 0.629194
#
# Coordination Sequence:
#
# PCOD9427176 Si02
#       7
#     8   8   8   8   8   8   8
#     4   8  16  32  54  82 117 152 186 227 271 319
#     4  10  21  38  59  84 114 147 184 226 274 329
#     4  10  20  36  58  83 113 149 188 228 275 328
#     4  11  23  40  59  80 108 142 186 235 282 330
#     4  10  21  38  59  84 114 147 184 226 274 329
#     4  12  24  38  58  84 113 145 184 228 279 334
#     4  10  20  36  58  83 113 149 188 228 275 328
#
# _framework density 19.320808
#
# number of rings (size 3 to 8) (size 9 to 14) (size 15 to 20)
#    0.000    1.857    0.000    5.571    0.000    5.143 
#    0.000    5.714    0.000   14.571    0.000    0.000 
#    0.000    0.000    0.000    0.000    0.000    0.000 
#
# Total GULP energy -312912.404618 kJ/mol
# GULP energy per Si atom -5587.721511 kJ/mol
# Density = 1.927683 g / cm^3
# Si number density = 19.320808 Si / 1000 Ang^3
#
#
#
# Elastic Constant Matrix: (Units=GPa)
#
#
# Indices 1 2 3 4 5 6 
#
# 1 99.7898 -7.4934 32.9460 0.0000 0.0000 0.0000
# 2 -7.4934 38.0130 -6.2961 0.0000 0.0000 0.0000
# 3 32.9460 -6.2961 96.8589 0.0000 0.0000 0.0000
# 4 0.0000 0.0000 0.0000 18.7279 0.0000 0.0000
# 5 0.0000 0.0000 0.0000 0.0000 16.2396 0.0000
# 6 0.0000 0.0000 0.0000 0.0000 0.0000 28.7759
#
#
#
# Elastic Compliance Matrix: (Units=1/GPa)
#
#
# Indices 1 2 3 4 5 6 
#
# 1 0.011387 0.001621 -0.003768 0.000000 0.000000 0.000000
# 2 0.001621 0.026824 0.001192 0.000000 0.000000 0.000000
# 3 -0.003768 0.001192 0.011683 0.000000 0.000000 0.000000
# 4 0.000000 0.000000 0.000000 0.053396 0.000000 0.000000
# 5 0.000000 0.000000 0.000000 0.000000 0.061578 0.000000
# 6 0.000000 0.000000 0.000000 0.000000 0.000000 0.034751
#
#
# Mechanical properties :
#
#
# Convention : Reuss Voigt Hill
#
# Bulk Modulus (GPa) = 20.84019 30.33052 25.58536
# Shear Modulus (GPa) = 22.98602 27.11571 25.05086
#
# Velocity S-wave (km/s) = 3.45295 3.75032 3.60470
# Velocity P-wave (km/s) = 5.16788 5.87245 5.53139
#
# Compressibility (1/GPa) = 0.04798420
#
# Stress axis : x y z
#
# Youngs Moduli (GPa) = 87.82172 37.28042 85.59160
#
# Poissons Ratio (x) = -0.06042 0.32249
# Poissons Ratio (y) = -0.14232 -0.10206
# Poissons Ratio (z) = 0.33089 -0.04445
#
# Static dielectric constant tensor:
#      x y z
#    x 1.653640 0.000000 0.000000 
#    y 0.000000 1.687870 0.000000 
#    z 0.000000 0.000000 1.653020 
# 
# From -- ./inp_files/22965.got.cif
#   From: 2010.05.17/outbox.cif.g08.bks.cpg/sg55_12_cif.got.tgz:22965.got - 2010.06.03 13:27:54.
