data_PCOD9427818
_publ_section_title
;
Structure prediction by ZEFSAII (Michael W. Deem and Ramdas Pophale) SiO2 
 PCOD9427818
Probable space group: P B A M
;
_chemical_formula_sum "Si O2"
_cell_formula_units_Z 48
_cell_length_a 17.104310
_cell_length_b 19.299621
_cell_length_c 7.660079
_cell_angle_alpha 90.000000
_cell_angle_beta 90.000000
_cell_angle_gamma 90.000000
_cell_volume 2528.643404
_symmetry_space_group_name_H-M "P B A M"
_symmetry_group_IT_number 55
_symmetry_cell_setting 'orthorhombic'
loop_
_space_group_symop_operation_xyz
x,y,z
-x,-y,z
1/2+x,1/2-y,-z
1/2-x,1/2+y,-z
-x,-y,-z
x,y,-z
1/2-x,1/2+y,z
1/2+x,1/2-y,z
loop_
_atom_site_type_symbol
_atom_site_label
_atom_site_fract_x
_atom_site_fract_y
_atom_site_fract_z
Si Si1 0.111177 0.559673 0.000000
Si Si2 0.131106 0.167306 0.788884
Si Si3 0.264065 0.056447 0.704510
Si Si4 0.309319 0.408323 0.290822
Si Si5 0.841107 0.674736 0.298361
Si Si6 0.987102 0.077526 0.794667
Si Si7 0.062116 0.398676 0.000000
O O1 0.163439 0.572558 0.829185
O O2 0.088274 0.478639 0.000000
O O3 0.031446 0.602745 0.000000
O O4 0.198427 0.114455 0.731451
O O5 0.147399 0.243345 0.716448
O O6 0.049202 0.133486 0.727046
O O7 0.131275 0.172689 0.000000
O O8 0.285197 0.051570 0.500000
O O9 0.226707 0.982720 0.761430
O O10 0.315817 0.408829 0.500000
O O11 0.245929 0.350084 0.242607
O O12 0.397090 0.401123 0.223117
O O13 0.851605 0.652721 0.500000
O O14 0.901603 0.637803 0.169622
O O15 0.005385 0.072082 0.000000
O O16 0.000000 0.000000 0.719176
#
# Coordination Sequence:
#
# PCOD9427818 Si02
#       7
#     4   8   8   8   8   8   4
#     4  11  24  41  68  96 123 157 217 273 317 370
#     4  11  22  40  64  93 130 172 212 260 322 383
#     4  11  22  39  65  95 128 166 209 262 320 382
#     4  10  22  38  62  92 122 165 213 252 314 387
#     4  11  24  44  65  90 129 173 214 261 322 385
#     4  10  21  35  60  93 126 161 204 259 316 374
#     4  11  24  43  68  93 119 168 214 265 321 377
#
# _framework density 18.982509
#
# number of rings (size 3 to 8) (size 9 to 14) (size 15 to 20)
#    0.000    1.333    5.000    0.500    2.333    2.333 
#    3.000    1.667    0.000    0.000    0.000    0.000 
#    0.000    0.000    0.000    0.000    0.000    0.000 
#
# Total GULP energy -268160.993421 kJ/mol
# GULP energy per Si atom -5586.687363 kJ/mol
# Density = 1.893930 g / cm^3
# Si number density = 18.982509 Si / 1000 Ang^3
#
#
#
# Elastic Constant Matrix: (Units=GPa)
#
#
# Indices 1 2 3 4 5 6 
#
# 1 170.7691 68.7186 39.5275 0.0000 0.0000 0.0000
# 2 68.7186 115.1911 16.5600 0.0000 0.0000 0.0000
# 3 39.5275 16.5600 83.4037 0.0000 0.0000 0.0000
# 4 0.0000 0.0000 0.0000 18.7404 0.0000 0.0000
# 5 0.0000 0.0000 0.0000 0.0000 34.3655 0.0000
# 6 0.0000 0.0000 0.0000 0.0000 0.0000 30.2545
#
#
#
# Elastic Compliance Matrix: (Units=1/GPa)
#
#
# Indices 1 2 3 4 5 6 
#
# 1 0.008409 -0.004574 -0.003077 0.000000 0.000000 0.000000
# 2 -0.004574 0.011424 -0.000101 0.000000 0.000000 0.000000
# 3 -0.003077 -0.000101 0.013468 0.000000 0.000000 0.000000
# 4 0.000000 0.000000 0.000000 0.053361 0.000000 0.000000
# 5 0.000000 0.000000 0.000000 0.000000 0.029099 0.000000
# 6 0.000000 0.000000 0.000000 0.000000 0.000000 0.033053
#
#
# Mechanical properties :
#
#
# Convention : Reuss Voigt Hill
#
# Bulk Modulus (GPa) = 56.18570 68.77513 62.48042
# Shear Modulus (GPa) = 29.36871 32.97594 31.17233
#
# Velocity S-wave (km/s) = 3.93764 4.17246 4.05675
# Velocity P-wave (km/s) = 7.09481 7.71505 7.41142
#
# Compressibility (1/GPa) = 0.01779812
#
# Stress axis : x y z
#
# Youngs Moduli (GPa) = 118.92508 87.53250 74.24946
#
# Poissons Ratio (x) = 0.40037 0.22846
# Poissons Ratio (y) = 0.54396 0.00747
# Poissons Ratio (z) = 0.36593 0.00881
#
# Static dielectric constant tensor:
#      x y z
#    x 1.637480 0.000000 0.000000 
#    y 0.000000 1.642510 0.000000 
#    z 0.000000 0.000000 1.680000 
# 
# From -- ./inp_files/5709.got.cif
#   From: 2010.05.17/outbox.cif.g08.bks.cpg/sg55_3_cif.got.tgz:5709.got - 2010.06.03 13:27:54.
