data_PCOD9427246
_publ_section_title
;
Structure prediction by ZEFSAII (Michael W. Deem and Ramdas Pophale) SiO2 
 PCOD9427246
Probable space group: P B A M
;
_chemical_formula_sum "Si O2"
_cell_formula_units_Z 64
_cell_length_a 13.697226
_cell_length_b 17.683660
_cell_length_c 12.650874
_cell_angle_alpha 90.000000
_cell_angle_beta 90.000000
_cell_angle_gamma 90.000000
_cell_volume 3064.257855
_symmetry_space_group_name_H-M "P B A M"
_symmetry_group_IT_number 55
_symmetry_cell_setting 'orthorhombic'
loop_
_space_group_symop_operation_xyz
x,y,z
-x,-y,z
1/2+x,1/2-y,-z
1/2-x,1/2+y,-z
-x,-y,-z
x,y,-z
1/2-x,1/2+y,z
1/2+x,1/2-y,z
loop_
_atom_site_type_symbol
_atom_site_label
_atom_site_fract_x
_atom_site_fract_y
_atom_site_fract_z
Si Si1 0.428717 0.927304 0.882493
Si Si2 0.171234 0.248773 0.621854
Si Si3 0.652933 0.468553 0.880608
Si Si4 0.801766 0.497916 0.711739
Si Si5 0.496187 0.223734 0.213639
Si Si6 0.667824 0.618673 0.618103
Si Si7 0.045973 0.884647 0.177000
Si Si8 0.851733 0.349316 0.379354
O O1 0.480786 0.847992 0.859722
O O2 0.500000 0.000000 0.882315
O O3 0.360156 0.941704 0.781770
O O4 0.381979 0.925595 0.000000
O O5 0.133493 0.254839 0.500000
O O6 0.252108 0.315367 0.635113
O O7 0.237673 0.173606 0.629053
O O8 0.089494 0.255151 0.711985
O O9 0.740455 0.454166 0.801288
O O10 0.623732 0.557887 0.875184
O O11 0.557555 0.423723 0.842833
O O12 0.676331 0.447777 0.000000
O O13 0.727503 0.541403 0.636058
O O14 0.864686 0.437304 0.648897
O O15 0.462966 0.297023 0.147437
O O16 0.413177 0.198320 0.295986
O O17 0.630256 0.625820 0.500000
O O18 0.580931 0.618953 0.701728
O O19 0.881481 0.333501 0.500000
#
# Coordination Sequence:
#
# PCOD9427246 Si02
#       8
#     8   8   8   8   8   8   8   8
#     4  11  24  41  59  84 120 160 203 255 308 355
#     4  10  21  37  58  88 125 161 197 245 306 361
#     4  10  22  42  66  91 120 160 209 262 315 362
#     4  11  21  41  62  89 119 163 203 253 306 366
#     4  12  22  39  63  92 122 167 208 252 306 377
#     4  10  20  36  59  87 124 162 197 242 300 368
#     4  10  21  37  63  90 123 158 203 255 309 359
#     4  11  23  39  61  92 127 162 205 255 303 369
#
# _framework density 20.88597
#
# number of rings (size 3 to 8) (size 9 to 14) (size 15 to 20)
#    0.000    1.375    3.750    2.625    0.000    1.500 
#    0.000    6.250    0.000    0.750    0.000    0.000 
#    0.000    0.000    0.000    0.000    0.000    0.000 
#
# Total GULP energy -357311.162609 kJ/mol
# GULP energy per Si atom -5582.986916 kJ/mol
# Density = 2.083843 g / cm^3
# Si number density = 20.885970 Si / 1000 Ang^3
#
#
#
# Elastic Constant Matrix: (Units=GPa)
#
#
# Indices 1 2 3 4 5 6 
#
# 1 17.9295 -1.4955 3.6204 0.0000 0.0000 0.0000
# 2 -1.4955 108.4359 18.1279 0.0000 0.0000 0.0000
# 3 3.6204 18.1279 66.3247 0.0000 0.0000 0.0000
# 4 0.0000 0.0000 0.0000 5.8145 0.0000 0.0000
# 5 0.0000 0.0000 0.0000 0.0000 -23.8853 0.0000
# 6 0.0000 0.0000 0.0000 0.0000 0.0000 25.2426
#
#
#
# Elastic Compliance Matrix: (Units=1/GPa)
#
#
# Indices 1 2 3 4 5 6 
#
# 1 0.056586 0.001359 -0.003460 0.000000 0.000000 0.000000
# 2 0.001359 0.009696 -0.002724 0.000000 0.000000 0.000000
# 3 -0.003460 -0.002724 0.016011 0.000000 0.000000 0.000000
# 4 0.000000 0.000000 0.000000 0.171983 0.000000 0.000000
# 5 0.000000 0.000000 0.000000 0.000000 -0.041867 0.000000
# 6 0.000000 0.000000 0.000000 0.000000 0.000000 0.039616
#
#
# Mechanical properties :
#
#
# Convention : Reuss Voigt Hill
#
# Bulk Modulus (GPa) = 13.76621 25.91064 19.83842
# Shear Modulus (GPa) = 17.48927 12.93020 15.20973
#
# Velocity S-wave (km/s) = 2.89687 2.49084 2.70150
# Velocity P-wave (km/s) = 4.21836 4.55028 4.38746
#
# Compressibility (1/GPa) = 0.07264164
#
# Stress axis : x y z
#
# Youngs Moduli (GPa) = 17.67223 103.13288 62.45765
#
# Poissons Ratio (x) = -0.14015 0.21612
# Poissons Ratio (y) = -0.02401 0.17016
# Poissons Ratio (z) = 0.06115 0.28097
#
# Static dielectric constant tensor:
#      x y z
#    x 1.744460 0.000000 0.000000 
#    y 0.000000 1.785110 0.000000 
#    z 0.000000 0.000000 1.729030 
# 
# From -- ./inp_files/14395.got.cif
#   From: 2010.05.17/outbox.cif.g08.bks.cpg/sg55_8_cif.got.tgz:14395.got - 2010.06.03 13:27:54.
