data_PCOD9427226
_publ_section_title
;
Structure prediction by ZEFSAII (Michael W. Deem and Ramdas Pophale) SiO2 
 PCOD9427226
Probable space group: P B A M
;
_chemical_formula_sum "Si O2"
_cell_formula_units_Z 58
_cell_length_a 23.769030
_cell_length_b 14.624065
_cell_length_c 9.120620
_cell_angle_alpha 90.000000
_cell_angle_beta 90.000000
_cell_angle_gamma 90.000000
_cell_volume 3170.326050
_symmetry_space_group_name_H-M "P B A M"
_symmetry_group_IT_number 55
_symmetry_cell_setting 'orthorhombic'
loop_
_space_group_symop_operation_xyz
x,y,z
-x,-y,z
1/2+x,1/2-y,-z
1/2-x,1/2+y,-z
-x,-y,-z
x,y,-z
1/2-x,1/2+y,z
1/2+x,1/2-y,z
loop_
_atom_site_type_symbol
_atom_site_label
_atom_site_fract_x
_atom_site_fract_y
_atom_site_fract_z
Si Si1 0.883602 0.156862 0.324926
Si Si2 0.402230 0.844049 0.823475
Si Si3 0.698877 0.823756 0.675293
Si Si4 0.671053 0.301621 0.324101
Si Si5 0.473959 0.221280 0.174791
Si Si6 0.109528 0.554312 0.174509
Si Si7 0.000000 0.000000 0.000000
Si Si8 0.386605 0.531923 0.837351
O O1 0.886369 0.146890 0.500000
O O2 0.835215 0.230988 0.288049
O O3 0.941177 0.200677 0.262196
O O4 0.872471 0.061233 0.246768
O O5 0.352491 0.792453 0.741478
O O6 0.461234 0.794578 0.787941
O O7 0.404909 0.950911 0.783058
O O8 0.395225 0.837746 0.000000
O O9 0.695975 0.834524 0.500000
O O10 0.763846 0.817083 0.717510
O O11 0.664769 0.906146 0.748519
O O12 0.666973 0.301644 0.500000
O O13 0.633759 0.381996 0.254457
O O14 0.440737 0.126294 0.203447
O O15 0.469907 0.242246 0.000000
O O16 0.118251 0.555250 0.000000
O O17 0.047001 0.029555 0.125370
O O18 0.359303 0.533741 0.000000
#
# Coordination Sequence:
#
# PCOD9427226 Si02
#       8
#     8   8   8   8   8   8   2   8
#     4  10  20  36  59  86 111 146 189 230 273 330
#     4  10  21  35  55  82 115 145 178 222 279 326
#     4   9  21  40  58  78 113 148 182 227 281 329
#     4  11  24  40  56  80 111 149 188 229 277 334
#     4   9  18  33  56  82 116 149 179 220 272 327
#     4   9  18  35  58  85 109 144 188 226 264 324
#     4   8  24  40  62  76 116 146 186 228 298 336
#     4  10  22  40  60  81 109 150 185 230 285 335
#
# _framework density 18.294647999999999
#
# number of rings (size 3 to 8) (size 9 to 14) (size 15 to 20)
#    0.414    1.931    0.000    1.655    1.931    5.517 
#    0.000    4.828    0.000    4.138    0.000    0.000 
#    0.000    0.000    0.000    0.000    0.000    0.000 
#
# Total GULP energy -323081.635348 kJ/mol
# GULP energy per Si atom -5570.373023 kJ/mol
# Density = 1.825301 g / cm^3
# Si number density = 18.294648 Si / 1000 Ang^3
#
#
#
# Elastic Constant Matrix: (Units=GPa)
#
#
# Indices 1 2 3 4 5 6 
#
# 1 84.2431 -7.8058 19.4311 0.0000 0.0000 0.0000
# 2 -7.8058 49.3471 18.7183 0.0000 0.0000 0.0000
# 3 19.4311 18.7183 33.0533 0.0000 0.0000 0.0000
# 4 0.0000 0.0000 0.0000 21.1556 0.0000 0.0000
# 5 0.0000 0.0000 0.0000 0.0000 56.6621 0.0000
# 6 0.0000 0.0000 0.0000 0.0000 0.0000 11.2469
#
#
#
# Elastic Compliance Matrix: (Units=1/GPa)
#
#
# Indices 1 2 3 4 5 6 
#
# 1 0.015701 0.007622 -0.013547 0.000000 0.000000 0.000000
# 2 0.007622 0.029509 -0.021192 0.000000 0.000000 0.000000
# 3 -0.013547 -0.021192 0.050219 0.000000 0.000000 0.000000
# 4 0.000000 0.000000 0.000000 0.047269 0.000000 0.000000
# 5 0.000000 0.000000 0.000000 0.000000 0.017648 0.000000
# 6 0.000000 0.000000 0.000000 0.000000 0.000000 0.088913
#
#
# Mechanical properties :
#
#
# Convention : Reuss Voigt Hill
#
# Bulk Modulus (GPa) = 24.27414 25.25897 24.76656
# Shear Modulus (GPa) = 15.76168 26.89958 21.33063
#
# Velocity S-wave (km/s) = 2.93839 3.83868 3.41830
# Velocity P-wave (km/s) = 4.98091 5.78654 5.39877
#
# Compressibility (1/GPa) = 0.04119610
#
# Stress axis : x y z
#
# Youngs Moduli (GPa) = 63.68877 33.88817 19.91274
#
# Poissons Ratio (x) = -0.25831 0.26976
# Poissons Ratio (y) = -0.48545 0.42199
# Poissons Ratio (z) = 0.86279 0.71816
#
# Static dielectric constant tensor:
#      x y z
#    x 1.614970 0.000000 0.000000 
#    y 0.000000 1.630680 0.000000 
#    z 0.000000 0.000000 1.609400 
# 
# From -- ./inp_files/9582.got.cif
#   From: 2010.05.17/outbox.cif.g08.bks.cpg/sg55_5_cif.got.tgz:9582.got - 2010.06.03 13:27:54.
