data_PCOD9427003
_publ_section_title
;
Structure prediction by ZEFSAII (Michael W. Deem and Ramdas Pophale) SiO2 
 PCOD9427003
Probable space group: P B A M
;
_chemical_formula_sum "Si O2"
_cell_formula_units_Z 64
_cell_length_a 14.363815
_cell_length_b 25.047389
_cell_length_c 8.958823
_cell_angle_alpha 90.000000
_cell_angle_beta 90.000000
_cell_angle_gamma 90.000000
_cell_volume 3223.170058
_symmetry_space_group_name_H-M "P B A M"
_symmetry_group_IT_number 55
_symmetry_cell_setting 'orthorhombic'
loop_
_space_group_symop_operation_xyz
x,y,z
-x,-y,z
1/2+x,1/2-y,-z
1/2-x,1/2+y,-z
-x,-y,-z
x,y,-z
1/2-x,1/2+y,z
1/2+x,1/2-y,z
loop_
_atom_site_type_symbol
_atom_site_label
_atom_site_fract_x
_atom_site_fract_y
_atom_site_fract_z
Si Si1 0.235415 0.669124 0.677064
Si Si2 0.955910 0.821191 0.675716
Si Si3 0.720548 0.049448 0.176929
Si Si4 0.049387 0.288594 0.829013
Si Si5 0.040892 0.399160 0.677158
Si Si6 0.368597 0.382513 0.322861
Si Si7 0.640613 0.933444 0.822481
Si Si8 0.725262 0.719285 0.172911
O O1 0.468737 0.691340 0.500000
O O2 0.347330 0.666853 0.698637
O O3 0.190635 0.617209 0.749618
O O4 0.202086 0.723334 0.756685
O O5 0.716349 0.828579 0.500000
O O6 0.023524 0.870377 0.711536
O O7 0.982669 0.768708 0.768898
O O8 0.640432 0.083635 0.257966
O O9 0.819214 0.069102 0.238577
O O10 0.697321 0.987687 0.205351
O O11 0.714823 0.059618 0.000000
O O12 0.020402 0.338518 0.728552
O O13 0.162319 0.286114 0.823992
O O14 0.020511 0.297418 0.000000
O O15 0.040140 0.403265 0.500000
O O16 0.961427 0.435685 0.750046
O O17 0.357285 0.389190 0.500000
O O18 0.316823 0.328738 0.268315
O O19 0.631588 0.926463 0.000000
O O20 0.695834 0.715733 0.000000
#
# Coordination Sequence:
#
# PCOD9427003 Si02
#       8
#     8   8   8   8   8   8   8   8
#     4  10  21  40  63  87 120 158 202 254 304 357
#     4   9  21  39  59  87 124 159 198 249 303 355
#     4  11  24  43  63  87 121 159 202 252 303 360
#     4  10  20  35  57  86 122 159 196 239 292 356
#     4  12  24  38  61  90 122 158 198 246 299 363
#     4  11  22  37  61  90 121 159 203 250 302 359
#     4  11  25  43  63  86 118 159 204 253 304 363
#     4  10  20  35  57  85 121 160 197 242 299 358
#
# _framework density 19.856227000000001
#
# number of rings (size 3 to 8) (size 9 to 14) (size 15 to 20)
#    0.000    1.500    1.250    3.750    1.750    6.000 
#    0.000    0.625    0.000    3.750    0.000    0.000 
#    0.000    0.000    0.000    0.000    0.000    0.000 
#
# Total GULP energy -357995.889139 kJ/mol
# GULP energy per Si atom -5593.685768 kJ/mol
# Density = 1.981103 g / cm^3
# Si number density = 19.856227 Si / 1000 Ang^3
#
#
#
# Elastic Constant Matrix: (Units=GPa)
#
#
# Indices 1 2 3 4 5 6 
#
# 1 30.1899 4.3119 14.6270 0.0000 0.0000 0.0000
# 2 4.3119 69.6722 34.0839 0.0000 0.0000 0.0000
# 3 14.6270 34.0839 76.3068 0.0000 0.0000 0.0000
# 4 0.0000 0.0000 0.0000 43.8856 0.0000 0.0000
# 5 0.0000 0.0000 0.0000 0.0000 24.5381 0.0000
# 6 0.0000 0.0000 0.0000 0.0000 0.0000 32.9415
#
#
#
# Elastic Compliance Matrix: (Units=1/GPa)
#
#
# Indices 1 2 3 4 5 6 
#
# 1 0.036636 0.001495 -0.007690 0.000000 0.000000 0.000000
# 2 0.001495 0.018427 -0.008517 0.000000 0.000000 0.000000
# 3 -0.007690 -0.008517 0.018384 0.000000 0.000000 0.000000
# 4 0.000000 0.000000 0.000000 0.022787 0.000000 0.000000
# 5 0.000000 0.000000 0.000000 0.000000 0.040753 0.000000
# 6 0.000000 0.000000 0.000000 0.000000 0.000000 0.030357
#
#
# Mechanical properties :
#
#
# Convention : Reuss Voigt Hill
#
# Bulk Modulus (GPa) = 22.71640 31.35715 27.03677
# Shear Modulus (GPa) = 23.64707 28.48279 26.06493
#
# Velocity S-wave (km/s) = 3.45471 3.79152 3.62703
# Velocity P-wave (km/s) = 5.23246 5.91557 5.58447
#
# Compressibility (1/GPa) = 0.04402106
#
# Stress axis : x y z
#
# Youngs Moduli (GPa) = 27.29543 54.26779 54.39639
#
# Poissons Ratio (x) = -0.08112 0.41833
# Poissons Ratio (y) = -0.04080 0.46331
# Poissons Ratio (z) = 0.20991 0.46222
#
# Static dielectric constant tensor:
#      x y z
#    x 1.741960 0.000000 0.000000 
#    y 0.000000 1.672220 0.000000 
#    z 0.000000 0.000000 1.661260 
# 
# From -- ./inp_files/6624.got.cif
#   From: 2010.05.17/outbox.cif.g08.bks.cpg/sg55_4_cif.got.tgz:6624.got - 2010.06.03 13:27:54.
