data_PCOD9427552
_publ_section_title
;
Structure prediction by ZEFSAII (Michael W. Deem and Ramdas Pophale) SiO2 
 PCOD9427552
Probable space group: P B A M
;
_chemical_formula_sum "Si O2"
_cell_formula_units_Z 58
_cell_length_a 18.858109
_cell_length_b 16.890102
_cell_length_c 7.493459
_cell_angle_alpha 90.000000
_cell_angle_beta 90.000000
_cell_angle_gamma 90.000000
_cell_volume 2386.781975
_symmetry_space_group_name_H-M "P B A M"
_symmetry_group_IT_number 55
_symmetry_cell_setting 'orthorhombic'
loop_
_space_group_symop_operation_xyz
x,y,z
-x,-y,z
1/2+x,1/2-y,-z
1/2-x,1/2+y,-z
-x,-y,-z
x,y,-z
1/2-x,1/2+y,z
1/2+x,1/2-y,z
loop_
_atom_site_type_symbol
_atom_site_label
_atom_site_fract_x
_atom_site_fract_y
_atom_site_fract_z
Si Si1 0.820540 0.705154 0.215616
Si Si2 0.000000 0.500000 0.500000
Si Si3 0.427564 0.095580 0.797517
Si Si4 0.154555 0.048076 0.294433
Si Si5 0.827362 0.260194 0.784303
Si Si6 0.805119 0.520417 0.712150
Si Si7 0.420279 0.388633 0.215889
Si Si8 0.062008 0.190013 0.200559
O O1 0.753719 0.758009 0.279461
O O2 0.806930 0.613924 0.257646
O O3 0.895701 0.737254 0.284272
O O4 0.822747 0.712217 0.000000
O O5 0.014764 0.567050 0.342758
O O6 0.381136 0.170710 0.730328
O O7 0.370055 0.024518 0.801008
O O8 0.453521 0.110022 0.000000
O O9 0.162988 0.071688 0.500000
O O10 0.230430 0.016773 0.227840
O O11 0.100893 0.974082 0.285378
O O12 0.120685 0.120992 0.192970
O O13 0.860044 0.175002 0.739172
O O14 0.825282 0.266165 0.000000
O O15 0.813449 0.506770 0.500000
O O16 0.493324 0.350603 0.283546
O O17 0.424405 0.396463 0.000000
O O18 0.039611 0.213470 0.000000
#
# Coordination Sequence:
#
# PCOD9427552 Si02
#       8
#     8   2   8   8   8   8   8   8
#     4  10  20  38  64  93 125 167 222 277 332 400
#     4  12  26  48  64 102 136 168 230 288 336 410
#     4  11  24  45  73  99 134 182 226 281 345 404
#     4  11  23  38  60  90 128 169 212 263 326 398
#     4   9  19  38  65  95 124 168 226 271 330 406
#     4  11  23  41  62  96 131 168 223 279 335 396
#     4  10  20  38  61  90 128 165 213 271 325 395
#     4  10  22  37  59  91 124 163 212 267 327 396
#
# _framework density 24.3005
#
# number of rings (size 3 to 8) (size 9 to 14) (size 15 to 20)
#    0.000    1.655    2.069    2.276    0.000    6.621 
#    2.483    2.759    0.000    0.000    0.000    0.000 
#    0.000    0.000    0.000    0.000    0.000    0.000 
#
# Total GULP energy -323974.755460 kJ/mol
# GULP energy per Si atom -5585.771646 kJ/mol
# Density = 2.424519 g / cm^3
# Si number density = 24.300500 Si / 1000 Ang^3
#
#
#
# Elastic Constant Matrix: (Units=GPa)
#
#
# Indices 1 2 3 4 5 6 
#
# 1 47.0272 10.9750 10.1888 0.0000 0.0000 0.0000
# 2 10.9750 71.4039 -0.2533 0.0000 0.0000 0.0000
# 3 10.1888 -0.2533 98.0947 0.0000 0.0000 0.0000
# 4 0.0000 0.0000 0.0000 33.0816 0.0000 0.0000
# 5 0.0000 0.0000 0.0000 0.0000 -0.4010 0.0000
# 6 0.0000 0.0000 0.0000 0.0000 0.0000 20.6168
#
#
#
# Elastic Compliance Matrix: (Units=1/GPa)
#
#
# Indices 1 2 3 4 5 6 
#
# 1 0.022587 -0.003480 -0.002355 0.000000 0.000000 0.000000
# 2 -0.003480 0.014541 0.000399 0.000000 0.000000 0.000000
# 3 -0.002355 0.000399 0.010440 0.000000 0.000000 0.000000
# 4 0.000000 0.000000 0.000000 0.030228 0.000000 0.000000
# 5 0.000000 0.000000 0.000000 0.000000 -2.493474 0.000000
# 6 0.000000 0.000000 0.000000 0.000000 0.000000 0.048504
#
#
# Mechanical properties :
#
#
# Convention : Reuss Voigt Hill
#
# Bulk Modulus (GPa) = 27.25115 28.70520 27.97818
# Shear Modulus (GPa) = -2.13304 23.70048 10.78372
#
# Velocity S-wave (km/s) = -0.93791 3.12638 2.10886
# Velocity P-wave (km/s) = 3.17264 4.98704 4.17949
#
# Compressibility (1/GPa) = 0.03669569
#
# Stress axis : x y z
#
# Youngs Moduli (GPa) = 44.27389 68.77040 95.78666
#
# Poissons Ratio (x) = 0.23932 0.22558
# Poissons Ratio (y) = 0.15407 -0.03822
# Poissons Ratio (z) = 0.10426 -0.02744
#
# Static dielectric constant tensor:
#      x y z
#    x 1.969110 0.000000 0.000000 
#    y 0.000000 1.898420 0.000000 
#    z 0.000000 0.000000 2.024120 
# 
# From -- ./inp_files/7706.got.cif
#   From: 2010.05.17/outbox.cif.g08.bks.cpg/sg55_4_cif.got.tgz:7706.got - 2010.06.03 13:27:54.
