data_PCOD9427046
_publ_section_title
;
Structure prediction by ZEFSAII (Michael W. Deem and Ramdas Pophale) SiO2 
 PCOD9427046
Probable space group: P B A M
;
_chemical_formula_sum "Si O2"
_cell_formula_units_Z 64
_cell_length_a 14.993464
_cell_length_b 25.209149
_cell_length_c 8.758252
_cell_angle_alpha 90.000000
_cell_angle_beta 90.000000
_cell_angle_gamma 90.000000
_cell_volume 3310.378124
_symmetry_space_group_name_H-M "P B A M"
_symmetry_group_IT_number 55
_symmetry_cell_setting 'orthorhombic'
loop_
_space_group_symop_operation_xyz
x,y,z
-x,-y,z
1/2+x,1/2-y,-z
1/2-x,1/2+y,-z
-x,-y,-z
x,y,-z
1/2-x,1/2+y,z
1/2+x,1/2-y,z
loop_
_atom_site_type_symbol
_atom_site_label
_atom_site_fract_x
_atom_site_fract_y
_atom_site_fract_z
Si Si1 0.132298 0.842725 0.677371
Si Si2 0.566772 0.368909 0.677592
Si Si3 0.005110 0.670264 0.683246
Si Si4 0.664522 0.765999 0.180068
Si Si5 0.756606 0.058763 0.315800
Si Si6 0.448030 0.947491 0.313886
Si Si7 0.901812 0.979205 0.182710
Si Si8 0.871848 0.758401 0.183067
O O1 0.143824 0.825941 0.500000
O O2 0.124753 0.791586 0.781768
O O3 0.211644 0.881736 0.723395
O O4 0.040300 0.874996 0.685443
O O5 0.591899 0.364734 0.500000
O O6 0.610229 0.420081 0.753286
O O7 0.589064 0.314312 0.761230
O O8 0.000876 0.672463 0.500000
O O9 0.987753 0.609548 0.733217
O O10 0.929152 0.710199 0.746899
O O11 0.101316 0.691667 0.737314
O O12 0.767625 0.760803 0.229715
O O13 0.662500 0.776631 0.000000
O O14 0.762383 0.054745 0.500000
O O15 0.655306 0.049585 0.267935
O O16 0.825302 0.017572 0.244279
O O17 0.450238 0.947620 0.500000
O O18 0.500000 0.000000 0.261551
O O19 0.899926 0.978335 0.000000
O O20 0.000000 0.000000 0.230947
O O21 0.876378 0.754172 0.000000
#
# Coordination Sequence:
#
# PCOD9427046 Si02
#       8
#     8   8   8   8   8   8   8   8
#     4  10  20  35  58  88 118 153 202 254 302 356
#     4  11  22  37  60  87 118 157 199 250 302 354
#     4  11  22  39  65  92 122 160 204 255 305 364
#     4  11  24  39  60  89 124 163 200 248 307 368
#     4  10  20  37  62  88 118 156 203 254 298 355
#     4   9  20  39  63  91 119 151 197 252 303 349
#     4  11  23  37  56  85 123 161 196 242 299 364
#     4  11  24  41  60  88 126 163 202 248 304 369
#
# _framework density 19.333138999999999
#
# number of rings (size 3 to 8) (size 9 to 14) (size 15 to 20)
#    0.000    1.500    2.500    2.625    0.000    5.500 
#    0.000    2.500    0.000    2.625    0.000    0.000 
#    0.000    0.000    0.000    0.000    0.000    0.000 
#
# Total GULP energy -357507.987152 kJ/mol
# GULP energy per Si atom -5586.062299 kJ/mol
# Density = 1.928914 g / cm^3
# Si number density = 19.333139 Si / 1000 Ang^3
#
#
#
# Elastic Constant Matrix: (Units=GPa)
#
#
# Indices 1 2 3 4 5 6 
#
# 1 96.3971 53.2316 29.5800 0.0000 0.0000 0.0000
# 2 53.2316 137.7386 28.9245 0.0000 0.0000 0.0000
# 3 29.5800 28.9245 33.7438 0.0000 0.0000 0.0000
# 4 0.0000 0.0000 0.0000 -11.1718 0.0000 0.0000
# 5 0.0000 0.0000 0.0000 0.0000 21.0582 0.0000
# 6 0.0000 0.0000 0.0000 0.0000 0.0000 32.9998
#
#
#
# Elastic Compliance Matrix: (Units=1/GPa)
#
#
# Indices 1 2 3 4 5 6 
#
# 1 0.015727 -0.003882 -0.010459 0.000000 0.000000 0.000000
# 2 -0.003882 0.009812 -0.005008 0.000000 0.000000 0.000000
# 3 -0.010459 -0.005008 0.043096 0.000000 0.000000 0.000000
# 4 0.000000 0.000000 0.000000 -0.089511 0.000000 0.000000
# 5 0.000000 0.000000 0.000000 0.000000 0.047488 0.000000
# 6 0.000000 0.000000 0.000000 0.000000 0.000000 0.030303
#
#
# Mechanical properties :
#
#
# Convention : Reuss Voigt Hill
#
# Bulk Modulus (GPa) = 33.40256 54.59464 43.99860
# Shear Modulus (GPa) = 47.35282 18.98677 33.16979
#
# Velocity S-wave (km/s) = 4.95442 3.13722 4.14659
# Velocity P-wave (km/s) = 7.07412 6.43608 6.76263
#
# Compressibility (1/GPa) = 0.02993783
#
# Stress axis : x y z
#
# Youngs Moduli (GPa) = 63.58687 101.91745 23.20400
#
# Poissons Ratio (x) = 0.39559 0.24269
# Poissons Ratio (y) = 0.24681 0.11621
# Poissons Ratio (z) = 0.66504 0.51040
#
# Static dielectric constant tensor:
#      x y z
#    x 1.712700 0.000000 0.000000 
#    y 0.000000 1.650710 0.000000 
#    z 0.000000 0.000000 1.655610 
# 
# From -- ./inp_files/6672.got.cif
#   From: 2010.05.17/outbox.cif.g08.bks.cpg/sg55_4_cif.got.tgz:6672.got - 2010.06.03 13:27:54.
