data_PCOD9427097
_publ_section_title
;
Structure prediction by ZEFSAII (Michael W. Deem and Ramdas Pophale) SiO2 
 PCOD9427097
Probable space group: P B A M
;
_chemical_formula_sum "Si O2"
_cell_formula_units_Z 40
_cell_length_a 7.517356
_cell_length_b 13.956980
_cell_length_c 14.693519
_cell_angle_alpha 90.000000
_cell_angle_beta 90.000000
_cell_angle_gamma 90.000000
_cell_volume 1541.637950
_symmetry_space_group_name_H-M "P B A M"
_symmetry_group_IT_number 55
_symmetry_cell_setting 'orthorhombic'
loop_
_space_group_symop_operation_xyz
x,y,z
-x,-y,z
1/2+x,1/2-y,-z
1/2-x,1/2+y,-z
-x,-y,-z
x,y,-z
1/2-x,1/2+y,z
1/2+x,1/2-y,z
loop_
_atom_site_type_symbol
_atom_site_label
_atom_site_fract_x
_atom_site_fract_y
_atom_site_fract_z
Si Si1 0.096382 0.838119 0.597800
Si Si2 0.805505 0.943509 0.788773
Si Si3 0.771103 0.458911 0.403215
Si Si4 0.548890 0.731127 0.201647
Si Si5 0.847906 0.612450 0.894525
O O1 0.116371 0.786270 0.500000
O O2 0.107687 0.780114 0.691895
O O3 0.232178 0.926957 0.597154
O O4 0.908290 0.894071 0.595332
O O5 0.871674 0.836225 0.804174
O O6 0.678441 0.944671 0.700453
O O7 0.711437 0.006124 0.865766
O O8 0.000000 0.000000 0.769620
O O9 0.860265 0.436013 0.500000
O O10 0.495707 0.835053 0.166270
O O11 0.676745 0.676504 0.131795
O O12 0.891805 0.617485 0.000000
#
# Coordination Sequence:
#
# PCOD9427097 Si02
#       5
#     8   8   8   8   8
#     4   8  12  23  46  75 104 129 157 201 253 304
#     4   9  16  31  51  75  98 132 171 214 248 304
#     4   8  10  19  44  75 101 124 158 203 249 296
#     4  10  20  36  53  76 106 133 169 217 262 309
#     4  11  22  35  53  75 100 135 177 219 263 303
#
# _framework density 25.946428000000001
#
# number of rings (size 3 to 8) (size 9 to 14) (size 15 to 20)
#    0.000    2.800    6.000    1.800    0.000    4.400 
#    0.000    3.000    0.000    2.400    0.000    0.000 
#    0.000    8.000    0.000    0.000    0.000    0.000 
#
# Total GULP energy -223315.539059 kJ/mol
# GULP energy per Si atom -5582.888476 kJ/mol
# Density = 2.588737 g / cm^3
# Si number density = 25.946428 Si / 1000 Ang^3
#
#
#
# Elastic Constant Matrix: (Units=GPa)
#
#
# Indices 1 2 3 4 5 6 
#
# 1 51.3698 24.5798 22.7267 0.0000 0.0000 0.0000
# 2 24.5798 156.1971 84.8277 0.0000 0.0000 0.0000
# 3 22.7267 84.8277 242.2893 0.0000 0.0000 0.0000
# 4 0.0000 0.0000 0.0000 18.9097 0.0000 0.0000
# 5 0.0000 0.0000 0.0000 0.0000 -18.5062 0.0000
# 6 0.0000 0.0000 0.0000 0.0000 0.0000 37.2764
#
#
#
# Elastic Compliance Matrix: (Units=1/GPa)
#
#
# Indices 1 2 3 4 5 6 
#
# 1 0.021252 -0.002793 -0.001016 0.000000 0.000000 0.000000
# 2 -0.002793 0.008272 -0.002634 0.000000 0.000000 0.000000
# 3 -0.001016 -0.002634 0.005145 0.000000 0.000000 0.000000
# 4 0.000000 0.000000 0.000000 0.052883 0.000000 0.000000
# 5 0.000000 0.000000 0.000000 0.000000 -0.054036 0.000000
# 6 0.000000 0.000000 0.000000 0.000000 0.000000 0.026827
#
#
# Mechanical properties :
#
#
# Convention : Reuss Voigt Hill
#
# Bulk Modulus (GPa) = 45.90507 79.34715 62.62611
# Shear Modulus (GPa) = 62.11968 28.71744 45.41856
#
# Velocity S-wave (km/s) = 4.89832 3.33047 4.18841
# Velocity P-wave (km/s) = 7.05138 6.74069 6.89778
#
# Compressibility (1/GPa) = 0.02178409
#
# Stress axis : x y z
#
# Youngs Moduli (GPa) = 47.05363 120.88612 194.36955
#
# Poissons Ratio (x) = 0.33760 0.19742
# Poissons Ratio (y) = 0.13141 0.51201
# Poissons Ratio (z) = 0.04779 0.31844
#
# Static dielectric constant tensor:
#      x y z
#    x 2.220050 0.000000 0.000000 
#    y 0.000000 2.042370 0.000000 
#    z 0.000000 0.000000 1.977340 
# 
# From -- ./inp_files/18151.got.cif
#   From: 2010.05.17/outbox.cif.g08.bks.cpg/sg55_10_cif.got.tgz:18151.got - 2010.06.03 13:27:54.
