data_PCOD9427605
_publ_section_title
;
Structure prediction by ZEFSAII (Michael W. Deem and Ramdas Pophale) SiO2 
 PCOD9427605
Probable space group: P B A M
;
_chemical_formula_sum "Si O2"
_cell_formula_units_Z 40
_cell_length_a 11.477603
_cell_length_b 14.102518
_cell_length_c 10.997571
_cell_angle_alpha 90.000000
_cell_angle_beta 90.000000
_cell_angle_gamma 90.000000
_cell_volume 1780.100966
_symmetry_space_group_name_H-M "P B A M"
_symmetry_group_IT_number 55
_symmetry_cell_setting 'orthorhombic'
loop_
_space_group_symop_operation_xyz
x,y,z
-x,-y,z
1/2+x,1/2-y,-z
1/2-x,1/2+y,-z
-x,-y,-z
x,y,-z
1/2-x,1/2+y,z
1/2+x,1/2-y,z
loop_
_atom_site_type_symbol
_atom_site_label
_atom_site_fract_x
_atom_site_fract_y
_atom_site_fract_z
Si Si1 0.370768 0.201151 0.134846
Si Si2 0.937497 0.090686 0.807021
Si Si3 0.743467 0.011887 0.631959
Si Si4 0.161510 0.178131 0.301003
Si Si5 0.467646 0.863514 0.638823
O O1 0.402268 0.312631 0.127818
O O2 0.236238 0.192389 0.177522
O O3 0.450563 0.158670 0.244440
O O4 0.388751 0.159088 0.000000
O O5 0.824623 0.053423 0.736706
O O6 0.037538 0.126952 0.715413
O O7 0.000000 0.000000 0.868492
O O8 0.779648 0.050135 0.500000
O O9 0.611179 0.042694 0.652774
O O10 0.762277 0.899468 0.630137
O O11 0.130395 0.279127 0.356196
O O12 0.516364 0.861061 0.500000
#
# Coordination Sequence:
#
# PCOD9427605 Si02
#       5
#     8   8   8   8   8
#     4  11  24  42  64  91 131 174 216 265 322 391
#     4   9  20  39  64  92 124 164 217 269 323 380
#     4  10  20  38  64  96 129 165 211 265 327 389
#     4  10  21  38  62  93 127 167 209 262 324 385
#     4  10  22  40  63  92 126 164 212 268 323 384
#
# _framework density 22.470635000000001
#
# number of rings (size 3 to 8) (size 9 to 14) (size 15 to 20)
#    0.000    2.000    2.000    0.600    0.000   12.800 
#    0.000    7.000    0.000    0.000    0.000    0.000 
#    0.000    0.000    0.000    0.000    0.000    0.000 
#
# Total GULP energy -222960.378518 kJ/mol
# GULP energy per Si atom -5574.009463 kJ/mol
# Density = 2.241949 g / cm^3
# Si number density = 22.470635 Si / 1000 Ang^3
#
#
#
# Elastic Constant Matrix: (Units=GPa)
#
#
# Indices 1 2 3 4 5 6 
#
# 1 109.3683 20.1188 56.3847 0.0000 0.0000 0.0000
# 2 20.1188 46.8445 10.0794 0.0000 0.0000 0.0000
# 3 56.3847 10.0794 157.8277 0.0000 0.0000 0.0000
# 4 0.0000 0.0000 0.0000 11.3227 0.0000 0.0000
# 5 0.0000 0.0000 0.0000 0.0000 -11.9516 0.0000
# 6 0.0000 0.0000 0.0000 0.0000 0.0000 35.3411
#
#
#
# Elastic Compliance Matrix: (Units=1/GPa)
#
#
# Indices 1 2 3 4 5 6 
#
# 1 0.012002 -0.004291 -0.004014 0.000000 0.000000 0.000000
# 2 -0.004291 0.023179 0.000053 0.000000 0.000000 0.000000
# 3 -0.004014 0.000053 0.007767 0.000000 0.000000 0.000000
# 4 0.000000 0.000000 0.000000 0.088318 0.000000 0.000000
# 5 0.000000 0.000000 0.000000 0.000000 -0.083671 0.000000
# 6 0.000000 0.000000 0.000000 0.000000 0.000000 0.028296
#
#
# Mechanical properties :
#
#
# Convention : Reuss Voigt Hill
#
# Bulk Modulus (GPa) = 37.81672 54.13404 45.97538
# Shear Modulus (GPa) = 49.40274 22.10628 35.75451
#
# Velocity S-wave (km/s) = 4.69395 3.13994 3.99327
# Velocity P-wave (km/s) = 6.80026 6.10647 6.46268
#
# Compressibility (1/GPa) = 0.02644333
#
# Stress axis : x y z
#
# Youngs Moduli (GPa) = 83.31905 43.14286 128.75662
#
# Poissons Ratio (x) = 0.18513 0.51680
# Poissons Ratio (y) = 0.35752 -0.00679
# Poissons Ratio (z) = 0.33442 -0.00227
#
# Static dielectric constant tensor:
#      x y z
#    x 1.831450 0.000000 0.000000 
#    y 0.000000 1.889690 0.000000 
#    z 0.000000 0.000000 1.833120 
# 
# From -- ./inp_files/13001.got.cif
#   From: 2010.05.17/outbox.cif.g08.bks.cpg/sg55_7_cif.got.tgz:13001.got - 2010.06.03 13:27:54.
