data_PCOD9427009
_publ_section_title
;
Structure prediction by ZEFSAII (Michael W. Deem and Ramdas Pophale) SiO2 
 PCOD9427009
Probable space group: P B A M
;
_chemical_formula_sum "Si O2"
_cell_formula_units_Z 64
_cell_length_a 25.290810
_cell_length_b 14.525459
_cell_length_c 8.905337
_cell_angle_alpha 90.000000
_cell_angle_beta 90.000000
_cell_angle_gamma 90.000000
_cell_volume 3271.470155
_symmetry_space_group_name_H-M "P B A M"
_symmetry_group_IT_number 55
_symmetry_cell_setting 'orthorhombic'
loop_
_space_group_symop_operation_xyz
x,y,z
-x,-y,z
1/2+x,1/2-y,-z
1/2-x,1/2+y,-z
-x,-y,-z
x,y,-z
1/2-x,1/2+y,z
1/2+x,1/2-y,z
loop_
_atom_site_type_symbol
_atom_site_label
_atom_site_fract_x
_atom_site_fract_y
_atom_site_fract_z
Si Si1 0.395526 0.534459 0.821986
Si Si2 0.663276 0.746032 0.322053
Si Si3 0.879946 0.632686 0.823901
Si Si4 0.440939 0.340427 0.178564
Si Si5 0.787270 0.948765 0.319864
Si Si6 0.726745 0.247978 0.821683
Si Si7 0.831238 0.466442 0.322891
Si Si8 0.448945 0.712887 0.321339
O O1 0.435498 0.450236 0.796510
O O2 0.338405 0.507240 0.755956
O O3 0.415397 0.627319 0.744406
O O4 0.390796 0.550409 0.000000
O O5 0.663953 0.726025 0.500000
O O6 0.612268 0.703657 0.243945
O O7 0.718092 0.713536 0.247355
O O8 0.661484 0.857138 0.302880
O O9 0.822998 0.681557 0.800049
O O10 0.871842 0.529222 0.766757
O O11 0.922562 0.693000 0.735651
O O12 0.892093 0.635663 0.000000
O O13 0.492090 0.299845 0.258948
O O14 0.444408 0.325386 0.000000
O O15 0.791793 0.951200 0.500000
O O16 0.786238 0.843349 0.262585
O O17 0.729625 0.987479 0.277682
O O18 0.733029 0.264731 0.000000
O O19 0.836221 0.486544 0.500000
O O20 0.448312 0.709098 0.500000
#
# Coordination Sequence:
#
# PCOD9427009 Si02
#       8
#     8   8   8   8   8   8   8   8
#     4  11  23  39  60  89 125 163 201 248 303 364
#     4  10  22  41  63  89 123 161 206 256 307 361
#     4  11  23  38  61  91 123 162 206 252 305 364
#     4  11  25  43  64  89 122 162 206 255 309 366
#     4  10  20  35  57  88 123 161 200 245 300 359
#     4  10  20  35  57  86 122 162 200 245 303 362
#     4   9  21  39  59  88 125 162 201 252 307 360
#     4  12  25  42  65  90 122 161 206 256 306 362
#
# _framework density 19.563068999999999
#
# number of rings (size 3 to 8) (size 9 to 14) (size 15 to 20)
#    0.000    1.500    1.250    4.500    1.750    8.000 
#    0.000    0.625    0.000    3.750    0.000    0.000 
#    0.000    0.000    0.000    0.000    0.000    0.000 
#
# Total GULP energy -357869.689495 kJ/mol
# GULP energy per Si atom -5591.713898 kJ/mol
# Density = 1.951854 g / cm^3
# Si number density = 19.563069 Si / 1000 Ang^3
#
#
#
# Elastic Constant Matrix: (Units=GPa)
#
#
# Indices 1 2 3 4 5 6 
#
# 1 77.3585 3.9779 22.6150 0.0000 0.0000 0.0000
# 2 3.9779 21.3783 15.5167 0.0000 0.0000 0.0000
# 3 22.6150 15.5167 62.0036 0.0000 0.0000 0.0000
# 4 0.0000 0.0000 0.0000 29.1482 0.0000 0.0000
# 5 0.0000 0.0000 0.0000 0.0000 39.4041 0.0000
# 6 0.0000 0.0000 0.0000 0.0000 0.0000 26.6990
#
#
#
# Elastic Compliance Matrix: (Units=1/GPa)
#
#
# Indices 1 2 3 4 5 6 
#
# 1 0.014504 0.001394 -0.005639 0.000000 0.000000 0.000000
# 2 0.001394 0.057293 -0.014846 0.000000 0.000000 0.000000
# 3 -0.005639 -0.014846 0.021900 0.000000 0.000000 0.000000
# 4 0.000000 0.000000 0.000000 0.034307 0.000000 0.000000
# 5 0.000000 0.000000 0.000000 0.000000 0.025378 0.000000
# 6 0.000000 0.000000 0.000000 0.000000 0.000000 0.037455
#
#
# Mechanical properties :
#
#
# Convention : Reuss Voigt Hill
#
# Bulk Modulus (GPa) = 18.01338 27.21773 22.61556
# Shear Modulus (GPa) = 20.20012 26.95897 23.57955
#
# Velocity S-wave (km/s) = 3.21684 3.71624 3.47552
# Velocity P-wave (km/s) = 4.79846 5.68832 5.26223
#
# Compressibility (1/GPa) = 0.05551427
#
# Stress axis : x y z
#
# Youngs Moduli (GPa) = 68.94827 17.45428 45.66179
#
# Poissons Ratio (x) = -0.02433 0.25748
# Poissons Ratio (y) = -0.09612 0.67790
# Poissons Ratio (z) = 0.38879 0.25913
#
# Static dielectric constant tensor:
#      x y z
#    x 1.681060 0.000000 0.000000 
#    y 0.000000 1.695230 0.000000 
#    z 0.000000 0.000000 1.648780 
# 
# From -- ./inp_files/9827.got.cif
#   From: 2010.05.17/outbox.cif.g08.bks.cpg/sg55_5_cif.got.tgz:9827.got - 2010.06.03 13:27:54.
