data_PCOD9427484
_publ_section_title
;
Structure prediction by ZEFSAII (Michael W. Deem and Ramdas Pophale) SiO2 
 PCOD9427484
Probable space group: P B A M
;
_chemical_formula_sum "Si O2"
_cell_formula_units_Z 48
_cell_length_a 19.219037
_cell_length_b 15.377320
_cell_length_c 7.650026
_cell_angle_alpha 90.000000
_cell_angle_beta 90.000000
_cell_angle_gamma 90.000000
_cell_volume 2260.867892
_symmetry_space_group_name_H-M "P B A M"
_symmetry_group_IT_number 55
_symmetry_cell_setting 'orthorhombic'
loop_
_space_group_symop_operation_xyz
x,y,z
-x,-y,z
1/2+x,1/2-y,-z
1/2-x,1/2+y,-z
-x,-y,-z
x,y,-z
1/2-x,1/2+y,z
1/2+x,1/2-y,z
loop_
_atom_site_type_symbol
_atom_site_label
_atom_site_fract_x
_atom_site_fract_y
_atom_site_fract_z
Si Si1 0.765387 0.713303 0.289265
Si Si2 0.565186 0.441470 0.286023
Si Si3 0.809902 0.393668 0.796670
Si Si4 0.471863 0.093204 0.289106
Si Si5 0.296665 0.463999 0.701265
Si Si6 0.423301 0.756970 0.285912
O O1 0.769047 0.705637 0.500000
O O2 0.724461 0.801411 0.249075
O O3 0.726349 0.627835 0.219707
O O4 0.845143 0.719411 0.228371
O O5 0.500000 0.500000 0.233402
O O6 0.566589 0.439215 0.500000
O O7 0.636865 0.485617 0.223627
O O8 0.560146 0.341363 0.229870
O O9 0.891495 0.394002 0.756977
O O10 0.768398 0.470591 0.701918
O O11 0.799425 0.410106 0.000000
O O12 0.476345 0.092396 0.500000
O O13 0.520749 0.171942 0.227094
O O14 0.500000 0.000000 0.225816
O O15 0.316031 0.445248 0.500000
O O16 0.423565 0.757464 0.500000
#
# Coordination Sequence:
#
# PCOD9427484 Si02
#       6
#     8   8   8   8   8   8
#     4  10  20  37  63  90 113 148 200 252 297 342
#     4   9  17  29  51  86 116 140 180 239 302 345
#     4  12  25  39  57  86 127 165 194 235 297 369
#     4  10  21  38  62  89 115 148 199 254 299 348
#     4  10  20  37  63  87 113 152 203 258 297 339
#     4   9  17  32  56  84 114 143 184 247 300 339
#
# _framework density 21.230785000000001
#
# number of rings (size 3 to 8) (size 9 to 14) (size 15 to 20)
#    0.000    2.000    1.667    2.500    2.333    3.667 
#    0.000    0.833    0.000    0.500    0.000    0.000 
#    0.000    0.000    0.000    0.000    0.000    0.000 
#
# Total GULP energy -268231.543501 kJ/mol
# GULP energy per Si atom -5588.157156 kJ/mol
# Density = 2.118246 g / cm^3
# Si number density = 21.230785 Si / 1000 Ang^3
#
#
#
# Elastic Constant Matrix: (Units=GPa)
#
#
# Indices 1 2 3 4 5 6 
#
# 1 122.2847 22.4008 -6.8218 0.0000 0.0000 0.0000
# 2 22.4008 96.0162 -0.5565 0.0000 0.0000 0.0000
# 3 -6.8218 -0.5565 41.3527 0.0000 0.0000 0.0000
# 4 0.0000 0.0000 0.0000 6.8659 0.0000 0.0000
# 5 0.0000 0.0000 0.0000 0.0000-1425.3821 0.0000
# 6 0.0000 0.0000 0.0000 0.0000 0.0000 29.1441
#
#
#
# Elastic Compliance Matrix: (Units=1/GPa)
#
#
# Indices 1 2 3 4 5 6 
#
# 1 0.008623 -0.002004 0.001395 0.000000 0.000000 0.000000
# 2 -0.002004 0.010881 -0.000184 0.000000 0.000000 0.000000
# 3 0.001395 -0.000184 0.024410 0.000000 0.000000 0.000000
# 4 0.000000 0.000000 0.000000 0.145647 0.000000 0.000000
# 5 0.000000 0.000000 0.000000 0.000000 -0.000702 0.000000
# 6 0.000000 0.000000 0.000000 0.000000 0.000000 0.034312
#
#
# Mechanical properties :
#
#
# Convention : Reuss Voigt Hill
#
# Bulk Modulus (GPa) = 23.62425 32.18873 27.90649
# Shear Modulus (GPa) = 20.93229 -261.56568 -120.31669
#
# Velocity S-wave (km/s) = 3.14338 -11.11164 -7.53617
# Velocity P-wave (km/s) = 4.93213 12.22418 7.90900
#
# Compressibility (1/GPa) = 0.04232939
#
# Stress axis : x y z
#
# Youngs Moduli (GPa) = 115.97555 91.90098 40.96688
#
# Poissons Ratio (x) = 0.18413 -0.05717
# Poissons Ratio (y) = 0.23236 0.00754
# Poissons Ratio (z) = -0.16184 0.01692
#
# Static dielectric constant tensor:
#      x y z
#    x 1.722890 0.000000 0.000000 
#    y 0.000000 1.743870 0.000000 
#    z 0.000000 0.000000 1.761840 
# 
# From -- ./inp_files/5568.got.cif
#   From: 2010.05.17/outbox.cif.g08.bks.cpg/sg55_3_cif.got.tgz:5568.got - 2010.06.03 13:27:54.
