data_PCOD9427387
_publ_section_title
;
Structure prediction by ZEFSAII (Michael W. Deem and Ramdas Pophale) SiO2 
 PCOD9427387
Probable space group: P B A M
;
_chemical_formula_sum "Si O2"
_cell_formula_units_Z 44
_cell_length_a 28.549536
_cell_length_b 8.270960
_cell_length_c 8.003194
_cell_angle_alpha 90.000000
_cell_angle_beta 90.000000
_cell_angle_gamma 90.000000
_cell_volume 1889.810768
_symmetry_space_group_name_H-M "P B A M"
_symmetry_group_IT_number 55
_symmetry_cell_setting 'orthorhombic'
loop_
_space_group_symop_operation_xyz
x,y,z
-x,-y,z
1/2+x,1/2-y,-z
1/2-x,1/2+y,-z
-x,-y,-z
x,y,-z
1/2-x,1/2+y,z
1/2+x,1/2-y,z
loop_
_atom_site_type_symbol
_atom_site_label
_atom_site_fract_x
_atom_site_fract_y
_atom_site_fract_z
Si Si1 0.537446 0.866821 0.693077
Si Si2 0.634732 0.754151 0.802571
Si Si3 0.094165 0.074885 0.312994
Si Si4 0.182662 0.209820 0.803881
Si Si5 0.274121 0.060587 0.801318
Si Si6 0.000000 0.000000 0.756711
O O1 0.545988 0.909117 0.500000
O O2 0.588030 0.863311 0.781640
O O3 0.518051 0.680777 0.695766
O O4 0.500000 0.000000 0.758042
O O5 0.623070 0.589602 0.707976
O O6 0.682796 0.831701 0.738298
O O7 0.640158 0.720565 0.000000
O O8 0.073348 0.084886 0.500000
O O9 0.051021 0.062059 0.186016
O O10 0.132662 0.210061 0.284087
O O11 0.221953 0.087319 0.734743
O O12 0.208670 0.379064 0.788047
O O13 0.172919 0.176020 0.000000
O O14 0.269984 0.098412 0.000000
#
# Coordination Sequence:
#
# PCOD9427387 Si02
#       6
#     8   8   8   8   8   4
#     4  10  21  37  59  84 116 162 203 243 301 359
#     4  10  20  37  59  85 116 152 193 243 292 345
#     4  11  22  38  59  84 114 153 194 242 295 351
#     4  10  20  37  60  85 112 149 192 233 285 351
#     4   9  19  36  60  86 116 152 189 233 290 351
#     4  10  21  40  59  80 117 158 203 244 291 360
#
# _framework density 23.282755000000002
#
# number of rings (size 3 to 8) (size 9 to 14) (size 15 to 20)
#    0.000    2.000    0.000    4.909    2.545    3.273 
#    0.000   16.818    0.000    0.000    0.000    0.000 
#    0.000    0.000    0.000    0.000    0.000    0.000 
#
# Total GULP energy -245087.438872 kJ/mol
# GULP energy per Si atom -5570.169065 kJ/mol
# Density = 2.322976 g / cm^3
# Si number density = 23.282755 Si / 1000 Ang^3
#
#
#
# Elastic Constant Matrix: (Units=GPa)
#
#
# Indices 1 2 3 4 5 6 
#
# 1 153.3223 27.5128 10.5253 0.0000 0.0000 0.0000
# 2 27.5128 35.2768 6.7043 0.0000 0.0000 0.0000
# 3 10.5253 6.7043 48.8051 0.0000 0.0000 0.0000
# 4 0.0000 0.0000 0.0000 6.1149 0.0000 0.0000
# 5 0.0000 0.0000 0.0000 0.0000 12.0434 0.0000
# 6 0.0000 0.0000 0.0000 0.0000 0.0000 51.2297
#
#
#
# Elastic Compliance Matrix: (Units=1/GPa)
#
#
# Indices 1 2 3 4 5 6 
#
# 1 0.007618 -0.005780 -0.000849 0.000000 0.000000 0.000000
# 2 -0.005780 0.033492 -0.003354 0.000000 0.000000 0.000000
# 3 -0.000849 -0.003354 0.021134 0.000000 0.000000 0.000000
# 4 0.000000 0.000000 0.000000 0.163534 0.000000 0.000000
# 5 0.000000 0.000000 0.000000 0.000000 0.083033 0.000000
# 6 0.000000 0.000000 0.000000 0.000000 0.000000 0.019520
#
#
# Mechanical properties :
#
#
# Convention : Reuss Voigt Hill
#
# Bulk Modulus (GPa) = 23.65316 36.32100 29.98708
# Shear Modulus (GPa) = 13.79733 26.72172 20.25953
#
# Velocity S-wave (km/s) = 2.43698 3.39145 2.95303
# Velocity P-wave (km/s) = 4.25436 5.56505 4.95325
#
# Compressibility (1/GPa) = 0.04227765
#
# Stress axis : x y z
#
# Youngs Moduli (GPa) = 131.27445 29.85749 47.31821
#
# Poissons Ratio (x) = 0.17257 0.04017
# Poissons Ratio (y) = 0.75874 0.15872
# Poissons Ratio (z) = 0.11143 0.10015
#
# Static dielectric constant tensor:
#      x y z
#    x 1.880220 0.000000 0.000000 
#    y 0.000000 1.910750 0.000000 
#    z 0.000000 0.000000 1.941950 
# 
# From -- ./inp_files/10428.got.cif
#   From: 2010.05.17/outbox.cif.g08.bks.cpg/sg55_6_cif.got.tgz:10428.got - 2010.06.03 13:27:54.
