data_PCOD9427145
_publ_section_title
;
Structure prediction by ZEFSAII (Michael W. Deem and Ramdas Pophale) SiO2 
 PCOD9427145
Probable space group: P B A M
;
_chemical_formula_sum "Si O2"
_cell_formula_units_Z 40
_cell_length_a 17.164069
_cell_length_b 7.708994
_cell_length_c 13.182959
_cell_angle_alpha 90.000000
_cell_angle_beta 90.000000
_cell_angle_gamma 90.000000
_cell_volume 1744.338879
_symmetry_space_group_name_H-M "P B A M"
_symmetry_group_IT_number 55
_symmetry_cell_setting 'orthorhombic'
loop_
_space_group_symop_operation_xyz
x,y,z
-x,-y,z
1/2+x,1/2-y,-z
1/2-x,1/2+y,-z
-x,-y,-z
x,y,-z
1/2-x,1/2+y,z
1/2+x,1/2-y,z
loop_
_atom_site_type_symbol
_atom_site_label
_atom_site_fract_x
_atom_site_fract_y
_atom_site_fract_z
Si Si1 0.827349 0.040427 0.336816
Si Si2 0.444154 0.747614 0.392301
Si Si3 0.567185 0.390971 0.180487
Si Si4 0.093346 0.479038 0.110990
Si Si5 0.650570 0.929780 0.327878
O O1 0.911720 0.558757 0.378250
O O2 0.735700 0.011923 0.342678
O O3 0.848678 0.234614 0.367690
O O4 0.862598 0.006176 0.224166
O O5 0.486366 0.728933 0.500000
O O6 0.477051 0.689002 0.282594
O O7 0.371572 0.613249 0.394977
O O8 0.500000 0.500000 0.126754
O O9 0.602920 0.228109 0.123637
O O10 0.132553 0.566864 0.207657
O O11 0.000000 0.500000 0.116865
O O12 0.119589 0.538759 0.000000
#
# Coordination Sequence:
#
# PCOD9427145 Si02
#       5
#     8   8   8   8   8
#     4  10  20  36  57  83 112 157 190 234 284 345
#     4   9  21  35  55  86 115 152 195 232 278 339
#     4   9  19  37  58  82 118 155 183 244 286 336
#     4  10  21  37  61  88 113 148 193 237 289 356
#     4  11  19  39  58  78 123 148 190 241 292 332
#
# _framework density 22.931325000000001
#
# number of rings (size 3 to 8) (size 9 to 14) (size 15 to 20)
#    1.200    1.000    2.000    1.200    0.000    2.400 
#    0.000    5.000    0.000    3.600    0.000    0.000 
#    0.000    0.000    0.000    0.000    0.000    0.000 
#
# Total GULP energy -223144.985619 kJ/mol
# GULP energy per Si atom -5578.624640 kJ/mol
# Density = 2.287913 g / cm^3
# Si number density = 22.931325 Si / 1000 Ang^3
#
#
#
# Elastic Constant Matrix: (Units=GPa)
#
#
# Indices 1 2 3 4 5 6 
#
# 1 63.8008 21.6605 0.9574 0.0000 0.0000 0.0000
# 2 21.6605 140.6646 6.3735 0.0000 0.0000 0.0000
# 3 0.9574 6.3735 110.0763 0.0000 0.0000 0.0000
# 4 0.0000 0.0000 0.0000 69.1054 0.0000 0.0000
# 5 0.0000 0.0000 0.0000 0.0000 12.7851 0.0000
# 6 0.0000 0.0000 0.0000 0.0000 0.0000 31.2771
#
#
#
# Elastic Compliance Matrix: (Units=1/GPa)
#
#
# Indices 1 2 3 4 5 6 
#
# 1 0.016538 -0.002547 0.000004 0.000000 0.000000 0.000000
# 2 -0.002547 0.007520 -0.000413 0.000000 0.000000 0.000000
# 3 0.000004 -0.000413 0.009109 0.000000 0.000000 0.000000
# 4 0.000000 0.000000 0.000000 0.014471 0.000000 0.000000
# 5 0.000000 0.000000 0.000000 0.000000 0.078216 0.000000
# 6 0.000000 0.000000 0.000000 0.000000 0.000000 0.031972
#
#
# Mechanical properties :
#
#
# Convention : Reuss Voigt Hill
#
# Bulk Modulus (GPa) = 36.69199 41.39162 39.04181
# Shear Modulus (GPa) = 28.93120 41.67019 35.30069
#
# Velocity S-wave (km/s) = 3.55582 4.26746 3.92779
# Velocity P-wave (km/s) = 5.73533 6.50930 6.13453
#
# Compressibility (1/GPa) = 0.02725390
#
# Stress axis : x y z
#
# Youngs Moduli (GPa) = 60.46536 132.97844 109.78748
#
# Poissons Ratio (x) = 0.33868 -0.00040
# Poissons Ratio (y) = 0.15400 0.04537
# Poissons Ratio (z) = -0.00022 0.05495
#
# Static dielectric constant tensor:
#      x y z
#    x 1.843060 0.000000 0.000000 
#    y 0.000000 1.893910 0.000000 
#    z 0.000000 0.000000 1.889730 
# 
# From -- ./inp_files/12067.got.cif
#   From: 2010.05.17/outbox.cif.g08.bks.cpg/sg55_7_cif.got.tgz:12067.got - 2010.06.03 13:27:54.
