data_PCOD9427935
_publ_section_title
;
Structure prediction by ZEFSAII (Michael W. Deem and Ramdas Pophale) SiO2 
 PCOD9427935
Probable space group: P B A M
;
_chemical_formula_sum "Si O2"
_cell_formula_units_Z 48
_cell_length_a 25.454011
_cell_length_b 8.686704
_cell_length_c 11.501181
_cell_angle_alpha 90.000000
_cell_angle_beta 90.000000
_cell_angle_gamma 90.000000
_cell_volume 2543.042913
_symmetry_space_group_name_H-M "P B A M"
_symmetry_group_IT_number 55
_symmetry_cell_setting 'orthorhombic'
loop_
_space_group_symop_operation_xyz
x,y,z
-x,-y,z
1/2+x,1/2-y,-z
1/2-x,1/2+y,-z
-x,-y,-z
x,y,-z
1/2-x,1/2+y,z
1/2+x,1/2-y,z
loop_
_atom_site_type_symbol
_atom_site_label
_atom_site_fract_x
_atom_site_fract_y
_atom_site_fract_z
Si Si1 0.674864 0.765362 0.000000
Si Si2 0.890201 0.309909 0.219165
Si Si3 0.800568 0.177833 0.636759
Si Si4 0.004433 0.816163 0.864491
Si Si5 0.795762 0.854699 0.240541
Si Si6 0.254303 0.507292 0.000000
Si Si7 0.892100 0.664125 0.140460
O O1 0.641144 0.729619 0.887552
O O2 0.693928 0.941958 0.000000
O O3 0.728483 0.668959 0.000000
O O4 0.853285 0.270709 0.327666
O O5 0.948633 0.243456 0.216302
O O6 0.892593 0.488819 0.185020
O O7 0.790885 0.187353 0.500000
O O8 0.751359 0.253032 0.705610
O O9 0.806599 0.000454 0.676458
O O10 0.948764 0.740263 0.835311
O O11 0.017050 0.774193 0.000000
O O12 0.000000 0.000000 0.858515
O O13 0.846284 0.753278 0.208681
O O14 0.777330 0.926445 0.118513
O O15 0.885597 0.676737 0.000000
#
# Coordination Sequence:
#
# PCOD9427935 Si02
#       7
#     4   8   8   8   8   4   8
#     4  12  24  34  59  93 129 168 202 251 331 373
#     4  12  22  39  63  90 131 168 209 260 314 383
#     4  12  27  44  63  87 124 175 223 265 306 366
#     4  10  21  36  59  94 135 168 200 250 322 397
#     4  12  23  40  63  90 127 163 206 263 321 383
#     4  12  22  36  57  94 128 155 197 260 325 384
#     4  11  23  36  63  98 133 162 197 252 331 401
#
# _framework density 18.875025999999998
#
# number of rings (size 3 to 8) (size 9 to 14) (size 15 to 20)
#    0.000    0.500    5.833    3.000    2.333    1.333 
#    0.000    0.833    0.000    7.500    0.000    0.000 
#    0.000    0.000    0.000    0.000    0.000    0.000 
#
# Total GULP energy -268324.192514 kJ/mol
# GULP energy per Si atom -5590.087344 kJ/mol
# Density = 1.883207 g / cm^3
# Si number density = 18.875026 Si / 1000 Ang^3
#
#
#
# Elastic Constant Matrix: (Units=GPa)
#
#
# Indices 1 2 3 4 5 6 
#
# 1 158.4627 64.8932 39.5906 0.0000 0.0000 0.0000
# 2 64.8932 111.1673 35.5921 0.0000 0.0000 0.0000
# 3 39.5906 35.5921 87.5169 0.0000 0.0000 0.0000
# 4 0.0000 0.0000 0.0000 44.1599 0.0000 0.0000
# 5 0.0000 0.0000 0.0000 0.0000 11.2817 0.0000
# 6 0.0000 0.0000 0.0000 0.0000 0.0000 39.0484
#
#
#
# Elastic Compliance Matrix: (Units=1/GPa)
#
#
# Indices 1 2 3 4 5 6 
#
# 1 0.008626 -0.004353 -0.002132 0.000000 0.000000 0.000000
# 2 -0.004353 0.012538 -0.003130 0.000000 0.000000 0.000000
# 3 -0.002132 -0.003130 0.013664 0.000000 0.000000 0.000000
# 4 0.000000 0.000000 0.000000 0.022645 0.000000 0.000000
# 5 0.000000 0.000000 0.000000 0.000000 0.088639 0.000000
# 6 0.000000 0.000000 0.000000 0.000000 0.000000 0.025609
#
#
# Mechanical properties :
#
#
# Convention : Reuss Voigt Hill
#
# Bulk Modulus (GPa) = 64.10879 70.81095 67.45987
# Shear Modulus (GPa) = 25.49067 33.36942 29.43004
#
# Velocity S-wave (km/s) = 3.67890 4.20922 3.95296
# Velocity P-wave (km/s) = 7.21695 7.82435 7.52678
#
# Compressibility (1/GPa) = 0.01559848
#
# Stress axis : x y z
#
# Youngs Moduli (GPa) = 115.93171 79.75446 73.18598
#
# Poissons Ratio (x) = 0.34714 0.15603
# Poissons Ratio (y) = 0.50461 0.22909
# Poissons Ratio (z) = 0.24716 0.24965
#
# Static dielectric constant tensor:
#      x y z
#    x 1.654050 0.000000 0.000000 
#    y 0.000000 1.688400 0.000000 
#    z 0.000000 0.000000 1.640540 
# 
# From -- ./inp_files/15650.got.cif
#   From: 2010.05.17/outbox.cif.g08.bks.cpg/sg55_8_cif.got.tgz:15650.got - 2010.06.03 13:27:54.
