data_PCOD9427193
_publ_section_title
;
Structure prediction by ZEFSAII (Michael W. Deem and Ramdas Pophale) SiO2 
 PCOD9427193
Probable space group: P B A M
;
_chemical_formula_sum "Si O2"
_cell_formula_units_Z 64
_cell_length_a 19.998065
_cell_length_b 14.749586
_cell_length_c 11.326948
_cell_angle_alpha 90.000000
_cell_angle_beta 90.000000
_cell_angle_gamma 90.000000
_cell_volume 3341.032597
_symmetry_space_group_name_H-M "P B A M"
_symmetry_group_IT_number 55
_symmetry_cell_setting 'orthorhombic'
loop_
_space_group_symop_operation_xyz
x,y,z
-x,-y,z
1/2+x,1/2-y,-z
1/2-x,1/2+y,-z
-x,-y,-z
x,y,-z
1/2-x,1/2+y,z
1/2+x,1/2-y,z
loop_
_atom_site_type_symbol
_atom_site_label
_atom_site_fract_x
_atom_site_fract_y
_atom_site_fract_z
Si Si1 0.693235 0.062162 0.211523
Si Si2 0.782605 0.382028 0.362157
Si Si3 0.379210 0.289915 0.634156
Si Si4 0.438282 0.569538 0.131414
Si Si5 0.043077 0.413870 0.863633
Si Si6 0.338887 0.410451 0.865049
Si Si7 0.323460 0.760195 0.631738
Si Si8 0.970437 0.762269 0.703855
O O1 0.621738 0.063415 0.147539
O O2 0.759554 0.075325 0.134946
O O3 0.692110 0.150730 0.294616
O O4 0.701381 0.969914 0.285647
O O5 0.775044 0.408559 0.500000
O O6 0.840491 0.305758 0.354930
O O7 0.715545 0.328434 0.322024
O O8 0.363881 0.326260 0.500000
O O9 0.358626 0.348478 0.751033
O O10 0.458860 0.275026 0.641078
O O11 0.500000 0.500000 0.131802
O O12 0.374660 0.506812 0.156695
O O13 0.455202 0.649209 0.219054
O O14 0.430596 0.608381 0.000000
O O15 0.026494 0.326409 0.786149
O O16 0.000000 0.500000 0.822777
O O17 0.026488 0.396159 0.000000
O O18 0.359722 0.380269 0.000000
O O19 0.297035 0.773148 0.500000
O O20 0.402936 0.748625 0.629238
#
# Coordination Sequence:
#
# PCOD9427193 Si02
#       8
#     8   8   8   8   8   8   8   8
#     4  11  21  38  63  87 120 157 206 254 309 361
#     4  10  21  38  61  88 121 162 206 250 309 374
#     4  11  23  40  62  92 128 163 207 257 307 371
#     4  10  20  36  58  85 120 161 204 249 306 369
#     4  10  22  39  60  87 120 159 205 256 310 366
#     4  11  23  40  62  89 124 162 208 259 310 368
#     4  10  21  37  58  86 119 156 199 251 305 362
#     4  11  21  37  61  87 120 161 204 251 306 365
#
# _framework density 19.155754000000002
#
# number of rings (size 3 to 8) (size 9 to 14) (size 15 to 20)
#    0.000    1.500    2.500    3.000    0.000    1.000 
#    0.000    3.125    0.000    6.000    0.000    0.000 
#    0.000    0.000    0.000    0.000    0.000    0.000 
#
# Total GULP energy -357009.255466 kJ/mol
# GULP energy per Si atom -5578.269617 kJ/mol
# Density = 1.911215 g / cm^3
# Si number density = 19.155754 Si / 1000 Ang^3
#
#
#
# Elastic Constant Matrix: (Units=GPa)
#
#
# Indices 1 2 3 4 5 6 
#
# 1 112.8317 17.2512 20.7336 0.0000 0.0000 0.0000
# 2 17.2512 78.2007 59.0244 0.0000 0.0000 0.0000
# 3 20.7336 59.0244 106.5330 0.0000 0.0000 0.0000
# 4 0.0000 0.0000 0.0000 9.3429 0.0000 0.0000
# 5 0.0000 0.0000 0.0000 0.0000 24.3791 0.0000
# 6 0.0000 0.0000 0.0000 0.0000 0.0000 32.0340
#
#
#
# Elastic Compliance Matrix: (Units=1/GPa)
#
#
# Indices 1 2 3 4 5 6 
#
# 1 0.009254 -0.001172 -0.001151 0.000000 0.000000 0.000000
# 2 -0.001172 0.022127 -0.012031 0.000000 0.000000 0.000000
# 3 -0.001151 -0.012031 0.016277 0.000000 0.000000 0.000000
# 4 0.000000 0.000000 0.000000 0.107033 0.000000 0.000000
# 5 0.000000 0.000000 0.000000 0.000000 0.041019 0.000000
# 6 0.000000 0.000000 0.000000 0.000000 0.000000 0.031217
#
#
# Mechanical properties :
#
#
# Convention : Reuss Voigt Hill
#
# Bulk Modulus (GPa) = 52.77762 54.62044 53.69903
# Shear Modulus (GPa) = 19.08742 26.52162 22.80452
#
# Velocity S-wave (km/s) = 3.16006 3.72496 3.45407
# Velocity P-wave (km/s) = 6.39736 6.86121 6.63334
#
# Compressibility (1/GPa) = 0.01894742
#
# Stress axis : x y z
#
# Youngs Moduli (GPa) = 108.06631 45.19299 61.43686
#
# Poissons Ratio (x) = 0.05298 0.07074
# Poissons Ratio (y) = 0.12668 0.73918
# Poissons Ratio (z) = 0.12443 0.54374
#
# Static dielectric constant tensor:
#      x y z
#    x 1.691680 0.000000 0.000000 
#    y 0.000000 1.626280 0.000000 
#    z 0.000000 0.000000 1.729970 
# 
# From -- ./inp_files/14979.got.cif
#   From: 2010.05.17/outbox.cif.g08.bks.cpg/sg55_8_cif.got.tgz:14979.got - 2010.06.03 13:27:54.
