data_PCOD9427850
_publ_section_title
;
Structure prediction by ZEFSAII (Michael W. Deem and Ramdas Pophale) SiO2 
 PCOD9427850
Probable space group: P B A M
;
_chemical_formula_sum "Si O2"
_cell_formula_units_Z 48
_cell_length_a 13.652799
_cell_length_b 14.250747
_cell_length_c 15.023976
_cell_angle_alpha 90.000000
_cell_angle_beta 90.000000
_cell_angle_gamma 90.000000
_cell_volume 2923.103598
_symmetry_space_group_name_H-M "P B A M"
_symmetry_group_IT_number 55
_symmetry_cell_setting 'orthorhombic'
loop_
_space_group_symop_operation_xyz
x,y,z
-x,-y,z
1/2+x,1/2-y,-z
1/2-x,1/2+y,-z
-x,-y,-z
x,y,-z
1/2-x,1/2+y,z
1/2+x,1/2-y,z
loop_
_atom_site_type_symbol
_atom_site_label
_atom_site_fract_x
_atom_site_fract_y
_atom_site_fract_z
Si Si1 0.885493 0.734683 0.214238
Si Si2 0.754953 0.102651 0.103175
Si Si3 0.735699 0.896773 0.172056
Si Si4 0.595777 0.957737 0.673291
Si Si5 0.572151 0.150695 0.599578
Si Si6 0.580068 0.752908 0.898706
O O1 0.824274 0.650663 0.167977
O O2 0.826681 0.829200 0.191821
O O3 0.893948 0.715333 0.319383
O O4 0.992301 0.737659 0.170393
O O5 0.856486 0.158700 0.115987
O O6 0.763739 0.993307 0.124707
O O7 0.725908 0.116619 0.000000
O O8 0.679635 0.922777 0.263273
O O9 0.657461 0.837027 0.115177
O O10 0.542411 0.876996 0.616269
O O11 0.500000 0.000000 0.727120
O O12 0.622465 0.047939 0.613790
O O13 0.587844 0.185280 0.500000
O O14 0.542668 0.753569 0.000000
#
# Coordination Sequence:
#
# PCOD9427850 Si02
#       6
#     8   8   8   8   8   8
#     4  11  21  35  55  80 113 141 183 227 270 320
#     4  10  21  36  55  80 112 145 183 223 263 322
#     4  11  20  34  56  81 108 145 180 223 269 318
#     4   8  15  31  56  75 100 132 170 223 270 312
#     4   9  17  33  56  80 106 137 176 225 275 323
#     4  10  21  36  54  79 111 147 180 217 269 320
#
# _framework density 16.420902999999999
#
# number of rings (size 3 to 8) (size 9 to 14) (size 15 to 20)
#    1.000    1.000    3.333    2.000    0.000    2.667 
#    0.000    5.000    0.000    0.000    0.000    1.167 
#    0.000    0.000    0.000    0.000    0.000    0.000 
#
# Total GULP energy -267230.984961 kJ/mol
# GULP energy per Si atom -5567.312187 kJ/mol
# Density = 1.638353 g / cm^3
# Si number density = 16.420903 Si / 1000 Ang^3
#
#
#
# Elastic Constant Matrix: (Units=GPa)
#
#
# Indices 1 2 3 4 5 6 
#
# 1 44.4870 31.4460 35.4056 0.0000 0.0000 0.0000
# 2 31.4460 94.1277 31.6324 0.0000 0.0000 0.0000
# 3 35.4056 31.6324 116.8216 0.0000 0.0000 0.0000
# 4 0.0000 0.0000 0.0000 17.9788 0.0000 0.0000
# 5 0.0000 0.0000 0.0000 0.0000 8.7779 0.0000
# 6 0.0000 0.0000 0.0000 0.0000 0.0000 9.6074
#
#
#
# Elastic Compliance Matrix: (Units=1/GPa)
#
#
# Indices 1 2 3 4 5 6 
#
# 1 0.035496 -0.009068 -0.008303 0.000000 0.000000 0.000000
# 2 -0.009068 0.014004 -0.001044 0.000000 0.000000 0.000000
# 3 -0.008303 -0.001044 0.011359 0.000000 0.000000 0.000000
# 4 0.000000 0.000000 0.000000 0.055621 0.000000 0.000000
# 5 0.000000 0.000000 0.000000 0.000000 0.113923 0.000000
# 6 0.000000 0.000000 0.000000 0.000000 0.000000 0.104087
#
#
# Mechanical properties :
#
#
# Convention : Reuss Voigt Hill
#
# Bulk Modulus (GPa) = 41.61408 50.26714 45.94061
# Shear Modulus (GPa) = 13.18116 17.73628 15.45872
#
# Velocity S-wave (km/s) = 2.83628 3.29006 3.07156
# Velocity P-wave (km/s) = 6.01025 6.71646 6.37314
#
# Compressibility (1/GPa) = 0.02403033
#
# Stress axis : x y z
#
# Youngs Moduli (GPa) = 28.17199 71.40761 88.03656
#
# Poissons Ratio (x) = 0.64755 0.73093
# Poissons Ratio (y) = 0.25547 0.09187
# Poissons Ratio (z) = 0.23390 0.07452
#
# Static dielectric constant tensor:
#      x y z
#    x 1.537170 0.000000 0.000000 
#    y 0.000000 1.566960 0.000000 
#    z 0.000000 0.000000 1.551770 
# 
# From -- ./inp_files/18287.got.cif
#   From: 2010.05.17/outbox.cif.g08.bks.cpg/sg55_10_cif.got.tgz:18287.got - 2010.06.03 13:27:54.
