data_PCOD9427728
_publ_section_title
;
Structure prediction by ZEFSAII (Michael W. Deem and Ramdas Pophale) SiO2 
 PCOD9427728
Probable space group: P B A M
;
_chemical_formula_sum "Si O2"
_cell_formula_units_Z 40
_cell_length_a 10.350462
_cell_length_b 27.543104
_cell_length_c 8.048096
_cell_angle_alpha 90.000000
_cell_angle_beta 90.000000
_cell_angle_gamma 90.000000
_cell_volume 2294.382203
_symmetry_space_group_name_H-M "P B A M"
_symmetry_group_IT_number 55
_symmetry_cell_setting 'orthorhombic'
loop_
_space_group_symop_operation_xyz
x,y,z
-x,-y,z
1/2+x,1/2-y,-z
1/2-x,1/2+y,-z
-x,-y,-z
x,y,-z
1/2-x,1/2+y,z
1/2+x,1/2-y,z
loop_
_atom_site_type_symbol
_atom_site_label
_atom_site_fract_x
_atom_site_fract_y
_atom_site_fract_z
Si Si1 0.635021 0.026220 0.303086
Si Si2 0.980553 0.709774 0.000000
Si Si3 0.003626 0.382332 0.811305
Si Si4 0.119419 0.031987 0.805841
Si Si5 0.784159 0.798250 0.000000
Si Si6 0.223695 0.131255 0.315209
O O1 0.655280 0.021180 0.500000
O O2 0.612655 0.082240 0.255832
O O3 0.500000 0.000000 0.260235
O O4 0.752251 0.000329 0.212306
O O5 0.456377 0.826498 0.843282
O O6 0.887780 0.755346 0.000000
O O7 0.134579 0.720057 0.000000
O O8 0.874583 0.384113 0.702968
O O9 0.967063 0.398623 0.000000
O O10 0.141955 0.082455 0.712440
O O11 0.097418 0.043184 0.000000
O O12 0.000000 0.000000 0.743149
O O13 0.799677 0.831488 0.835559
O O14 0.201425 0.151052 0.500000
#
# Coordination Sequence:
#
# PCOD9427728 Si02
#       6
#     8   4   8   8   4   8
#     4  11  21  32  55  88 121 154 192 235 279 340
#     4   8  20  38  64  79 110 143 188 242 293 340
#     4   9  18  35  57  87 109 151 192 237 279 336
#     4  11  23  38  55  84 121 163 199 234 284 346
#     4  10  20  44  60  88 108 149 188 245 301 344
#     4  11  20  36  62  86 115 154 196 233 285 355
#
# _framework density 17.433888
#
# number of rings (size 3 to 8) (size 9 to 14) (size 15 to 20)
#    0.600    1.200    4.000    1.800    0.000    2.400 
#    3.600    5.000    0.000    0.000    0.000    0.000 
#    0.000    0.000    0.000    0.000    0.000    0.000 
#
# Total GULP energy -222994.830924 kJ/mol
# GULP energy per Si atom -5574.870773 kJ/mol
# Density = 1.739421 g / cm^3
# Si number density = 17.433888 Si / 1000 Ang^3
#
#
#
# Elastic Constant Matrix: (Units=GPa)
#
#
# Indices 1 2 3 4 5 6 
#
# 1 63.5457 49.0015 13.2846 0.0000 0.0000 0.0000
# 2 49.0015 96.9594 25.7626 0.0000 0.0000 0.0000
# 3 13.2846 25.7626 80.1349 0.0000 0.0000 0.0000
# 4 0.0000 0.0000 0.0000 3.2240 0.0000 0.0000
# 5 0.0000 0.0000 0.0000 0.0000 -1.5142 0.0000
# 6 0.0000 0.0000 0.0000 0.0000 0.0000 37.4631
#
#
#
# Elastic Compliance Matrix: (Units=1/GPa)
#
#
# Indices 1 2 3 4 5 6 
#
# 1 0.025786 -0.013007 -0.000093 0.000000 0.000000 0.000000
# 2 -0.013007 0.017838 -0.003578 0.000000 0.000000 0.000000
# 3 -0.000093 -0.003578 0.013645 0.000000 0.000000 0.000000
# 4 0.000000 0.000000 0.000000 0.310171 0.000000 0.000000
# 5 0.000000 0.000000 0.000000 0.000000 -0.660414 0.000000
# 6 0.000000 0.000000 0.000000 0.000000 0.000000 0.026693
#
#
# Mechanical properties :
#
#
# Convention : Reuss Voigt Hill
#
# Bulk Modulus (GPa) = 41.82063 46.30415 44.06239
# Shear Modulus (GPa) = -22.22692 18.00733 -2.10979
#
# Velocity S-wave (km/s) = -3.57448 3.21735 -1.10127
# Velocity P-wave (km/s) = 2.64656 6.35762 4.86948
#
# Compressibility (1/GPa) = 0.02391165
#
# Stress axis : x y z
#
# Youngs Moduli (GPa) = 38.78024 56.06009 73.28784
#
# Poissons Ratio (x) = 0.72918 0.00683
# Poissons Ratio (y) = 0.50442 0.26226
# Poissons Ratio (z) = 0.00361 0.20061
#
# Static dielectric constant tensor:
#      x y z
#    x 1.577950 0.000000 0.000000 
#    y 0.000000 1.600440 0.000000 
#    z 0.000000 0.000000 1.617020 
# 
# From -- ./inp_files/2629.got.cif
#   From: 2010.05.17/outbox.cif.g08.bks.cpg/sg55_2_cif.got.tgz:2629.got - 2010.06.03 13:27:54.
