data_PCOD9427723
_publ_section_title
;
Structure prediction by ZEFSAII (Michael W. Deem and Ramdas Pophale) SiO2 
 PCOD9427723
Probable space group: P B A M
;
_chemical_formula_sum "Si O2"
_cell_formula_units_Z 48
_cell_length_a 9.355527
_cell_length_b 18.724151
_cell_length_c 14.644197
_cell_angle_alpha 90.000000
_cell_angle_beta 90.000000
_cell_angle_gamma 90.000000
_cell_volume 2565.286962
_symmetry_space_group_name_H-M "P B A M"
_symmetry_group_IT_number 55
_symmetry_cell_setting 'orthorhombic'
loop_
_space_group_symop_operation_xyz
x,y,z
-x,-y,z
1/2+x,1/2-y,-z
1/2-x,1/2+y,-z
-x,-y,-z
x,y,-z
1/2-x,1/2+y,z
1/2+x,1/2-y,z
loop_
_atom_site_type_symbol
_atom_site_label
_atom_site_fract_x
_atom_site_fract_y
_atom_site_fract_z
Si Si1 0.380995 0.057052 0.286073
Si Si2 0.514581 0.584467 0.893437
Si Si3 0.686808 0.659575 0.261381
Si Si4 0.986872 0.296591 0.754929
Si Si5 0.161913 0.973127 0.604419
Si Si6 0.311844 0.120250 0.106663
O O1 0.570011 0.862678 0.305786
O O2 0.243597 0.034213 0.340256
O O3 0.500000 0.000000 0.309711
O O4 0.356216 0.057233 0.176422
O O5 0.500000 0.500000 0.872067
O O6 0.631486 0.618875 0.828558
O O7 0.360317 0.623577 0.881439
O O8 0.553150 0.589876 0.000000
O O9 0.572110 0.721859 0.279444
O O10 0.842861 0.693784 0.243405
O O11 0.686333 0.600708 0.341280
O O12 0.904950 0.314355 0.851456
O O13 0.211888 0.966653 0.500000
O O14 0.000000 0.000000 0.603912
O O15 0.340230 0.108788 0.000000
#
# Coordination Sequence:
#
# PCOD9427723 Si02
#       6
#     8   8   8   8   8   8
#     4  10  20  42  61  94 124 162 205 256 315 362
#     4  10  21  35  60  92 123 168 210 256 313 365
#     4  12  22  43  61  90 129 164 212 257 318 376
#     4  10  25  37  63  91 122 170 203 254 319 364
#     4  11  24  42  70  96 119 160 208 259 319 382
#     4   9  19  36  58  90 124 161 207 248 300 361
#
# _framework density 18.711355999999999
#
# number of rings (size 3 to 8) (size 9 to 14) (size 15 to 20)
#    1.000    0.667    1.667    3.500    2.333    2.000 
#    0.000    1.667    0.000    0.000    0.000    0.000 
#    0.000    0.000    0.000    0.000    0.000    0.000 
#
# Total GULP energy -267463.786482 kJ/mol
# GULP energy per Si atom -5572.162218 kJ/mol
# Density = 1.866877 g / cm^3
# Si number density = 18.711356 Si / 1000 Ang^3
#
#
#
# Elastic Constant Matrix: (Units=GPa)
#
#
# Indices 1 2 3 4 5 6 
#
# 1 57.7210 18.0684 16.8273 0.0000 0.0000 0.0000
# 2 18.0684 83.9295 18.9559 0.0000 0.0000 0.0000
# 3 16.8273 18.9559 41.2672 0.0000 0.0000 0.0000
# 4 0.0000 0.0000 0.0000 23.6897 0.0000 0.0000
# 5 0.0000 0.0000 0.0000 0.0000 635.4666 0.0000
# 6 0.0000 0.0000 0.0000 0.0000 0.0000 31.0463
#
#
#
# Elastic Compliance Matrix: (Units=1/GPa)
#
#
# Indices 1 2 3 4 5 6 
#
# 1 0.020227 -0.002780 -0.006971 0.000000 0.000000 0.000000
# 2 -0.002780 0.013676 -0.005148 0.000000 0.000000 0.000000
# 3 -0.006971 -0.005148 0.029440 0.000000 0.000000 0.000000
# 4 0.000000 0.000000 0.000000 0.042212 0.000000 0.000000
# 5 0.000000 0.000000 0.000000 0.000000 0.001574 0.000000
# 6 0.000000 0.000000 0.000000 0.000000 0.000000 0.032210
#
#
# Mechanical properties :
#
#
# Convention : Reuss Voigt Hill
#
# Bulk Modulus (GPa) = 29.81148 32.29122 31.05135
# Shear Modulus (GPa) = 27.72861 146.64494 87.18677
#
# Velocity S-wave (km/s) = 3.85374 8.86241 6.83351
# Velocity P-wave (km/s) = 5.98069 11.04618 8.88219
#
# Compressibility (1/GPa) = 0.03354412
#
# Stress axis : x y z
#
# Youngs Moduli (GPa) = 49.43845 73.12044 33.96773
#
# Poissons Ratio (x) = 0.20328 0.23678
# Poissons Ratio (y) = 0.13744 0.17488
# Poissons Ratio (z) = 0.34463 0.37645
#
# Static dielectric constant tensor:
#      x y z
#    x 1.779190 0.000000 0.000000 
#    y 0.000000 1.657800 0.000000 
#    z 0.000000 0.000000 1.630880 
# 
# From -- ./inp_files/17514.got.cif
#   From: 2010.05.17/outbox.cif.g08.bks.cpg/sg55_9_cif.got.tgz:17514.got - 2010.06.03 13:27:54.
