data_PCOD9427686
_publ_section_title
;
Structure prediction by ZEFSAII (Michael W. Deem and Ramdas Pophale) SiO2 
 PCOD9427686
Probable space group: P B A M
;
_chemical_formula_sum "Si O2"
_cell_formula_units_Z 48
_cell_length_a 8.266782
_cell_length_b 31.935978
_cell_length_c 8.067965
_cell_angle_alpha 90.000000
_cell_angle_beta 90.000000
_cell_angle_gamma 90.000000
_cell_volume 2130.005433
_symmetry_space_group_name_H-M "P B A M"
_symmetry_group_IT_number 55
_symmetry_cell_setting 'orthorhombic'
loop_
_space_group_symop_operation_xyz
x,y,z
-x,-y,z
1/2+x,1/2-y,-z
1/2-x,1/2+y,-z
-x,-y,-z
x,y,-z
1/2-x,1/2+y,z
1/2+x,1/2-y,z
loop_
_atom_site_type_symbol
_atom_site_label
_atom_site_fract_x
_atom_site_fract_y
_atom_site_fract_z
Si Si1 0.565862 0.729179 0.500000
Si Si2 0.838128 0.179521 0.182920
Si Si3 0.189684 0.136828 0.185506
Si Si4 0.164782 0.977482 0.200865
Si Si5 0.362304 0.054901 0.193572
Si Si6 0.827550 0.603513 0.688377
Si Si7 0.212426 0.686384 0.500000
O O1 0.652780 0.711691 0.665525
O O2 0.383589 0.711516 0.500000
O O3 0.573981 0.779079 0.500000
O O4 0.699464 0.144716 0.203289
O O5 0.006234 0.153146 0.194346
O O6 0.829954 0.199135 0.000000
O O7 0.210616 0.086905 0.201386
O O8 0.285192 0.158551 0.334902
O O9 0.250915 0.147513 0.000000
O O10 0.194359 0.931763 0.271073
O O11 0.307577 0.009472 0.252616
O O12 0.166512 0.974943 0.000000
O O13 0.000000 0.000000 0.251532
O O14 0.506173 0.079009 0.282214
O O15 0.409262 0.050953 0.000000
O O16 0.811296 0.617231 0.500000
#
# Coordination Sequence:
#
# PCOD9427686 Si02
#       7
#     4   8   8   8   8   8   4
#     4  10  22  40  58  93 118 153 194 232 293 352
#     4  10  20  40  64  85 117 156 198 243 288 348
#     4   9  20  39  63  88 114 155 200 238 290 349
#     4  10  21  39  60  81 111 156 204 246 291 344
#     4  10  21  37  57  84 116 154 200 244 292 346
#     4  12  24  36  54  86 121 153 197 245 295 349
#     4  10  22  38  62  87 126 151 186 242 287 350
#
# _framework density 22.535152
#
# number of rings (size 3 to 8) (size 9 to 14) (size 15 to 20)
#    0.000    1.833    0.833    3.000    1.167    7.667 
#    0.000    0.000    0.000    0.000    0.000    0.000 
#    0.000    0.000    0.000    0.000    0.000    0.000 
#
# Total GULP energy -268432.982302 kJ/mol
# GULP energy per Si atom -5592.353798 kJ/mol
# Density = 2.248386 g / cm^3
# Si number density = 22.535152 Si / 1000 Ang^3
#
#
#
# Elastic Constant Matrix: (Units=GPa)
#
#
# Indices 1 2 3 4 5 6 
#
# 1 47.7286 -7.3885 7.0535 0.0000 0.0000 0.0000
# 2 -7.3885 58.0552 30.4554 0.0000 0.0000 0.0000
# 3 7.0535 30.4554 113.1779 0.0000 0.0000 0.0000
# 4 0.0000 0.0000 0.0000 9.0311 0.0000 0.0000
# 5 0.0000 0.0000 0.0000 0.0000 7.1246 0.0000
# 6 0.0000 0.0000 0.0000 0.0000 0.0000 34.5156
#
#
#
# Elastic Compliance Matrix: (Units=1/GPa)
#
#
# Indices 1 2 3 4 5 6 
#
# 1 0.021949 0.004088 -0.002468 0.000000 0.000000 0.000000
# 2 0.004088 0.020818 -0.005857 0.000000 0.000000 0.000000
# 3 -0.002468 -0.005857 0.010565 0.000000 0.000000 0.000000
# 4 0.000000 0.000000 0.000000 0.110728 0.000000 0.000000
# 5 0.000000 0.000000 0.000000 0.000000 0.140358 0.000000
# 6 0.000000 0.000000 0.000000 0.000000 0.000000 0.028972
#
#
# Mechanical properties :
#
#
# Convention : Reuss Voigt Hill
#
# Bulk Modulus (GPa) = 22.29191 31.02251 26.65721
# Shear Modulus (GPa) = 14.01276 22.72369 18.36823
#
# Velocity S-wave (km/s) = 2.49633 3.17892 2.85808
# Velocity P-wave (km/s) = 4.26878 5.22209 4.76931
#
# Compressibility (1/GPa) = 0.04485932
#
# Stress axis : x y z
#
# Youngs Moduli (GPa) = 45.55940 48.03623 94.64814
#
# Poissons Ratio (x) = -0.19638 0.23359
# Poissons Ratio (y) = -0.18625 0.55432
# Poissons Ratio (z) = 0.11244 0.28133
#
# Static dielectric constant tensor:
#      x y z
#    x 1.890750 0.000000 0.000000 
#    y 0.000000 1.768210 0.000000 
#    z 0.000000 0.000000 1.810530 
# 
# From -- ./inp_files/2923.got.cif
#   From: 2010.05.17/outbox.cif.g08.bks.cpg/sg55_2_cif.got.tgz:2923.got - 2010.06.03 13:27:54.
