data_PCOD9427020
_publ_section_title
;
Structure prediction by ZEFSAII (Michael W. Deem and Ramdas Pophale) SiO2 
 PCOD9427020
Probable space group: P B A M
;
_chemical_formula_sum "Si O2"
_cell_formula_units_Z 52
_cell_length_a 19.363380
_cell_length_b 13.533434
_cell_length_c 7.403870
_cell_angle_alpha 90.000000
_cell_angle_beta 90.000000
_cell_angle_gamma 90.000000
_cell_volume 1940.206532
_symmetry_space_group_name_H-M "P B A M"
_symmetry_group_IT_number 55
_symmetry_cell_setting 'orthorhombic'
loop_
_space_group_symop_operation_xyz
x,y,z
-x,-y,z
1/2+x,1/2-y,-z
1/2-x,1/2+y,-z
-x,-y,-z
x,y,-z
1/2-x,1/2+y,z
1/2+x,1/2-y,z
loop_
_atom_site_type_symbol
_atom_site_label
_atom_site_fract_x
_atom_site_fract_y
_atom_site_fract_z
Si Si1 0.732117 0.832314 0.697911
Si Si2 0.892269 0.650411 0.792523
Si Si3 0.017811 0.763280 0.787120
Si Si4 0.870198 0.892918 0.500000
Si Si5 0.399233 0.062737 0.713655
Si Si6 0.244144 0.878846 0.201420
Si Si7 0.600306 0.540751 0.779489
O O1 0.702631 0.804991 0.500000
O O2 0.722196 0.735456 0.812734
O O3 0.811400 0.857300 0.656547
O O4 0.682185 0.920145 0.759471
O O5 0.924260 0.540604 0.795251
O O6 0.817972 0.632103 0.703390
O O7 0.944036 0.728877 0.704600
O O8 0.878875 0.681097 0.000000
O O9 0.063814 0.664207 0.767347
O O10 0.057818 0.860790 0.728844
O O11 0.005844 0.777386 0.000000
O O12 0.916850 0.946000 0.338728
O O13 0.408029 0.049813 0.500000
O O14 0.179574 0.935646 0.281633
O O15 0.253356 0.919028 0.000000
O O16 0.596899 0.527921 0.000000
#
# Coordination Sequence:
#
# PCOD9427020 Si02
#       7
#     8   8   8   4   8   8   8
#     4   9  21  36  52  84 114 150 187 237 301 339
#     4  10  22  37  55  82 117 153 189 238 295 348
#     4  10  21  37  56  81 117 157 190 233 294 355
#     4  10  22  36  60  87 114 150 191 255 301 328
#     4  11  21  34  53  83 117 155 192 226 286 354
#     4  10  20  35  58  84 110 150 200 244 289 354
#     4  10  21  37  61  87 114 154 203 241 289 357
#
# _framework density 26.801269999999999
#
# number of rings (size 3 to 8) (size 9 to 14) (size 15 to 20)
#    0.462    1.538    1.538    1.846    2.154    4.308 
#    0.000    0.000    0.000    1.846    0.000    4.308 
#    0.000    0.000    0.000    0.000    0.000    0.000 
#
# Total GULP energy -289602.588964 kJ/mol
# GULP energy per Si atom -5569.280557 kJ/mol
# Density = 2.674027 g / cm^3
# Si number density = 26.801270 Si / 1000 Ang^3
#
#
#
# Elastic Constant Matrix: (Units=GPa)
#
#
# Indices 1 2 3 4 5 6 
#
# 1 140.1600 16.9620 -9.8704 0.0000 0.0000 0.0000
# 2 16.9620 99.6610 -1.1473 0.0000 0.0000 0.0000
# 3 -9.8704 -1.1473 108.4662 0.0000 0.0000 0.0000
# 4 0.0000 0.0000 0.0000 226.7405 0.0000 0.0000
# 5 0.0000 0.0000 0.0000 0.0000 10.0231 0.0000
# 6 0.0000 0.0000 0.0000 0.0000 0.0000 46.5301
#
#
#
# Elastic Compliance Matrix: (Units=1/GPa)
#
#
# Indices 1 2 3 4 5 6 
#
# 1 0.007331 -0.001240 0.000654 0.000000 0.000000 0.000000
# 2 -0.001240 0.010245 -0.000004 0.000000 0.000000 0.000000
# 3 0.000654 -0.000004 0.009279 0.000000 0.000000 0.000000
# 4 0.000000 0.000000 0.000000 0.004410 0.000000 0.000000
# 5 0.000000 0.000000 0.000000 0.000000 0.099769 0.000000
# 6 0.000000 0.000000 0.000000 0.000000 0.000000 0.021491
#
#
# Mechanical properties :
#
#
# Convention : Reuss Voigt Hill
#
# Bulk Modulus (GPa) = 38.95068 40.01952 39.48510
# Shear Modulus (GPa) = 30.81378 79.48160 55.14769
#
# Velocity S-wave (km/s) = 3.39442 5.45163 4.54106
# Velocity P-wave (km/s) = 5.47060 7.38860 6.50073
#
# Compressibility (1/GPa) = 0.02567350
#
# Stress axis : x y z
#
# Youngs Moduli (GPa) = 136.41000 97.60824 107.77103
#
# Poissons Ratio (x) = 0.12105 -0.07048
# Poissons Ratio (y) = 0.16917 0.00048
# Poissons Ratio (z) = -0.08921 0.00044
#
# Static dielectric constant tensor:
#      x y z
#    x 2.250030 0.000000 0.000000 
#    y 0.000000 2.164470 0.000000 
#    z 0.000000 0.000000 0.749370 
# 
# From -- ./inp_files/5885.got.cif
#   From: 2010.05.17/outbox.cif.g08.bks.cpg/sg55_3_cif.got.tgz:5885.got - 2010.06.03 13:27:54.
