data_PCOD9427634
_publ_section_title
;
Structure prediction by ZEFSAII (Michael W. Deem and Ramdas Pophale) SiO2 
 PCOD9427634
Probable space group: P B A M
;
_chemical_formula_sum "Si O2"
_cell_formula_units_Z 24
_cell_length_a 17.301492
_cell_length_b 8.125576
_cell_length_c 7.921396
_cell_angle_alpha 90.000000
_cell_angle_beta 90.000000
_cell_angle_gamma 90.000000
_cell_volume 1113.626194
_symmetry_space_group_name_H-M "P B A M"
_symmetry_group_IT_number 55
_symmetry_cell_setting 'orthorhombic'
loop_
_space_group_symop_operation_xyz
x,y,z
-x,-y,z
1/2+x,1/2-y,-z
1/2-x,1/2+y,-z
-x,-y,-z
x,y,-z
1/2-x,1/2+y,z
1/2+x,1/2-y,z
loop_
_atom_site_type_symbol
_atom_site_label
_atom_site_fract_x
_atom_site_fract_y
_atom_site_fract_z
Si Si1 0.619326 0.587717 0.000000
Si Si2 0.870066 0.607446 0.687950
Si Si3 0.960845 0.732645 0.000000
Si Si4 0.223461 0.704196 0.195595
O O1 0.550559 0.722547 0.000000
O O2 0.582609 0.409417 0.000000
O O3 0.671399 0.632601 0.162442
O O4 0.902186 0.620069 0.500000
O O5 0.931903 0.637797 0.834611
O O6 0.801759 0.741385 0.715917
O O7 0.827012 0.433674 0.715110
O O8 0.238743 0.649896 0.000000
#
# Coordination Sequence:
#
# PCOD9427634 Si02
#       4
#     4   8   4   8
#     4   9  22  37  68  79 115 169 188 245 286 349
#     4  12  23  37  63  90 119 152 193 245 292 348
#     4  11  20  43  60  87 119 153 204 233 298 341
#     4  10  20  39  59  87 116 155 194 235 294 338
#
# _framework density 21.551216
#
# number of rings (size 3 to 8) (size 9 to 14) (size 15 to 20)
#    1.000    0.333    3.333    3.000    0.000    2.667 
#    0.000   10.000    0.000    0.000    0.000    0.000 
#    0.000    0.000    0.000    0.000    0.000    0.000 
#
# Total GULP energy -134150.603145 kJ/mol
# GULP energy per Si atom -5589.608464 kJ/mol
# Density = 2.150216 g / cm^3
# Si number density = 21.551216 Si / 1000 Ang^3
#
#
#
# Elastic Constant Matrix: (Units=GPa)
#
#
# Indices 1 2 3 4 5 6 
#
# 1 61.8505 0.9053 16.0573 0.0000 0.0000 0.0000
# 2 0.9053 84.6001 16.6917 0.0000 0.0000 0.0000
# 3 16.0573 16.6917 151.6683 0.0000 0.0000 0.0000
# 4 0.0000 0.0000 0.0000 13.7188 0.0000 0.0000
# 5 0.0000 0.0000 0.0000 0.0000 -4.0418 0.0000
# 6 0.0000 0.0000 0.0000 0.0000 0.0000 41.7563
#
#
#
# Elastic Compliance Matrix: (Units=1/GPa)
#
#
# Indices 1 2 3 4 5 6 
#
# 1 0.016627 0.000173 -0.001779 0.000000 0.000000 0.000000
# 2 0.000173 0.012084 -0.001348 0.000000 0.000000 0.000000
# 3 -0.001779 -0.001348 0.006930 0.000000 0.000000 0.000000
# 4 0.000000 0.000000 0.000000 0.072893 0.000000 0.000000
# 5 0.000000 0.000000 0.000000 0.000000 -0.247412 0.000000
# 6 0.000000 0.000000 0.000000 0.000000 0.000000 0.023948
#
#
# Mechanical properties :
#
#
# Convention : Reuss Voigt Hill
#
# Bulk Modulus (GPa) = 33.63272 40.60306 37.11789
# Shear Modulus (GPa) = -50.44982 27.91764 -11.26609
#
# Velocity S-wave (km/s) = -4.84356 3.60308 -2.28887
# Velocity P-wave (km/s) = 3.95478 6.01588 3.20550
#
# Compressibility (1/GPa) = 0.02973295
#
# Stress axis : x y z
#
# Youngs Moduli (GPa) = 60.14149 82.75076 144.29790
#
# Poissons Ratio (x) = -0.01433 0.25677
# Poissons Ratio (y) = -0.01041 0.19455
# Poissons Ratio (z) = 0.10702 0.11157
#
# Static dielectric constant tensor:
#      x y z
#    x 1.784720 0.000000 0.000000 
#    y 0.000000 1.841390 0.000000 
#    z 0.000000 0.000000 1.753700 
# 
# From -- ./inp_files/7015.got.cif
#   From: 2010.05.17/outbox.cif.g08.bks.cpg/sg55_4_cif.got.tgz:7015.got - 2010.06.03 13:27:54.
