data_PCOD9427101
_publ_section_title
;
Structure prediction by ZEFSAII (Michael W. Deem and Ramdas Pophale) SiO2 
 PCOD9427101
Probable space group: P B A M
;
_chemical_formula_sum "Si O2"
_cell_formula_units_Z 48
_cell_length_a 29.189308
_cell_length_b 8.040807
_cell_length_c 7.621823
_cell_angle_alpha 90.000000
_cell_angle_beta 90.000000
_cell_angle_gamma 90.000000
_cell_volume 1788.884480
_symmetry_space_group_name_H-M "P B A M"
_symmetry_group_IT_number 55
_symmetry_cell_setting 'orthorhombic'
loop_
_space_group_symop_operation_xyz
x,y,z
-x,-y,z
1/2+x,1/2-y,-z
1/2-x,1/2+y,-z
-x,-y,-z
x,y,-z
1/2-x,1/2+y,z
1/2+x,1/2-y,z
loop_
_atom_site_type_symbol
_atom_site_label
_atom_site_fract_x
_atom_site_fract_y
_atom_site_fract_z
Si Si1 0.820131 0.768452 0.302839
Si Si2 0.487944 0.769883 0.711068
Si Si3 0.843378 0.230808 0.290430
Si Si4 0.097639 0.440918 0.713475
Si Si5 0.571442 0.561517 0.287756
Si Si6 0.734407 0.959884 0.193886
O O1 0.831137 0.822783 0.500000
O O2 0.866971 0.699974 0.220140
O O3 0.786377 0.907035 0.227123
O O4 0.788989 0.599604 0.312350
O O5 0.494386 0.792520 0.500000
O O6 0.454655 0.917759 0.773586
O O7 0.454155 0.611531 0.739609
O O8 0.536417 0.703694 0.779457
O O9 0.835486 0.220080 0.500000
O O10 0.877398 0.386504 0.252855
O O11 0.876196 0.081566 0.227641
O O12 0.795850 0.291370 0.210094
O O13 0.096384 0.425803 0.500000
O O14 0.573617 0.581555 0.500000
O O15 0.728818 0.028149 0.000000
#
# Coordination Sequence:
#
# PCOD9427101 Si02
#       6
#     8   8   8   8   8   8
#     4  10  20  36  55  76 101 134 173 214 256 307
#     4   8  13  23  38  64  97 124 152 197 250 296
#     4   9  17  30  46  68  95 127 164 202 244 297
#     4   8  15  26  42  64  92 122 158 201 246 292
#     4   8  14  23  39  64  97 128 156 195 247 298
#     4  11  22  36  53  76 104 135 169 213 262 308
#
# _framework density 26.832366
#
# number of rings (size 3 to 8) (size 9 to 14) (size 15 to 20)
#    0.000    3.000    0.000    4.000    0.000    2.000 
#    0.000    6.667    0.000    0.000    0.000   12.833 
#    0.000    0.000    0.000    0.000    0.000    0.000 
#
# Total GULP energy -268275.427449 kJ/mol
# GULP energy per Si atom -5589.071405 kJ/mol
# Density = 2.677129 g / cm^3
# Si number density = 26.832366 Si / 1000 Ang^3
#
#
#
# Elastic Constant Matrix: (Units=GPa)
#
#
# Indices 1 2 3 4 5 6 
#
# 1 190.2543 1.2564 4.5949 0.0000 0.0000 0.0000
# 2 1.2564 75.8423 -0.9109 0.0000 0.0000 0.0000
# 3 4.5949 -0.9109 61.8250 0.0000 0.0000 0.0000
# 4 0.0000 0.0000 0.0000 -16.5998 0.0000 0.0000
# 5 0.0000 0.0000 0.0000 0.0000 239.6936 0.0000
# 6 0.0000 0.0000 0.0000 0.0000 0.0000 61.0218
#
#
#
# Elastic Compliance Matrix: (Units=1/GPa)
#
#
# Indices 1 2 3 4 5 6 
#
# 1 0.005266 -0.000092 -0.000393 0.000000 0.000000 0.000000
# 2 -0.000092 0.013189 0.000201 0.000000 0.000000 0.000000
# 3 -0.000393 0.000201 0.016207 0.000000 0.000000 0.000000
# 4 0.000000 0.000000 0.000000 -0.060242 0.000000 0.000000
# 5 0.000000 0.000000 0.000000 0.000000 0.004172 0.000000
# 6 0.000000 0.000000 0.000000 0.000000 0.000000 0.016388
#
#
# Mechanical properties :
#
#
# Convention : Reuss Voigt Hill
#
# Bulk Modulus (GPa) = 29.32969 37.53362 33.43166
# Shear Modulus (GPa) = 723.35853 78.35520 400.85686
#
# Velocity S-wave (km/s) = 16.43684 5.40973 12.23590
# Velocity P-wave (km/s) = 19.26605 7.28277 14.56398
#
# Compressibility (1/GPa) = 0.03409514
#
# Stress axis : x y z
#
# Youngs Moduli (GPa) = 189.88972 75.81961 61.70237
#
# Poissons Ratio (x) = 0.00697 0.02423
# Poissons Ratio (y) = 0.01746 -0.01241
# Poissons Ratio (z) = 0.07458 -0.01525
#
# Static dielectric constant tensor:
#      x y z
#    x 2.097130 0.000000 0.000000 
#    y 0.000000 2.243850 0.000000 
#    z 0.000000 0.000000 2.036290 
# 
# From -- ./inp_files/10078.got.cif
#   From: 2010.05.17/outbox.cif.g08.bks.cpg/sg55_6_cif.got.tgz:10078.got - 2010.06.03 13:27:54.
