data_PCOD9427622
_publ_section_title
;
Structure prediction by ZEFSAII (Michael W. Deem and Ramdas Pophale) SiO2 
 PCOD9427622
Probable space group: P B A M
;
_chemical_formula_sum "Si O2"
_cell_formula_units_Z 58
_cell_length_a 12.429096
_cell_length_b 24.427990
_cell_length_c 9.473805
_cell_angle_alpha 90.000000
_cell_angle_beta 90.000000
_cell_angle_gamma 90.000000
_cell_volume 2876.416142
_symmetry_space_group_name_H-M "P B A M"
_symmetry_group_IT_number 55
_symmetry_cell_setting 'orthorhombic'
loop_
_space_group_symop_operation_xyz
x,y,z
-x,-y,z
1/2+x,1/2-y,-z
1/2-x,1/2+y,-z
-x,-y,-z
x,y,-z
1/2-x,1/2+y,z
1/2+x,1/2-y,z
loop_
_atom_site_type_symbol
_atom_site_label
_atom_site_fract_x
_atom_site_fract_y
_atom_site_fract_z
Si Si1 0.839496 0.518810 0.259514
Si Si2 0.535354 0.659029 0.661623
Si Si3 0.181197 0.166426 0.831173
Si Si4 0.424773 0.863714 0.663523
Si Si5 0.393771 0.466775 0.665126
Si Si6 0.154082 0.602090 0.661189
Si Si7 0.500000 0.000000 0.000000
Si Si8 0.747642 0.226328 0.330999
O O1 0.870025 0.576744 0.328838
O O2 0.710747 0.519934 0.244238
O O3 0.865392 0.462883 0.341882
O O4 0.910357 0.514394 0.121175
O O5 0.495223 0.667493 0.500000
O O6 0.439801 0.666096 0.771703
O O7 0.579979 0.597369 0.669963
O O8 0.635288 0.699333 0.685211
O O9 0.247002 0.116286 0.762037
O O10 0.235673 0.219823 0.761631
O O11 0.185627 0.166006 0.000000
O O12 0.441456 0.850240 0.500000
O O13 0.545500 0.869816 0.722252
O O14 0.343605 0.817440 0.717359
O O15 0.500000 0.500000 0.705932
O O16 0.368991 0.480927 0.500000
O O17 0.175287 0.620494 0.500000
O O18 0.733627 0.236921 0.500000
#
# Coordination Sequence:
#
# PCOD9427622 Si02
#       8
#     8   8   8   8   8   8   2   8
#     4  12  22  42  64  98 140 181 220 269 340 411
#     4  10  21  42  70  99 129 165 220 282 332 390
#     4  12  28  45  63  93 139 181 219 271 336 411
#     4  10  20  39  69 100 123 157 217 284 333 382
#     4  10  20  38  68 103 132 168 224 286 337 393
#     4  11  23  40  70 101 130 172 224 279 329 386
#     4  12  28  40  56  96 152 200 214 266 348 426
#     4  10  22  43  70  97 125 165 224 286 332 384
#
# _framework density 20.163979999999999
#
# number of rings (size 3 to 8) (size 9 to 14) (size 15 to 20)
#    0.000    1.241    2.759    3.310    2.897    2.759 
#    2.483    0.345    0.000    0.000    0.000    0.000 
#    0.000    0.000    0.000    0.000    0.000    0.000 
#
# Total GULP energy -323438.184278 kJ/mol
# GULP energy per Si atom -5576.520419 kJ/mol
# Density = 2.011809 g / cm^3
# Si number density = 20.163980 Si / 1000 Ang^3
#
#
#
# Elastic Constant Matrix: (Units=GPa)
#
#
# Indices 1 2 3 4 5 6 
#
# 1 93.5427 0.1604 37.8922 0.0000 0.0000 0.0000
# 2 0.1604 55.7042 18.3778 0.0000 0.0000 0.0000
# 3 37.8922 18.3778 91.8677 0.0000 0.0000 0.0000
# 4 0.0000 0.0000 0.0000 18.0731 0.0000 0.0000
# 5 0.0000 0.0000 0.0000 0.0000 30.8079 0.0000
# 6 0.0000 0.0000 0.0000 0.0000 0.0000 31.4508
#
#
#
# Elastic Compliance Matrix: (Units=1/GPa)
#
#
# Indices 1 2 3 4 5 6 
#
# 1 0.013011 0.001856 -0.005738 0.000000 0.000000 0.000000
# 2 0.001856 0.019485 -0.004663 0.000000 0.000000 0.000000
# 3 -0.005738 -0.004663 0.014185 0.000000 0.000000 0.000000
# 4 0.000000 0.000000 0.000000 0.055331 0.000000 0.000000
# 5 0.000000 0.000000 0.000000 0.000000 0.032459 0.000000
# 6 0.000000 0.000000 0.000000 0.000000 0.000000 0.031796
#
#
# Mechanical properties :
#
#
# Convention : Reuss Voigt Hill
#
# Bulk Modulus (GPa) = 33.79514 39.33059 36.56286
# Shear Modulus (GPa) = 25.87699 28.37865 27.12782
#
# Velocity S-wave (km/s) = 3.58624 3.75559 3.67189
# Velocity P-wave (km/s) = 5.82621 6.19304 6.01242
#
# Compressibility (1/GPa) = 0.02959005
#
# Stress axis : x y z
#
# Youngs Moduli (GPa) = 76.85533 51.32115 70.49794
#
# Poissons Ratio (x) = -0.09523 0.40452
# Poissons Ratio (y) = -0.14261 0.32875
# Poissons Ratio (z) = 0.44099 0.23933
#
# Static dielectric constant tensor:
#      x y z
#    x 1.736690 0.000000 0.000000 
#    y 0.000000 1.749660 0.000000 
#    z 0.000000 0.000000 1.671590 
# 
# From -- ./inp_files/4355.got.cif
#   From: 2010.05.17/outbox.cif.g08.bks.cpg/sg55_3_cif.got.tgz:4355.got - 2010.06.03 13:27:54.
