data_PCOD9427267
_publ_section_title
;
Structure prediction by ZEFSAII (Michael W. Deem and Ramdas Pophale) SiO2 
 PCOD9427267
Probable space group: P B A M
;
_chemical_formula_sum "Si O2"
_cell_formula_units_Z 64
_cell_length_a 28.503301
_cell_length_b 11.190073
_cell_length_c 10.204674
_cell_angle_alpha 90.000000
_cell_angle_beta 90.000000
_cell_angle_gamma 90.000000
_cell_volume 3254.821784
_symmetry_space_group_name_H-M "P B A M"
_symmetry_group_IT_number 55
_symmetry_cell_setting 'orthorhombic'
loop_
_space_group_symop_operation_xyz
x,y,z
-x,-y,z
1/2+x,1/2-y,-z
1/2-x,1/2+y,-z
-x,-y,-z
x,y,-z
1/2-x,1/2+y,z
1/2+x,1/2-y,z
loop_
_atom_site_type_symbol
_atom_site_label
_atom_site_fract_x
_atom_site_fract_y
_atom_site_fract_z
Si Si1 0.611123 0.129328 0.849797
Si Si2 0.711485 0.564394 0.858618
Si Si3 0.241308 0.682815 0.780129
Si Si4 0.831408 0.762772 0.642733
Si Si5 0.866361 0.023675 0.645242
Si Si6 0.933157 0.223461 0.349233
Si Si7 0.525128 0.130041 0.348398
Si Si8 0.863299 0.352373 0.847562
O O1 0.653093 0.188068 0.767682
O O2 0.565209 0.145246 0.759525
O O3 0.621923 0.989492 0.855090
O O4 0.606744 0.173686 0.000000
O O5 0.739483 0.439474 0.845745
O O6 0.741976 0.685502 0.847479
O O7 0.671394 0.568202 0.749452
O O8 0.688308 0.562172 0.000000
O O9 0.277164 0.698348 0.659576
O O10 0.185954 0.659798 0.771535
O O11 0.837703 0.705022 0.500000
O O12 0.863726 0.881098 0.649231
O O13 0.849448 0.058796 0.500000
O O14 0.916882 0.085439 0.661696
O O15 0.921080 0.261155 0.500000
O O16 0.902287 0.286879 0.238511
O O17 0.986283 0.266235 0.332511
O O18 0.542576 0.133578 0.500000
O O19 0.500000 0.000000 0.331957
O O20 0.858240 0.311155 0.000000
#
# Coordination Sequence:
#
# PCOD9427267 Si02
#       8
#     8   8   8   8   8   8   8   8
#     4  11  24  40  62  93 127 160 198 250 307 366
#     4  11  21  35  56  80 114 158 202 247 299 361
#     4  11  23  37  57  86 119 157 204 251 298 358
#     4  10  23  42  61  82 116 160 203 249 299 357
#     4   9  20  38  58  82 112 148 197 249 296 349
#     4  10  20  36  60  87 117 151 195 248 298 355
#     4  10  20  37  62  91 122 159 200 246 306 370
#     4  11  22  36  57  87 122 158 197 243 298 359
#
# _framework density 19.663133999999999
#
# number of rings (size 3 to 8) (size 9 to 14) (size 15 to 20)
#    0.000    1.625    2.500    2.250    0.000    6.250 
#    0.000    3.125    0.000    3.750    0.000    0.000 
#    0.000    0.000    0.000    0.000    0.000    0.000 
#
# Total GULP energy -356518.220581 kJ/mol
# GULP energy per Si atom -5570.597197 kJ/mol
# Density = 1.961838 g / cm^3
# Si number density = 19.663134 Si / 1000 Ang^3
#
#
#
# Elastic Constant Matrix: (Units=GPa)
#
#
# Indices 1 2 3 4 5 6 
#
# 1 65.7652 -13.6042 41.3608 0.0000 0.0000 0.0000
# 2 -13.6042 37.7311 11.3455 0.0000 0.0000 0.0000
# 3 41.3608 11.3455 109.7705 0.0000 0.0000 0.0000
# 4 0.0000 0.0000 0.0000 19.5010 0.0000 0.0000
# 5 0.0000 0.0000 0.0000 0.0000 12.5175 0.0000
# 6 0.0000 0.0000 0.0000 0.0000 0.0000 27.6670
#
#
#
# Elastic Compliance Matrix: (Units=1/GPa)
#
#
# Indices 1 2 3 4 5 6 
#
# 1 0.024133 0.011802 -0.010313 0.000000 0.000000 0.000000
# 2 0.011802 0.033126 -0.007871 0.000000 0.000000 0.000000
# 3 -0.010313 -0.007871 0.013809 0.000000 0.000000 0.000000
# 4 0.000000 0.000000 0.000000 0.051279 0.000000 0.000000
# 5 0.000000 0.000000 0.000000 0.000000 0.079888 0.000000
# 6 0.000000 0.000000 0.000000 0.000000 0.000000 0.036144
#
#
# Mechanical properties :
#
#
# Convention : Reuss Voigt Hill
#
# Bulk Modulus (GPa) = 17.15116 32.38565 24.76840
# Shear Modulus (GPa) = 18.47898 23.54808 21.01353
#
# Velocity S-wave (km/s) = 3.06891 3.46435 3.27261
# Velocity P-wave (km/s) = 4.61508 5.70161 5.18687
#
# Compressibility (1/GPa) = 0.05830511
#
# Stress axis : x y z
#
# Youngs Moduli (GPa) = 41.43676 30.18821 72.41484
#
# Poissons Ratio (x) = -0.35630 0.74682
# Poissons Ratio (y) = -0.48906 0.56996
# Poissons Ratio (z) = 0.42734 0.23761
#
# Static dielectric constant tensor:
#      x y z
#    x 1.685030 0.000000 0.000000 
#    y 0.000000 1.737940 0.000000 
#    z 0.000000 0.000000 1.690770 
# 
# From -- ./inp_files/10728.got.cif
#   From: 2010.05.17/outbox.cif.g08.bks.cpg/sg55_6_cif.got.tgz:10728.got - 2010.06.03 13:27:54.
