data_PCOD9427675
_publ_section_title
;
Structure prediction by ZEFSAII (Michael W. Deem and Ramdas Pophale) SiO2 
 PCOD9427675
Probable space group: P B A M
;
_chemical_formula_sum "Si O2"
_cell_formula_units_Z 58
_cell_length_a 17.911850
_cell_length_b 17.580593
_cell_length_c 7.880285
_cell_angle_alpha 90.000000
_cell_angle_beta 90.000000
_cell_angle_gamma 90.000000
_cell_volume 2481.509191
_symmetry_space_group_name_H-M "P B A M"
_symmetry_group_IT_number 55
_symmetry_cell_setting 'orthorhombic'
loop_
_space_group_symop_operation_xyz
x,y,z
-x,-y,z
1/2+x,1/2-y,-z
1/2-x,1/2+y,-z
-x,-y,-z
x,y,-z
1/2-x,1/2+y,z
1/2+x,1/2-y,z
loop_
_atom_site_type_symbol
_atom_site_label
_atom_site_fract_x
_atom_site_fract_y
_atom_site_fract_z
Si Si1 0.765481 0.349433 0.795181
Si Si2 0.988253 0.168982 0.803510
Si Si3 0.615607 0.443344 0.796016
Si Si4 0.343027 0.391753 0.688277
Si Si5 0.913326 0.437392 0.686564
Si Si6 0.500000 0.000000 0.000000
Si Si7 0.953956 0.660323 0.801212
Si Si8 0.707890 0.186909 0.193366
O O1 0.692792 0.400303 0.759577
O O2 0.838199 0.389122 0.718833
O O3 0.743860 0.264321 0.734128
O O4 0.777265 0.345277 0.000000
O O5 0.909346 0.168387 0.711526
O O6 0.046070 0.106769 0.734495
O O7 0.027663 0.250199 0.803778
O O8 0.971184 0.149606 0.000000
O O9 0.620091 0.527243 0.723473
O O10 0.608837 0.448145 0.000000
O O11 0.312228 0.388840 0.500000
O O12 0.273273 0.374365 0.806390
O O13 0.909374 0.473855 0.500000
O O14 0.982649 0.378978 0.692987
O O15 0.934577 0.489832 0.846339
O O16 0.869557 0.655312 0.735671
O O17 0.965288 0.629996 0.000000
O O18 0.685545 0.206865 0.000000
#
# Coordination Sequence:
#
# PCOD9427675 Si02
#       8
#     8   8   8   8   8   2   8   8
#     4  10  20  42  70  99 131 172 224 279 340 405
#     4  10  20  39  68  96 125 169 223 270 326 402
#     4  10  21  40  67  95 126 173 224 270 328 400
#     4  12  26  39  55  90 136 175 210 267 337 394
#     4  12  26  44  72 104 134 181 233 280 350 417
#     4  12  26  52  68  90 136 180 222 300 340 398
#     4  10  20  41  69 100 132 171 222 284 343 396
#     4  10  21  40  69  96 128 175 223 274 336 400
#
# _framework density 23.372872000000001
#
# number of rings (size 3 to 8) (size 9 to 14) (size 15 to 20)
#    0.000    1.379    2.759    2.690    0.000    8.828 
#    0.000    0.000    0.000    0.000    0.000    0.000 
#    0.000    0.000    0.000    0.000    0.000    0.000 
#
# Total GULP energy -324003.434000 kJ/mol
# GULP energy per Si atom -5586.266103 kJ/mol
# Density = 2.331967 g / cm^3
# Si number density = 23.372872 Si / 1000 Ang^3
#
#
#
# Elastic Constant Matrix: (Units=GPa)
#
#
# Indices 1 2 3 4 5 6 
#
# 1 117.1502 5.3322 31.4626 0.0000 0.0000 0.0000
# 2 5.3322 35.4442 17.3018 0.0000 0.0000 0.0000
# 3 31.4626 17.3018 84.0696 0.0000 0.0000 0.0000
# 4 0.0000 0.0000 0.0000 -16.1972 0.0000 0.0000
# 5 0.0000 0.0000 0.0000 0.0000 -129.9554 0.0000
# 6 0.0000 0.0000 0.0000 0.0000 0.0000 35.4167
#
#
#
# Elastic Compliance Matrix: (Units=1/GPa)
#
#
# Indices 1 2 3 4 5 6 
#
# 1 0.009494 0.000340 -0.003623 0.000000 0.000000 0.000000
# 2 0.000340 0.031376 -0.006585 0.000000 0.000000 0.000000
# 3 -0.003623 -0.006585 0.014606 0.000000 0.000000 0.000000
# 4 0.000000 0.000000 0.000000 -0.061739 0.000000 0.000000
# 5 0.000000 0.000000 0.000000 0.000000 -0.007695 0.000000
# 6 0.000000 0.000000 0.000000 0.000000 0.000000 0.028235
#
#
# Mechanical properties :
#
#
# Convention : Reuss Voigt Hill
#
# Bulk Modulus (GPa) = 27.97888 38.31747 33.14818
# Shear Modulus (GPa) = 108.87166 -9.97600 49.44783
#
# Velocity S-wave (km/s) = 6.83238 -2.06820 4.60456
# Velocity P-wave (km/s) = 8.61618 3.27510 6.51786
#
# Compressibility (1/GPa) = 0.03574124
#
# Stress axis : x y z
#
# Youngs Moduli (GPa) = 105.33453 31.87100 68.46533
#
# Poissons Ratio (x) = -0.01085 0.24805
# Poissons Ratio (y) = -0.03585 0.45083
# Poissons Ratio (z) = 0.38162 0.20986
#
# Static dielectric constant tensor:
#      x y z
#    x 1.823510 0.000000 0.000000 
#    y 0.000000 1.811430 0.000000 
#    z 0.000000 0.000000 1.887190 
# 
# From -- ./inp_files/7754.got.cif
#   From: 2010.05.17/outbox.cif.g08.bks.cpg/sg55_4_cif.got.tgz:7754.got - 2010.06.03 13:27:54.
