data_PCOD9427870
_publ_section_title
;
Structure prediction by ZEFSAII (Michael W. Deem and Ramdas Pophale) SiO2 
 PCOD9427870
Probable space group: P B A M
;
_chemical_formula_sum "Si O2"
_cell_formula_units_Z 56
_cell_length_a 10.494935
_cell_length_b 19.941516
_cell_length_c 14.076811
_cell_angle_alpha 90.000000
_cell_angle_beta 90.000000
_cell_angle_gamma 90.000000
_cell_volume 2946.064183
_symmetry_space_group_name_H-M "P B A M"
_symmetry_group_IT_number 55
_symmetry_cell_setting 'orthorhombic'
loop_
_space_group_symop_operation_xyz
x,y,z
-x,-y,z
1/2+x,1/2-y,-z
1/2-x,1/2+y,-z
-x,-y,-z
x,y,-z
1/2-x,1/2+y,z
1/2+x,1/2-y,z
loop_
_atom_site_type_symbol
_atom_site_label
_atom_site_fract_x
_atom_site_fract_y
_atom_site_fract_z
Si Si1 0.068985 0.789859 0.386754
Si Si2 0.823177 0.939544 0.248370
Si Si3 0.203458 0.809284 0.114167
Si Si4 0.518163 0.210170 0.115100
Si Si5 0.914793 0.435551 0.885721
Si Si6 0.885643 0.088002 0.749131
Si Si7 0.218260 0.182599 0.613522
O O1 0.081294 0.798933 0.500000
O O2 0.113738 0.856843 0.333438
O O3 0.161689 0.728776 0.360447
O O4 0.918127 0.781334 0.366612
O O5 0.722163 0.937307 0.163724
O O6 0.783007 0.886475 0.328462
O O7 0.967315 0.920745 0.218917
O O8 0.833236 0.016342 0.282760
O O9 0.336702 0.775276 0.142242
O O10 0.192533 0.881001 0.163637
O O11 0.084387 0.764561 0.147060
O O12 0.201085 0.815588 0.000000
O O13 0.480677 0.134730 0.142806
O O14 0.513385 0.211683 0.000000
O O15 0.000000 0.500000 0.858900
O O16 0.901991 0.435793 0.000000
O O17 0.222843 0.170151 0.500000
#
# Coordination Sequence:
#
# PCOD9427870 Si02
#       7
#     8   8   8   8   8   8   8
#     4   9  19  37  60  85 111 147 188 232 284 340
#     4  10  22  38  54  86 114 149 195 233 283 341
#     4  10  21  36  55  82 114 148 187 235 284 333
#     4   9  20  35  54  78 106 143 189 233 279 333
#     4  10  21  38  57  77 111 156 198 235 281 342
#     4  10  22  36  56  82 117 149 189 235 282 343
#     4   9  19  38  63  87 115 147 186 235 286 342
#
# _framework density 19.008413000000001
#
# number of rings (size 3 to 8) (size 9 to 14) (size 15 to 20)
#    0.000    2.429    0.000    0.857    4.000    4.000 
#    2.571    4.286    0.000    0.429    0.000    0.000 
#    0.000    0.000    0.000    0.000    0.000    0.000 
#
# Total GULP energy -312596.907621 kJ/mol
# GULP energy per Si atom -5582.087636 kJ/mol
# Density = 1.896515 g / cm^3
# Si number density = 19.008413 Si / 1000 Ang^3
#
#
#
# Elastic Constant Matrix: (Units=GPa)
#
#
# Indices 1 2 3 4 5 6 
#
# 1 105.2904 72.9199 39.9953 0.0000 0.0000 0.0000
# 2 72.9199 118.1834 29.1573 0.0000 0.0000 0.0000
# 3 39.9953 29.1573 53.8439 0.0000 0.0000 0.0000
# 4 0.0000 0.0000 0.0000 23.5865 0.0000 0.0000
# 5 0.0000 0.0000 0.0000 0.0000 23.0156 0.0000
# 6 0.0000 0.0000 0.0000 0.0000 0.0000 29.7114
#
#
#
# Elastic Compliance Matrix: (Units=1/GPa)
#
#
# Indices 1 2 3 4 5 6 
#
# 1 0.020033 -0.010029 -0.009449 0.000000 0.000000 0.000000
# 2 -0.010029 0.014787 -0.000558 0.000000 0.000000 0.000000
# 3 -0.009449 -0.000558 0.025893 0.000000 0.000000 0.000000
# 4 0.000000 0.000000 0.000000 0.042397 0.000000 0.000000
# 5 0.000000 0.000000 0.000000 0.000000 0.043449 0.000000
# 6 0.000000 0.000000 0.000000 0.000000 0.000000 0.033657
#
#
# Mechanical properties :
#
#
# Convention : Reuss Voigt Hill
#
# Bulk Modulus (GPa) = 48.44850 62.38475 55.41662
# Shear Modulus (GPa) = 22.01006 24.27902 23.14454
#
# Velocity S-wave (km/s) = 3.40650 3.57778 3.49319
# Velocity P-wave (km/s) = 6.40434 7.06811 6.74440
#
# Compressibility (1/GPa) = 0.02064048
#
# Stress axis : x y z
#
# Youngs Moduli (GPa) = 49.91859 67.62711 38.61993
#
# Poissons Ratio (x) = 0.67823 0.36494
# Poissons Ratio (y) = 0.50063 0.02154
# Poissons Ratio (z) = 0.47170 0.03773
#
# Static dielectric constant tensor:
#      x y z
#    x 1.672090 0.000000 0.000000 
#    y 0.000000 1.649730 0.000000 
#    z 0.000000 0.000000 1.647260 
# 
# From -- ./inp_files/17631.got.cif
#   From: 2010.05.17/outbox.cif.g08.bks.cpg/sg55_9_cif.got.tgz:17631.got - 2010.06.03 13:27:54.
