data_PCOD9427115
_publ_section_title
;
Structure prediction by ZEFSAII (Michael W. Deem and Ramdas Pophale) SiO2 
 PCOD9427115
Probable space group: P B A M
;
_chemical_formula_sum "Si O2"
_cell_formula_units_Z 56
_cell_length_a 14.711188
_cell_length_b 9.201776
_cell_length_c 18.939986
_cell_angle_alpha 90.000000
_cell_angle_beta 90.000000
_cell_angle_gamma 90.000000
_cell_volume 2563.888038
_symmetry_space_group_name_H-M "P B A M"
_symmetry_group_IT_number 55
_symmetry_cell_setting 'orthorhombic'
loop_
_space_group_symop_operation_xyz
x,y,z
-x,-y,z
1/2+x,1/2-y,-z
1/2-x,1/2+y,-z
-x,-y,-z
x,y,-z
1/2-x,1/2+y,z
1/2+x,1/2-y,z
loop_
_atom_site_type_symbol
_atom_site_label
_atom_site_fract_x
_atom_site_fract_y
_atom_site_fract_z
Si Si1 0.400004 0.071719 0.079523
Si Si2 0.365471 0.800529 0.370116
Si Si3 0.677817 0.870333 0.351385
Si Si4 0.484469 0.670112 0.920478
Si Si5 0.370038 0.715992 0.217463
Si Si6 0.033929 0.843478 0.420227
Si Si7 0.772942 0.499796 0.793550
O O1 0.421526 0.242518 0.081544
O O2 0.321042 0.036841 0.133396
O O3 0.500000 0.000000 0.094538
O O4 0.375872 0.028590 0.000000
O O5 0.276502 0.697561 0.369520
O O6 0.410642 0.767689 0.292031
O O7 0.442641 0.751027 0.422650
O O8 0.338911 0.968261 0.383225
O O9 0.606530 0.748715 0.375759
O O10 0.673841 0.915231 0.268870
O O11 0.500000 0.500000 0.913472
O O12 0.427227 0.726116 0.853762
O O13 0.445577 0.697559 0.000000
O O14 0.329014 0.554909 0.216898
O O15 0.285819 0.828720 0.213684
O O16 0.069827 0.867074 0.500000
O O17 0.000000 0.000000 0.391632
#
# Coordination Sequence:
#
# PCOD9427115 Si02
#       7
#     8   8   8   8   8   8   8
#     4  10  20  36  56  78 111 155 199 247 303 358
#     4  10  22  41  64  93 128 165 207 259 312 368
#     4  10  22  41  64  93 129 164 208 260 308 369
#     4  10  22  38  55  81 115 153 202 253 303 361
#     4  10  22  38  57  86 116 152 196 246 298 356
#     4  11  25  43  66  97 128 164 207 248 304 374
#     4  10  22  37  58  85 116 151 198 244 299 357
#
# _framework density 21.841826999999999
#
# number of rings (size 3 to 8) (size 9 to 14) (size 15 to 20)
#    0.000    1.857    1.429    1.286    4.000    4.000 
#    0.000    0.000    0.000    0.000    0.000    0.000 
#    0.000    0.000    0.000    0.000    0.000    0.000 
#
# Total GULP energy -312200.567574 kJ/mol
# GULP energy per Si atom -5575.010135 kJ/mol
# Density = 2.179211 g / cm^3
# Si number density = 21.841827 Si / 1000 Ang^3
#
#
#
# Elastic Constant Matrix: (Units=GPa)
#
#
# Indices 1 2 3 4 5 6 
#
# 1 38.5528 -4.8601 14.6757 0.0000 0.0000 0.0000
# 2 -4.8601 85.2352 -6.3939 0.0000 0.0000 0.0000
# 3 14.6757 -6.3939 51.7021 0.0000 0.0000 0.0000
# 4 0.0000 0.0000 0.0000 18.0622 0.0000 0.0000
# 5 0.0000 0.0000 0.0000 0.0000 15.8546 0.0000
# 6 0.0000 0.0000 0.0000 0.0000 0.0000 28.6993
#
#
#
# Elastic Compliance Matrix: (Units=1/GPa)
#
#
# Indices 1 2 3 4 5 6 
#
# 1 0.029174 0.001052 -0.008151 0.000000 0.000000 0.000000
# 2 0.001052 0.011880 0.001171 0.000000 0.000000 0.000000
# 3 -0.008151 0.001171 0.021800 0.000000 0.000000 0.000000
# 4 0.000000 0.000000 0.000000 0.055364 0.000000 0.000000
# 5 0.000000 0.000000 0.000000 0.000000 0.063073 0.000000
# 6 0.000000 0.000000 0.000000 0.000000 0.000000 0.034844
#
#
# Mechanical properties :
#
#
# Convention : Reuss Voigt Hill
#
# Bulk Modulus (GPa) = 19.60891 20.25929 19.93410
# Shear Modulus (GPa) = 20.40888 23.99443 22.20165
#
# Velocity S-wave (km/s) = 3.06010 3.31804 3.19168
# Velocity P-wave (km/s) = 4.63496 4.89640 4.76747
#
# Compressibility (1/GPa) = 0.05099722
#
# Stress axis : x y z
#
# Youngs Moduli (GPa) = 34.27723 84.17483 45.87157
#
# Poissons Ratio (x) = -0.08856 0.37390
# Poissons Ratio (y) = -0.03606 -0.05369
# Poissons Ratio (z) = 0.27939 -0.09853
#
# Static dielectric constant tensor:
#      x y z
#    x 1.774920 0.000000 0.000000 
#    y 0.000000 1.829110 0.000000 
#    z 0.000000 0.000000 1.857630 
# 
# From -- ./inp_files/22961.got.cif
#   From: 2010.05.17/outbox.cif.g08.bks.cpg/sg55_12_cif.got.tgz:22961.got - 2010.06.03 13:27:54.
