data_PCOD9427862
_publ_section_title
;
Structure prediction by ZEFSAII (Michael W. Deem and Ramdas Pophale) SiO2 
 PCOD9427862
Probable space group: P B A M
;
_chemical_formula_sum "Si O2"
_cell_formula_units_Z 44
_cell_length_a 6.890408
_cell_length_b 15.004100
_cell_length_c 15.776514
_cell_angle_alpha 90.000000
_cell_angle_beta 90.000000
_cell_angle_gamma 90.000000
_cell_volume 1631.044971
_symmetry_space_group_name_H-M "P B A M"
_symmetry_group_IT_number 55
_symmetry_cell_setting 'orthorhombic'
loop_
_space_group_symop_operation_xyz
x,y,z
-x,-y,z
1/2+x,1/2-y,-z
1/2-x,1/2+y,-z
-x,-y,-z
x,y,-z
1/2-x,1/2+y,z
1/2+x,1/2-y,z
loop_
_atom_site_type_symbol
_atom_site_label
_atom_site_fract_x
_atom_site_fract_y
_atom_site_fract_z
Si Si1 0.227292 0.069871 0.132545
Si Si2 0.276821 0.616594 0.500000
Si Si3 0.161865 0.325923 0.316289
Si Si4 0.851242 0.786437 0.000000
Si Si5 0.716451 0.382330 0.681730
Si Si6 0.315304 0.874810 0.870071
Si Si7 0.169497 0.327063 0.500000
O O1 0.169720 0.070399 0.230924
O O2 0.451279 0.105449 0.127436
O O3 0.227044 0.968680 0.102058
O O4 0.116733 0.139257 0.074432
O O5 0.330168 0.575667 0.590464
O O6 0.352100 0.719369 0.500000
O O7 0.043135 0.629157 0.500000
O O8 0.138695 0.219061 0.313823
O O9 0.247474 0.354501 0.226461
O O10 0.257579 0.348056 0.407530
O O11 0.949970 0.370030 0.318232
O O12 0.790984 0.711168 0.927897
#
# Coordination Sequence:
#
# PCOD9427862 Si02
#       7
#     8   4   8   4   8   8   4
#     4  10  21  36  55  79 106 138 178 222 270 325
#     4   8  14  24  45  75 105 136 172 212 257 311
#     4   9  16  30  51  77 107 140 176 216 263 316
#     4  12  20  34  56  72  96 134 184 222 262 314
#     4   9  16  30  51  77 107 140 176 216 263 316
#     4  10  21  36  55  79 106 138 178 222 270 325
#     4   8  14  24  45  75 105 136 172 212 257 311
#
# _framework density 26.976569000000001
#
# number of rings (size 3 to 8) (size 9 to 14) (size 15 to 20)
#    0.000    2.545    1.818    1.091    0.000    1.455 
#    0.000    0.909    0.000   19.636    0.000    0.000 
#    0.000   14.545    0.000    0.000    0.000    0.000 
#
# Total GULP energy -245273.124758 kJ/mol
# GULP energy per Si atom -5574.389199 kJ/mol
# Density = 2.691517 g / cm^3
# Si number density = 26.976569 Si / 1000 Ang^3
#
#
#
# Elastic Constant Matrix: (Units=GPa)
#
#
# Indices 1 2 3 4 5 6 
#
# 1 81.1784 12.5158 12.4511 0.0000 0.0000 0.0000
# 2 12.5158 148.0064 89.0269 0.0000 0.0000 0.0000
# 3 12.4511 89.0269 284.0885 0.0000 0.0000 0.0000
# 4 0.0000 0.0000 0.0000 -927.6982 0.0000 0.0000
# 5 0.0000 0.0000 0.0000 0.0000 12.8829 0.0000
# 6 0.0000 0.0000 0.0000 0.0000 0.0000 5.3164
#
#
#
# Elastic Compliance Matrix: (Units=1/GPa)
#
#
# Indices 1 2 3 4 5 6 
#
# 1 0.012498 -0.000896 -0.000267 0.000000 0.000000 0.000000
# 2 -0.000896 0.008390 -0.002590 0.000000 0.000000 0.000000
# 3 -0.000267 -0.002590 0.004343 0.000000 0.000000 0.000000
# 4 0.000000 0.000000 0.000000 -0.001078 0.000000 0.000000
# 5 0.000000 0.000000 0.000000 0.000000 0.077623 0.000000
# 6 0.000000 0.000000 0.000000 0.000000 0.000000 0.188096
#
#
# Mechanical properties :
#
#
# Convention : Reuss Voigt Hill
#
# Bulk Modulus (GPa) = 56.41799 82.36232 69.39016
# Shear Modulus (GPa) = 16.48606 -155.28115 -69.39755
#
# Velocity S-wave (km/s) = 2.47478 -7.59516 -5.07750
# Velocity P-wave (km/s) = 5.39677 6.80573 2.93196
#
# Compressibility (1/GPa) = 0.01772484
#
# Stress axis : x y z
#
# Youngs Moduli (GPa) = 80.01494 119.18712 230.23571
#
# Poissons Ratio (x) = 0.10683 0.06144
# Poissons Ratio (y) = 0.07172 0.59631
# Poissons Ratio (z) = 0.02135 0.30870
#
# Static dielectric constant tensor:
#      x y z
#    x 2.279890 0.000000 0.000000 
#    y 0.000000 1.941120 0.000000 
#    z 0.000000 0.000000 2.055030 
# 
# From -- ./inp_files/18236.got.cif
#   From: 2010.05.17/outbox.cif.g08.bks.cpg/sg55_10_cif.got.tgz:18236.got - 2010.06.03 13:27:54.
