data_PCOD9427776
_publ_section_title
;
Structure prediction by ZEFSAII (Michael W. Deem and Ramdas Pophale) SiO2 
 PCOD9427776
Probable space group: P B A M
;
_chemical_formula_sum "Si O2"
_cell_formula_units_Z 64
_cell_length_a 25.870269
_cell_length_b 14.777379
_cell_length_c 7.466524
_cell_angle_alpha 90.000000
_cell_angle_beta 90.000000
_cell_angle_gamma 90.000000
_cell_volume 2854.413074
_symmetry_space_group_name_H-M "P B A M"
_symmetry_group_IT_number 55
_symmetry_cell_setting 'orthorhombic'
loop_
_space_group_symop_operation_xyz
x,y,z
-x,-y,z
1/2+x,1/2-y,-z
1/2-x,1/2+y,-z
-x,-y,-z
x,y,-z
1/2-x,1/2+y,z
1/2+x,1/2-y,z
loop_
_atom_site_type_symbol
_atom_site_label
_atom_site_fract_x
_atom_site_fract_y
_atom_site_fract_z
Si Si1 0.246439 0.140442 0.297548
Si Si2 0.364936 0.876836 0.207822
Si Si3 0.365478 0.665262 0.717498
Si Si4 0.944641 0.478119 0.296535
Si Si5 0.641531 0.635935 0.285423
Si Si6 0.245973 0.349849 0.787640
Si Si7 0.642186 0.844170 0.279345
Si Si8 0.558835 0.490166 0.719035
O O1 0.245312 0.104422 0.500000
O O2 0.189750 0.125473 0.216696
O O3 0.249196 0.250892 0.301786
O O4 0.302207 0.116893 0.216564
O O5 0.371104 0.768834 0.224553
O O6 0.306715 0.896397 0.275893
O O7 0.409734 0.932147 0.301619
O O8 0.367935 0.902252 0.000000
O O9 0.362669 0.665393 0.500000
O O10 0.412878 0.602477 0.772222
O O11 0.955763 0.446856 0.500000
O O12 0.906516 0.402475 0.218225
O O13 0.000000 0.500000 0.211883
O O14 0.637907 0.638148 0.500000
O O15 0.699480 0.602427 0.242410
O O16 0.637346 0.739707 0.222631
O O17 0.596162 0.571335 0.220478
O O18 0.239864 0.334159 0.000000
O O19 0.643927 0.846367 0.500000
O O20 0.500000 0.500000 0.779011
O O21 0.558280 0.491474 0.500000
#
# Coordination Sequence:
#
# PCOD9427776 Si02
#       8
#     8   8   8   8   8   8   8   8
#     4   8  14  27  48  73  99 127 162 203 250 304
#     4  10  21  36  53  74 102 135 167 206 259 308
#     4   9  17  31  53  78 101 129 167 208 250 299
#     4  10  21  35  52  76 103 134 175 216 251 295
#     4   9  17  31  52  75 101 134 167 204 254 306
#     4   9  17  30  49  74 101 127 162 207 255 308
#     4   8  15  29  49  73 101 129 159 202 252 298
#     4   9  18  31  50  79 108 134 171 215 253 294
#
# _framework density 22.421423000000001
#
# number of rings (size 3 to 8) (size 9 to 14) (size 15 to 20)
#    0.000    3.000    0.000    1.500    0.000    3.750 
#    0.000    9.375    0.000   10.500    0.000    0.000 
#    0.000    0.000    0.000    0.000    0.000    0.000 
#
# Total GULP energy -357146.558994 kJ/mol
# GULP energy per Si atom -5580.414984 kJ/mol
# Density = 2.237039 g / cm^3
# Si number density = 22.421423 Si / 1000 Ang^3
#
#
#
# Elastic Constant Matrix: (Units=GPa)
#
#
# Indices 1 2 3 4 5 6 
#
# 1 221.5245 69.4243 1.5157 0.0000 0.0000 0.0000
# 2 69.4243 92.1282 -5.4135 0.0000 0.0000 0.0000
# 3 1.5157 -5.4135 73.7410 0.0000 0.0000 0.0000
# 4 0.0000 0.0000 0.0000 -11.0626 0.0000 0.0000
# 5 0.0000 0.0000 0.0000 0.0000 -1.6418 0.0000
# 6 0.0000 0.0000 0.0000 0.0000 0.0000 38.7446
#
#
#
# Elastic Compliance Matrix: (Units=1/GPa)
#
#
# Indices 1 2 3 4 5 6 
#
# 1 0.005925 -0.004491 -0.000451 0.000000 0.000000 0.000000
# 2 -0.004491 0.014306 0.001143 0.000000 0.000000 0.000000
# 3 -0.000451 0.001143 0.013654 0.000000 0.000000 0.000000
# 4 0.000000 0.000000 0.000000 -0.090394 0.000000 0.000000
# 5 0.000000 0.000000 0.000000 0.000000 -0.609092 0.000000
# 6 0.000000 0.000000 0.000000 0.000000 0.000000 0.025810
#
#
# Mechanical properties :
#
#
# Convention : Reuss Voigt Hill
#
# Bulk Modulus (GPa) = 38.04513 57.60518 47.82515
# Shear Modulus (GPa) = -8.02016 26.66585 9.32284
#
# Velocity S-wave (km/s) = -1.89335 3.45237 2.04133
# Velocity P-wave (km/s) = 3.49648 6.45287 5.18965
#
# Compressibility (1/GPa) = 0.02628457
#
# Stress axis : x y z
#
# Youngs Moduli (GPa) = 168.78269 69.90087 73.23789
#
# Poissons Ratio (x) = 0.31394 0.03307
# Poissons Ratio (y) = 0.75804 -0.08368
# Poissons Ratio (z) = 0.07620 -0.07986
#
# Static dielectric constant tensor:
#      x y z
#    x 1.838670 0.000000 0.000000 
#    y 0.000000 1.808390 0.000000 
#    z 0.000000 0.000000 1.874940 
# 
# From -- ./inp_files/9712.got.cif
#   From: 2010.05.17/outbox.cif.g08.bks.cpg/sg55_5_cif.got.tgz:9712.got - 2010.06.03 13:27:54.
