data_PCOD9427432
_publ_section_title
;
Structure prediction by ZEFSAII (Michael W. Deem and Ramdas Pophale) SiO2 
 PCOD9427432
Probable space group: P B A M
;
_chemical_formula_sum "Si O2"
_cell_formula_units_Z 64
_cell_length_a 20.345887
_cell_length_b 18.988240
_cell_length_c 8.556690
_cell_angle_alpha 90.000000
_cell_angle_beta 90.000000
_cell_angle_gamma 90.000000
_cell_volume 3305.728170
_symmetry_space_group_name_H-M "P B A M"
_symmetry_group_IT_number 55
_symmetry_cell_setting 'orthorhombic'
loop_
_space_group_symop_operation_xyz
x,y,z
-x,-y,z
1/2+x,1/2-y,-z
1/2-x,1/2+y,-z
-x,-y,-z
x,y,-z
1/2-x,1/2+y,z
1/2+x,1/2-y,z
loop_
_atom_site_type_symbol
_atom_site_label
_atom_site_fract_x
_atom_site_fract_y
_atom_site_fract_z
Si Si1 0.445548 0.056431 0.811051
Si Si2 0.624103 0.249863 0.187066
Si Si3 0.128095 0.831426 0.186815
Si Si4 0.523399 0.784520 0.190645
Si Si5 0.770680 0.640946 0.312970
Si Si6 0.302127 0.018439 0.688824
Si Si7 0.324484 0.602271 0.311367
Si Si8 0.573943 0.521499 0.688408
O O1 0.463734 0.135381 0.759347
O O2 0.373688 0.035440 0.752952
O O3 0.500000 0.000000 0.758206
O O4 0.445287 0.055909 0.000000
O O5 0.548680 0.241187 0.241308
O O6 0.669318 0.187420 0.251609
O O7 0.653833 0.323996 0.240665
O O8 0.624489 0.246363 0.000000
O O9 0.080760 0.768369 0.242611
O O10 0.201401 0.829061 0.254113
O O11 0.096076 0.905501 0.236392
O O12 0.132061 0.827907 0.000000
O O13 0.523562 0.783826 0.000000
O O14 0.770446 0.642054 0.500000
O O15 0.779064 0.559676 0.261814
O O16 0.304061 0.018745 0.500000
O O17 0.247411 0.075260 0.738178
O O18 0.324884 0.608437 0.500000
O O19 0.376228 0.541067 0.268730
O O20 0.500000 0.500000 0.731699
O O21 0.576897 0.529739 0.500000
#
# Coordination Sequence:
#
# PCOD9427432 Si02
#       8
#     8   8   8   8   8   8   8   8
#     4  10  21  39  64  89 118 157 200 250 308 364
#     4  11  23  40  63  90 120 156 200 249 304 363
#     4  11  22  37  59  88 122 160 203 252 304 360
#     4   9  21  40  59  87 125 156 194 251 308 365
#     4  11  23  42  63  86 122 163 203 250 304 364
#     4  10  22  40  61  86 120 157 199 251 298 353
#     4  10  21  39  58  86 124 159 197 244 298 354
#     4  10  20  37  61  86 118 160 202 243 294 358
#
# _framework density 19.360334999999999
#
# number of rings (size 3 to 8) (size 9 to 14) (size 15 to 20)
#    0.000    1.750    1.250    2.625    1.750    3.500 
#    0.000    3.750    0.000    0.000    0.000    0.000 
#    0.000    0.000    0.000    0.000    0.000    0.000 
#
# Total GULP energy -357714.777931 kJ/mol
# GULP energy per Si atom -5589.293405 kJ/mol
# Density = 1.931627 g / cm^3
# Si number density = 19.360335 Si / 1000 Ang^3
#
#
#
# Elastic Constant Matrix: (Units=GPa)
#
#
# Indices 1 2 3 4 5 6 
#
# 1 175.4329 70.3527 24.8370 0.0000 0.0000 0.0000
# 2 70.3527 125.2223 23.7034 0.0000 0.0000 0.0000
# 3 24.8370 23.7034 19.4461 0.0000 0.0000 0.0000
# 4 0.0000 0.0000 0.0000 29.0266 0.0000 0.0000
# 5 0.0000 0.0000 0.0000 0.0000 515.1512 0.0000
# 6 0.0000 0.0000 0.0000 0.0000 0.0000 42.1657
#
#
#
# Elastic Compliance Matrix: (Units=1/GPa)
#
#
# Indices 1 2 3 4 5 6 
#
# 1 0.007872 -0.003275 -0.006062 0.000000 0.000000 0.000000
# 2 -0.003275 0.011744 -0.010132 0.000000 0.000000 0.000000
# 3 -0.006062 -0.010132 0.071517 0.000000 0.000000 0.000000
# 4 0.000000 0.000000 0.000000 0.034451 0.000000 0.000000
# 5 0.000000 0.000000 0.000000 0.000000 0.001941 0.000000
# 6 0.000000 0.000000 0.000000 0.000000 0.000000 0.023716
#
#
# Mechanical properties :
#
#
# Convention : Reuss Voigt Hill
#
# Bulk Modulus (GPa) = 19.15907 61.98748 40.57327
# Shear Modulus (GPa) = 24.08758 130.68259 77.38509
#
# Velocity S-wave (km/s) = 3.53111 8.22476 6.32912
# Velocity P-wave (km/s) = 5.15194 11.05816 8.62628
#
# Compressibility (1/GPa) = 0.05219460
#
# Stress axis : x y z
#
# Youngs Moduli (GPa) = 127.03596 85.15246 13.98278
#
# Poissons Ratio (x) = 0.27888 0.08476
# Poissons Ratio (y) = 0.41605 0.14167
# Poissons Ratio (z) = 0.77008 0.86274
#
# Static dielectric constant tensor:
#      x y z
#    x 1.658130 0.000000 0.000000 
#    y 0.000000 1.648150 0.000000 
#    z 0.000000 0.000000 1.666890 
# 
# From -- ./inp_files/8971.got.cif
#   From: 2010.05.17/outbox.cif.g08.bks.cpg/sg55_5_cif.got.tgz:8971.got - 2010.06.03 13:27:54.
