data_PCOD9427053
_publ_section_title
;
Structure prediction by ZEFSAII (Michael W. Deem and Ramdas Pophale) SiO2 
 PCOD9427053
Probable space group: P B A M
;
_chemical_formula_sum "Si O2"
_cell_formula_units_Z 64
_cell_length_a 28.219997
_cell_length_b 12.851735
_cell_length_c 8.818500
_cell_angle_alpha 90.000000
_cell_angle_beta 90.000000
_cell_angle_gamma 90.000000
_cell_volume 3198.257628
_symmetry_space_group_name_H-M "P B A M"
_symmetry_group_IT_number 55
_symmetry_cell_setting 'orthorhombic'
loop_
_space_group_symop_operation_xyz
x,y,z
-x,-y,z
1/2+x,1/2-y,-z
1/2-x,1/2+y,-z
-x,-y,-z
x,y,-z
1/2-x,1/2+y,z
1/2+x,1/2-y,z
loop_
_atom_site_type_symbol
_atom_site_label
_atom_site_fract_x
_atom_site_fract_y
_atom_site_fract_z
Si Si1 0.640330 0.143402 0.322679
Si Si2 0.302920 0.264107 0.820458
Si Si3 0.846620 0.029340 0.319371
Si Si4 0.535086 0.901917 0.824781
Si Si5 0.446205 0.523820 0.820220
Si Si6 0.634107 0.907448 0.323105
Si Si7 0.700635 0.323310 0.180080
Si Si8 0.551862 0.230154 0.823906
O O1 0.649445 0.163354 0.500000
O O2 0.667904 0.225350 0.220705
O O3 0.585420 0.164319 0.284773
O O4 0.652386 0.023891 0.289256
O O5 0.317715 0.370751 0.739501
O O6 0.341990 0.178532 0.780384
O O7 0.253115 0.212553 0.771410
O O8 0.300249 0.283589 0.000000
O O9 0.847763 0.028586 0.500000
O O10 0.900981 0.029428 0.258202
O O11 0.820465 0.925168 0.260122
O O12 0.578474 0.907566 0.712059
O O13 0.502620 0.800638 0.800599
O O14 0.500000 0.000000 0.808586
O O15 0.552198 0.902580 0.000000
O O16 0.500000 0.500000 0.766573
O O17 0.439511 0.647970 0.803057
O O18 0.444610 0.498450 0.000000
O O19 0.643024 0.885144 0.500000
O O20 0.700514 0.342428 0.000000
O O21 0.562723 0.203019 0.000000
#
# Coordination Sequence:
#
# PCOD9427053 Si02
#       8
#     8   8   8   8   8   8   8   8
#     4  11  23  39  63  96 132 168 209 265 330 391
#     4  11  27  48  71  96 127 172 223 271 322 386
#     4  12  26  45  70 102 139 172 212 271 337 398
#     4  10  20  35  58  89 124 170 220 262 313 375
#     4  10  22  40  64  94 131 177 225 272 322 384
#     4  11  25  42  62  95 135 173 213 266 335 392
#     4  11  25  46  72  98 125 167 222 272 320 384
#     4  10  20  36  59  89 125 170 221 269 316 378
#
# _framework density 20.010895000000001
#
# number of rings (size 3 to 8) (size 9 to 14) (size 15 to 20)
#    0.000    1.250    2.500    2.625    3.500    4.500 
#    0.000    0.000    0.000    0.000    0.000    0.000 
#    0.000    0.000    0.000    0.000    0.000    0.000 
#
# Total GULP energy -357726.073748 kJ/mol
# GULP energy per Si atom -5589.469902 kJ/mol
# Density = 1.996535 g / cm^3
# Si number density = 20.010895 Si / 1000 Ang^3
#
#
#
# Elastic Constant Matrix: (Units=GPa)
#
#
# Indices 1 2 3 4 5 6 
#
# 1 99.3991 40.4324 36.0316 0.0000 0.0000 0.0000
# 2 40.4324 65.1159 33.1942 0.0000 0.0000 0.0000
# 3 36.0316 33.1942 53.6019 0.0000 0.0000 0.0000
# 4 0.0000 0.0000 0.0000 21.4621 0.0000 0.0000
# 5 0.0000 0.0000 0.0000 0.0000 -48.8666 0.0000
# 6 0.0000 0.0000 0.0000 0.0000 0.0000 27.2093
#
#
#
# Elastic Compliance Matrix: (Units=1/GPa)
#
#
# Indices 1 2 3 4 5 6 
#
# 1 0.014747 -0.005996 -0.006200 0.000000 0.000000 0.000000
# 2 -0.005996 0.024880 -0.011377 0.000000 0.000000 0.000000
# 3 -0.006200 -0.011377 0.029869 0.000000 0.000000 0.000000
# 4 0.000000 0.000000 0.000000 0.046594 0.000000 0.000000
# 5 0.000000 0.000000 0.000000 0.000000 -0.020464 0.000000
# 6 0.000000 0.000000 0.000000 0.000000 0.000000 0.036752
#
#
# Mechanical properties :
#
#
# Convention : Reuss Voigt Hill
#
# Bulk Modulus (GPa) = 44.74207 48.60369 46.67288
# Shear Modulus (GPa) = 26.74176 7.19154 16.96665
#
# Velocity S-wave (km/s) = 3.65959 1.89779 2.91498
# Velocity P-wave (km/s) = 6.34541 5.39847 5.89100
#
# Compressibility (1/GPa) = 0.02235033
#
# Stress axis : x y z
#
# Youngs Moduli (GPa) = 67.81085 40.19269 33.47975
#
# Poissons Ratio (x) = 0.24101 0.20756
# Poissons Ratio (y) = 0.40662 0.38089
# Poissons Ratio (z) = 0.42040 0.45726
#
# Static dielectric constant tensor:
#      x y z
#    x 1.736110 0.000000 0.000000 
#    y 0.000000 1.694860 0.000000 
#    z 0.000000 0.000000 1.681030 
# 
# From -- ./inp_files/10858.got.cif
#   From: 2010.05.17/outbox.cif.g08.bks.cpg/sg55_6_cif.got.tgz:10858.got - 2010.06.03 13:27:54.
