data_PCOD9427170
_publ_section_title
;
Structure prediction by ZEFSAII (Michael W. Deem and Ramdas Pophale) SiO2 
 PCOD9427170
Probable space group: P B A M
;
_chemical_formula_sum "Si O2"
_cell_formula_units_Z 58
_cell_length_a 22.321785
_cell_length_b 16.948700
_cell_length_c 7.750817
_cell_angle_alpha 90.000000
_cell_angle_beta 90.000000
_cell_angle_gamma 90.000000
_cell_volume 2932.329682
_symmetry_space_group_name_H-M "P B A M"
_symmetry_group_IT_number 55
_symmetry_cell_setting 'orthorhombic'
loop_
_space_group_symop_operation_xyz
x,y,z
-x,-y,z
1/2+x,1/2-y,-z
1/2-x,1/2+y,-z
-x,-y,-z
x,y,-z
1/2-x,1/2+y,z
1/2+x,1/2-y,z
loop_
_atom_site_type_symbol
_atom_site_label
_atom_site_fract_x
_atom_site_fract_y
_atom_site_fract_z
Si Si1 0.826242 0.808842 0.300472
Si Si2 0.000000 0.500000 0.000000
Si Si3 0.311744 0.866646 0.196605
Si Si4 0.428088 0.425561 0.702046
Si Si5 0.301258 0.143015 0.290670
Si Si6 0.605570 0.994110 0.702696
Si Si7 0.442986 0.602951 0.196817
Si Si8 0.819996 0.178713 0.705999
O O1 0.813897 0.788514 0.500000
O O2 0.830830 0.725016 0.207203
O O3 0.769086 0.860573 0.239107
O O4 0.887580 0.855259 0.285923
O O5 0.052734 0.501616 0.155645
O O6 0.356158 0.924650 0.295415
O O7 0.243060 0.863680 0.259317
O O8 0.312526 0.893353 0.000000
O O9 0.417493 0.442928 0.500000
O O10 0.492387 0.383953 0.718955
O O11 0.432071 0.509208 0.794990
O O12 0.375272 0.371770 0.772971
O O13 0.302344 0.140982 0.500000
O O14 0.319391 0.231047 0.230467
O O15 0.347362 0.074880 0.240979
O O16 0.586939 0.979743 0.500000
O O17 0.445425 0.629548 0.000000
O O18 0.827288 0.183969 0.500000
#
# Coordination Sequence:
#
# PCOD9427170 Si02
#       8
#     8   2   8   8   8   8   8   8
#     4  10  20  39  63  89 120 159 205 256 312 373
#     4  12  26  48  64  98 128 160 226 264 316 386
#     4  11  22  39  61  94 127 156 207 256 311 377
#     4  10  20  36  58  82 116 160 207 246 295 369
#     4   8  18  38  64  90 118 155 206 253 311 375
#     4  11  23  45  70  93 128 171 210 267 322 376
#     4  11  22  36  53  82 123 159 199 247 305 365
#     4   9  19  38  62  90 120 156 202 257 312 372
#
# _framework density 19.779496000000002
#
# number of rings (size 3 to 8) (size 9 to 14) (size 15 to 20)
#    0.000    1.931    0.690    5.172    1.931    1.103 
#    8.690    0.000    0.000    0.000    0.000    0.000 
#    0.000    0.000    0.000    0.000    0.000    0.000 
#
# Total GULP energy -322982.571785 kJ/mol
# GULP energy per Si atom -5568.665031 kJ/mol
# Density = 1.973448 g / cm^3
# Si number density = 19.779496 Si / 1000 Ang^3
#
#
#
# Elastic Constant Matrix: (Units=GPa)
#
#
# Indices 1 2 3 4 5 6 
#
# 1 156.5058 70.9502 8.9625 0.0000 0.0000 0.0000
# 2 70.9502 54.2804 12.9233 0.0000 0.0000 0.0000
# 3 8.9625 12.9233 69.5379 0.0000 0.0000 0.0000
# 4 0.0000 0.0000 0.0000 35.1060 0.0000 0.0000
# 5 0.0000 0.0000 0.0000 0.0000 -225.6045 0.0000
# 6 0.0000 0.0000 0.0000 0.0000 0.0000 23.8711
#
#
#
# Elastic Compliance Matrix: (Units=1/GPa)
#
#
# Indices 1 2 3 4 5 6 
#
# 1 0.015918 -0.021259 0.001899 0.000000 0.000000 0.000000
# 2 -0.021259 0.047668 -0.006119 0.000000 0.000000 0.000000
# 3 0.001899 -0.006119 0.015273 0.000000 0.000000 0.000000
# 4 0.000000 0.000000 0.000000 0.028485 0.000000 0.000000
# 5 0.000000 0.000000 0.000000 0.000000 -0.004433 0.000000
# 6 0.000000 0.000000 0.000000 0.000000 0.000000 0.041892
#
#
# Mechanical properties :
#
#
# Convention : Reuss Voigt Hill
#
# Bulk Modulus (GPa) = 35.84024 51.77734 43.80879
# Shear Modulus (GPa) = 24.38294 -20.82626 1.77834
#
# Velocity S-wave (km/s) = 3.51485 -3.24840 0.94923
# Velocity P-wave (km/s) = 5.88485 3.48779 4.83715
#
# Compressibility (1/GPa) = 0.02790160
#
# Stress axis : x y z
#
# Youngs Moduli (GPa) = 62.82028 20.97857 65.47506
#
# Poissons Ratio (x) = 0.44599 -0.12435
# Poissons Ratio (y) = 1.33551 0.40063
# Poissons Ratio (z) = -0.11931 0.12836
#
# Static dielectric constant tensor:
#      x y z
#    x 1.697010 0.000000 0.000000 
#    y 0.000000 1.681120 0.000000 
#    z 0.000000 0.000000 1.725660 
# 
# From -- ./inp_files/9592.got.cif
#   From: 2010.05.17/outbox.cif.g08.bks.cpg/sg55_5_cif.got.tgz:9592.got - 2010.06.03 13:27:54.
