data_PCOD9427324
_publ_section_title
;
Structure prediction by ZEFSAII (Michael W. Deem and Ramdas Pophale) SiO2 
 PCOD9427324
Probable space group: P B A M
;
_chemical_formula_sum "Si O2"
_cell_formula_units_Z 64
_cell_length_a 31.711207
_cell_length_b 12.044114
_cell_length_c 7.865637
_cell_angle_alpha 90.000000
_cell_angle_beta 90.000000
_cell_angle_gamma 90.000000
_cell_volume 3004.149421
_symmetry_space_group_name_H-M "P B A M"
_symmetry_group_IT_number 55
_symmetry_cell_setting 'orthorhombic'
loop_
_space_group_symop_operation_xyz
x,y,z
-x,-y,z
1/2+x,1/2-y,-z
1/2-x,1/2+y,-z
-x,-y,-z
x,y,-z
1/2-x,1/2+y,z
1/2+x,1/2-y,z
loop_
_atom_site_type_symbol
_atom_site_label
_atom_site_fract_x
_atom_site_fract_y
_atom_site_fract_z
Si Si1 0.803599 0.749231 0.291369
Si Si2 0.628771 0.664687 0.802644
Si Si3 0.837374 0.510142 0.707577
Si Si4 0.376580 0.584810 0.698372
Si Si5 0.290686 0.207217 0.701772
Si Si6 0.044235 0.227376 0.802779
Si Si7 0.044823 0.715246 0.794090
Si Si8 0.933875 0.525894 0.702627
O O1 0.804202 0.749632 0.500000
O O2 0.819669 0.628484 0.237619
O O3 0.837145 0.842199 0.236278
O O4 0.755880 0.767720 0.231415
O O5 0.620252 0.534267 0.785343
O O6 0.673590 0.699602 0.725360
O O7 0.588788 0.732905 0.729780
O O8 0.631615 0.694487 0.000000
O O9 0.836642 0.508140 0.500000
O O10 0.810172 0.406989 0.770837
O O11 0.885947 0.499668 0.757135
O O12 0.368992 0.562445 0.500000
O O13 0.418873 0.657887 0.715408
O O14 0.285299 0.192373 0.500000
O O15 0.053581 0.358865 0.788354
O O16 0.996448 0.217321 0.735138
O O17 0.044875 0.194184 0.000000
O O18 0.041079 0.586424 0.742571
O O19 0.044753 0.719860 0.000000
O O20 0.935106 0.545061 0.500000
#
# Coordination Sequence:
#
# PCOD9427324 Si02
#       8
#     8   8   8   8   8   8   8   8
#     4   9  19  35  60  90 119 150 192 240 291 348
#     4  11  24  42  60  83 119 158 196 245 299 353
#     4   9  17  32  56  89 121 148 187 239 289 337
#     4  11  23  41  63  88 117 154 201 250 297 353
#     4  10  20  36  63  91 115 153 198 241 287 345
#     4  11  23  40  61  86 118 157 198 241 296 363
#     4  10  23  41  60  83 117 161 201 237 295 365
#     4  11  20  35  60  91 124 152 191 248 299 344
#
# _framework density 21.303868000000001
#
# number of rings (size 3 to 8) (size 9 to 14) (size 15 to 20)
#    0.000    1.750    2.500    1.875    1.750    3.500 
#    0.000    3.750    0.000    0.000    0.000    0.000 
#    0.000    0.000    0.000    0.000    0.000    0.000 
#
# Total GULP energy -357583.686953 kJ/mol
# GULP energy per Si atom -5587.245109 kJ/mol
# Density = 2.125538 g / cm^3
# Si number density = 21.303868 Si / 1000 Ang^3
#
#
#
# Elastic Constant Matrix: (Units=GPa)
#
#
# Indices 1 2 3 4 5 6 
#
# 1 105.9540 17.8296 -0.3943 0.0000 0.0000 0.0000
# 2 17.8296 86.2310 -11.7760 0.0000 0.0000 0.0000
# 3 -0.3943 -11.7760 24.1523 0.0000 0.0000 0.0000
# 4 0.0000 0.0000 0.0000 21.3458 0.0000 0.0000
# 5 0.0000 0.0000 0.0000 0.0000 22.6046 0.0000
# 6 0.0000 0.0000 0.0000 0.0000 0.0000 9.7941
#
#
#
# Elastic Compliance Matrix: (Units=1/GPa)
#
#
# Indices 1 2 3 4 5 6 
#
# 1 0.009796 -0.002147 -0.000887 0.000000 0.000000 0.000000
# 2 -0.002147 0.012894 0.006252 0.000000 0.000000 0.000000
# 3 -0.000887 0.006252 0.044438 0.000000 0.000000 0.000000
# 4 0.000000 0.000000 0.000000 0.046848 0.000000 0.000000
# 5 0.000000 0.000000 0.000000 0.000000 0.044239 0.000000
# 6 0.000000 0.000000 0.000000 0.000000 0.000000 0.102102
#
#
# Mechanical properties :
#
#
# Convention : Reuss Voigt Hill
#
# Bulk Modulus (GPa) = 13.59338 25.29510 19.44424
# Shear Modulus (GPa) = 17.95971 24.79410 21.37690
#
# Velocity S-wave (km/s) = 2.90664 3.41520 3.17113
# Velocity P-wave (km/s) = 4.20230 5.23934 4.74921
#
# Compressibility (1/GPa) = 0.07356521
#
# Stress axis : x y z
#
# Youngs Moduli (GPa) = 102.08275 77.55323 22.50347
#
# Poissons Ratio (x) = 0.16647 0.01995
# Poissons Ratio (y) = 0.21913 -0.14069
# Poissons Ratio (z) = 0.09051 -0.48485
#
# Static dielectric constant tensor:
#      x y z
#    x 1.786490 0.000000 0.000000 
#    y 0.000000 1.724810 0.000000 
#    z 0.000000 0.000000 1.774890 
# 
# From -- ./inp_files/10827.got.cif
#   From: 2010.05.17/outbox.cif.g08.bks.cpg/sg55_6_cif.got.tgz:10827.got - 2010.06.03 13:27:54.
