data_PCOD9427623
_publ_section_title
;
Structure prediction by ZEFSAII (Michael W. Deem and Ramdas Pophale) SiO2 
 PCOD9427623
Probable space group: P B A M
;
_chemical_formula_sum "Si O2"
_cell_formula_units_Z 48
_cell_length_a 4.926373
_cell_length_b 28.235252
_cell_length_c 16.003905
_cell_angle_alpha 90.000000
_cell_angle_beta 90.000000
_cell_angle_gamma 90.000000
_cell_volume 2226.101305
_symmetry_space_group_name_H-M "P B A M"
_symmetry_group_IT_number 55
_symmetry_cell_setting 'orthorhombic'
loop_
_space_group_symop_operation_xyz
x,y,z
-x,-y,z
1/2+x,1/2-y,-z
1/2-x,1/2+y,-z
-x,-y,-z
x,y,-z
1/2-x,1/2+y,z
1/2+x,1/2-y,z
loop_
_atom_site_type_symbol
_atom_site_label
_atom_site_fract_x
_atom_site_fract_y
_atom_site_fract_z
Si Si1 0.395870 0.719848 0.099446
Si Si2 0.589976 0.901202 0.000000
Si Si3 0.376603 0.551847 0.840465
Si Si4 0.627911 0.628936 0.406309
Si Si5 0.393467 0.106955 0.299897
Si Si6 0.307641 0.782603 0.500000
Si Si7 0.279296 0.860853 0.844374
O O1 0.089858 0.734975 0.117246
O O2 0.540350 0.676975 0.145594
O O3 0.417534 0.709649 0.000000
O O4 0.456938 0.866749 0.072690
O O5 0.718647 0.935076 0.074457
O O6 0.500000 0.500000 0.842404
O O7 0.194630 0.563396 0.759289
O O8 0.621764 0.589335 0.836031
O O9 0.552179 0.612762 0.500000
O O10 0.370264 0.626499 0.346582
O O11 0.740783 0.682316 0.422578
O O12 0.871113 0.598467 0.367220
O O13 0.530040 0.144038 0.235546
O O14 0.610213 0.762630 0.500000
#
# Coordination Sequence:
#
# PCOD9427623 Si02
#       7
#     8   4   8   8   8   4   8
#     4  10  23  38  62  86 122 174 230 270 320 387
#     4  10  23  37  69  93 136 178 234 274 357 395
#     4  11  25  42  68 100 141 180 233 290 351 419
#     4  10  22  41  71  94 132 177 220 258 345 410
#     4  11  22  42  66 100 132 177 216 273 343 403
#     4  10  20  38  68 106 135 169 221 283 338 412
#     4  11  23  41  65  96 137 175 231 284 342 399
#
# _framework density 21.562360000000002
#
# number of rings (size 3 to 8) (size 9 to 14) (size 15 to 20)
#    0.500    1.000    2.500    2.250    4.667    3.333 
#    0.000    5.000    0.000    3.000    0.000    0.000 
#    0.000    0.000    0.000    0.000    0.000    0.000 
#
# Total GULP energy -267213.719189 kJ/mol
# GULP energy per Si atom -5566.952483 kJ/mol
# Density = 2.151328 g / cm^3
# Si number density = 21.562360 Si / 1000 Ang^3
#
#
#
# Elastic Constant Matrix: (Units=GPa)
#
#
# Indices 1 2 3 4 5 6 
#
# 1 63.9566 16.7731 14.9273 0.0000 0.0000 0.0000
# 2 16.7731 78.9355 23.1902 0.0000 0.0000 0.0000
# 3 14.9273 23.1902 117.1992 0.0000 0.0000 0.0000
# 4 0.0000 0.0000 0.0000 10.0283 0.0000 0.0000
# 5 0.0000 0.0000 0.0000 0.0000 7.6678 0.0000
# 6 0.0000 0.0000 0.0000 0.0000 0.0000 21.0494
#
#
#
# Elastic Compliance Matrix: (Units=1/GPa)
#
#
# Indices 1 2 3 4 5 6 
#
# 1 0.016811 -0.003125 -0.001523 0.000000 0.000000 0.000000
# 2 -0.003125 0.014031 -0.002378 0.000000 0.000000 0.000000
# 3 -0.001523 -0.002378 0.009197 0.000000 0.000000 0.000000
# 4 0.000000 0.000000 0.000000 0.099718 0.000000 0.000000
# 5 0.000000 0.000000 0.000000 0.000000 0.130415 0.000000
# 6 0.000000 0.000000 0.000000 0.000000 0.000000 0.047507
#
#
# Mechanical properties :
#
#
# Convention : Reuss Voigt Hill
#
# Bulk Modulus (GPa) = 38.48074 41.09694 39.78884
# Shear Modulus (GPa) = 14.68888 21.42914 18.05901
#
# Velocity S-wave (km/s) = 2.61287 3.15591 2.89714
# Velocity P-wave (km/s) = 5.19497 5.69040 5.44832
#
# Compressibility (1/GPa) = 0.02598702
#
# Stress axis : x y z
#
# Youngs Moduli (GPa) = 59.48660 71.26929 108.73057
#
# Poissons Ratio (x) = 0.22270 0.16558
# Poissons Ratio (y) = 0.18588 0.25860
# Poissons Ratio (z) = 0.09059 0.16951
#
# Static dielectric constant tensor:
#      x y z
#    x 1.838840 0.000000 0.000000 
#    y 0.000000 1.803510 0.000000 
#    z 0.000000 0.000000 1.789630 
# 
# From -- ./inp_files/16736.got.cif
#   From: 2010.05.17/outbox.cif.g08.bks.cpg/sg55_9_cif.got.tgz:16736.got - 2010.06.03 13:27:54.
