data_PCOD9427203
_publ_section_title
;
Structure prediction by ZEFSAII (Michael W. Deem and Ramdas Pophale) SiO2 
 PCOD9427203
Probable space group: P B A M
;
_chemical_formula_sum "Si O2"
_cell_formula_units_Z 40
_cell_length_a 17.958973
_cell_length_b 9.531018
_cell_length_c 8.456854
_cell_angle_alpha 90.000000
_cell_angle_beta 90.000000
_cell_angle_gamma 90.000000
_cell_volume 1447.536823
_symmetry_space_group_name_H-M "P B A M"
_symmetry_group_IT_number 55
_symmetry_cell_setting 'orthorhombic'
loop_
_space_group_symop_operation_xyz
x,y,z
-x,-y,z
1/2+x,1/2-y,-z
1/2-x,1/2+y,-z
-x,-y,-z
x,y,-z
1/2-x,1/2+y,z
1/2+x,1/2-y,z
loop_
_atom_site_type_symbol
_atom_site_label
_atom_site_fract_x
_atom_site_fract_y
_atom_site_fract_z
Si Si1 0.756291 0.339940 0.330045
Si Si2 0.234376 0.283727 0.000000
Si Si3 0.896353 0.501406 0.320426
Si Si4 0.655585 0.495683 0.000000
Si Si5 0.497323 0.772027 0.814456
Si Si6 0.406534 0.527920 0.324318
O O1 0.775830 0.271194 0.500000
O O2 0.808775 0.476783 0.320203
O O3 0.670312 0.381499 0.336516
O O4 0.769377 0.259299 0.168413
O O5 0.259141 0.447658 0.000000
O O6 0.163253 0.175309 0.000000
O O7 0.917899 0.538032 0.500000
O O8 0.927953 0.619262 0.206473
O O9 0.935499 0.356989 0.267245
O O10 0.611658 0.544856 0.156074
O O11 0.473223 0.635906 0.715978
O O12 0.508843 0.750419 0.000000
O O13 0.413456 0.464556 0.500000
#
# Coordination Sequence:
#
# PCOD9427203 Si02
#       6
#     8   4   8   4   8   8
#     4   9  21  37  58  87 121 166 210 254 316 382
#     4  10  22  38  63  86 133 159 213 257 323 368
#     4  10  20  36  58  91 129 171 218 269 331 386
#     4  10  22  40  57  96 119 171 207 261 311 390
#     4  11  21  34  57  94 130 170 218 267 329 388
#     4  10  20  38  58  84 125 165 207 258 312 379
#
# _framework density 27.633149
#
# number of rings (size 3 to 8) (size 9 to 14) (size 15 to 20)
#    0.000    2.000    1.000    3.600    2.800    7.200 
#    0.000    8.000    0.000    2.400    0.000    4.200 
#    0.000    0.000    0.000    0.000    0.000    0.000 
#
# Total GULP energy -223709.755080 kJ/mol
# GULP energy per Si atom -5592.743877 kJ/mol
# Density = 2.757025 g / cm^3
# Si number density = 27.633149 Si / 1000 Ang^3
#
#
#
# Elastic Constant Matrix: (Units=GPa)
#
#
# Indices 1 2 3 4 5 6 
#
# 1 79.1313 27.9823 39.3628 0.0000 0.0000 0.0000
# 2 27.9823 92.2847 55.1445 0.0000 0.0000 0.0000
# 3 39.3628 55.1445 305.6351 0.0000 0.0000 0.0000
# 4 0.0000 0.0000 0.0000 32.6877 0.0000 0.0000
# 5 0.0000 0.0000 0.0000 0.0000 45.9543 0.0000
# 6 0.0000 0.0000 0.0000 0.0000 0.0000 55.6959
#
#
#
# Elastic Compliance Matrix: (Units=1/GPa)
#
#
# Indices 1 2 3 4 5 6 
#
# 1 0.014542 -0.003688 -0.001207 0.000000 0.000000 0.000000
# 2 -0.003688 0.013081 -0.001885 0.000000 0.000000 0.000000
# 3 -0.001207 -0.001885 0.003768 0.000000 0.000000 0.000000
# 4 0.000000 0.000000 0.000000 0.030593 0.000000 0.000000
# 5 0.000000 0.000000 0.000000 0.000000 0.021761 0.000000
# 6 0.000000 0.000000 0.000000 0.000000 0.000000 0.017955
#
#
# Mechanical properties :
#
#
# Convention : Reuss Voigt Hill
#
# Bulk Modulus (GPa) = 56.08758 80.22557 68.15657
# Shear Modulus (GPa) = 41.25343 50.50504 45.87923
#
# Velocity S-wave (km/s) = 3.86799 4.27980 4.07909
# Velocity P-wave (km/s) = 6.34742 7.31557 6.84863
#
# Compressibility (1/GPa) = 0.01782926
#
# Stress axis : x y z
#
# Youngs Moduli (GPa) = 68.76656 76.44851 265.42694
#
# Poissons Ratio (x) = 0.28193 0.32050
# Poissons Ratio (y) = 0.25360 0.50037
# Poissons Ratio (z) = 0.08303 0.14412
#
# Static dielectric constant tensor:
#      x y z
#    x 2.166360 0.000000 0.000000 
#    y 0.000000 2.146100 0.000000 
#    z 0.000000 0.000000 2.074190 
# 
# From -- ./inp_files/3878.got.cif
#   From: 2010.05.17/outbox.cif.g08.bks.cpg/sg55_2_cif.got.tgz:3878.got - 2010.06.03 13:27:54.
