data_PCOD9427896
_publ_section_title
;
Structure prediction by ZEFSAII (Michael W. Deem and Ramdas Pophale) SiO2 
 PCOD9427896
Probable space group: P B A M
;
_chemical_formula_sum "Si O2"
_cell_formula_units_Z 64
_cell_length_a 9.701310
_cell_length_b 17.127392
_cell_length_c 20.683906
_cell_angle_alpha 90.000000
_cell_angle_beta 90.000000
_cell_angle_gamma 90.000000
_cell_volume 3436.799334
_symmetry_space_group_name_H-M "P B A M"
_symmetry_group_IT_number 55
_symmetry_cell_setting 'orthorhombic'
loop_
_space_group_symop_operation_xyz
x,y,z
-x,-y,z
1/2+x,1/2-y,-z
1/2-x,1/2+y,-z
-x,-y,-z
x,y,-z
1/2-x,1/2+y,z
1/2+x,1/2-y,z
loop_
_atom_site_type_symbol
_atom_site_label
_atom_site_fract_x
_atom_site_fract_y
_atom_site_fract_z
Si Si1 0.967523 0.655856 0.786804
Si Si2 0.788967 0.812385 0.789288
Si Si3 0.734781 0.303350 0.930855
Si Si4 0.617703 0.054683 0.665344
Si Si5 0.442224 0.660162 0.423773
Si Si6 0.876454 0.946443 0.307353
Si Si7 0.239324 0.309961 0.423545
Si Si8 0.550112 0.152457 0.070208
O O1 0.861057 0.728281 0.781338
O O2 0.942450 0.596452 0.728924
O O3 0.947158 0.616187 0.857918
O O4 0.123194 0.689259 0.781760
O O5 0.814223 0.839833 0.863533
O O6 0.849389 0.873573 0.739049
O O7 0.670595 0.216893 0.930168
O O8 0.900894 0.304449 0.929930
O O9 0.692472 0.339550 0.000000
O O10 0.671964 0.121091 0.617427
O O11 0.500000 0.000000 0.635331
O O12 0.742524 0.999420 0.685970
O O13 0.430031 0.641335 0.500000
O O14 0.416009 0.587453 0.377583
O O15 0.596938 0.691390 0.411912
O O16 0.333343 0.728141 0.407625
O O17 0.000000 0.000000 0.282680
O O18 0.217510 0.323536 0.500000
O O19 0.557722 0.109882 0.000000
#
# Coordination Sequence:
#
# PCOD9427896 Si02
#       8
#     8   8   8   8   8   8   8   8
#     4  10  21  36  57  83 115 150 189 237 282 334
#     4  10  21  36  57  84 113 149 191 235 283 337
#     4   8  14  27  49  77 106 138 180 232 281 326
#     4  12  25  40  58  83 119 155 188 233 280 331
#     4  10  23  43  66  89 115 146 186 233 280 335
#     4  12  25  40  59  84 114 155 192 230 280 333
#     4  10  23  43  65  89 115 147 187 231 280 336
#     4   8  14  27  49  77 106 138 182 232 280 326
#
# _framework density 18.621977999999999
#
# number of rings (size 3 to 8) (size 9 to 14) (size 15 to 20)
#    0.000    2.000    2.500    0.750    3.500    3.000 
#    0.000    0.000    0.000    1.500    0.000    0.000 
#    0.000    0.000    0.000    0.000    0.000    0.000 
#
# Total GULP energy -356765.453326 kJ/mol
# GULP energy per Si atom -5574.460208 kJ/mol
# Density = 1.857959 g / cm^3
# Si number density = 18.621978 Si / 1000 Ang^3
#
#
#
# Elastic Constant Matrix: (Units=GPa)
#
#
# Indices 1 2 3 4 5 6 
#
# 1 69.8206 16.6971 24.7137 0.0000 0.0000 0.0000
# 2 16.6971 40.7288 32.9428 0.0000 0.0000 0.0000
# 3 24.7137 32.9428 65.8162 0.0000 0.0000 0.0000
# 4 0.0000 0.0000 0.0000 -4.8531 0.0000 0.0000
# 5 0.0000 0.0000 0.0000 0.0000 23.2558 0.0000
# 6 0.0000 0.0000 0.0000 0.0000 0.0000 32.7389
#
#
#
# Elastic Compliance Matrix: (Units=1/GPa)
#
#
# Indices 1 2 3 4 5 6 
#
# 1 0.016731 -0.002987 -0.004788 0.000000 0.000000 0.000000
# 2 -0.002987 0.041787 -0.019794 0.000000 0.000000 0.000000
# 3 -0.004788 -0.019794 0.026899 0.000000 0.000000 0.000000
# 4 0.000000 0.000000 0.000000 -0.206055 0.000000 0.000000
# 5 0.000000 0.000000 0.000000 0.000000 0.043000 0.000000
# 6 0.000000 0.000000 0.000000 0.000000 0.000000 0.030545
#
#
# Mechanical properties :
#
#
# Convention : Reuss Voigt Hill
#
# Bulk Modulus (GPa) = 33.02443 36.11921 34.57182
# Shear Modulus (GPa) = 275.66100 17.02912 146.34506
#
# Velocity S-wave (km/s) = 12.17995 3.02729 8.87456
# Velocity P-wave (km/s) = 14.68245 5.62649 11.11827
#
# Compressibility (1/GPa) = 0.03028061
#
# Stress axis : x y z
#
# Youngs Moduli (GPa) = 59.76821 23.93075 37.17609
#
# Poissons Ratio (x) = 0.07148 0.17798
# Poissons Ratio (y) = 0.17852 0.73587
# Poissons Ratio (z) = 0.28614 0.47369
#
# Static dielectric constant tensor:
#      x y z
#    x 1.633850 0.000000 0.000000 
#    y 0.000000 1.598750 0.000000 
#    z 0.000000 0.000000 1.696390 
# 
# From -- ./inp_files/22703.got.cif
#   From: 2010.05.17/outbox.cif.g08.bks.cpg/sg55_12_cif.got.tgz:22703.got - 2010.06.03 13:27:54.
