data_PCOD9427512
_publ_section_title
;
Structure prediction by ZEFSAII (Michael W. Deem and Ramdas Pophale) SiO2 
 PCOD9427512
Probable space group: P B A M
;
_chemical_formula_sum "Si O2"
_cell_formula_units_Z 56
_cell_length_a 12.094285
_cell_length_b 17.592375
_cell_length_c 13.668770
_cell_angle_alpha 90.000000
_cell_angle_beta 90.000000
_cell_angle_gamma 90.000000
_cell_volume 2908.265880
_symmetry_space_group_name_H-M "P B A M"
_symmetry_group_IT_number 55
_symmetry_cell_setting 'orthorhombic'
loop_
_space_group_symop_operation_xyz
x,y,z
-x,-y,z
1/2+x,1/2-y,-z
1/2-x,1/2+y,-z
-x,-y,-z
x,y,-z
1/2-x,1/2+y,z
1/2+x,1/2-y,z
loop_
_atom_site_type_symbol
_atom_site_label
_atom_site_fract_x
_atom_site_fract_y
_atom_site_fract_z
Si Si1 0.417164 0.930260 0.389088
Si Si2 0.513742 0.833644 0.220750
Si Si3 0.191756 0.369862 0.885752
Si Si4 0.826998 0.451784 0.885310
Si Si5 0.912499 0.940296 0.201106
Si Si6 0.098052 0.829935 0.248927
Si Si7 0.840030 0.038892 0.386399
O O1 0.429899 0.902520 0.500000
O O2 0.448431 0.865533 0.313820
O O3 0.292467 0.959230 0.377911
O O4 0.500000 0.000000 0.374264
O O5 0.415350 0.820521 0.142633
O O6 0.594216 0.898331 0.177953
O O7 0.582930 0.759891 0.250740
O O8 0.158194 0.458118 0.866219
O O9 0.299214 0.350807 0.821531
O O10 0.218097 0.363001 0.000000
O O11 0.699944 0.434587 0.858347
O O12 0.848710 0.438574 0.000000
O O13 0.981910 0.863881 0.210912
O O14 0.883113 0.976943 0.307912
O O15 0.000000 0.000000 0.155517
O O16 0.119938 0.878494 0.347653
O O17 0.869391 0.025247 0.500000
#
# Coordination Sequence:
#
# PCOD9427512 Si02
#       7
#     8   8   8   8   8   8   8
#     4  10  20  37  65  94 122 161 206 258 314 372
#     4  12  24  40  63  90 130 164 209 266 322 382
#     4  11  23  43  64  88 121 165 218 268 316 377
#     4  11  23  40  67  94 119 165 223 265 310 376
#     4  10  20  39  62  91 128 165 206 257 315 372
#     4  11  25  40  59  93 131 167 203 260 325 380
#     4  10  20  40  68  96 125 164 213 257 312 381
#
# _framework density 19.255461
#
# number of rings (size 3 to 8) (size 9 to 14) (size 15 to 20)
#    0.000    1.286    4.286    2.571    2.000    6.286 
#    0.000    0.000    0.000    0.000    0.000    0.000 
#    0.000    0.000    0.000    0.000    0.000    0.000 
#
# Total GULP energy -312756.511473 kJ/mol
# GULP energy per Si atom -5584.937705 kJ/mol
# Density = 1.921163 g / cm^3
# Si number density = 19.255461 Si / 1000 Ang^3
#
#
#
# Elastic Constant Matrix: (Units=GPa)
#
#
# Indices 1 2 3 4 5 6 
#
# 1 93.1855 37.3181 7.6165 0.0000 0.0000 0.0000
# 2 37.3181 42.9707 27.7747 0.0000 0.0000 0.0000
# 3 7.6165 27.7747 58.2044 0.0000 0.0000 0.0000
# 4 0.0000 0.0000 0.0000 7.9874 0.0000 0.0000
# 5 0.0000 0.0000 0.0000 0.0000 13.7631 0.0000
# 6 0.0000 0.0000 0.0000 0.0000 0.0000 25.7308
#
#
#
# Elastic Compliance Matrix: (Units=1/GPa)
#
#
# Indices 1 2 3 4 5 6 
#
# 1 0.018515 -0.020987 0.007592 0.000000 0.000000 0.000000
# 2 -0.020987 0.057439 -0.024663 0.000000 0.000000 0.000000
# 3 0.007592 -0.024663 0.027957 0.000000 0.000000 0.000000
# 4 0.000000 0.000000 0.000000 0.125197 0.000000 0.000000
# 5 0.000000 0.000000 0.000000 0.000000 0.072658 0.000000
# 6 0.000000 0.000000 0.000000 0.000000 0.000000 0.038864
#
#
# Mechanical properties :
#
#
# Convention : Reuss Voigt Hill
#
# Bulk Modulus (GPa) = 35.97818 37.75323 36.86571
# Shear Modulus (GPa) = 11.73676 17.60635 14.67156
#
# Velocity S-wave (km/s) = 2.47154 3.02711 2.76333
# Velocity P-wave (km/s) = 5.18362 5.64508 5.41927
#
# Compressibility (1/GPa) = 0.02779462
#
# Stress axis : x y z
#
# Youngs Moduli (GPa) = 54.00908 17.40969 35.76984
#
# Poissons Ratio (x) = 0.36538 -0.27156
# Poissons Ratio (y) = 1.13348 0.88220
# Poissons Ratio (z) = -0.41003 0.42938
#
# Static dielectric constant tensor:
#      x y z
#    x 1.666520 0.000000 0.000000 
#    y 0.000000 1.676370 0.000000 
#    z 0.000000 0.000000 1.692310 
# 
# From -- ./inp_files/18379.got.cif
#   From: 2010.05.17/outbox.cif.g08.bks.cpg/sg55_10_cif.got.tgz:18379.got - 2010.06.03 13:27:54.
