data_PCOD9427410
_publ_section_title
;
Structure prediction by ZEFSAII (Michael W. Deem and Ramdas Pophale) SiO2 
 PCOD9427410
Probable space group: P B A M
;
_chemical_formula_sum "Si O2"
_cell_formula_units_Z 56
_cell_length_a 21.103213
_cell_length_b 14.901569
_cell_length_c 7.545323
_cell_angle_alpha 90.000000
_cell_angle_beta 90.000000
_cell_angle_gamma 90.000000
_cell_volume 2372.785153
_symmetry_space_group_name_H-M "P B A M"
_symmetry_group_IT_number 55
_symmetry_cell_setting 'orthorhombic'
loop_
_space_group_symop_operation_xyz
x,y,z
-x,-y,z
1/2+x,1/2-y,-z
1/2-x,1/2+y,-z
-x,-y,-z
x,y,-z
1/2-x,1/2+y,z
1/2+x,1/2-y,z
loop_
_atom_site_type_symbol
_atom_site_label
_atom_site_fract_x
_atom_site_fract_y
_atom_site_fract_z
Si Si1 0.671234 0.076816 0.714317
Si Si2 0.410706 0.432542 0.795610
Si Si3 0.127688 0.126680 0.299180
Si Si4 0.496829 0.715917 0.796030
Si Si5 0.771656 0.386816 0.716412
Si Si6 0.292355 0.311287 0.714849
Si Si7 0.475058 0.906695 0.791324
O O1 0.670022 0.076238 0.500000
O O2 0.723474 0.150553 0.767463
O O3 0.600641 0.095710 0.776549
O O4 0.694662 0.978104 0.774839
O O5 0.400575 0.526590 0.701319
O O6 0.463392 0.365936 0.716688
O O7 0.345714 0.376871 0.787550
O O8 0.426655 0.454742 0.000000
O O9 0.133608 0.161161 0.500000
O O10 0.076873 0.189499 0.206256
O O11 0.198373 0.117981 0.224661
O O12 0.503514 0.814565 0.714952
O O13 0.518616 0.720282 0.000000
O O14 0.770663 0.390322 0.500000
O O15 0.802171 0.291978 0.768331
O O16 0.295581 0.315587 0.500000
O O17 0.500000 0.000000 0.713682
O O18 0.491532 0.906438 0.000000
#
# Coordination Sequence:
#
# PCOD9427410 Si02
#       7
#     8   8   8   8   8   8   8
#     4  10  20  38  60  86 119 151 191 245 298 345
#     4  11  23  38  58  86 121 157 194 241 298 352
#     4  11  21  39  64  90 118 154 196 240 296 357
#     4  10  23  41  58  82 120 159 196 246 298 345
#     4   9  19  35  58  86 116 149 185 238 297 343
#     4  10  20  37  60  85 117 153 194 243 292 347
#     4  10  23  42  62  84 118 161 204 246 292 348
#
# _framework density 23.600957000000001
#
# number of rings (size 3 to 8) (size 9 to 14) (size 15 to 20)
#    0.000    1.857    1.429    2.143    2.000    5.429 
#    0.000    1.429    0.000    0.000    0.000    0.000 
#    0.000    0.000    0.000    0.000    0.000    0.000 
#
# Total GULP energy -313194.044123 kJ/mol
# GULP energy per Si atom -5592.750788 kJ/mol
# Density = 2.354724 g / cm^3
# Si number density = 23.600957 Si / 1000 Ang^3
#
#
#
# Elastic Constant Matrix: (Units=GPa)
#
#
# Indices 1 2 3 4 5 6 
#
# 1 50.8027 -0.6767 -12.1953 0.0000 0.0000 0.0000
# 2 -0.6767 117.5974 -3.1112 0.0000 0.0000 0.0000
# 3 -12.1953 -3.1112 61.1089 0.0000 0.0000 0.0000
# 4 0.0000 0.0000 0.0000 -13.5467 0.0000 0.0000
# 5 0.0000 0.0000 0.0000 0.0000 21.9670 0.0000
# 6 0.0000 0.0000 0.0000 0.0000 0.0000 14.1334
#
#
#
# Elastic Compliance Matrix: (Units=1/GPa)
#
#
# Indices 1 2 3 4 5 6 
#
# 1 0.020681 0.000229 0.004139 0.000000 0.000000 0.000000
# 2 0.000229 0.008518 0.000479 0.000000 0.000000 0.000000
# 3 0.004139 0.000479 0.017215 0.000000 0.000000 0.000000
# 4 0.000000 0.000000 0.000000 -0.073819 0.000000 0.000000
# 5 0.000000 0.000000 0.000000 0.000000 0.045523 0.000000
# 6 0.000000 0.000000 0.000000 0.000000 0.000000 0.070754
#
#
# Mechanical properties :
#
#
# Convention : Reuss Voigt Hill
#
# Bulk Modulus (GPa) = 17.82346 21.94917 19.88631
# Shear Modulus (GPa) = 51.08302 20.87690 35.97996
#
# Velocity S-wave (km/s) = 4.65741 2.97741 3.90874
# Velocity P-wave (km/s) = 6.04072 4.59786 5.36799
#
# Compressibility (1/GPa) = 0.05610584
#
# Stress axis : x y z
#
# Youngs Moduli (GPa) = 48.35454 117.40420 58.09026
#
# Poissons Ratio (x) = -0.02683 -0.24042
# Poissons Ratio (y) = -0.01105 -0.02784
# Poissons Ratio (z) = -0.20013 -0.05627
#
# Static dielectric constant tensor:
#      x y z
#    x 1.851470 0.000000 0.000000 
#    y 0.000000 1.896930 0.000000 
#    z 0.000000 0.000000 1.892300 
# 
# From -- ./inp_files/8699.got.cif
#   From: 2010.05.17/outbox.cif.g08.bks.cpg/sg55_5_cif.got.tgz:8699.got - 2010.06.03 13:27:54.
