data_PCOD9427329
_publ_section_title
;
Structure prediction by ZEFSAII (Michael W. Deem and Ramdas Pophale) SiO2 
 PCOD9427329
Probable space group: P B A M
;
_chemical_formula_sum "Si O2"
_cell_formula_units_Z 40
_cell_length_a 10.113442
_cell_length_b 12.868433
_cell_length_c 14.197539
_cell_angle_alpha 90.000000
_cell_angle_beta 90.000000
_cell_angle_gamma 90.000000
_cell_volume 1847.726656
_symmetry_space_group_name_H-M "P B A M"
_symmetry_group_IT_number 55
_symmetry_cell_setting 'orthorhombic'
loop_
_space_group_symop_operation_xyz
x,y,z
-x,-y,z
1/2+x,1/2-y,-z
1/2-x,1/2+y,-z
-x,-y,-z
x,y,-z
1/2-x,1/2+y,z
1/2+x,1/2-y,z
loop_
_atom_site_type_symbol
_atom_site_label
_atom_site_fract_x
_atom_site_fract_y
_atom_site_fract_z
Si Si1 0.901276 0.270235 0.726612
Si Si2 0.669679 0.203265 0.606891
Si Si3 0.160699 0.010204 0.602007
Si Si4 0.869669 0.431323 0.896458
Si Si5 0.136418 0.963090 0.805571
O O1 0.785858 0.276912 0.647498
O O2 0.882306 0.347937 0.813224
O O3 0.883967 0.154153 0.769102
O O4 0.042349 0.289025 0.675036
O O5 0.626524 0.225654 0.500000
O O6 0.743869 0.091759 0.603044
O O7 0.196203 0.059580 0.500000
O O8 0.165526 0.034834 0.713142
O O9 0.000000 0.000000 0.594436
O O10 0.754150 0.513180 0.874833
O O11 0.000000 0.500000 0.896330
O O12 0.851077 0.382952 0.000000
O O13 0.000000 0.000000 0.849033
#
# Coordination Sequence:
#
# PCOD9427329 Si02
#       5
#     8   8   8   8   8
#     4  11  22  41  66  93 131 173 215 269 334 398
#     4  10  20  36  63  96 131 173 214 261 326 397
#     4   8  15  30  54  86 124 163 204 249 306 382
#     4  11  25  44  64  88 122 166 217 272 328 386
#     4  10  21  39  63  93 124 159 210 269 326 388
#
# _framework density 21.648225
#
# number of rings (size 3 to 8) (size 9 to 14) (size 15 to 20)
#    0.000    2.000    0.000    4.200    0.000    2.000 
#    0.000   13.000    0.000    9.000    0.000    0.000 
#    0.000    0.000    0.000    0.000    0.000    0.000 
#
# Total GULP energy -222706.460596 kJ/mol
# GULP energy per Si atom -5567.661515 kJ/mol
# Density = 2.159895 g / cm^3
# Si number density = 21.648225 Si / 1000 Ang^3
#
#
#
# Elastic Constant Matrix: (Units=GPa)
#
#
# Indices 1 2 3 4 5 6 
#
# 1 159.4219 54.3179 83.0797 0.0000 0.0000 0.0000
# 2 54.3179 78.1784 21.4224 0.0000 0.0000 0.0000
# 3 83.0797 21.4224 137.1557 0.0000 0.0000 0.0000
# 4 0.0000 0.0000 0.0000 20.1396 0.0000 0.0000
# 5 0.0000 0.0000 0.0000 0.0000 185.8544 0.0000
# 6 0.0000 0.0000 0.0000 0.0000 0.0000 22.2521
#
#
#
# Elastic Compliance Matrix: (Units=1/GPa)
#
#
# Indices 1 2 3 4 5 6 
#
# 1 0.011593 -0.006405 -0.006022 0.000000 0.000000 0.000000
# 2 -0.006405 0.016901 0.001240 0.000000 0.000000 0.000000
# 3 -0.006022 0.001240 0.010745 0.000000 0.000000 0.000000
# 4 0.000000 0.000000 0.000000 0.049653 0.000000 0.000000
# 5 0.000000 0.000000 0.000000 0.000000 0.005381 0.000000
# 6 0.000000 0.000000 0.000000 0.000000 0.000000 0.044940
#
#
# Mechanical properties :
#
#
# Convention : Reuss Voigt Hill
#
# Bulk Modulus (GPa) = 59.29196 76.93290 68.11243
# Shear Modulus (GPa) = 29.90271 60.04497 44.97384
#
# Velocity S-wave (km/s) = 3.72062 5.27228 4.56289
# Velocity P-wave (km/s) = 6.77537 8.52510 7.70010
#
# Compressibility (1/GPa) = 0.01686569
#
# Stress axis : x y z
#
# Youngs Moduli (GPa) = 86.25847 59.16645 93.06610
#
# Poissons Ratio (x) = 0.37894 0.56044
# Poissons Ratio (y) = 0.55246 -0.11537
# Poissons Ratio (z) = 0.51944 -0.07335
#
# Static dielectric constant tensor:
#      x y z
#    x 1.693210 0.000000 0.000000 
#    y 0.000000 2.229120 0.000000 
#    z 0.000000 0.000000 1.805160 
# 
# From -- ./inp_files/17040.got.cif
#   From: 2010.05.17/outbox.cif.g08.bks.cpg/sg55_9_cif.got.tgz:17040.got - 2010.06.03 13:27:54.
