data_PCOD9427511
_publ_section_title
;
Structure prediction by ZEFSAII (Michael W. Deem and Ramdas Pophale) SiO2 
 PCOD9427511
Probable space group: P B A M
;
_chemical_formula_sum "Si O2"
_cell_formula_units_Z 64
_cell_length_a 28.991899
_cell_length_b 12.717348
_cell_length_c 8.185561
_cell_angle_alpha 90.000000
_cell_angle_beta 90.000000
_cell_angle_gamma 90.000000
_cell_volume 3018.016904
_symmetry_space_group_name_H-M "P B A M"
_symmetry_group_IT_number 55
_symmetry_cell_setting 'orthorhombic'
loop_
_space_group_symop_operation_xyz
x,y,z
-x,-y,z
1/2+x,1/2-y,-z
1/2-x,1/2+y,-z
-x,-y,-z
x,y,-z
1/2-x,1/2+y,z
1/2+x,1/2-y,z
loop_
_atom_site_type_symbol
_atom_site_label
_atom_site_fract_x
_atom_site_fract_y
_atom_site_fract_z
Si Si1 0.303458 0.440870 0.810634
Si Si2 0.793147 0.497603 0.690803
Si Si3 0.477639 0.886864 0.302787
Si Si4 0.436645 0.249709 0.300746
Si Si5 0.163199 0.712816 0.697136
Si Si6 0.872785 0.639517 0.811767
Si Si7 0.552306 0.513048 0.699245
Si Si8 0.365053 0.630015 0.693262
O O1 0.248791 0.449033 0.784499
O O2 0.321179 0.328920 0.746187
O O3 0.327160 0.539718 0.720888
O O4 0.315372 0.449634 0.000000
O O5 0.780144 0.492584 0.500000
O O6 0.803563 0.380139 0.754260
O O7 0.840073 0.563465 0.708065
O O8 0.473655 0.879404 0.500000
O O9 0.515464 0.801373 0.246220
O O10 0.426670 0.871621 0.233368
O O11 0.500000 0.000000 0.264447
O O12 0.437880 0.246790 0.500000
O O13 0.389633 0.193051 0.248125
O O14 0.431877 0.370980 0.251390
O O15 0.163055 0.708210 0.500000
O O16 0.857530 0.759770 0.780768
O O17 0.866286 0.611799 0.000000
O O18 0.500000 0.500000 0.753484
O O19 0.552730 0.510357 0.500000
O O20 0.587070 0.422714 0.752532
O O21 0.368732 0.651851 0.500000
#
# Coordination Sequence:
#
# PCOD9427511 Si02
#       8
#     8   8   8   8   8   8   8   8
#     4  12  26  43  65  96 135 170 206 263 341 402
#     4  11  25  45  71  96 123 166 226 275 318 389
#     4  10  20  37  64  95 128 172 225 271 316 383
#     4   9  16  31  58  91 123 156 208 269 314 364
#     4  10  21  42  70  97 124 162 218 273 318 379
#     4  12  26  43  63  95 139 177 214 269 340 398
#     4   9  16  28  54  89 119 154 205 264 314 357
#     4  11  22  41  67  91 125 171 224 270 316 386
#
# _framework density 21.205978999999999
#
# number of rings (size 3 to 8) (size 9 to 14) (size 15 to 20)
#    0.000    1.500    1.250    4.500    1.750    5.250 
#    0.000    0.625    0.000    1.500    0.000    0.000 
#    0.000    0.000    0.000    0.000    0.000    0.000 
#
# Total GULP energy -357775.505643 kJ/mol
# GULP energy per Si atom -5590.242276 kJ/mol
# Density = 2.115771 g / cm^3
# Si number density = 21.205979 Si / 1000 Ang^3
#
#
#
# Elastic Constant Matrix: (Units=GPa)
#
#
# Indices 1 2 3 4 5 6 
#
# 1 100.0940 16.9928 -6.0221 0.0000 0.0000 0.0000
# 2 16.9928 82.4990 -4.7102 0.0000 0.0000 0.0000
# 3 -6.0221 -4.7102 20.5226 0.0000 0.0000 0.0000
# 4 0.0000 0.0000 0.0000 -15.2867 0.0000 0.0000
# 5 0.0000 0.0000 0.0000 0.0000 -4.6994 0.0000
# 6 0.0000 0.0000 0.0000 0.0000 0.0000 29.6709
#
#
#
# Elastic Compliance Matrix: (Units=1/GPa)
#
#
# Indices 1 2 3 4 5 6 
#
# 1 0.010489 -0.002011 0.002616 0.000000 0.000000 0.000000
# 2 -0.002011 0.012668 0.002317 0.000000 0.000000 0.000000
# 3 0.002616 0.002317 0.050026 0.000000 0.000000 0.000000
# 4 0.000000 0.000000 0.000000 -0.065416 0.000000 0.000000
# 5 0.000000 0.000000 0.000000 0.000000 -0.212792 0.000000
# 6 0.000000 0.000000 0.000000 0.000000 0.000000 0.033703
#
#
# Mechanical properties :
#
#
# Convention : Reuss Voigt Hill
#
# Bulk Modulus (GPa) = 12.65361 23.95962 18.30662
# Shear Modulus (GPa) = -33.15139 15.06061 -9.04539
#
# Velocity S-wave (km/s) = -3.95815 2.66786 -2.06755
# Velocity P-wave (km/s) = 3.86126 4.56213 1.71809
#
# Compressibility (1/GPa) = 0.07902883
#
# Stress axis : x y z
#
# Youngs Moduli (GPa) = 95.33381 78.93950 19.98943
#
# Poissons Ratio (x) = 0.15876 -0.05230
# Poissons Ratio (y) = 0.19174 -0.04632
# Poissons Ratio (z) = -0.24943 -0.18293
#
# Static dielectric constant tensor:
#      x y z
#    x 1.757250 0.000000 0.000000 
#    y 0.000000 1.754520 0.000000 
#    z 0.000000 0.000000 1.742930 
# 
# From -- ./inp_files/10836.got.cif
#   From: 2010.05.17/outbox.cif.g08.bks.cpg/sg55_6_cif.got.tgz:10836.got - 2010.06.03 13:27:54.
