data_PCOD9427118
_publ_section_title
;
Structure prediction by ZEFSAII (Michael W. Deem and Ramdas Pophale) SiO2 
 PCOD9427118
Probable space group: P B A M
;
_chemical_formula_sum "Si O2"
_cell_formula_units_Z 64
_cell_length_a 34.306912
_cell_length_b 11.921404
_cell_length_c 8.619660
_cell_angle_alpha 90.000000
_cell_angle_beta 90.000000
_cell_angle_gamma 90.000000
_cell_volume 3525.325074
_symmetry_space_group_name_H-M "P B A M"
_symmetry_group_IT_number 55
_symmetry_cell_setting 'orthorhombic'
loop_
_space_group_symop_operation_xyz
x,y,z
-x,-y,z
1/2+x,1/2-y,-z
1/2-x,1/2+y,-z
-x,-y,-z
x,y,-z
1/2-x,1/2+y,z
1/2+x,1/2-y,z
loop_
_atom_site_type_symbol
_atom_site_label
_atom_site_fract_x
_atom_site_fract_y
_atom_site_fract_z
Si Si1 0.593318 0.813952 0.313721
Si Si2 0.631327 0.278442 0.187690
Si Si3 0.198059 0.051346 0.812607
Si Si4 0.970120 0.159951 0.813172
Si Si5 0.828569 0.186254 0.314061
Si Si6 0.444849 0.585747 0.188848
Si Si7 0.286405 0.100131 0.186323
Si Si8 0.139861 0.469673 0.313868
O O1 0.591105 0.813150 0.500000
O O2 0.553413 0.766072 0.247439
O O3 0.628551 0.730280 0.266492
O O4 0.607606 0.937602 0.264835
O O5 0.670360 0.345373 0.233239
O O6 0.593912 0.350875 0.240200
O O7 0.630980 0.153627 0.253248
O O8 0.630411 0.272471 0.000000
O O9 0.242731 0.068955 0.763877
O O10 0.180814 0.936598 0.746540
O O11 0.197322 0.044463 0.000000
O O12 0.015224 0.148368 0.764514
O O13 0.949066 0.043932 0.761507
O O14 0.969505 0.161299 0.000000
O O15 0.826688 0.189576 0.500000
O O16 0.798487 0.277155 0.246357
O O17 0.444284 0.584018 0.000000
O O18 0.318817 0.014838 0.250751
O O19 0.287917 0.099062 0.000000
O O20 0.141432 0.470401 0.500000
#
# Coordination Sequence:
#
# PCOD9427118 Si02
#       8
#     8   8   8   8   8   8   8   8
#     4   9  19  35  52  74 105 138 176 221 265 313
#     4  10  20  36  56  79 109 144 179 221 274 326
#     4  10  22  36  55  81 106 136 176 222 269 319
#     4   9  16  30  56  83 107 138 177 219 266 319
#     4  10  21  36  54  78 108 139 175 218 265 319
#     4   8  16  31  52  82 114 139 170 219 271 321
#     4  10  21  37  56  78 106 138 177 224 271 317
#     4  10  22  39  55  75 106 144 184 225 270 325
#
# _framework density 18.154354999999999
#
# number of rings (size 3 to 8) (size 9 to 14) (size 15 to 20)
#    0.000    2.500    0.000    3.375    1.750    5.500 
#    0.000    3.125    0.000    3.750    0.000    0.000 
#    0.000    0.000    0.000    0.000    0.000    0.000 
#
# Total GULP energy -357115.422694 kJ/mol
# GULP energy per Si atom -5579.928480 kJ/mol
# Density = 1.811303 g / cm^3
# Si number density = 18.154355 Si / 1000 Ang^3
#
#
#
# Elastic Constant Matrix: (Units=GPa)
#
#
# Indices 1 2 3 4 5 6 
#
# 1 83.3768 40.2807 14.2464 0.0000 0.0000 0.0000
# 2 40.2807 81.7203 10.9463 0.0000 0.0000 0.0000
# 3 14.2464 10.9463 10.7248 0.0000 0.0000 0.0000
# 4 0.0000 0.0000 0.0000 17.3260 0.0000 0.0000
# 5 0.0000 0.0000 0.0000 0.0000 -27.0380 0.0000
# 6 0.0000 0.0000 0.0000 0.0000 0.0000 15.6357
#
#
#
# Elastic Compliance Matrix: (Units=1/GPa)
#
#
# Indices 1 2 3 4 5 6 
#
# 1 0.018162 -0.006626 -0.017362 0.000000 0.000000 0.000000
# 2 -0.006626 0.016592 -0.008133 0.000000 0.000000 0.000000
# 3 -0.017362 -0.008133 0.124606 0.000000 0.000000 0.000000
# 4 0.000000 0.000000 0.000000 0.057717 0.000000 0.000000
# 5 0.000000 0.000000 0.000000 0.000000 -0.036985 0.000000
# 6 0.000000 0.000000 0.000000 0.000000 0.000000 0.063956
#
#
# Mechanical properties :
#
#
# Convention : Reuss Voigt Hill
#
# Bulk Modulus (GPa) = 10.51330 34.08540 22.29935
# Shear Modulus (GPa) = 14.70602 8.54130 11.62366
#
# Velocity S-wave (km/s) = 2.84923 2.17141 2.53310
# Velocity P-wave (km/s) = 4.07772 5.01027 4.56786
#
# Compressibility (1/GPa) = 0.09511759
#
# Stress axis : x y z
#
# Youngs Moduli (GPa) = 55.06094 60.26826 8.02529
#
# Poissons Ratio (x) = 0.39936 0.13934
# Poissons Ratio (y) = 0.36486 0.06527
# Poissons Ratio (z) = 0.95597 0.49015
#
# Static dielectric constant tensor:
#      x y z
#    x 1.625350 0.000000 0.000000 
#    y 0.000000 1.597400 0.000000 
#    z 0.000000 0.000000 1.615740 
# 
# From -- ./inp_files/10846.got.cif
#   From: 2010.05.17/outbox.cif.g08.bks.cpg/sg55_6_cif.got.tgz:10846.got - 2010.06.03 13:27:54.
