data_PCOD9427789
_publ_section_title
;
Structure prediction by ZEFSAII (Michael W. Deem and Ramdas Pophale) SiO2 
 PCOD9427789
Probable space group: P B A M
;
_chemical_formula_sum "Si O2"
_cell_formula_units_Z 32
_cell_length_a 11.770298
_cell_length_b 9.360092
_cell_length_c 13.157690
_cell_angle_alpha 90.000000
_cell_angle_beta 90.000000
_cell_angle_gamma 90.000000
_cell_volume 1449.596814
_symmetry_space_group_name_H-M "P B A M"
_symmetry_group_IT_number 55
_symmetry_cell_setting 'orthorhombic'
loop_
_space_group_symop_operation_xyz
x,y,z
-x,-y,z
1/2+x,1/2-y,-z
1/2-x,1/2+y,-z
-x,-y,-z
x,y,-z
1/2-x,1/2+y,z
1/2+x,1/2-y,z
loop_
_atom_site_type_symbol
_atom_site_label
_atom_site_fract_x
_atom_site_fract_y
_atom_site_fract_z
Si Si1 0.116003 0.414732 0.889829
Si Si2 0.736596 0.693943 0.275401
Si Si3 0.458031 0.339391 0.885312
Si Si4 0.628349 0.450560 0.617167
O O1 0.196019 0.419822 0.794753
O O2 0.000000 0.500000 0.878581
O O3 0.072500 0.252522 0.889713
O O4 0.165242 0.454120 0.000000
O O5 0.628337 0.721709 0.200007
O O6 0.813106 0.825912 0.314712
O O7 0.696248 0.598589 0.369439
O O8 0.500000 0.500000 0.867777
O O9 0.407399 0.327931 0.000000
O O10 0.500000 0.500000 0.644585
O O11 0.627725 0.402974 0.500000
#
# Coordination Sequence:
#
# PCOD9427789 Si02
#       4
#     8   8   8   8
#     4  10  21  35  54  87 126 158 194 240 292 362
#     4  12  21  39  67  89 119 165 209 254 317 381
#     4  10  21  37  59  92 129 162 199 243 297 367
#     4  11  26  45  64  90 122 158 211 275 328 377
#
# _framework density 22.075104
#
# number of rings (size 3 to 8) (size 9 to 14) (size 15 to 20)
#    0.000    1.250    0.000    6.750    0.000    0.000 
#    0.000   10.000    0.000    9.750    0.000    0.000 
#    0.000    0.000    0.000    0.000    0.000    0.000 
#
# Total GULP energy -178467.670209 kJ/mol
# GULP energy per Si atom -5577.114694 kJ/mol
# Density = 2.202486 g / cm^3
# Si number density = 22.075104 Si / 1000 Ang^3
#
#
#
# Elastic Constant Matrix: (Units=GPa)
#
#
# Indices 1 2 3 4 5 6 
#
# 1 68.7458 20.2697 34.6829 0.0000 0.0000 0.0000
# 2 20.2697 99.2158 24.3594 0.0000 0.0000 0.0000
# 3 34.6829 24.3594 138.0543 0.0000 0.0000 0.0000
# 4 0.0000 0.0000 0.0000-5422.9658 0.0000 0.0000
# 5 0.0000 0.0000 0.0000 0.0000 2.9304 0.0000
# 6 0.0000 0.0000 0.0000 0.0000 0.0000 41.0274
#
#
#
# Elastic Compliance Matrix: (Units=1/GPa)
#
#
# Indices 1 2 3 4 5 6 
#
# 1 0.017264 -0.002574 -0.003883 0.000000 0.000000 0.000000
# 2 -0.002574 0.010919 -0.001280 0.000000 0.000000 0.000000
# 3 -0.003883 -0.001280 0.008445 0.000000 0.000000 0.000000
# 4 0.000000 0.000000 0.000000 -0.000184 0.000000 0.000000
# 5 0.000000 0.000000 0.000000 0.000000 0.341248 0.000000
# 6 0.000000 0.000000 0.000000 0.000000 0.000000 0.024374
#
#
# Mechanical properties :
#
#
# Convention : Reuss Voigt Hill
#
# Bulk Modulus (GPa) = 47.27113 51.62665 49.44889
# Shear Modulus (GPa) = 11.77605 -1060.68801 -524.45598
#
# Velocity S-wave (km/s) = 2.31217 -21.94388 -15.43029
# Velocity P-wave (km/s) = 5.34681 24.87182 17.17584
#
# Compressibility (1/GPa) = 0.02115456
#
# Stress axis : x y z
#
# Youngs Moduli (GPa) = 57.92307 91.58240 118.41415
#
# Poissons Ratio (x) = 0.23570 0.45982
# Poissons Ratio (y) = 0.14908 0.15158
# Poissons Ratio (z) = 0.22492 0.11723
#
# Static dielectric constant tensor:
#      x y z
#    x 1.914690 0.000000 0.000000 
#    y 0.000000 1.834740 0.000000 
#    z 0.000000 0.000000 1.850660 
# 
# From -- ./inp_files/16841.got.cif
#   From: 2010.05.17/outbox.cif.g08.bks.cpg/sg55_9_cif.got.tgz:16841.got - 2010.06.03 13:27:54.
