data_PCOD9427890
_publ_section_title
;
Structure prediction by ZEFSAII (Michael W. Deem and Ramdas Pophale) SiO2 
 PCOD9427890
Probable space group: P B A M
;
_chemical_formula_sum "Si O2"
_cell_formula_units_Z 36
_cell_length_a 18.403587
_cell_length_b 5.173115
_cell_length_c 16.700975
_cell_angle_alpha 90.000000
_cell_angle_beta 90.000000
_cell_angle_gamma 90.000000
_cell_volume 1589.997486
_symmetry_space_group_name_H-M "P B A M"
_symmetry_group_IT_number 55
_symmetry_cell_setting 'orthorhombic'
loop_
_space_group_symop_operation_xyz
x,y,z
-x,-y,z
1/2+x,1/2-y,-z
1/2-x,1/2+y,-z
-x,-y,-z
x,y,-z
1/2-x,1/2+y,z
1/2+x,1/2-y,z
loop_
_atom_site_type_symbol
_atom_site_label
_atom_site_fract_x
_atom_site_fract_y
_atom_site_fract_z
Si Si1 0.948732 0.245302 0.250572
Si Si2 0.801333 0.698155 0.000000
Si Si3 0.584918 0.941499 0.588904
Si Si4 0.084269 0.592035 0.085845
Si Si5 0.708585 0.320513 0.596326
O O1 0.908145 0.255258 0.335306
O O2 0.902859 0.263695 0.168902
O O3 0.000000 0.500000 0.251682
O O4 0.000000 0.000000 0.245789
O O5 0.857118 0.638022 0.926356
O O6 0.758667 0.966683 0.000000
O O7 0.609492 0.847772 0.500000
O O8 0.629018 0.201172 0.609313
O O9 0.500000 0.000000 0.581423
O O10 0.000000 0.500000 0.087358
O O11 0.091385 0.739299 0.000000
O O12 0.714563 0.337498 0.500000
O O13 0.761764 0.092158 0.626243
#
# Coordination Sequence:
#
# PCOD9427890 Si02
#       5
#     8   4   8   8   8
#     4  10  21  36  56  85 115 146 193 239 280 339
#     4  10  21  36  57  88 122 150 186 242 299 346
#     4   9  19  36  58  84 116 152 193 246 299 339
#     4   8  18  39  61  86 113 158 197 235 282 354
#     4   9  18  33  52  74 103 141 185 229 278 341
#
# _framework density 22.641544
#
# number of rings (size 3 to 8) (size 9 to 14) (size 15 to 20)
#    0.667    2.222    0.000    0.000    0.000    8.000 
#    0.000    8.889    0.000    0.000    0.000    0.000 
#    0.000    0.000    0.000    0.000    0.000    0.000 
#
# Total GULP energy -200507.839129 kJ/mol
# GULP energy per Si atom -5569.662198 kJ/mol
# Density = 2.259001 g / cm^3
# Si number density = 22.641544 Si / 1000 Ang^3
#
#
#
# Elastic Constant Matrix: (Units=GPa)
#
#
# Indices 1 2 3 4 5 6 
#
# 1 133.3574 18.4836 -13.0061 0.0000 0.0000 0.0000
# 2 18.4836 70.7518 5.9353 0.0000 0.0000 0.0000
# 3 -13.0061 5.9353 163.4401 0.0000 0.0000 0.0000
# 4 0.0000 0.0000 0.0000 -8.2275 0.0000 0.0000
# 5 0.0000 0.0000 0.0000 0.0000 4.3746 0.0000
# 6 0.0000 0.0000 0.0000 0.0000 0.0000 46.9262
#
#
#
# Elastic Compliance Matrix: (Units=1/GPa)
#
#
# Indices 1 2 3 4 5 6 
#
# 1 0.007860 -0.002112 0.000702 0.000000 0.000000 0.000000
# 2 -0.002112 0.014745 -0.000704 0.000000 0.000000 0.000000
# 3 0.000702 -0.000704 0.006200 0.000000 0.000000 0.000000
# 4 0.000000 0.000000 0.000000 -0.121543 0.000000 0.000000
# 5 0.000000 0.000000 0.000000 0.000000 0.228592 0.000000
# 6 0.000000 0.000000 0.000000 0.000000 0.000000 0.021310
#
#
# Mechanical properties :
#
#
# Convention : Reuss Voigt Hill
#
# Bulk Modulus (GPa) = 40.68801 43.37497 42.03149
# Shear Modulus (GPa) = 29.48408 32.35711 30.92060
#
# Velocity S-wave (km/s) = 3.61253 3.78445 3.69949
# Velocity P-wave (km/s) = 5.95063 6.18829 6.07062
#
# Compressibility (1/GPa) = 0.02457726
#
# Stress axis : x y z
#
# Youngs Moduli (GPa) = 127.22823 67.82074 161.29360
#
# Poissons Ratio (x) = 0.14326 -0.11326
# Poissons Ratio (y) = 0.26874 0.11348
# Poissons Ratio (z) = -0.08934 0.04771
#
# Static dielectric constant tensor:
#      x y z
#    x 1.869530 0.000000 0.000000 
#    y 0.000000 1.846900 0.000000 
#    z 0.000000 0.000000 2.359660 
# 
# From -- ./inp_files/21861.got.cif
#   From: 2010.05.17/outbox.cif.g08.bks.cpg/sg55_11_cif.got.tgz:21861.got - 2010.06.03 13:27:54.
