data_PCOD9427162
_publ_section_title
;
Structure prediction by ZEFSAII (Michael W. Deem and Ramdas Pophale) SiO2 
 PCOD9427162
Probable space group: P B A M
;
_chemical_formula_sum "Si O2"
_cell_formula_units_Z 64
_cell_length_a 20.381587
_cell_length_b 19.081839
_cell_length_c 7.579155
_cell_angle_alpha 90.000000
_cell_angle_beta 90.000000
_cell_angle_gamma 90.000000
_cell_volume 2947.671030
_symmetry_space_group_name_H-M "P B A M"
_symmetry_group_IT_number 55
_symmetry_cell_setting 'orthorhombic'
loop_
_space_group_symop_operation_xyz
x,y,z
-x,-y,z
1/2+x,1/2-y,-z
1/2-x,1/2+y,-z
-x,-y,-z
x,y,-z
1/2-x,1/2+y,z
1/2+x,1/2-y,z
loop_
_atom_site_type_symbol
_atom_site_label
_atom_site_fract_x
_atom_site_fract_y
_atom_site_fract_z
Si Si1 0.133443 0.748639 0.292460
Si Si2 0.926875 0.522649 0.285841
Si Si3 0.624331 0.176028 0.205604
Si Si4 0.195353 0.017449 0.788189
Si Si5 0.484023 0.716166 0.213933
Si Si6 0.174266 0.596443 0.288688
Si Si7 0.236047 0.865283 0.793780
Si Si8 0.050979 0.059553 0.784151
O O1 0.147821 0.749578 0.500000
O O2 0.155961 0.673222 0.219805
O O3 0.175337 0.812506 0.215575
O O4 0.056079 0.758656 0.267459
O O5 0.924895 0.525747 0.500000
O O6 0.907510 0.599112 0.218565
O O7 0.874663 0.464509 0.224134
O O8 0.000000 0.500000 0.233958
O O9 0.573341 0.232366 0.280636
O O10 0.697549 0.168632 0.283206
O O11 0.631944 0.195933 0.000000
O O12 0.251900 0.073256 0.749774
O O13 0.124134 0.040726 0.723507
O O14 0.217738 0.941326 0.717889
O O15 0.189514 0.011282 0.000000
O O16 0.470932 0.636741 0.272171
O O17 0.483273 0.717102 0.000000
O O18 0.165557 0.598601 0.500000
O O19 0.251123 0.878092 0.000000
O O20 0.051135 0.059969 0.000000
O O21 0.000000 0.000000 0.728393
#
# Coordination Sequence:
#
# PCOD9427162 Si02
#       8
#     8   8   8   8   8   8   8   8
#     4  11  24  40  59  84 115 156 200 238 289 353
#     4  10  20  36  58  80 110 155 194 230 281 339
#     4  10  21  36  56  87 118 148 190 240 291 347
#     4  10  20  36  62  89 114 150 193 238 290 351
#     4  10  21  38  59  85 117 150 189 245 299 344
#     4  10  22  38  55  82 118 152 192 240 285 341
#     4  10  21  38  60  88 119 151 192 241 294 353
#     4   9  18  34  59  86 111 145 190 235 286 343
#
# _framework density 21.712057999999999
#
# number of rings (size 3 to 8) (size 9 to 14) (size 15 to 20)
#    0.000    2.000    1.250    1.875    1.750    5.750 
#    0.000    0.625    0.000    1.500    0.000    0.000 
#    0.000    0.000    0.000    0.000    0.000    0.000 
#
# Total GULP energy -357724.274354 kJ/mol
# GULP energy per Si atom -5589.441787 kJ/mol
# Density = 2.166264 g / cm^3
# Si number density = 21.712058 Si / 1000 Ang^3
#
#
#
# Elastic Constant Matrix: (Units=GPa)
#
#
# Indices 1 2 3 4 5 6 
#
# 1 174.9654 86.2429 -10.6340 0.0000 0.0000 0.0000
# 2 86.2429 164.4599 -6.7677 0.0000 0.0000 0.0000
# 3 -10.6340 -6.7677 43.1798 0.0000 0.0000 0.0000
# 4 0.0000 0.0000 0.0000 14.1908 0.0000 0.0000
# 5 0.0000 0.0000 0.0000 0.0000 17.5222 0.0000
# 6 0.0000 0.0000 0.0000 0.0000 0.0000 42.3116
#
#
#
# Elastic Compliance Matrix: (Units=1/GPa)
#
#
# Indices 1 2 3 4 5 6 
#
# 1 0.007778 -0.004026 0.001284 0.000000 0.000000 0.000000
# 2 -0.004026 0.008204 0.000294 0.000000 0.000000 0.000000
# 3 0.001284 0.000294 0.023521 0.000000 0.000000 0.000000
# 4 0.000000 0.000000 0.000000 0.070468 0.000000 0.000000
# 5 0.000000 0.000000 0.000000 0.000000 0.057070 0.000000
# 6 0.000000 0.000000 0.000000 0.000000 0.000000 0.023634
#
#
# Mechanical properties :
#
#
# Convention : Reuss Voigt Hill
#
# Bulk Modulus (GPa) = 28.89414 57.80971 43.35192
# Shear Modulus (GPa) = 24.14218 35.72251 29.93235
#
# Velocity S-wave (km/s) = 3.33817 4.06061 3.71698
# Velocity P-wave (km/s) = 5.30986 6.97626 6.19931
#
# Compressibility (1/GPa) = 0.03460910
#
# Stress axis : x y z
#
# Youngs Moduli (GPa) = 128.56948 121.89486 42.51435
#
# Poissons Ratio (x) = 0.49073 -0.05461
# Poissons Ratio (y) = 0.51760 -0.01251
# Poissons Ratio (z) = -0.16515 -0.03588
#
# Static dielectric constant tensor:
#      x y z
#    x 1.749110 0.000000 0.000000 
#    y 0.000000 1.755200 0.000000 
#    z 0.000000 0.000000 1.822840 
# 
# From -- ./inp_files/8944.got.cif
#   From: 2010.05.17/outbox.cif.g08.bks.cpg/sg55_5_cif.got.tgz:8944.got - 2010.06.03 13:27:54.
