data_PCOD9427760
_publ_section_title
;
Structure prediction by ZEFSAII (Michael W. Deem and Ramdas Pophale) SiO2 
 PCOD9427760
Probable space group: P B A M
;
_chemical_formula_sum "Si O2"
_cell_formula_units_Z 64
_cell_length_a 20.255479
_cell_length_b 21.083926
_cell_length_c 7.650887
_cell_angle_alpha 90.000000
_cell_angle_beta 90.000000
_cell_angle_gamma 90.000000
_cell_volume 3267.426212
_symmetry_space_group_name_H-M "P B A M"
_symmetry_group_IT_number 55
_symmetry_cell_setting 'orthorhombic'
loop_
_space_group_symop_operation_xyz
x,y,z
-x,-y,z
1/2+x,1/2-y,-z
1/2-x,1/2+y,-z
-x,-y,-z
x,y,-z
1/2-x,1/2+y,z
1/2+x,1/2-y,z
loop_
_atom_site_type_symbol
_atom_site_label
_atom_site_fract_x
_atom_site_fract_y
_atom_site_fract_z
Si Si1 0.925584 0.180381 0.285391
Si Si2 0.318525 0.922764 0.205173
Si Si3 0.572925 0.174709 0.794008
Si Si4 0.423009 0.680836 0.711182
Si Si5 0.167481 0.931223 0.704002
Si Si6 0.171633 0.566730 0.711883
Si Si7 0.921406 0.322142 0.295584
Si Si8 0.323058 0.572686 0.713999
O O1 0.923964 0.182022 0.500000
O O2 0.876334 0.125802 0.222625
O O3 0.908356 0.251551 0.223337
O O4 0.001459 0.167505 0.234628
O O5 0.372297 0.873584 0.276749
O O6 0.245553 0.917546 0.285060
O O7 0.342114 0.995171 0.227811
O O8 0.310268 0.909793 0.000000
O O9 0.593629 0.247675 0.767001
O O10 0.499826 0.166682 0.716680
O O11 0.566050 0.162758 0.000000
O O12 0.422154 0.680265 0.500000
O O13 0.371978 0.627782 0.773286
O O14 0.149399 0.935219 0.500000
O O15 0.157333 0.002141 0.776579
O O16 0.169664 0.564687 0.500000
O O17 0.120879 0.619743 0.777715
O O18 0.246819 0.583140 0.763805
O O19 0.903724 0.319066 0.500000
O O20 0.324485 0.571864 0.500000
#
# Coordination Sequence:
#
# PCOD9427760 Si02
#       8
#     8   8   8   8   8   8   8   8
#     4   8  15  28  48  75 101 124 154 194 236 278
#     4  10  21  35  49  68  96 127 161 201 240 281
#     4  10  21  35  49  68  96 127 161 201 240 281
#     4   9  17  31  51  73  98 127 159 195 236 282
#     4   9  17  31  51  73  98 127 159 195 236 282
#     4   9  18  33  52  74  99 125 157 197 239 286
#     4   9  18  33  52  74  99 125 157 197 239 286
#     4   8  15  28  48  75 101 124 154 194 236 278
#
# _framework density 19.587281999999998
#
# number of rings (size 3 to 8) (size 9 to 14) (size 15 to 20)
#    0.000    3.000    0.000    2.250    0.000    4.500 
#    0.000   12.500    0.000    0.000    0.000    7.000 
#    0.000    0.000    0.000    0.000    0.000    0.000 
#
# Total GULP energy -356845.106145 kJ/mol
# GULP energy per Si atom -5575.704784 kJ/mol
# Density = 1.954270 g / cm^3
# Si number density = 19.587282 Si / 1000 Ang^3
#
#
#
# Elastic Constant Matrix: (Units=GPa)
#
#
# Indices 1 2 3 4 5 6 
#
# 1 96.5667 119.9391 -11.6242 0.0000 0.0000 0.0000
# 2 119.9391 175.4355 -10.5998 0.0000 0.0000 0.0000
# 3 -11.6242 -10.5998 31.9872 0.0000 0.0000 0.0000
# 4 0.0000 0.0000 0.0000 314.7498 0.0000 0.0000
# 5 0.0000 0.0000 0.0000 0.0000 -96.9891 0.0000
# 6 0.0000 0.0000 0.0000 0.0000 0.0000 48.8369
#
#
#
# Elastic Compliance Matrix: (Units=1/GPa)
#
#
# Indices 1 2 3 4 5 6 
#
# 1 0.071647 -0.048378 0.010005 0.000000 0.000000 0.000000
# 2 -0.048378 0.038483 -0.004828 0.000000 0.000000 0.000000
# 3 0.010005 -0.004828 0.033298 0.000000 0.000000 0.000000
# 4 0.000000 0.000000 0.000000 0.003177 0.000000 0.000000
# 5 0.000000 0.000000 0.000000 0.000000 -0.010310 0.000000
# 6 0.000000 0.000000 0.000000 0.000000 0.000000 0.020476
#
#
# Mechanical properties :
#
#
# Convention : Reuss Voigt Hill
#
# Bulk Modulus (GPa) = 17.53590 55.49105 36.51347
# Shear Modulus (GPa) = 19.07072 67.07115 43.07093
#
# Velocity S-wave (km/s) = 3.12369 5.85803 4.69436
# Velocity P-wave (km/s) = 4.68850 8.61087 6.93286
#
# Compressibility (1/GPa) = 0.05702588
#
# Stress axis : x y z
#
# Youngs Moduli (GPa) = 13.95732 25.98569 30.03147
#
# Poissons Ratio (x) = 1.25714 -0.30047
# Poissons Ratio (y) = 0.67523 0.14500
# Poissons Ratio (z) = -0.13965 0.12547
#
# Static dielectric constant tensor:
#      x y z
#    x 1.657980 0.000000 0.000000 
#    y 0.000000 1.683750 0.000000 
#    z 0.000000 0.000000 1.728460 
# 
# From -- ./inp_files/8989.got.cif
#   From: 2010.05.17/outbox.cif.g08.bks.cpg/sg55_5_cif.got.tgz:8989.got - 2010.06.03 13:27:54.
