data_PCOD9427499
_publ_section_title
;
Structure prediction by ZEFSAII (Michael W. Deem and Ramdas Pophale) SiO2 
 PCOD9427499
Probable space group: P B A M
;
_chemical_formula_sum "Si O2"
_cell_formula_units_Z 48
_cell_length_a 9.321487
_cell_length_b 15.346211
_cell_length_c 15.408762
_cell_angle_alpha 90.000000
_cell_angle_beta 90.000000
_cell_angle_gamma 90.000000
_cell_volume 2204.215797
_symmetry_space_group_name_H-M "P B A M"
_symmetry_group_IT_number 55
_symmetry_cell_setting 'orthorhombic'
loop_
_space_group_symop_operation_xyz
x,y,z
-x,-y,z
1/2+x,1/2-y,-z
1/2-x,1/2+y,-z
-x,-y,-z
x,y,-z
1/2-x,1/2+y,z
1/2+x,1/2-y,z
loop_
_atom_site_type_symbol
_atom_site_label
_atom_site_fract_x
_atom_site_fract_y
_atom_site_fract_z
Si Si1 0.103168 0.876792 0.806384
Si Si2 0.164443 0.470751 0.404800
Si Si3 0.953520 0.306105 0.165938
Si Si4 0.177701 0.293079 0.676822
Si Si5 0.134236 0.447649 0.902159
Si Si6 0.704333 0.394719 0.271198
O O1 0.079388 0.791140 0.865830
O O2 0.184104 0.830706 0.726448
O O3 0.216758 0.941134 0.851348
O O4 0.950497 0.908345 0.772249
O O5 0.223289 0.494054 0.500000
O O6 0.159738 0.365845 0.395852
O O7 0.244040 0.522661 0.327292
O O8 0.000000 0.500000 0.399266
O O9 0.812387 0.359956 0.195491
O O10 0.048037 0.301881 0.254358
O O11 0.060557 0.353091 0.100130
O O12 0.195145 0.189931 0.664176
O O13 0.000000 0.500000 0.860413
O O14 0.156907 0.479606 0.000000
#
# Coordination Sequence:
#
# PCOD9427499 Si02
#       6
#     8   8   8   8   8   8
#     4   9  20  37  61  91 115 159 215 257 302 366
#     4  11  23  38  62  94 125 169 212 248 322 392
#     4   9  18  36  62  88 117 161 211 252 303 374
#     4   9  19  37  59  88 124 161 209 263 307 376
#     4  10  22  39  61  91 129 167 199 249 322 384
#     4  10  20  37  63  93 122 158 217 269 308 361
#
# _framework density 21.776453
#
# number of rings (size 3 to 8) (size 9 to 14) (size 15 to 20)
#    0.000    2.333    1.667    1.000    4.667    2.000 
#    0.000    2.500    0.000    2.000    0.000    0.000 
#    0.000    0.000    0.000    0.000    0.000    0.000 
#
# Total GULP energy -267500.617034 kJ/mol
# GULP energy per Si atom -5572.929522 kJ/mol
# Density = 2.172689 g / cm^3
# Si number density = 21.776453 Si / 1000 Ang^3
#
#
#
# Elastic Constant Matrix: (Units=GPa)
#
#
# Indices 1 2 3 4 5 6 
#
# 1 155.2513 35.6366 40.6865 0.0000 0.0000 0.0000
# 2 35.6366 115.9744 22.8707 0.0000 0.0000 0.0000
# 3 40.6865 22.8707 58.1458 0.0000 0.0000 0.0000
# 4 0.0000 0.0000 0.0000 -42.4111 0.0000 0.0000
# 5 0.0000 0.0000 0.0000 0.0000 10.7273 0.0000
# 6 0.0000 0.0000 0.0000 0.0000 0.0000 42.7532
#
#
#
# Elastic Compliance Matrix: (Units=1/GPa)
#
#
# Indices 1 2 3 4 5 6 
#
# 1 0.008118 -0.001490 -0.005095 0.000000 0.000000 0.000000
# 2 -0.001490 0.009621 -0.002742 0.000000 0.000000 0.000000
# 3 -0.005095 -0.002742 0.021841 0.000000 0.000000 0.000000
# 4 0.000000 0.000000 0.000000 -0.023579 0.000000 0.000000
# 5 0.000000 0.000000 0.000000 0.000000 0.093220 0.000000
# 6 0.000000 0.000000 0.000000 0.000000 0.000000 0.023390
#
#
# Mechanical properties :
#
#
# Convention : Reuss Voigt Hill
#
# Bulk Modulus (GPa) = 47.78227 58.63992 53.21109
# Shear Modulus (GPa) = 31.59732 17.55906 24.57819
#
# Velocity S-wave (km/s) = 3.81331 2.84268 3.36320
# Velocity P-wave (km/s) = 6.43260 6.14500 6.29044
#
# Compressibility (1/GPa) = 0.02092827
#
# Stress axis : x y z
#
# Youngs Moduli (GPa) = 123.17847 103.93820 45.78453
#
# Poissons Ratio (x) = 0.15486 0.23325
# Poissons Ratio (y) = 0.18352 0.12553
# Poissons Ratio (z) = 0.62755 0.28497
#
# Static dielectric constant tensor:
#      x y z
#    x 1.808050 0.000000 0.000000 
#    y 0.000000 1.984030 0.000000 
#    z 0.000000 0.000000 1.818640 
# 
# From -- ./inp_files/20898.got.cif
#   From: 2010.05.17/outbox.cif.g08.bks.cpg/sg55_11_cif.got.tgz:20898.got - 2010.06.03 13:27:54.
