data_PCOD9427852
_publ_section_title
;
Structure prediction by ZEFSAII (Michael W. Deem and Ramdas Pophale) SiO2 
 PCOD9427852
Probable space group: P B A M
;
_chemical_formula_sum "Si O2"
_cell_formula_units_Z 54
_cell_length_a 5.188919
_cell_length_b 16.987903
_cell_length_c 32.309140
_cell_angle_alpha 90.000000
_cell_angle_beta 90.000000
_cell_angle_gamma 90.000000
_cell_volume 2848.013621
_symmetry_space_group_name_H-M "P B A M"
_symmetry_group_IT_number 55
_symmetry_cell_setting 'orthorhombic'
loop_
_space_group_symop_operation_xyz
x,y,z
-x,-y,z
1/2+x,1/2-y,-z
1/2-x,1/2+y,-z
-x,-y,-z
x,y,-z
1/2-x,1/2+y,z
1/2+x,1/2-y,z
loop_
_atom_site_type_symbol
_atom_site_label
_atom_site_fract_x
_atom_site_fract_y
_atom_site_fract_z
Si Si1 0.172995 0.801103 0.635412
Si Si2 0.248687 0.445915 0.889045
Si Si3 0.000000 0.000000 0.500000
Si Si4 0.248490 0.445977 0.206613
Si Si5 0.181620 0.801600 0.732146
Si Si6 0.086339 0.694390 0.500000
Si Si7 0.717479 0.197018 0.952039
Si Si8 0.361263 0.919152 0.432953
O O1 0.388133 0.733311 0.628195
O O2 0.196222 0.824381 0.683617
O O3 0.244962 0.870802 0.604716
O O4 0.500000 0.500000 0.893721
O O5 0.236893 0.418060 0.841213
O O6 0.252068 0.374173 0.920621
O O7 0.000000 0.500000 0.896519
O O8 0.858308 0.053582 0.464443
O O9 0.500000 0.500000 0.210874
O O10 0.266169 0.374231 0.238061
O O11 0.000000 0.500000 0.214396
O O12 0.401713 0.736191 0.739320
O O13 0.852192 0.757483 0.500000
O O14 0.050757 0.637132 0.539722
O O15 0.444251 0.239602 0.945849
O O16 0.732439 0.170264 0.000000
O O17 0.500000 0.000000 0.420070
#
# Coordination Sequence:
#
# PCOD9427852 Si02
#       8
#     8   8   2   8   8   4   8   8
#     4  10  23  43  64  88 119 155 193 229 278 339
#     4  10  21  36  55  81 114 152 193 240 294 354
#     4  10  24  40  56  82 120 142 184 232 274 320
#     4  10  21  37  57  86 121 152 191 241 292 349
#     4  10  21  39  62  89 118 153 194 238 280 345
#     4  11  24  39  62  82 110 151 184 217 271 323
#     4  10  21  36  54  79 111 148 196 250 298 350
#     4  11  25  40  62  87 121 149 187 238 277 324
#
# _framework density 18.960581999999999
#
# number of rings (size 3 to 8) (size 9 to 14) (size 15 to 20)
#    0.000    1.778    0.000    3.556    6.222    2.370 
#    1.333    0.000    0.000    0.000    0.000    0.000 
#    0.000    0.000    0.000    0.000    0.000    0.000 
#
# Total GULP energy -301395.153562 kJ/mol
# GULP energy per Si atom -5581.391733 kJ/mol
# Density = 1.891743 g / cm^3
# Si number density = 18.960582 Si / 1000 Ang^3
#
#
#
# Elastic Constant Matrix: (Units=GPa)
#
#
# Indices 1 2 3 4 5 6 
#
# 1 69.4820 -5.3031 -2.9599 0.0000 0.0000 0.0000
# 2 -5.3031 72.0552 57.6659 0.0000 0.0000 0.0000
# 3 -2.9599 57.6659 82.0116 0.0000 0.0000 0.0000
# 4 0.0000 0.0000 0.0000 84.7932 0.0000 0.0000
# 5 0.0000 0.0000 0.0000 0.0000 -220.4207 0.0000
# 6 0.0000 0.0000 0.0000 0.0000 0.0000 15.8650
#
#
#
# Elastic Compliance Matrix: (Units=1/GPa)
#
#
# Indices 1 2 3 4 5 6 
#
# 1 0.014483 0.001481 -0.000519 0.000000 0.000000 0.000000
# 2 0.001481 0.031890 -0.022370 0.000000 0.000000 0.000000
# 3 -0.000519 -0.022370 0.027904 0.000000 0.000000 0.000000
# 4 0.000000 0.000000 0.000000 0.011793 0.000000 0.000000
# 5 0.000000 0.000000 0.000000 0.000000 -0.004537 0.000000
# 6 0.000000 0.000000 0.000000 0.000000 0.000000 0.063032
#
#
# Mechanical properties :
#
#
# Convention : Reuss Voigt Hill
#
# Bulk Modulus (GPa) = 31.78424 35.81716 33.80070
# Shear Modulus (GPa) = 25.26953 -12.34277 6.46338
#
# Velocity S-wave (km/s) = 3.65463 -2.55418 1.84831
# Velocity P-wave (km/s) = 5.88287 3.19889 4.73503
#
# Compressibility (1/GPa) = 0.03146213
#
# Stress axis : x y z
#
# Youngs Moduli (GPa) = 69.04567 31.35814 35.83756
#
# Poissons Ratio (x) = -0.04644 0.01859
# Poissons Ratio (y) = -0.10226 0.80167
# Poissons Ratio (z) = 0.03581 0.70147
#
# Static dielectric constant tensor:
#      x y z
#    x 1.671520 0.000000 0.000000 
#    y 0.000000 1.621910 0.000000 
#    z 0.000000 0.000000 1.638350 
# 
# From -- ./inp_files/24082.got.cif
#   From: 2010.05.17/outbox.cif.g08.bks.cpg/sg55_13_cif.got.tgz:24082.got - 2010.06.03 13:27:54.
