data_PCOD9427641
_publ_section_title
;
Structure prediction by ZEFSAII (Michael W. Deem and Ramdas Pophale) SiO2 
 PCOD9427641
Probable space group: P B A M
;
_chemical_formula_sum "Si O2"
_cell_formula_units_Z 64
_cell_length_a 9.221925
_cell_length_b 16.498125
_cell_length_c 21.440883
_cell_angle_alpha 90.000000
_cell_angle_beta 90.000000
_cell_angle_gamma 90.000000
_cell_volume 3262.111810
_symmetry_space_group_name_H-M "P B A M"
_symmetry_group_IT_number 55
_symmetry_cell_setting 'orthorhombic'
loop_
_space_group_symop_operation_xyz
x,y,z
-x,-y,z
1/2+x,1/2-y,-z
1/2-x,1/2+y,-z
-x,-y,-z
x,y,-z
1/2-x,1/2+y,z
1/2+x,1/2-y,z
loop_
_atom_site_type_symbol
_atom_site_label
_atom_site_fract_x
_atom_site_fract_y
_atom_site_fract_z
Si Si1 0.670927 0.521995 0.429205
Si Si2 0.889961 0.188369 0.363183
Si Si3 0.795784 0.212744 0.220407
Si Si4 0.158171 0.964433 0.178668
Si Si5 0.234843 0.150872 0.626381
Si Si6 0.875965 0.450149 0.731312
Si Si7 0.504436 0.166073 0.173395
Si Si8 0.631673 0.062936 0.929690
O O1 0.500000 0.500000 0.427669
O O2 0.712492 0.542300 0.500000
O O3 0.682531 0.603804 0.387470
O O4 0.742645 0.436011 0.409616
O O5 0.846545 0.203779 0.291399
O O6 0.826511 0.270345 0.395867
O O7 0.064661 0.176876 0.369562
O O8 0.849096 0.130968 0.188068
O O9 0.622974 0.213816 0.214147
O O10 0.858665 0.284332 0.178692
O O11 0.247315 0.976315 0.115023
O O12 0.246485 0.999146 0.237985
O O13 0.000000 0.000000 0.176442
O O14 0.303338 0.121942 0.692338
O O15 0.970059 0.414582 0.788138
O O16 0.000000 0.500000 0.694119
O O17 0.570150 0.141230 0.107407
O O18 0.500000 0.000000 0.932821
O O19 0.680922 0.080593 0.000000
#
# Coordination Sequence:
#
# PCOD9427641 Si02
#       8
#     8   8   8   8   8   8   8   8
#     4   9  21  42  62  85 125 171 215 259 312 377
#     4  11  22  39  60  96 125 165 208 263 324 383
#     4  11  22  35  57  87 122 154 193 250 315 377
#     4  11  22  36  60  89 119 156 204 260 311 370
#     4  11  24  36  64  93 125 163 210 262 324 385
#     4  12  21  39  59  88 126 160 200 257 328 393
#     4  11  22  37  56  88 120 156 195 249 319 364
#     4  10  20  39  61  81 114 162 208 244 302 377
#
# _framework density 19.619192000000002
#
# number of rings (size 3 to 8) (size 9 to 14) (size 15 to 20)
#    0.000    1.250    5.000    2.250    1.750    1.750 
#    0.000    2.500    0.000    2.625    0.000    0.000 
#    0.000    0.000    0.000    0.000    0.000    0.000 
#
# Total GULP energy -356692.745859 kJ/mol
# GULP energy per Si atom -5573.324154 kJ/mol
# Density = 1.957454 g / cm^3
# Si number density = 19.619192 Si / 1000 Ang^3
#
#
#
# Elastic Constant Matrix: (Units=GPa)
#
#
# Indices 1 2 3 4 5 6 
#
# 1 77.2903 39.5838 21.6322 0.0000 0.0000 0.0000
# 2 39.5838 112.4558 28.5870 0.0000 0.0000 0.0000
# 3 21.6322 28.5870 71.8876 0.0000 0.0000 0.0000
# 4 0.0000 0.0000 0.0000 14.6153 0.0000 0.0000
# 5 0.0000 0.0000 0.0000 0.0000 11.3529 0.0000
# 6 0.0000 0.0000 0.0000 0.0000 0.0000 26.5084
#
#
#
# Elastic Compliance Matrix: (Units=1/GPa)
#
#
# Indices 1 2 3 4 5 6 
#
# 1 0.016317 -0.005001 -0.002921 0.000000 0.000000 0.000000
# 2 -0.005001 0.011425 -0.003038 0.000000 0.000000 0.000000
# 3 -0.002921 -0.003038 0.015998 0.000000 0.000000 0.000000
# 4 0.000000 0.000000 0.000000 0.068421 0.000000 0.000000
# 5 0.000000 0.000000 0.000000 0.000000 0.088083 0.000000
# 6 0.000000 0.000000 0.000000 0.000000 0.000000 0.037724
#
#
# Mechanical properties :
#
#
# Convention : Reuss Voigt Hill
#
# Bulk Modulus (GPa) = 45.83247 49.02662 47.42955
# Shear Modulus (GPa) = 18.71516 21.95069 20.33292
#
# Velocity S-wave (km/s) = 3.09191 3.34853 3.22278
# Velocity P-wave (km/s) = 6.01318 6.32405 6.17057
#
# Compressibility (1/GPa) = 0.02181859
#
# Stress axis : x y z
#
# Youngs Moduli (GPa) = 61.28557 87.52698 62.50778
#
# Poissons Ratio (x) = 0.43771 0.18261
# Poissons Ratio (y) = 0.30648 0.18993
# Poissons Ratio (z) = 0.17904 0.26595
#
# Static dielectric constant tensor:
#      x y z
#    x 1.675590 0.000000 0.000000 
#    y 0.000000 1.765480 0.000000 
#    z 0.000000 0.000000 1.714800 
# 
# From -- ./inp_files/22710.got.cif
#   From: 2010.05.17/outbox.cif.g08.bks.cpg/sg55_12_cif.got.tgz:22710.got - 2010.06.03 13:27:54.
