data_PCOD9427139
_publ_section_title
;
Structure prediction by ZEFSAII (Michael W. Deem and Ramdas Pophale) SiO2 
 PCOD9427139
Probable space group: P B A M
;
_chemical_formula_sum "Si O2"
_cell_formula_units_Z 64
_cell_length_a 12.588107
_cell_length_b 29.204912
_cell_length_c 9.219960
_cell_angle_alpha 90.000000
_cell_angle_beta 90.000000
_cell_angle_gamma 90.000000
_cell_volume 3389.575912
_symmetry_space_group_name_H-M "P B A M"
_symmetry_group_IT_number 55
_symmetry_cell_setting 'orthorhombic'
loop_
_space_group_symop_operation_xyz
x,y,z
-x,-y,z
1/2+x,1/2-y,-z
1/2-x,1/2+y,-z
-x,-y,-z
x,y,-z
1/2-x,1/2+y,z
1/2+x,1/2-y,z
loop_
_atom_site_type_symbol
_atom_site_label
_atom_site_fract_x
_atom_site_fract_y
_atom_site_fract_z
Si Si1 0.122768 0.000406 0.175672
Si Si2 0.998070 0.555270 0.328696
Si Si3 0.792976 0.174739 0.665499
Si Si4 0.300970 0.682826 0.165508
Si Si5 0.718152 0.918120 0.824784
Si Si6 0.778157 0.583752 0.825210
Si Si7 0.589673 0.241107 0.662461
Si Si8 0.902673 0.251400 0.163193
O O1 0.194388 0.043969 0.219499
O O2 0.192499 0.955771 0.212955
O O3 0.117256 0.001891 0.000000
O O4 0.000000 0.000000 0.228078
O O5 0.994419 0.567328 0.500000
O O6 0.106129 0.573713 0.254856
O O7 0.000000 0.500000 0.316790
O O8 0.892018 0.572958 0.248092
O O9 0.818805 0.161938 0.500000
O O10 0.766587 0.131111 0.762654
O O11 0.689225 0.207287 0.662300
O O12 0.879864 0.207486 0.737946
O O13 0.266253 0.631887 0.205658
O O14 0.376270 0.709458 0.276002
O O15 0.196724 0.714747 0.163601
O O16 0.343779 0.682109 0.000000
O O17 0.701636 0.921603 0.000000
O O18 0.789449 0.585053 0.000000
O O19 0.547554 0.244264 0.500000
O O20 0.502251 0.222332 0.771484
O O21 0.922197 0.236419 0.000000
#
# Coordination Sequence:
#
# PCOD9427139 Si02
#       8
#     8   8   8   8   8   8   8   8
#     4   9  19  36  58  85 117 151 190 237 291 347
#     4  11  23  38  58  85 121 158 195 244 298 351
#     4  10  22  39  57  83 118 154 194 238 292 353
#     4   9  20  36  56  84 112 146 191 243 289 337
#     4  10  20  37  60  87 117 152 197 244 293 351
#     4  11  22  37  61  89 117 153 198 244 296 353
#     4  10  21  37  57  81 114 155 191 233 290 349
#     4  10  20  36  57  82 113 149 195 245 289 340
#
# _framework density 18.881419000000001
#
# number of rings (size 3 to 8) (size 9 to 14) (size 15 to 20)
#    0.000    2.000    1.250    1.875    1.750    4.000 
#    0.000    2.500    0.000    3.375    0.000    0.000 
#    0.000    0.000    0.000    0.000    0.000    0.000 
#
# Total GULP energy -357096.128721 kJ/mol
# GULP energy per Si atom -5579.627011 kJ/mol
# Density = 1.883844 g / cm^3
# Si number density = 18.881419 Si / 1000 Ang^3
#
#
#
# Elastic Constant Matrix: (Units=GPa)
#
#
# Indices 1 2 3 4 5 6 
#
# 1 101.2853 25.1328 31.7094 0.0000 0.0000 0.0000
# 2 25.1328 108.1161 29.2072 0.0000 0.0000 0.0000
# 3 31.7094 29.2072 78.4974 0.0000 0.0000 0.0000
# 4 0.0000 0.0000 0.0000 19.3500 0.0000 0.0000
# 5 0.0000 0.0000 0.0000 0.0000 23.5742 0.0000
# 6 0.0000 0.0000 0.0000 0.0000 0.0000 4.0766
#
#
#
# Elastic Compliance Matrix: (Units=1/GPa)
#
#
# Indices 1 2 3 4 5 6 
#
# 1 0.011541 -0.001582 -0.004073 0.000000 0.000000 0.000000
# 2 -0.001582 0.010500 -0.003268 0.000000 0.000000 0.000000
# 3 -0.004073 -0.003268 0.015600 0.000000 0.000000 0.000000
# 4 0.000000 0.000000 0.000000 0.051680 0.000000 0.000000
# 5 0.000000 0.000000 0.000000 0.000000 0.042419 0.000000
# 6 0.000000 0.000000 0.000000 0.000000 0.000000 0.245300
#
#
# Mechanical properties :
#
#
# Convention : Reuss Voigt Hill
#
# Bulk Modulus (GPa) = 50.51815 51.11083 50.81449
# Shear Modulus (GPa) = 12.45378 22.85680 17.65529
#
# Velocity S-wave (km/s) = 2.57101 3.48306 3.06120
# Velocity P-wave (km/s) = 5.96884 6.58056 6.28215
#
# Compressibility (1/GPa) = 0.01979486
#
# Stress axis : x y z
#
# Youngs Moduli (GPa) = 86.64775 95.23908 64.10065
#
# Poissons Ratio (x) = 0.15071 0.26110
# Poissons Ratio (y) = 0.13712 0.20945
# Poissons Ratio (z) = 0.35294 0.31120
#
# Static dielectric constant tensor:
#      x y z
#    x 1.666630 0.000000 0.000000 
#    y 0.000000 1.635360 0.000000 
#    z 0.000000 0.000000 1.646930 
# 
# From -- ./inp_files/4658.got.cif
#   From: 2010.05.17/outbox.cif.g08.bks.cpg/sg55_3_cif.got.tgz:4658.got - 2010.06.03 13:27:54.
