data_PCOD9427403
_publ_section_title
;
Structure prediction by ZEFSAII (Michael W. Deem and Ramdas Pophale) SiO2 
 PCOD9427403
Probable space group: P B A M
;
_chemical_formula_sum "Si O2"
_cell_formula_units_Z 48
_cell_length_a 10.486104
_cell_length_b 28.818398
_cell_length_c 7.781875
_cell_angle_alpha 90.000000
_cell_angle_beta 90.000000
_cell_angle_gamma 90.000000
_cell_volume 2351.625962
_symmetry_space_group_name_H-M "P B A M"
_symmetry_group_IT_number 55
_symmetry_cell_setting 'orthorhombic'
loop_
_space_group_symop_operation_xyz
x,y,z
-x,-y,z
1/2+x,1/2-y,-z
1/2-x,1/2+y,-z
-x,-y,-z
x,y,-z
1/2-x,1/2+y,z
1/2+x,1/2-y,z
loop_
_atom_site_type_symbol
_atom_site_label
_atom_site_fract_x
_atom_site_fract_y
_atom_site_fract_z
Si Si1 0.144151 0.554003 0.707848
Si Si2 0.489761 0.702444 0.699406
Si Si3 0.762218 0.348679 0.201321
Si Si4 0.780294 0.141560 0.300571
Si Si5 0.848770 0.550545 0.289905
Si Si6 0.028836 0.307340 0.199343
O O1 0.147608 0.555675 0.500000
O O2 0.227214 0.596118 0.776850
O O3 0.183192 0.502041 0.761464
O O4 0.995717 0.560325 0.760665
O O5 0.519915 0.712713 0.500000
O O6 0.359303 0.673817 0.710158
O O7 0.603991 0.671225 0.775317
O O8 0.474627 0.751960 0.788315
O O9 0.895776 0.327708 0.268374
O O10 0.753258 0.336792 0.000000
O O11 0.815052 0.133576 0.500000
O O12 0.743147 0.091291 0.226630
O O13 0.651562 0.171773 0.292162
O O14 0.848322 0.551545 0.500000
O O15 0.039632 0.321432 0.000000
#
# Coordination Sequence:
#
# PCOD9427403 Si02
#       6
#     8   8   8   8   8   8
#     4   9  16  31  58  85 110 142 182 230 279 323
#     4  11  24  38  56  81 109 146 186 227 275 326
#     4  11  23  38  56  82 116 151 184 223 273 330
#     4  10  20  37  60  85 111 141 185 233 277 327
#     4   8  15  30  56  87 111 137 179 234 282 320
#     4  11  23  38  57  81 109 145 185 226 275 327
#
# _framework density 20.411411999999999
#
# number of rings (size 3 to 8) (size 9 to 14) (size 15 to 20)
#    0.000    2.000    1.667    3.500    0.000    6.000 
#    0.000    3.333    0.000    5.000    0.000    0.000 
#    0.000    0.000    0.000    0.000    0.000    0.000 
#
# Total GULP energy -268077.329383 kJ/mol
# GULP energy per Si atom -5584.944362 kJ/mol
# Density = 2.036495 g / cm^3
# Si number density = 20.411412 Si / 1000 Ang^3
#
#
#
# Elastic Constant Matrix: (Units=GPa)
#
#
# Indices 1 2 3 4 5 6 
#
# 1 86.9689 42.9749 -9.2155 0.0000 0.0000 0.0000
# 2 42.9749 136.7173 -14.7377 0.0000 0.0000 0.0000
# 3 -9.2155 -14.7377 32.1493 0.0000 0.0000 0.0000
# 4 0.0000 0.0000 0.0000 224.2853 0.0000 0.0000
# 5 0.0000 0.0000 0.0000 0.0000 0.3459 0.0000
# 6 0.0000 0.0000 0.0000 0.0000 0.0000 -16.8572
#
#
#
# Elastic Compliance Matrix: (Units=1/GPa)
#
#
# Indices 1 2 3 4 5 6 
#
# 1 0.013741 -0.004097 0.002061 0.000000 0.000000 0.000000
# 2 -0.004097 0.008916 0.002913 0.000000 0.000000 0.000000
# 3 0.002061 0.002913 0.033031 0.000000 0.000000 0.000000
# 4 0.000000 0.000000 0.000000 0.004459 0.000000 0.000000
# 5 0.000000 0.000000 0.000000 0.000000 2.891342 0.000000
# 6 0.000000 0.000000 0.000000 0.000000 0.000000 -0.059322
#
#
# Mechanical properties :
#
#
# Convention : Reuss Voigt Hill
#
# Bulk Modulus (GPa) = 17.40912 32.65322 25.03117
# Shear Modulus (GPa) = 1.71847 57.34238 29.53043
#
# Velocity S-wave (km/s) = 0.91856 5.30606 3.80776
# Velocity P-wave (km/s) = 3.11008 7.31924 5.62334
#
# Compressibility (1/GPa) = 0.05744117
#
# Stress axis : x y z
#
# Youngs Moduli (GPa) = 72.77315 112.15457 30.27467
#
# Poissons Ratio (x) = 0.45952 -0.06239
# Poissons Ratio (y) = 0.29817 -0.08819
# Poissons Ratio (z) = -0.14996 -0.32669
#
# Static dielectric constant tensor:
#      x y z
#    x 1.697870 0.000000 0.000000 
#    y 0.000000 1.724330 0.000000 
#    z 0.000000 0.000000 0.159990 
# 
# From -- ./inp_files/2822.got.cif
#   From: 2010.05.17/outbox.cif.g08.bks.cpg/sg55_2_cif.got.tgz:2822.got - 2010.06.03 13:27:54.
