data_PCOD9427485
_publ_section_title
;
Structure prediction by ZEFSAII (Michael W. Deem and Ramdas Pophale) SiO2 
 PCOD9427485
Probable space group: P B A M
;
_chemical_formula_sum "Si O2"
_cell_formula_units_Z 52
_cell_length_a 15.763163
_cell_length_b 16.981998
_cell_length_c 8.615579
_cell_angle_alpha 90.000000
_cell_angle_beta 90.000000
_cell_angle_gamma 90.000000
_cell_volume 2306.304364
_symmetry_space_group_name_H-M "P B A M"
_symmetry_group_IT_number 55
_symmetry_cell_setting 'orthorhombic'
loop_
_space_group_symop_operation_xyz
x,y,z
-x,-y,z
1/2+x,1/2-y,-z
1/2-x,1/2+y,-z
-x,-y,-z
x,y,-z
1/2-x,1/2+y,z
1/2+x,1/2-y,z
loop_
_atom_site_type_symbol
_atom_site_label
_atom_site_fract_x
_atom_site_fract_y
_atom_site_fract_z
Si Si1 0.083708 0.916014 0.329653
Si Si2 0.058041 0.922761 0.000000
Si Si3 0.088597 0.698750 0.827184
Si Si4 0.839051 0.917435 0.324160
Si Si5 0.767006 0.199025 0.321089
Si Si6 0.588661 0.955952 0.000000
Si Si7 0.590346 0.240996 0.680074
Si Si8 0.772681 0.980747 0.000000
O O1 0.050873 0.890404 0.500000
O O2 0.179431 0.881147 0.319808
O O3 0.093576 0.010180 0.326425
O O4 0.043222 0.886335 0.169264
O O5 0.156063 0.951396 0.000000
O O6 0.000000 0.000000 0.000000
O O7 0.169049 0.734764 0.740838
O O8 0.092709 0.605052 0.855108
O O9 0.998088 0.720172 0.757692
O O10 0.093933 0.733719 0.000000
O O11 0.798650 0.921602 0.500000
O O12 0.882153 0.832443 0.312942
O O13 0.789489 0.932683 0.161520
O O14 0.752225 0.219552 0.500000
O O15 0.673478 0.197271 0.249519
O O16 0.500000 0.000000 0.000000
O O17 0.674782 0.005728 0.000000
O O18 0.578771 0.219021 0.500000
#
# Coordination Sequence:
#
# PCOD9427485 Si02
#       8
#     8   4   8   8   8   4   8   4
#     4   9  20  38  57  85 127 166 205 256 308 369
#     4  10  22  35  55  92 125 159 205 250 311 385
#     4  10  24  39  60  92 120 163 201 263 312 386
#     4   9  19  36  61  92 124 167 212 254 316 382
#     4  10  21  39  63  89 123 165 209 257 316 384
#     4  10  24  44  64  91 120 162 217 262 325 377
#     4  10  21  39  63  90 123 164 211 262 321 384
#     4  10  20  37  63  87 124 165 206 272 313 376
#
# _framework density 22.546893000000001
#
# number of rings (size 3 to 8) (size 9 to 14) (size 15 to 20)
#    0.462    1.846    0.000    1.385    2.154    5.846 
#    0.000    5.385    0.000    3.231    0.000    0.000 
#    0.000    0.000    0.000    0.000    0.000    0.000 
#
# Total GULP energy -290061.661466 kJ/mol
# GULP energy per Si atom -5578.108874 kJ/mol
# Density = 2.249558 g / cm^3
# Si number density = 22.546893 Si / 1000 Ang^3
#
#
#
# Elastic Constant Matrix: (Units=GPa)
#
#
# Indices 1 2 3 4 5 6 
#
# 1 134.7713 7.8053 40.2277 0.0000 0.0000 0.0000
# 2 7.8053 40.1342 7.8308 0.0000 0.0000 0.0000
# 3 40.2277 7.8308 156.1048 0.0000 0.0000 0.0000
# 4 0.0000 0.0000 0.0000 20.5326 0.0000 0.0000
# 5 0.0000 0.0000 0.0000 0.0000 10.0230 0.0000
# 6 0.0000 0.0000 0.0000 0.0000 0.0000 27.2531
#
#
#
# Elastic Compliance Matrix: (Units=1/GPa)
#
#
# Indices 1 2 3 4 5 6 
#
# 1 0.008093 -0.001179 -0.002026 0.000000 0.000000 0.000000
# 2 -0.001179 0.025334 -0.000967 0.000000 0.000000 0.000000
# 3 -0.002026 -0.000967 0.006977 0.000000 0.000000 0.000000
# 4 0.000000 0.000000 0.000000 0.048703 0.000000 0.000000
# 5 0.000000 0.000000 0.000000 0.000000 0.099771 0.000000
# 6 0.000000 0.000000 0.000000 0.000000 0.000000 0.036693
#
#
# Mechanical properties :
#
#
# Convention : Reuss Voigt Hill
#
# Bulk Modulus (GPa) = 31.19173 49.19312 40.19242
# Shear Modulus (GPa) = 20.44136 29.90481 25.17309
#
# Velocity S-wave (km/s) = 3.01427 3.64584 3.34500
# Velocity P-wave (km/s) = 5.09692 6.29193 5.72569
#
# Compressibility (1/GPa) = 0.03205978
#
# Stress axis : x y z
#
# Youngs Moduli (GPa) = 123.56191 39.47212 143.33473
#
# Poissons Ratio (x) = 0.04652 0.29046
# Poissons Ratio (y) = 0.14563 0.13863
# Poissons Ratio (z) = 0.25039 0.03818
#
# Static dielectric constant tensor:
#      x y z
#    x 1.873120 0.000000 0.000000 
#    y 0.000000 1.868190 0.000000 
#    z 0.000000 0.000000 1.909030 
# 
# From -- ./inp_files/5964.got.cif
#   From: 2010.05.17/outbox.cif.g08.bks.cpg/sg55_3_cif.got.tgz:5964.got - 2010.06.03 13:27:54.
