data_PCOD9427830
_publ_section_title
;
Structure prediction by ZEFSAII (Michael W. Deem and Ramdas Pophale) SiO2 
 PCOD9427830
Probable space group: P B A M
;
_chemical_formula_sum "Si O2"
_cell_formula_units_Z 64
_cell_length_a 11.900756
_cell_length_b 34.280931
_cell_length_c 8.767639
_cell_angle_alpha 90.000000
_cell_angle_beta 90.000000
_cell_angle_gamma 90.000000
_cell_volume 3576.924874
_symmetry_space_group_name_H-M "P B A M"
_symmetry_group_IT_number 55
_symmetry_cell_setting 'orthorhombic'
loop_
_space_group_symop_operation_xyz
x,y,z
-x,-y,z
1/2+x,1/2-y,-z
1/2-x,1/2+y,-z
-x,-y,-z
x,y,-z
1/2-x,1/2+y,z
1/2+x,1/2-y,z
loop_
_atom_site_type_symbol
_atom_site_label
_atom_site_fract_x
_atom_site_fract_y
_atom_site_fract_z
Si Si1 0.679024 0.829687 0.816355
Si Si2 0.313216 0.592984 0.816478
Si Si3 0.838342 0.470287 0.683871
Si Si4 0.466739 0.361745 0.815789
Si Si5 0.053961 0.300728 0.317638
Si Si6 0.085087 0.444778 0.314543
Si Si7 0.720095 0.131544 0.315557
Si Si8 0.401877 0.716076 0.183501
O O1 0.728303 0.871922 0.771858
O O2 0.562250 0.819102 0.740350
O O3 0.776606 0.798631 0.776385
O O4 0.666903 0.829275 0.000000
O O5 0.266399 0.553121 0.749205
O O6 0.437361 0.607124 0.769206
O O7 0.312664 0.591015 0.000000
O O8 0.834449 0.469145 0.500000
O O9 0.850627 0.515504 0.730384
O O10 0.955259 0.449488 0.733458
O O11 0.345603 0.369635 0.747191
O O12 0.513963 0.318960 0.771456
O O13 0.460773 0.362378 0.000000
O O14 0.052781 0.299753 0.500000
O O15 0.155434 0.329120 0.268085
O O16 0.068888 0.257315 0.254847
O O17 0.083325 0.444257 0.500000
O O18 0.147064 0.405762 0.263284
O O19 0.723694 0.130719 0.500000
O O20 0.406881 0.719194 0.000000
#
# Coordination Sequence:
#
# PCOD9427830 Si02
#       8
#     8   8   8   8   8   8   8   8
#     4   9  19  36  55  74  99 134 173 209 252 312
#     4   9  18  34  54  77 104 132 170 221 264 299
#     4   9  16  30  56  81 103 137 177 212 255 313
#     4   9  20  38  56  73  99 139 180 215 255 309
#     4  11  23  34  51  80 108 131 164 217 270 309
#     4   8  16  32  52  77 109 141 172 210 256 312
#     4  10  21  36  52  75 108 140 170 212 263 311
#     4   9  20  38  56  73  97 134 178 215 251 306
#
# _framework density 17.892464
#
# number of rings (size 3 to 8) (size 9 to 14) (size 15 to 20)
#    0.000    2.750    0.000    3.375    1.750    4.000 
#    0.000    5.625    0.000    3.750    0.000    0.000 
#    0.000    0.000    0.000    0.000    0.000    0.000 
#
# Total GULP energy -356969.845083 kJ/mol
# GULP energy per Si atom -5577.653829 kJ/mol
# Density = 1.785174 g / cm^3
# Si number density = 17.892464 Si / 1000 Ang^3
#
#
#
# Elastic Constant Matrix: (Units=GPa)
#
#
# Indices 1 2 3 4 5 6 
#
# 1 75.1599 35.0302 11.6954 0.0000 0.0000 0.0000
# 2 35.0302 76.8993 12.3924 0.0000 0.0000 0.0000
# 3 11.6954 12.3924 5.7843 0.0000 0.0000 0.0000
# 4 0.0000 0.0000 0.0000 27.3258 0.0000 0.0000
# 5 0.0000 0.0000 0.0000 0.0000 38.0138 0.0000
# 6 0.0000 0.0000 0.0000 0.0000 0.0000 15.3313
#
#
#
# Elastic Compliance Matrix: (Units=1/GPa)
#
#
# Indices 1 2 3 4 5 6 
#
# 1 0.020187 -0.003999 -0.032250 0.000000 0.000000 0.000000
# 2 -0.003999 0.020653 -0.036164 0.000000 0.000000 0.000000
# 3 -0.032250 -0.036164 0.315570 0.000000 0.000000 0.000000
# 4 0.000000 0.000000 0.000000 0.036595 0.000000 0.000000
# 5 0.000000 0.000000 0.000000 0.000000 0.026306 0.000000
# 6 0.000000 0.000000 0.000000 0.000000 0.000000 0.065226
#
#
# Mechanical properties :
#
#
# Convention : Reuss Voigt Hill
#
# Bulk Modulus (GPa) = 4.72622 30.67552 17.70087
# Shear Modulus (GPa) = 7.14397 22.71587 14.92992
#
# Velocity S-wave (km/s) = 2.00035 3.56698 2.89178
# Velocity P-wave (km/s) = 2.82531 5.84346 4.58958
#
# Compressibility (1/GPa) = 0.21158542
#
# Stress axis : x y z
#
# Youngs Moduli (GPa) = 49.53674 48.41817 3.16887
#
# Poissons Ratio (x) = 0.19361 0.10220
# Poissons Ratio (y) = 0.19808 0.11460
# Poissons Ratio (z) = 1.59756 1.75097
#
# Static dielectric constant tensor:
#      x y z
#    x 1.591430 0.000000 0.000000 
#    y 0.000000 1.612230 0.000000 
#    z 0.000000 0.000000 1.603570 
# 
# From -- ./inp_files/4609.got.cif
#   From: 2010.05.17/outbox.cif.g08.bks.cpg/sg55_3_cif.got.tgz:4609.got - 2010.06.03 13:27:54.
