data_PCOD9427806
_publ_section_title
;
Structure prediction by ZEFSAII (Michael W. Deem and Ramdas Pophale) SiO2 
 PCOD9427806
Probable space group: P B A M
;
_chemical_formula_sum "Si O2"
_cell_formula_units_Z 52
_cell_length_a 23.199621
_cell_length_b 5.237870
_cell_length_c 22.208894
_cell_angle_alpha 90.000000
_cell_angle_beta 90.000000
_cell_angle_gamma 90.000000
_cell_volume 2698.749263
_symmetry_space_group_name_H-M "P B A M"
_symmetry_group_IT_number 55
_symmetry_cell_setting 'orthorhombic'
loop_
_space_group_symop_operation_xyz
x,y,z
-x,-y,z
1/2+x,1/2-y,-z
1/2-x,1/2+y,-z
-x,-y,-z
x,y,-z
1/2-x,1/2+y,z
1/2+x,1/2-y,z
loop_
_atom_site_type_symbol
_atom_site_label
_atom_site_fract_x
_atom_site_fract_y
_atom_site_fract_z
Si Si1 0.709166 0.925477 0.698852
Si Si2 0.628283 0.098730 0.000000
Si Si3 0.189264 0.924739 0.000000
Si Si4 0.058105 0.385703 0.885154
Si Si5 0.000000 0.000000 0.207536
Si Si6 0.215927 0.909339 0.859215
Si Si7 0.385886 0.257825 0.789515
Si Si8 0.211485 0.633645 0.564910
O O1 0.754167 0.686997 0.705874
O O2 0.654982 0.888426 0.742861
O O3 0.684398 0.909236 0.630338
O O4 0.685747 0.264159 0.000000
O O5 0.596642 0.197416 0.940462
O O6 0.638505 0.795948 0.000000
O O7 0.210046 0.889694 0.068770
O O8 0.033546 0.188653 0.837185
O O9 0.093271 0.586632 0.845502
O O10 0.000000 0.500000 0.913761
O O11 0.054261 0.862295 0.239169
O O12 0.240809 0.633657 0.841978
O O13 0.156721 0.957428 0.823082
O O14 0.180588 0.600995 0.500000
O O15 0.261511 0.417152 0.564892
#
# Coordination Sequence:
#
# PCOD9427806 Si02
#       8
#     8   4   4   8   4   8   8   8
#     4  10  21  35  56  88 120 155 192 230 276 338
#     4  12  23  40  64  80 104 136 174 237 280 342
#     4  12  24  41  58  80 108 139 177 214 275 348
#     4  10  23  40  58  82 102 138 182 235 289 335
#     4  10  24  41  62  80 109 146 188 242 290 336
#     4  12  25  40  61  81 109 145 178 224 278 341
#     4  11  23  39  59  82 113 145 190 233 285 340
#     4   8  14  27  48  77 116 154 187 225 271 321
#
# _framework density 19.268183000000001
#
# number of rings (size 3 to 8) (size 9 to 14) (size 15 to 20)
#    0.000    1.538    1.538    3.462    6.462    0.308 
#    0.000    0.000    0.000    0.000    0.000    0.538 
#    0.000    5.538    0.000    0.154    0.000    0.000 
#
# Total GULP energy -289623.715536 kJ/mol
# GULP energy per Si atom -5569.686837 kJ/mol
# Density = 1.922433 g / cm^3
# Si number density = 19.268183 Si / 1000 Ang^3
#
#
#
# Elastic Constant Matrix: (Units=GPa)
#
#
# Indices 1 2 3 4 5 6 
#
# 1 71.1710 8.6611 31.5008 0.0000 0.0000 0.0000
# 2 8.6611 48.9036 -10.2054 0.0000 0.0000 0.0000
# 3 31.5008 -10.2054 101.4922 0.0000 0.0000 0.0000
# 4 0.0000 0.0000 0.0000 14.7394 0.0000 0.0000
# 5 0.0000 0.0000 0.0000 0.0000 128.9547 0.0000
# 6 0.0000 0.0000 0.0000 0.0000 0.0000 25.7253
#
#
#
# Elastic Compliance Matrix: (Units=1/GPa)
#
#
# Indices 1 2 3 4 5 6 
#
# 1 0.017102 -0.004225 -0.005733 0.000000 0.000000 0.000000
# 2 -0.004225 0.021931 0.003517 0.000000 0.000000 0.000000
# 3 -0.005733 0.003517 0.011986 0.000000 0.000000 0.000000
# 4 0.000000 0.000000 0.000000 0.067845 0.000000 0.000000
# 5 0.000000 0.000000 0.000000 0.000000 0.007755 0.000000
# 6 0.000000 0.000000 0.000000 0.000000 0.000000 0.038872
#
#
# Mechanical properties :
#
#
# Convention : Reuss Voigt Hill
#
# Bulk Modulus (GPa) = 26.22230 31.27554 28.74892
# Shear Modulus (GPa) = 26.16615 46.65790 36.41202
#
# Velocity S-wave (km/s) = 3.68910 4.92621 4.35184
# Velocity P-wave (km/s) = 5.63778 6.97307 6.34067
#
# Compressibility (1/GPa) = 0.03813549
#
# Stress axis : x y z
#
# Youngs Moduli (GPa) = 58.47148 45.59840 83.43069
#
# Poissons Ratio (x) = 0.19267 0.47831
# Poissons Ratio (y) = 0.24706 -0.29340
# Poissons Ratio (z) = 0.33522 -0.16035
#
# Static dielectric constant tensor:
#      x y z
#    x 0.951460 0.000000 0.000000 
#    y 0.000000 1.927040 0.000000 
#    z 0.000000 0.000000 1.698900 
# 
# From -- ./inp_files/22367.got.cif
#   From: 2010.05.17/outbox.cif.g08.bks.cpg/sg55_12_cif.got.tgz:22367.got - 2010.06.03 13:27:54.
