data_PCOD9427903
_publ_section_title
;
Structure prediction by ZEFSAII (Michael W. Deem and Ramdas Pophale) SiO2 
 PCOD9427903
Probable space group: P B A M
;
_chemical_formula_sum "Si O2"
_cell_formula_units_Z 48
_cell_length_a 13.917142
_cell_length_b 8.914007
_cell_length_c 16.978447
_cell_angle_alpha 90.000000
_cell_angle_beta 90.000000
_cell_angle_gamma 90.000000
_cell_volume 2106.303709
_symmetry_space_group_name_H-M "P B A M"
_symmetry_group_IT_number 55
_symmetry_cell_setting 'orthorhombic'
loop_
_space_group_symop_operation_xyz
x,y,z
-x,-y,z
1/2+x,1/2-y,-z
1/2-x,1/2+y,-z
-x,-y,-z
x,y,-z
1/2-x,1/2+y,z
1/2+x,1/2-y,z
loop_
_atom_site_type_symbol
_atom_site_label
_atom_site_fract_x
_atom_site_fract_y
_atom_site_fract_z
Si Si1 0.019270 0.324737 0.083293
Si Si2 0.928239 0.859357 0.653375
Si Si3 0.168609 0.176812 0.182243
Si Si4 0.265724 0.467669 0.588931
Si Si5 0.608248 0.812503 0.403193
Si Si6 0.825243 0.137600 0.091600
O O1 0.083315 0.283939 0.155438
O O2 0.000000 0.500000 0.083228
O O3 0.924878 0.225329 0.086307
O O4 0.069452 0.286867 0.000000
O O5 0.855965 0.846103 0.727109
O O6 0.851552 0.908758 0.587479
O O7 0.002531 0.726322 0.630707
O O8 0.000000 0.000000 0.667979
O O9 0.261380 0.262518 0.150332
O O10 0.163099 0.022826 0.132860
O O11 0.240678 0.426283 0.500000
O O12 0.167484 0.539025 0.622430
O O13 0.319709 0.322696 0.623207
O O14 0.601413 0.810549 0.500000
O O15 0.790170 0.122237 0.000000
#
# Coordination Sequence:
#
# PCOD9427903 Si02
#       6
#     8   8   8   8   8   8
#     4  10  21  39  62  87 116 152 197 246 298 362
#     4  10  21  36  57  85 121 159 197 241 296 357
#     4  12  24  39  61  89 121 156 198 249 308 365
#     4   9  18  34  58  85 115 156 201 241 284 343
#     4   9  18  36  61  87 116 154 200 244 289 346
#     4  11  23  40  63  88 117 156 202 252 305 366
#
# _framework density 22.788737000000001
#
# number of rings (size 3 to 8) (size 9 to 14) (size 15 to 20)
#    0.000    1.833    0.000    4.500    0.000    8.667 
#    0.000    2.500    0.000    6.000    0.000    0.000 
#    0.000    0.000    0.000    0.000    0.000    0.000 
#
# Total GULP energy -267746.959406 kJ/mol
# GULP energy per Si atom -5578.061654 kJ/mol
# Density = 2.273687 g / cm^3
# Si number density = 22.788737 Si / 1000 Ang^3
#
#
#
# Elastic Constant Matrix: (Units=GPa)
#
#
# Indices 1 2 3 4 5 6 
#
# 1 96.8628 40.7925 38.5001 0.0000 0.0000 0.0000
# 2 40.7925 92.6123 34.1963 0.0000 0.0000 0.0000
# 3 38.5001 34.1963 111.2518 0.0000 0.0000 0.0000
# 4 0.0000 0.0000 0.0000 8.4629 0.0000 0.0000
# 5 0.0000 0.0000 0.0000 0.0000 33.0076 0.0000
# 6 0.0000 0.0000 0.0000 0.0000 0.0000 39.1373
#
#
#
# Elastic Compliance Matrix: (Units=1/GPa)
#
#
# Indices 1 2 3 4 5 6 
#
# 1 0.013638 -0.004810 -0.003241 0.000000 0.000000 0.000000
# 2 -0.004810 0.013877 -0.002601 0.000000 0.000000 0.000000
# 3 -0.003241 -0.002601 0.010910 0.000000 0.000000 0.000000
# 4 0.000000 0.000000 0.000000 0.118163 0.000000 0.000000
# 5 0.000000 0.000000 0.000000 0.000000 0.030296 0.000000
# 6 0.000000 0.000000 0.000000 0.000000 0.000000 0.025551
#
#
# Mechanical properties :
#
#
# Convention : Reuss Voigt Hill
#
# Bulk Modulus (GPa) = 58.41050 58.63385 58.52217
# Shear Modulus (GPa) = 20.88161 28.60407 24.74284
#
# Velocity S-wave (km/s) = 3.03035 3.54670 3.29864
# Velocity P-wave (km/s) = 6.15881 6.52360 6.34383
#
# Compressibility (1/GPa) = 0.01712021
#
# Stress axis : x y z
#
# Youngs Moduli (GPa) = 73.32517 72.06287 91.66230
#
# Poissons Ratio (x) = 0.34664 0.29708
# Poissons Ratio (y) = 0.35272 0.23839
# Poissons Ratio (z) = 0.23765 0.18742
#
# Static dielectric constant tensor:
#      x y z
#    x 1.847960 0.000000 0.000000 
#    y 0.000000 1.889040 0.000000 
#    z 0.000000 0.000000 1.803860 
# 
# From -- ./inp_files/21512.got.cif
#   From: 2010.05.17/outbox.cif.g08.bks.cpg/sg55_11_cif.got.tgz:21512.got - 2010.06.03 13:27:54.
