data_PCOD9427972
_publ_section_title
;
Structure prediction by ZEFSAII (Michael W. Deem and Ramdas Pophale) SiO2 
 PCOD9427972
Probable space group: P B A M
;
_chemical_formula_sum "Si O2"
_cell_formula_units_Z 40
_cell_length_a 7.921707
_cell_length_b 23.884702
_cell_length_c 9.399262
_cell_angle_alpha 90.000000
_cell_angle_beta 90.000000
_cell_angle_gamma 90.000000
_cell_volume 1778.411908
_symmetry_space_group_name_H-M "P B A M"
_symmetry_group_IT_number 55
_symmetry_cell_setting 'orthorhombic'
loop_
_space_group_symop_operation_xyz
x,y,z
-x,-y,z
1/2+x,1/2-y,-z
1/2-x,1/2+y,-z
-x,-y,-z
x,y,-z
1/2-x,1/2+y,z
1/2+x,1/2-y,z
loop_
_atom_site_type_symbol
_atom_site_label
_atom_site_fract_x
_atom_site_fract_y
_atom_site_fract_z
Si Si1 0.977349 0.724666 0.163772
Si Si2 0.322224 0.066825 0.662982
Si Si3 0.819900 0.031034 0.835409
Si Si4 0.661898 0.337565 0.163073
Si Si5 0.314236 0.871346 0.336531
O O1 0.973770 0.790239 0.201200
O O2 0.861227 0.687610 0.265783
O O3 0.162541 0.697728 0.165401
O O4 0.915611 0.720758 0.000000
O O5 0.280459 0.053037 0.500000
O O6 0.305462 0.011934 0.757941
O O7 0.194949 0.112359 0.729530
O O8 0.506913 0.094719 0.666023
O O9 0.809925 0.090315 0.756104
O O10 0.775140 0.038920 0.000000
O O11 0.000000 0.000000 0.826831
O O12 0.634998 0.358015 0.000000
O O13 0.260064 0.865973 0.500000
#
# Coordination Sequence:
#
# PCOD9427972 Si02
#       5
#     8   8   8   8   8
#     4   9  18  33  53  77 106 141 180 220 261 308
#     4  10  21  37  57  81 109 142 180 220 265 320
#     4  11  24  39  56  80 108 139 178 223 270 320
#     4   9  18  33  53  77 106 141 180 220 261 308
#     4  10  21  37  57  81 109 142 180 220 265 320
#
# _framework density 22.491976999999999
#
# number of rings (size 3 to 8) (size 9 to 14) (size 15 to 20)
#    0.000    2.200    0.000    2.400    0.000    8.800 
#    0.000    4.000    0.000    0.000    0.000    0.000 
#    0.000    0.000    0.000    0.000    0.000    0.000 
#
# Total GULP energy -223775.885122 kJ/mol
# GULP energy per Si atom -5594.397128 kJ/mol
# Density = 2.244078 g / cm^3
# Si number density = 22.491977 Si / 1000 Ang^3
#
#
#
# Elastic Constant Matrix: (Units=GPa)
#
#
# Indices 1 2 3 4 5 6 
#
# 1 52.8962 3.0337 29.7353 0.0000 0.0000 0.0000
# 2 3.0337 70.4687 30.5510 0.0000 0.0000 0.0000
# 3 29.7353 30.5510 110.2077 0.0000 0.0000 0.0000
# 4 0.0000 0.0000 0.0000 15.1191 0.0000 0.0000
# 5 0.0000 0.0000 0.0000 0.0000 12.1647 0.0000
# 6 0.0000 0.0000 0.0000 0.0000 0.0000 37.7221
#
#
#
# Elastic Compliance Matrix: (Units=1/GPa)
#
#
# Indices 1 2 3 4 5 6 
#
# 1 0.022504 0.001891 -0.006596 0.000000 0.000000 0.000000
# 2 0.001891 0.016288 -0.005025 0.000000 0.000000 0.000000
# 3 -0.006596 -0.005025 0.012247 0.000000 0.000000 0.000000
# 4 0.000000 0.000000 0.000000 0.066141 0.000000 0.000000
# 5 0.000000 0.000000 0.000000 0.000000 0.082205 0.000000
# 6 0.000000 0.000000 0.000000 0.000000 0.000000 0.026510
#
#
# Mechanical properties :
#
#
# Convention : Reuss Voigt Hill
#
# Bulk Modulus (GPa) = 31.66791 40.02362 35.84577
# Shear Modulus (GPa) = 19.54024 24.35136 21.94580
#
# Velocity S-wave (km/s) = 2.95068 3.29396 3.12704
# Velocity P-wave (km/s) = 5.07138 5.68332 5.38605
#
# Compressibility (1/GPa) = 0.03157770
#
# Stress axis : x y z
#
# Youngs Moduli (GPa) = 44.43560 61.39480 81.65533
#
# Poissons Ratio (x) = -0.11609 0.53861
# Poissons Ratio (y) = -0.08402 0.41035
# Poissons Ratio (z) = 0.29310 0.30853
#
# Static dielectric constant tensor:
#      x y z
#    x 1.897630 0.000000 0.000000 
#    y 0.000000 1.821150 0.000000 
#    z 0.000000 0.000000 1.772290 
# 
# From -- ./inp_files/2273.got.cif
#   From: 2010.05.17/outbox.cif.g08.bks.cpg/sg55_2_cif.got.tgz:2273.got - 2010.06.03 13:27:54.
