data_PCOD9427744
_publ_section_title
;
Structure prediction by ZEFSAII (Michael W. Deem and Ramdas Pophale) SiO2 
 PCOD9427744
Probable space group: P B A M
;
_chemical_formula_sum "Si O2"
_cell_formula_units_Z 44
_cell_length_a 5.276201
_cell_length_b 31.391607
_cell_length_c 14.770136
_cell_angle_alpha 90.000000
_cell_angle_beta 90.000000
_cell_angle_gamma 90.000000
_cell_volume 2446.354411
_symmetry_space_group_name_H-M "P B A M"
_symmetry_group_IT_number 55
_symmetry_cell_setting 'orthorhombic'
loop_
_space_group_symop_operation_xyz
x,y,z
-x,-y,z
1/2+x,1/2-y,-z
1/2-x,1/2+y,-z
-x,-y,-z
x,y,-z
1/2-x,1/2+y,z
1/2+x,1/2-y,z
loop_
_atom_site_type_symbol
_atom_site_label
_atom_site_fract_x
_atom_site_fract_y
_atom_site_fract_z
Si Si1 0.284432 0.400473 0.900837
Si Si2 0.715416 0.957892 0.903450
Si Si3 0.155516 0.629280 0.608619
Si Si4 0.664127 0.594046 0.697600
Si Si5 0.000000 0.000000 0.751364
Si Si6 0.019380 0.725996 0.389928
O O1 0.549598 0.425441 0.903770
O O2 0.292432 0.384342 0.797067
O O3 0.042209 0.431678 0.899261
O O4 0.266141 0.377378 0.000000
O O5 0.731653 0.981193 0.000000
O O6 0.771289 0.987002 0.818268
O O7 0.170929 0.627043 0.500000
O O8 0.425813 0.616567 0.649967
O O9 0.081474 0.677600 0.634995
O O10 0.926603 0.599932 0.644358
O O11 0.586749 0.543787 0.703809
O O12 0.015375 0.727145 0.500000
O O13 0.247153 0.756787 0.359435
#
# Coordination Sequence:
#
# PCOD9427744 Si02
#       6
#     8   8   8   8   4   8
#     4   9  18  32  50  74 102 132 170 221 275 321
#     4   9  17  29  47  70  95 127 172 227 285 324
#     4  11  23  39  56  78 109 140 173 216 263 310
#     4  11  22  36  53  75 106 146 186 223 262 299
#     4  10  21  34  49  70 100 146 196 232 252 296
#     4   9  17  32  57  84 105 125 152 199 271 342
#
# _framework density 17.985948
#
# number of rings (size 3 to 8) (size 9 to 14) (size 15 to 20)
#    0.000    2.182    0.000    4.091    0.000   10.182 
#    0.000   10.909    0.000    0.000    0.000    0.000 
#    0.000   14.545    0.000    0.000    0.000    0.000 
#
# Total GULP energy -245077.866926 kJ/mol
# GULP energy per Si atom -5569.951521 kJ/mol
# Density = 1.794501 g / cm^3
# Si number density = 17.985948 Si / 1000 Ang^3
#
#
#
# Elastic Constant Matrix: (Units=GPa)
#
#
# Indices 1 2 3 4 5 6 
#
# 1 93.1994 -10.6737 23.8839 0.0000 0.0000 0.0000
# 2 -10.6737 31.3994 17.0957 0.0000 0.0000 0.0000
# 3 23.8839 17.0957 86.4041 0.0000 0.0000 0.0000
# 4 0.0000 0.0000 0.0000 -7.4047 0.0000 0.0000
# 5 0.0000 0.0000 0.0000 0.0000 -78.5940 0.0000
# 6 0.0000 0.0000 0.0000 0.0000 0.0000 19.3636
#
#
#
# Elastic Compliance Matrix: (Units=1/GPa)
#
#
# Indices 1 2 3 4 5 6 
#
# 1 0.012799 0.007035 -0.004930 0.000000 0.000000 0.000000
# 2 0.007035 0.039559 -0.009772 0.000000 0.000000 0.000000
# 3 -0.004930 -0.009772 0.014870 0.000000 0.000000 0.000000
# 4 0.000000 0.000000 0.000000 -0.135050 0.000000 0.000000
# 5 0.000000 0.000000 0.000000 0.000000 -0.012724 0.000000
# 6 0.000000 0.000000 0.000000 0.000000 0.000000 0.051643
#
#
# Mechanical properties :
#
#
# Convention : Reuss Voigt Hill
#
# Bulk Modulus (GPa) = 19.26995 30.17941 24.72468
# Shear Modulus (GPa) = 1340.86614 -1.28054 669.79280
#
# Velocity S-wave (km/s) = 27.33361 -0.84470 19.31855
# Velocity P-wave (km/s) = 31.73177 3.98303 22.61382
#
# Compressibility (1/GPa) = 0.05189428
#
# Stress axis : x y z
#
# Youngs Moduli (GPa) = 78.13331 25.27850 67.25139
#
# Poissons Ratio (x) = -0.17783 0.33153
# Poissons Ratio (y) = -0.54964 0.65716
# Poissons Ratio (z) = 0.38517 0.24701
#
# Static dielectric constant tensor:
#      x y z
#    x 1.630410 0.000000 0.000000 
#    y 0.000000 1.622000 0.000000 
#    z 0.000000 0.000000 1.682010 
# 
# From -- ./inp_files/16710.got.cif
#   From: 2010.05.17/outbox.cif.g08.bks.cpg/sg55_9_cif.got.tgz:16710.got - 2010.06.03 13:27:54.
