data_PCOD9427297
_publ_section_title
;
Structure prediction by ZEFSAII (Michael W. Deem and Ramdas Pophale) SiO2 
 PCOD9427297
Probable space group: P B A M
;
_chemical_formula_sum "Si O2"
_cell_formula_units_Z 64
_cell_length_a 8.652853
_cell_length_b 23.218470
_cell_length_c 13.195045
_cell_angle_alpha 90.000000
_cell_angle_beta 90.000000
_cell_angle_gamma 90.000000
_cell_volume 2650.963814
_symmetry_space_group_name_H-M "P B A M"
_symmetry_group_IT_number 55
_symmetry_cell_setting 'orthorhombic'
loop_
_space_group_symop_operation_xyz
x,y,z
-x,-y,z
1/2+x,1/2-y,-z
1/2-x,1/2+y,-z
-x,-y,-z
x,y,-z
1/2-x,1/2+y,z
1/2+x,1/2-y,z
loop_
_atom_site_type_symbol
_atom_site_label
_atom_site_fract_x
_atom_site_fract_y
_atom_site_fract_z
Si Si1 0.910449 0.380202 0.886095
Si Si2 0.056775 0.438985 0.385009
Si Si3 0.815152 0.871968 0.697113
Si Si4 0.271425 0.946353 0.114190
Si Si5 0.680114 0.497634 0.681877
Si Si6 0.955947 0.311743 0.617927
Si Si7 0.085841 0.834571 0.819829
Si Si8 0.408824 0.769956 0.183187
O O1 0.775872 0.379843 0.803777
O O2 0.051873 0.425139 0.867963
O O3 0.996123 0.318669 0.875963
O O4 0.853639 0.388848 0.000000
O O5 0.001273 0.438934 0.500000
O O6 0.237967 0.451566 0.378573
O O7 0.000000 0.500000 0.337038
O O8 0.025136 0.374630 0.348875
O O9 0.726154 0.822121 0.636873
O O10 0.993532 0.860391 0.722694
O O11 0.780447 0.933283 0.645054
O O12 0.223875 0.990726 0.200786
O O13 0.159237 0.890272 0.125434
O O14 0.259914 0.968550 0.000000
O O15 0.500000 0.500000 0.673067
O O16 0.988692 0.300257 0.500000
O O17 0.025269 0.269685 0.701523
O O18 0.232859 0.791562 0.810600
O O19 0.952220 0.791975 0.863273
#
# Coordination Sequence:
#
# PCOD9427297 Si02
#       8
#     8   8   8   8   8   8   8   8
#     4   9  20  38  60  88 117 154 203 254 304 363
#     4  10  20  36  61  90 123 163 210 252 295 355
#     4  11  22  37  61  89 124 164 205 251 304 371
#     4  10  23  41  61  90 128 164 208 259 310 371
#     4  12  23  37  59  88 128 170 207 246 311 361
#     4  10  21  40  64  94 127 162 204 256 307 363
#     4  11  22  42  62  89 119 161 201 258 312 368
#     4  10  21  39  67  86 119 155 204 254 311 372
#
# _framework density 24.142163
#
# number of rings (size 3 to 8) (size 9 to 14) (size 15 to 20)
#    0.000    1.625    2.500    3.750    0.000    2.000 
#    0.000    6.875    0.000    0.750    0.000    0.000 
#    0.000    0.000    0.000    0.000    0.000    0.000 
#
# Total GULP energy -357329.220800 kJ/mol
# GULP energy per Si atom -5583.269075 kJ/mol
# Density = 2.408721 g / cm^3
# Si number density = 24.142163 Si / 1000 Ang^3
#
#
#
# Elastic Constant Matrix: (Units=GPa)
#
#
# Indices 1 2 3 4 5 6 
#
# 1 69.0064 17.6997 42.6351 0.0000 0.0000 0.0000
# 2 17.6997 91.9986 -4.9008 0.0000 0.0000 0.0000
# 3 42.6351 -4.9008 67.5139 0.0000 0.0000 0.0000
# 4 0.0000 0.0000 0.0000 10.0000 0.0000 0.0000
# 5 0.0000 0.0000 0.0000 0.0000 18.6830 0.0000
# 6 0.0000 0.0000 0.0000 0.0000 0.0000 25.5597
#
#
#
# Elastic Compliance Matrix: (Units=1/GPa)
#
#
# Indices 1 2 3 4 5 6 
#
# 1 0.026764 -0.006073 -0.017342 0.000000 0.000000 0.000000
# 2 -0.006073 0.012290 0.004727 0.000000 0.000000 0.000000
# 3 -0.017342 0.004727 0.026107 0.000000 0.000000 0.000000
# 4 0.000000 0.000000 0.000000 0.100000 0.000000 0.000000
# 5 0.000000 0.000000 0.000000 0.000000 0.053525 0.000000
# 6 0.000000 0.000000 0.000000 0.000000 0.000000 0.039124
#
#
# Mechanical properties :
#
#
# Convention : Reuss Voigt Hill
#
# Bulk Modulus (GPa) = 35.99149 37.70966 36.85058
# Shear Modulus (GPa) = 16.42326 22.38752 19.40539
#
# Velocity S-wave (km/s) = 2.61103 3.04850 2.83821
# Velocity P-wave (km/s) = 4.90209 5.29574 5.10271
#
# Compressibility (1/GPa) = 0.02778434
#
# Stress axis : x y z
#
# Youngs Moduli (GPa) = 37.36385 81.36745 38.30461
#
# Poissons Ratio (x) = 0.49414 0.66429
# Poissons Ratio (y) = 0.22691 -0.18107
# Poissons Ratio (z) = 0.64797 -0.38464
#
# Static dielectric constant tensor:
#      x y z
#    x 2.013760 0.000000 0.000000 
#    y 0.000000 1.982440 0.000000 
#    z 0.000000 0.000000 1.929460 
# 
# From -- ./inp_files/17806.got.cif
#   From: 2010.05.17/outbox.cif.g08.bks.cpg/sg55_9_cif.got.tgz:17806.got - 2010.06.03 13:27:54.
