data_PCOD9427026
_publ_section_title
;
Structure prediction by ZEFSAII (Michael W. Deem and Ramdas Pophale) SiO2 
 PCOD9427026
Probable space group: P B A M
;
_chemical_formula_sum "Si O2"
_cell_formula_units_Z 48
_cell_length_a 27.534813
_cell_length_b 10.607974
_cell_length_c 8.504998
_cell_angle_alpha 90.000000
_cell_angle_beta 90.000000
_cell_angle_gamma 90.000000
_cell_volume 2484.212792
_symmetry_space_group_name_H-M "P B A M"
_symmetry_group_IT_number 55
_symmetry_cell_setting 'orthorhombic'
loop_
_space_group_symop_operation_xyz
x,y,z
-x,-y,z
1/2+x,1/2-y,-z
1/2-x,1/2+y,-z
-x,-y,-z
x,y,-z
1/2-x,1/2+y,z
1/2+x,1/2-y,z
loop_
_atom_site_type_symbol
_atom_site_label
_atom_site_fract_x
_atom_site_fract_y
_atom_site_fract_z
Si Si1 0.696147 0.875589 0.311417
Si Si2 0.472546 0.373545 0.808154
Si Si3 0.305895 0.624585 0.188605
Si Si4 0.139806 0.372055 0.688396
Si Si5 0.639646 0.631066 0.190381
Si Si6 0.030169 0.376529 0.809660
O O1 0.697026 0.874157 0.500000
O O2 0.751004 0.874048 0.249725
O O3 0.667336 0.753468 0.252079
O O4 0.668823 0.003020 0.258596
O O5 0.500000 0.500000 0.756310
O O6 0.416513 0.370398 0.757827
O O7 0.501695 0.249190 0.758981
O O8 0.472384 0.374553 0.000000
O O9 0.334474 0.747150 0.247098
O O10 0.333174 0.496807 0.240414
O O11 0.305387 0.625902 0.000000
O O12 0.141041 0.368515 0.500000
O O13 0.084462 0.378622 0.745096
O O14 0.640158 0.634698 0.000000
O O15 0.000000 0.500000 0.761757
O O16 0.032722 0.375640 0.000000
#
# Coordination Sequence:
#
# PCOD9427026 Si02
#       6
#     8   8   8   8   8   8
#     4  11  24  40  58  83 117 155 192 233 286 345
#     4   9  17  32  55  83 113 143 181 232 285 333
#     4  11  23  39  62  89 114 146 192 242 290 343
#     4  11  24  40  59  85 120 159 194 234 287 347
#     4  10  21  38  62  89 115 148 192 241 290 341
#     4  10  20  35  58  85 113 150 195 241 286 334
#
# _framework density 19.322016999999999
#
# number of rings (size 3 to 8) (size 9 to 14) (size 15 to 20)
#    0.000    1.667    0.000    4.500    0.000   11.000 
#    0.000    0.833    0.000    2.000    0.000    0.000 
#    0.000    0.000    0.000    0.000    0.000    0.000 
#
# Total GULP energy -268386.486948 kJ/mol
# GULP energy per Si atom -5591.385145 kJ/mol
# Density = 1.927804 g / cm^3
# Si number density = 19.322017 Si / 1000 Ang^3
#
#
#
# Elastic Constant Matrix: (Units=GPa)
#
#
# Indices 1 2 3 4 5 6 
#
# 1 213.3060 122.3819 33.4391 0.0000 0.0000 0.0000
# 2 122.3819 218.5373 37.3735 0.0000 0.0000 0.0000
# 3 33.4391 37.3735 20.8414 0.0000 0.0000 0.0000
# 4 0.0000 0.0000 0.0000 21.5637 0.0000 0.0000
# 5 0.0000 0.0000 0.0000 0.0000 -215.5808 0.0000
# 6 0.0000 0.0000 0.0000 0.0000 0.0000 46.7009
#
#
#
# Elastic Compliance Matrix: (Units=1/GPa)
#
#
# Indices 1 2 3 4 5 6 
#
# 1 0.007466 -0.003076 -0.006463 0.000000 0.000000 0.000000
# 2 -0.003076 0.007867 -0.009172 0.000000 0.000000 0.000000
# 3 -0.006463 -0.009172 0.074800 0.000000 0.000000 0.000000
# 4 0.000000 0.000000 0.000000 0.046374 0.000000 0.000000
# 5 0.000000 0.000000 0.000000 0.000000 -0.004639 0.000000
# 6 0.000000 0.000000 0.000000 0.000000 0.000000 0.021413
#
#
# Mechanical properties :
#
#
# Convention : Reuss Voigt Hill
#
# Bulk Modulus (GPa) = 18.97184 93.23041 56.10113
# Shear Modulus (GPa) = 24.00682 -12.16387 5.92148
#
# Velocity S-wave (km/s) = 3.52868 -2.51177 1.75251
# Velocity P-wave (km/s) = 5.14220 6.32010 5.76133
#
# Compressibility (1/GPa) = 0.05270970
#
# Stress axis : x y z
#
# Youngs Moduli (GPa) = 133.94151 127.11544 13.36899
#
# Poissons Ratio (x) = 0.39096 0.08641
# Poissons Ratio (y) = 0.41195 0.12263
# Poissons Ratio (z) = 0.86573 1.16596
#
# Static dielectric constant tensor:
#      x y z
#    x 1.628500 0.000000 0.000000 
#    y 0.000000 1.649430 0.000000 
#    z 0.000000 0.000000 1.659840 
# 
# From -- ./inp_files/10519.got.cif
#   From: 2010.05.17/outbox.cif.g08.bks.cpg/sg55_6_cif.got.tgz:10519.got - 2010.06.03 13:27:54.
