data_PCOD9427057
_publ_section_title
;
Structure prediction by ZEFSAII (Michael W. Deem and Ramdas Pophale) SiO2 
 PCOD9427057
Probable space group: P B A M
;
_chemical_formula_sum "Si O2"
_cell_formula_units_Z 44
_cell_length_a 25.439325
_cell_length_b 5.237057
_cell_length_c 15.064479
_cell_angle_alpha 90.000000
_cell_angle_beta 90.000000
_cell_angle_gamma 90.000000
_cell_volume 2006.998282
_symmetry_space_group_name_H-M "P B A M"
_symmetry_group_IT_number 55
_symmetry_cell_setting 'orthorhombic'
loop_
_space_group_symop_operation_xyz
x,y,z
-x,-y,z
1/2+x,1/2-y,-z
1/2-x,1/2+y,-z
-x,-y,-z
x,y,-z
1/2-x,1/2+y,z
1/2+x,1/2-y,z
loop_
_atom_site_type_symbol
_atom_site_label
_atom_site_fract_x
_atom_site_fract_y
_atom_site_fract_z
Si Si1 0.718464 0.519525 0.822171
Si Si2 0.165167 0.251885 0.322072
Si Si3 0.283221 0.940899 0.500000
Si Si4 0.057220 0.003483 0.722763
Si Si5 0.872961 0.355569 0.817970
Si Si6 0.450130 0.812280 0.094418
O O1 0.754178 0.758438 0.850874
O O2 0.705805 0.460863 0.717010
O O3 0.660003 0.610651 0.850024
O O4 0.183741 0.373488 0.412569
O O5 0.162695 0.466364 0.244713
O O6 0.106464 0.134128 0.326637
O O7 0.235803 0.733189 0.500000
O O8 0.079596 0.730743 0.753280
O O9 0.049222 0.145828 0.817106
O O10 0.000000 0.000000 0.678388
O O11 0.898278 0.515351 0.895810
O O12 0.500000 0.000000 0.095386
O O13 0.449681 0.671244 0.000000
#
# Coordination Sequence:
#
# PCOD9427057 Si02
#       6
#     8   8   4   8   8   8
#     4  11  20  35  61  86 117 155 209 259 315 378
#     4  10  23  39  60  92 126 166 211 264 324 393
#     4  12  28  42  67  97 133 159 206 282 340 384
#     4  10  20  36  61  90 129 174 219 258 315 388
#     4  10  21  37  60  89 126 169 217 260 314 395
#     4  10  20  35  58  94 134 168 212 270 327 374
#
# _framework density 21.923286000000001
#
# number of rings (size 3 to 8) (size 9 to 14) (size 15 to 20)
#    0.000    1.636    3.636    1.091    5.091    1.091 
#    0.000    0.455    0.000    2.182    0.000    0.000 
#    0.000    0.000    0.000    0.000    0.000    0.000 
#
# Total GULP energy -245446.902955 kJ/mol
# GULP energy per Si atom -5578.338704 kJ/mol
# Density = 2.187339 g / cm^3
# Si number density = 21.923286 Si / 1000 Ang^3
#
#
#
# Elastic Constant Matrix: (Units=GPa)
#
#
# Indices 1 2 3 4 5 6 
#
# 1 79.7650 27.5018 8.7473 0.0000 0.0000 0.0000
# 2 27.5018 90.1110 0.2908 0.0000 0.0000 0.0000
# 3 8.7473 0.2908 59.8592 0.0000 0.0000 0.0000
# 4 0.0000 0.0000 0.0000 2.9369 0.0000 0.0000
# 5 0.0000 0.0000 0.0000 0.0000 -592.1424 0.0000
# 6 0.0000 0.0000 0.0000 0.0000 0.0000 54.8004
#
#
#
# Elastic Compliance Matrix: (Units=1/GPa)
#
#
# Indices 1 2 3 4 5 6 
#
# 1 0.014261 -0.004346 -0.002063 0.000000 0.000000 0.000000
# 2 -0.004346 0.012422 0.000575 0.000000 0.000000 0.000000
# 3 -0.002063 0.000575 0.017005 0.000000 0.000000 0.000000
# 4 0.000000 0.000000 0.000000 0.340499 0.000000 0.000000
# 5 0.000000 0.000000 0.000000 0.000000 -0.001689 0.000000
# 6 0.000000 0.000000 0.000000 0.000000 0.000000 0.018248
#
#
# Mechanical properties :
#
#
# Convention : Reuss Voigt Hill
#
# Bulk Modulus (GPa) = 31.23080 33.64612 32.43846
# Shear Modulus (GPa) = 11.81787 -94.00133 -41.09173
#
# Velocity S-wave (km/s) = 2.32428 -6.55519 -4.33406
# Velocity P-wave (km/s) = 4.63459 6.47406 3.19641
#
# Compressibility (1/GPa) = 0.03201967
#
# Stress axis : x y z
#
# Youngs Moduli (GPa) = 70.11904 80.50267 58.80786
#
# Poissons Ratio (x) = 0.34986 0.12132
# Poissons Ratio (y) = 0.30473 -0.03380
# Poissons Ratio (z) = 0.14465 -0.04627
#
# Static dielectric constant tensor:
#      x y z
#    x 1.889650 0.000000 0.000000 
#    y 0.000000 1.901270 0.000000 
#    z 0.000000 0.000000 1.759160 
# 
# From -- ./inp_files/20028.got.cif
#   From: 2010.05.17/outbox.cif.g08.bks.cpg/sg55_11_cif.got.tgz:20028.got - 2010.06.03 13:27:54.
