data_PCOD9427095
_publ_section_title
;
Structure prediction by ZEFSAII (Michael W. Deem and Ramdas Pophale) SiO2 
 PCOD9427095
Probable space group: P B A M
;
_chemical_formula_sum "Si O2"
_cell_formula_units_Z 56
_cell_length_a 14.747366
_cell_length_b 8.469815
_cell_length_c 18.519874
_cell_angle_alpha 90.000000
_cell_angle_beta 90.000000
_cell_angle_gamma 90.000000
_cell_volume 2313.270453
_symmetry_space_group_name_H-M "P B A M"
_symmetry_group_IT_number 55
_symmetry_cell_setting 'orthorhombic'
loop_
_space_group_symop_operation_xyz
x,y,z
-x,-y,z
1/2+x,1/2-y,-z
1/2-x,1/2+y,-z
-x,-y,-z
x,y,-z
1/2-x,1/2+y,z
1/2+x,1/2-y,z
loop_
_atom_site_type_symbol
_atom_site_label
_atom_site_fract_x
_atom_site_fract_y
_atom_site_fract_z
Si Si1 0.905260 0.345053 0.416305
Si Si2 0.051746 0.751782 0.919308
Si Si3 0.376266 0.407045 0.779592
Si Si4 0.899534 0.012218 0.615980
Si Si5 0.205440 0.242368 0.213546
Si Si6 0.143682 0.419469 0.921400
Si Si7 0.609748 0.171528 0.642509
O O1 0.928147 0.369262 0.500000
O O2 0.856301 0.175322 0.410701
O O3 0.857425 0.503945 0.388239
O O4 0.000671 0.329443 0.371793
O O5 0.063459 0.855723 0.847557
O O6 0.120738 0.603854 0.912859
O O7 0.952600 0.672312 0.919400
O O8 0.064629 0.824483 0.000000
O O9 0.412324 0.456758 0.701553
O O10 0.322926 0.565160 0.801037
O O11 0.308263 0.263312 0.761333
O O12 0.857024 0.838233 0.608154
O O13 0.000000 0.000000 0.582393
O O14 0.200141 0.342468 0.141138
O O15 0.138893 0.314952 0.274126
O O16 0.185845 0.395801 0.000000
#
# Coordination Sequence:
#
# PCOD9427095 Si02
#       7
#     8   8   8   8   8   8   8
#     4  10  20  35  64  95 117 153 194 248 314 366
#     4   9  20  37  60  87 118 158 201 253 307 361
#     4  11  24  38  59  85 122 161 210 253 306 369
#     4   9  21  37  57  91 122 151 196 257 300 360
#     4  11  24  38  57  87 116 164 204 251 311 364
#     4   9  20  38  60  88 121 157 202 253 309 366
#     4   9  20  35  55  89 121 150 196 243 298 364
#
# _framework density 24.208151000000001
#
# number of rings (size 3 to 8) (size 9 to 14) (size 15 to 20)
#    0.000    2.286    0.000    2.571   10.000    5.429 
#    0.000    1.429    0.000    1.714    0.000    0.000 
#    0.000    0.000    0.000    0.000    0.000    0.000 
#
# Total GULP energy -312715.270541 kJ/mol
# GULP energy per Si atom -5584.201260 kJ/mol
# Density = 2.415305 g / cm^3
# Si number density = 24.208151 Si / 1000 Ang^3
#
#
#
# Elastic Constant Matrix: (Units=GPa)
#
#
# Indices 1 2 3 4 5 6 
#
# 1 30.5967 19.8897 15.8309 0.0000 0.0000 0.0000
# 2 19.8897 195.4034 50.1488 0.0000 0.0000 0.0000
# 3 15.8309 50.1488 113.4097 0.0000 0.0000 0.0000
# 4 0.0000 0.0000 0.0000 -42.9188 0.0000 0.0000
# 5 0.0000 0.0000 0.0000 0.0000 -142.4190 0.0000
# 6 0.0000 0.0000 0.0000 0.0000 0.0000 27.1789
#
#
#
# Elastic Compliance Matrix: (Units=1/GPa)
#
#
# Indices 1 2 3 4 5 6 
#
# 1 0.036459 -0.002713 -0.003890 0.000000 0.000000 0.000000
# 2 -0.002713 0.005975 -0.002263 0.000000 0.000000 0.000000
# 3 -0.003890 -0.002263 0.010361 0.000000 0.000000 0.000000
# 4 0.000000 0.000000 0.000000 -0.023300 0.000000 0.000000
# 5 0.000000 0.000000 0.000000 0.000000 -0.007022 0.000000
# 6 0.000000 0.000000 0.000000 0.000000 0.000000 0.036793
#
#
# Mechanical properties :
#
#
# Convention : Reuss Voigt Hill
#
# Bulk Modulus (GPa) = 28.51957 56.79428 42.65693
# Shear Modulus (GPa) = 56.37811 -14.72911 20.82450
#
# Velocity S-wave (km/s) = 4.83109 -2.46933 2.93614
# Velocity P-wave (km/s) = 6.55178 3.92194 5.39942
#
# Compressibility (1/GPa) = 0.03506364
#
# Stress axis : x y z
#
# Youngs Moduli (GPa) = 27.42775 167.37544 96.51262
#
# Poissons Ratio (x) = 0.45406 0.37541
# Poissons Ratio (y) = 0.07441 0.21843
# Poissons Ratio (z) = 0.10669 0.37881
#
# Static dielectric constant tensor:
#      x y z
#    x 1.959600 0.000000 0.000000 
#    y 0.000000 1.962070 0.000000 
#    z 0.000000 0.000000 1.911010 
# 
# From -- ./inp_files/21892.got.cif
#   From: 2010.05.17/outbox.cif.g08.bks.cpg/sg55_11_cif.got.tgz:21892.got - 2010.06.03 13:27:54.
