data_PCOD9427682
_publ_section_title
;
Structure prediction by ZEFSAII (Michael W. Deem and Ramdas Pophale) SiO2 
 PCOD9427682
Probable space group: P B A M
;
_chemical_formula_sum "Si O2"
_cell_formula_units_Z 40
_cell_length_a 8.956783
_cell_length_b 29.574789
_cell_length_c 8.002372
_cell_angle_alpha 90.000000
_cell_angle_beta 90.000000
_cell_angle_gamma 90.000000
_cell_volume 2119.788070
_symmetry_space_group_name_H-M "P B A M"
_symmetry_group_IT_number 55
_symmetry_cell_setting 'orthorhombic'
loop_
_space_group_symop_operation_xyz
x,y,z
-x,-y,z
1/2+x,1/2-y,-z
1/2-x,1/2+y,-z
-x,-y,-z
x,y,-z
1/2-x,1/2+y,z
1/2+x,1/2-y,z
loop_
_atom_site_type_symbol
_atom_site_label
_atom_site_fract_x
_atom_site_fract_y
_atom_site_fract_z
Si Si1 0.930191 0.549425 0.500000
Si Si2 0.401096 0.707044 0.802471
Si Si3 0.433408 0.202313 0.692056
Si Si4 0.570753 0.613646 0.807075
Si Si5 0.930081 0.049450 0.500000
Si Si6 0.928921 0.610918 0.185900
O O1 0.750084 0.545890 0.500000
O O2 0.974790 0.577521 0.334789
O O3 0.000000 0.500000 0.500000
O O4 0.493382 0.751473 0.755546
O O5 0.244214 0.705886 0.708678
O O6 0.495290 0.661741 0.768649
O O7 0.368848 0.708292 0.000000
O O8 0.477388 0.195399 0.500000
O O9 0.491473 0.158985 0.792335
O O10 0.526229 0.577416 0.666557
O O11 0.750380 0.618372 0.799350
O O12 0.532708 0.601204 0.000000
O O13 0.000000 0.000000 0.500000
O O14 0.959635 0.592701 0.000000
#
# Coordination Sequence:
#
# PCOD9427682 Si02
#       6
#     4   8   8   8   4   8
#     4  10  22  40  59  88 119 148 195 244 296 354
#     4  11  23  39  58  85 119 160 198 239 289 347
#     4  12  24  37  58  89 121 158 198 243 290 345
#     4   9  21  39  62  86 115 153 197 240 288 346
#     4  10  22  38  61  86 115 152 187 240 298 348
#     4  10  20  40  63  86 117 157 197 242 293 348
#
# _framework density 18.869810000000001
#
# number of rings (size 3 to 8) (size 9 to 14) (size 15 to 20)
#    0.000    1.600    1.000    3.600    2.800    4.000 
#    0.000    0.000    0.000    0.000    0.000    0.000 
#    0.000    0.000    0.000    0.000    0.000    0.000 
#
# Total GULP energy -223513.647631 kJ/mol
# GULP energy per Si atom -5587.841191 kJ/mol
# Density = 1.882686 g / cm^3
# Si number density = 18.869810 Si / 1000 Ang^3
#
#
#
# Elastic Constant Matrix: (Units=GPa)
#
#
# Indices 1 2 3 4 5 6 
#
# 1 30.8238 44.6974 34.6400 0.0000 0.0000 0.0000
# 2 44.6974 152.1554 85.5293 0.0000 0.0000 0.0000
# 3 34.6400 85.5293 129.3956 0.0000 0.0000 0.0000
# 4 0.0000 0.0000 0.0000 18.0024 0.0000 0.0000
# 5 0.0000 0.0000 0.0000 0.0000 17.0815 0.0000
# 6 0.0000 0.0000 0.0000 0.0000 0.0000 36.7878
#
#
#
# Elastic Compliance Matrix: (Units=1/GPa)
#
#
# Indices 1 2 3 4 5 6 
#
# 1 0.060313 -0.013751 -0.007057 0.000000 0.000000 0.000000
# 2 -0.013751 0.013593 -0.005304 0.000000 0.000000 0.000000
# 3 -0.007057 -0.005304 0.013123 0.000000 0.000000 0.000000
# 4 0.000000 0.000000 0.000000 0.055548 0.000000 0.000000
# 5 0.000000 0.000000 0.000000 0.000000 0.058543 0.000000
# 6 0.000000 0.000000 0.000000 0.000000 0.000000 0.027183
#
#
# Mechanical properties :
#
#
# Convention : Reuss Voigt Hill
#
# Bulk Modulus (GPa) = 28.73045 71.34536 50.03791
# Shear Modulus (GPa) = 17.11576 24.20821 20.66199
#
# Velocity S-wave (km/s) = 3.01499 3.58565 3.31263
# Velocity P-wave (km/s) = 5.23248 7.41848 6.41922
#
# Compressibility (1/GPa) = 0.03480627
#
# Stress axis : x y z
#
# Youngs Moduli (GPa) = 16.58011 73.56752 76.20125
#
# Poissons Ratio (x) = 1.01161 0.53776
# Poissons Ratio (y) = 0.22799 0.40415
# Poissons Ratio (z) = 0.11701 0.39018
#
# Static dielectric constant tensor:
#      x y z
#    x 1.630250 0.000000 0.000000 
#    y 0.000000 1.601190 0.000000 
#    z 0.000000 0.000000 1.674990 
# 
# From -- ./inp_files/2372.got.cif
#   From: 2010.05.17/outbox.cif.g08.bks.cpg/sg55_2_cif.got.tgz:2372.got - 2010.06.03 13:27:54.
