data_PCOD9427136
_publ_section_title
;
Structure prediction by ZEFSAII (Michael W. Deem and Ramdas Pophale) SiO2 
 PCOD9427136
Probable space group: P B A M
;
_chemical_formula_sum "Si O2"
_cell_formula_units_Z 56
_cell_length_a 19.289232
_cell_length_b 17.825535
_cell_length_c 7.506305
_cell_angle_alpha 90.000000
_cell_angle_beta 90.000000
_cell_angle_gamma 90.000000
_cell_volume 2580.974518
_symmetry_space_group_name_H-M "P B A M"
_symmetry_group_IT_number 55
_symmetry_cell_setting 'orthorhombic'
loop_
_space_group_symop_operation_xyz
x,y,z
-x,-y,z
1/2+x,1/2-y,-z
1/2-x,1/2+y,-z
-x,-y,-z
x,y,-z
1/2-x,1/2+y,z
1/2+x,1/2-y,z
loop_
_atom_site_type_symbol
_atom_site_label
_atom_site_fract_x
_atom_site_fract_y
_atom_site_fract_z
Si Si1 0.078179 0.517695 0.218732
Si Si2 0.370068 0.179023 0.789032
Si Si3 0.153021 0.960060 0.715451
Si Si4 0.050182 0.828558 0.285029
Si Si5 0.304870 0.904898 0.209995
Si Si6 0.101480 0.122258 0.285486
Si Si7 0.723531 0.261043 0.212526
O O1 0.103309 0.599526 0.280494
O O2 0.132209 0.454561 0.281101
O O3 0.000000 0.500000 0.273485
O O4 0.078777 0.518031 0.000000
O O5 0.424788 0.245885 0.765116
O O6 0.296060 0.206723 0.715039
O O7 0.360132 0.167899 0.000000
O O8 0.151204 0.960210 0.500000
O O9 0.106288 0.890098 0.777210
O O10 0.232267 0.948136 0.769913
O O11 0.122183 0.039234 0.778182
O O12 0.049425 0.831844 0.500000
O O13 0.973544 0.850245 0.220811
O O14 0.294777 0.821328 0.285470
O O15 0.318992 0.896072 0.000000
O O16 0.097122 0.117857 0.500000
O O17 0.161536 0.181006 0.241128
O O18 0.733334 0.251943 0.000000
#
# Coordination Sequence:
#
# PCOD9427136 Si02
#       7
#     8   8   8   8   8   8   8
#     4   9  19  34  55  80 108 146 184 222 271 329
#     4  10  20  36  57  81 110 143 186 229 273 329
#     4  10  20  37  59  81 109 148 185 222 275 337
#     4  10  21  37  57  82 113 146 181 226 279 332
#     4  10  20  36  58  83 111 143 186 231 274 329
#     4  10  22  37  56  82 111 145 186 228 273 331
#     4  10  21  36  56  85 113 144 185 234 281 325
#
# _framework density 21.697232
#
# number of rings (size 3 to 8) (size 9 to 14) (size 15 to 20)
#    0.000    2.143    1.429    1.286    2.000    5.143 
#    0.000    0.714    0.000    3.429    0.000    0.000 
#    0.000    0.000    0.000    0.000    0.000    0.000 
#
# Total GULP energy -313020.590944 kJ/mol
# GULP energy per Si atom -5589.653410 kJ/mol
# Density = 2.164785 g / cm^3
# Si number density = 21.697232 Si / 1000 Ang^3
#
#
#
# Elastic Constant Matrix: (Units=GPa)
#
#
# Indices 1 2 3 4 5 6 
#
# 1 129.3041 129.7545 0.2914 0.0000 0.0000 0.0000
# 2 129.7545 193.4941 10.0579 0.0000 0.0000 0.0000
# 3 0.2914 10.0579 53.5575 0.0000 0.0000 0.0000
# 4 0.0000 0.0000 0.0000 16.6737 0.0000 0.0000
# 5 0.0000 0.0000 0.0000 0.0000 18.4519 0.0000
# 6 0.0000 0.0000 0.0000 0.0000 0.0000 205.6838
#
#
#
# Elastic Compliance Matrix: (Units=1/GPa)
#
#
# Indices 1 2 3 4 5 6 
#
# 1 0.024092 -0.016308 0.002932 0.000000 0.000000 0.000000
# 2 -0.016308 0.016258 -0.002965 0.000000 0.000000 0.000000
# 3 0.002932 -0.002965 0.019212 0.000000 0.000000 0.000000
# 4 0.000000 0.000000 0.000000 0.059975 0.000000 0.000000
# 5 0.000000 0.000000 0.000000 0.000000 0.054195 0.000000
# 6 0.000000 0.000000 0.000000 0.000000 0.000000 0.004862
#
#
# Mechanical properties :
#
#
# Convention : Reuss Voigt Hill
#
# Bulk Modulus (GPa) = 37.20195 72.95150 55.07672
# Shear Modulus (GPa) = 22.70283 63.91201 43.30742
#
# Velocity S-wave (km/s) = 3.23824 5.43325 4.47250
# Velocity P-wave (km/s) = 5.58254 8.54727 7.21874
#
# Compressibility (1/GPa) = 0.02688031
#
# Stress axis : x y z
#
# Youngs Moduli (GPa) = 41.50725 61.50696 52.04997
#
# Poissons Ratio (x) = 1.00307 -0.15259
# Poissons Ratio (y) = 0.67691 0.15430
# Poissons Ratio (z) = -0.12168 0.18234
#
# Static dielectric constant tensor:
#      x y z
#    x 1.739790 0.000000 0.000000 
#    y 0.000000 1.756620 0.000000 
#    z 0.000000 0.000000 1.828730 
# 
# From -- ./inp_files/8761.got.cif
#   From: 2010.05.17/outbox.cif.g08.bks.cpg/sg55_5_cif.got.tgz:8761.got - 2010.06.03 13:27:54.
