data_PCOD9427993
_publ_section_title
;
Structure prediction by ZEFSAII (Michael W. Deem and Ramdas Pophale) SiO2 
 PCOD9427993
Probable space group: P B A M
;
_chemical_formula_sum "Si O2"
_cell_formula_units_Z 32
_cell_length_a 14.142896
_cell_length_b 7.910613
_cell_length_c 12.948809
_cell_angle_alpha 90.000000
_cell_angle_beta 90.000000
_cell_angle_gamma 90.000000
_cell_volume 1448.699504
_symmetry_space_group_name_H-M "P B A M"
_symmetry_group_IT_number 55
_symmetry_cell_setting 'orthorhombic'
loop_
_space_group_symop_operation_xyz
x,y,z
-x,-y,z
1/2+x,1/2-y,-z
1/2-x,1/2+y,-z
-x,-y,-z
x,y,-z
1/2-x,1/2+y,z
1/2+x,1/2-y,z
loop_
_atom_site_type_symbol
_atom_site_label
_atom_site_fract_x
_atom_site_fract_y
_atom_site_fract_z
Si Si1 0.287014 0.897977 0.114323
Si Si2 0.935929 0.834794 0.808567
Si Si3 0.114550 0.986943 0.386086
Si Si4 0.867911 0.295014 0.229630
O O1 0.361240 0.743148 0.114404
O O2 0.185886 0.826504 0.147768
O O3 0.323931 0.024710 0.203003
O O4 0.286503 0.974991 0.000000
O O5 0.873801 0.878505 0.706204
O O6 0.019829 0.702630 0.787603
O O7 0.000000 0.000000 0.834882
O O8 0.154621 0.017129 0.500000
O O9 0.142939 0.804386 0.338608
O O10 0.000000 0.000000 0.395082
#
# Coordination Sequence:
#
# PCOD9427993 Si02
#       4
#     8   8   8   8
#     4  12  24  38  57  82 118 159 198 245 296 346
#     4   9  20  38  60  85 115 149 193 241 289 352
#     4   8  16  36  63  85 112 148 183 231 291 343
#     4  10  21  37  57  84 115 149 196 242 286 349
#
# _framework density 22.088777
#
# number of rings (size 3 to 8) (size 9 to 14) (size 15 to 20)
#    0.000    2.750    0.000    4.500    0.000    3.500 
#    0.000   10.000    0.000   16.500    0.000    0.000 
#    0.000    0.000    0.000    0.000    0.000    0.000 
#
# Total GULP energy -178161.072933 kJ/mol
# GULP energy per Si atom -5567.533529 kJ/mol
# Density = 2.203850 g / cm^3
# Si number density = 22.088777 Si / 1000 Ang^3
#
#
#
# Elastic Constant Matrix: (Units=GPa)
#
#
# Indices 1 2 3 4 5 6 
#
# 1 90.6864 23.9016 41.7233 0.0000 0.0000 0.0000
# 2 23.9016 90.1534 42.3127 0.0000 0.0000 0.0000
# 3 41.7233 42.3127 127.5215 0.0000 0.0000 0.0000
# 4 0.0000 0.0000 0.0000 14.7522 0.0000 0.0000
# 5 0.0000 0.0000 0.0000 0.0000 20.2734 0.0000
# 6 0.0000 0.0000 0.0000 0.0000 0.0000 40.8799
#
#
#
# Elastic Compliance Matrix: (Units=1/GPa)
#
#
# Indices 1 2 3 4 5 6 
#
# 1 0.013209 -0.001745 -0.003743 0.000000 0.000000 0.000000
# 2 -0.001745 0.013369 -0.003865 0.000000 0.000000 0.000000
# 3 -0.003743 -0.003865 0.010349 0.000000 0.000000 0.000000
# 4 0.000000 0.000000 0.000000 0.067787 0.000000 0.000000
# 5 0.000000 0.000000 0.000000 0.000000 0.049326 0.000000
# 6 0.000000 0.000000 0.000000 0.000000 0.000000 0.024462
#
#
# Mechanical properties :
#
#
# Convention : Reuss Voigt Hill
#
# Bulk Modulus (GPa) = 54.88229 58.24850 56.56540
# Shear Modulus (GPa) = 24.59659 28.54268 26.56964
#
# Velocity S-wave (km/s) = 3.34058 3.59859 3.47199
# Velocity P-wave (km/s) = 6.30710 6.61014 6.46040
#
# Compressibility (1/GPa) = 0.01822081
#
# Stress axis : x y z
#
# Youngs Moduli (GPa) = 75.70616 74.80061 96.63006
#
# Poissons Ratio (x) = 0.13056 0.36165
# Poissons Ratio (y) = 0.13214 0.37346
# Poissons Ratio (z) = 0.28334 0.28909
#
# Static dielectric constant tensor:
#      x y z
#    x 1.798520 0.000000 0.000000 
#    y 0.000000 1.900610 0.000000 
#    z 0.000000 0.000000 1.848350 
# 
# From -- ./inp_files/13814.got.cif
#   From: 2010.05.17/outbox.cif.g08.bks.cpg/sg55_7_cif.got.tgz:13814.got - 2010.06.03 13:27:54.
