data_PCOD9427687
_publ_section_title
;
Structure prediction by ZEFSAII (Michael W. Deem and Ramdas Pophale) SiO2 
 PCOD9427687
Probable space group: P B A M
;
_chemical_formula_sum "Si O2"
_cell_formula_units_Z 56
_cell_length_a 17.907305
_cell_length_b 19.334019
_cell_length_c 8.070630
_cell_angle_alpha 90.000000
_cell_angle_beta 90.000000
_cell_angle_gamma 90.000000
_cell_volume 2794.214932
_symmetry_space_group_name_H-M "P B A M"
_symmetry_group_IT_number 55
_symmetry_cell_setting 'orthorhombic'
loop_
_space_group_symop_operation_xyz
x,y,z
-x,-y,z
1/2+x,1/2-y,-z
1/2-x,1/2+y,-z
-x,-y,-z
x,y,-z
1/2-x,1/2+y,z
1/2+x,1/2-y,z
loop_
_atom_site_type_symbol
_atom_site_label
_atom_site_fract_x
_atom_site_fract_y
_atom_site_fract_z
Si Si1 0.306289 0.390908 0.199594
Si Si2 0.236651 0.042331 0.195212
Si Si3 0.443630 0.903089 0.701622
Si Si4 0.397756 0.059220 0.700056
Si Si5 0.528404 0.574353 0.196335
Si Si6 0.884420 0.851698 0.693817
Si Si7 0.178387 0.293367 0.300421
O O1 0.264787 0.462218 0.251146
O O2 0.391535 0.399411 0.260914
O O3 0.258386 0.325384 0.255943
O O4 0.306994 0.388600 0.000000
O O5 0.317088 0.075535 0.228550
O O6 0.171810 0.084640 0.283067
O O7 0.220254 0.043128 0.000000
O O8 0.443475 0.901428 0.500000
O O9 0.530196 0.896418 0.753064
O O10 0.385804 0.846000 0.761467
O O11 0.416633 0.979916 0.748065
O O12 0.392925 0.061952 0.500000
O O13 0.500000 0.500000 0.265159
O O14 0.462359 0.628860 0.222319
O O15 0.539629 0.563662 0.000000
O O16 0.900034 0.841674 0.500000
O O17 0.842914 0.783137 0.759074
O O18 0.175276 0.292319 0.500000
#
# Coordination Sequence:
#
# PCOD9427687 Si02
#       7
#     8   8   8   8   8   8   8
#     4  10  21  37  61  88 114 152 195 235 292 354
#     4  11  21  36  57  83 116 150 188 241 290 339
#     4   8  15  30  54  80 108 143 180 226 282 335
#     4   9  16  30  55  83 108 141 186 230 279 339
#     4  10  20  40  64  86 116 152 191 243 300 349
#     4  11  24  39  58  86 116 152 196 242 293 348
#     4  10  21  39  59  82 116 154 192 240 294 347
#
# _framework density 20.041405999999998
#
# number of rings (size 3 to 8) (size 9 to 14) (size 15 to 20)
#    0.000    2.143    2.857    1.714    0.000    2.571 
#    2.571    2.143    0.000    0.000    0.000    0.000 
#    0.000    0.000    0.000    0.000    0.000    0.000 
#
# Total GULP energy -312441.979097 kJ/mol
# GULP energy per Si atom -5579.321055 kJ/mol
# Density = 1.999579 g / cm^3
# Si number density = 20.041406 Si / 1000 Ang^3
#
#
#
# Elastic Constant Matrix: (Units=GPa)
#
#
# Indices 1 2 3 4 5 6 
#
# 1 149.6190 36.5843 0.8012 0.0000 0.0000 0.0000
# 2 36.5843 78.0236 3.9164 0.0000 0.0000 0.0000
# 3 0.8012 3.9164 10.5705 0.0000 0.0000 0.0000
# 4 0.0000 0.0000 0.0000 17.3727 0.0000 0.0000
# 5 0.0000 0.0000 0.0000 0.0000 28.7071 0.0000
# 6 0.0000 0.0000 0.0000 0.0000 0.0000 26.7238
#
#
#
# Elastic Compliance Matrix: (Units=1/GPa)
#
#
# Indices 1 2 3 4 5 6 
#
# 1 0.007555 -0.003580 0.000754 0.000000 0.000000 0.000000
# 2 -0.003580 0.014756 -0.005196 0.000000 0.000000 0.000000
# 3 0.000754 -0.005196 0.096471 0.000000 0.000000 0.000000
# 4 0.000000 0.000000 0.000000 0.057561 0.000000 0.000000
# 5 0.000000 0.000000 0.000000 0.000000 0.034835 0.000000
# 6 0.000000 0.000000 0.000000 0.000000 0.000000 0.037420
#
#
# Mechanical properties :
#
#
# Convention : Reuss Voigt Hill
#
# Bulk Modulus (GPa) = 9.73355 35.64631 22.68993
# Shear Modulus (GPa) = 16.72868 27.68815 22.20842
#
# Velocity S-wave (km/s) = 2.89226 3.72095 3.33247
# Velocity P-wave (km/s) = 4.00260 6.02375 5.11402
#
# Compressibility (1/GPa) = 0.10273741
#
# Stress axis : x y z
#
# Youngs Moduli (GPa) = 132.36175 67.76815 10.36585
#
# Poissons Ratio (x) = 0.24263 -0.00781
# Poissons Ratio (y) = 0.47390 0.05386
# Poissons Ratio (z) = -0.09978 0.35211
#
# Static dielectric constant tensor:
#      x y z
#    x 1.714920 0.000000 0.000000 
#    y 0.000000 1.702100 0.000000 
#    z 0.000000 0.000000 1.717000 
# 
# From -- ./inp_files/7862.got.cif
#   From: 2010.05.17/outbox.cif.g08.bks.cpg/sg55_4_cif.got.tgz:7862.got - 2010.06.03 13:27:54.
