data_PCOD9427386
_publ_section_title
;
Structure prediction by ZEFSAII (Michael W. Deem and Ramdas Pophale) SiO2 
 PCOD9427386
Probable space group: P B A M
;
_chemical_formula_sum "Si O2"
_cell_formula_units_Z 48
_cell_length_a 29.013628
_cell_length_b 9.569695
_cell_length_c 7.488047
_cell_angle_alpha 90.000000
_cell_angle_beta 90.000000
_cell_angle_gamma 90.000000
_cell_volume 2079.068012
_symmetry_space_group_name_H-M "P B A M"
_symmetry_group_IT_number 55
_symmetry_cell_setting 'orthorhombic'
loop_
_space_group_symop_operation_xyz
x,y,z
-x,-y,z
1/2+x,1/2-y,-z
1/2-x,1/2+y,-z
-x,-y,-z
x,y,-z
1/2-x,1/2+y,z
1/2+x,1/2-y,z
loop_
_atom_site_type_symbol
_atom_site_label
_atom_site_fract_x
_atom_site_fract_y
_atom_site_fract_z
Si Si1 0.115209 0.810128 0.714885
Si Si2 0.510969 0.657076 0.283959
Si Si3 0.726047 0.191745 0.704001
Si Si4 0.693359 0.493501 0.280582
Si Si5 0.142857 0.503262 0.789543
Si Si6 0.043559 0.419369 0.206716
O O1 0.113038 0.814527 0.500000
O O2 0.062385 0.801869 0.778695
O O3 0.143452 0.947044 0.773494
O O4 0.142488 0.669687 0.764737
O O5 0.500000 0.500000 0.231359
O O6 0.510370 0.664974 0.500000
O O7 0.471730 0.760005 0.215560
O O8 0.739624 0.224204 0.500000
O O9 0.769360 0.108286 0.781672
O O10 0.708353 0.339108 0.780986
O O11 0.684459 0.080866 0.704025
O O12 0.693416 0.490196 0.500000
O O13 0.093432 0.451389 0.716060
O O14 0.145679 0.471925 0.000000
O O15 0.000000 0.500000 0.289929
O O16 0.046633 0.465572 0.000000
#
# Coordination Sequence:
#
# PCOD9427386 Si02
#       6
#     8   8   8   8   8   8
#     4  10  20  37  59  85 116 150 187 231 282 336
#     4  10  22  36  56  88 120 146 185 238 284 328
#     4  10  20  37  62  87 112 146 185 230 281 339
#     4   9  19  36  61  89 114 144 186 228 278 344
#     4  11  23  38  57  83 114 149 193 238 279 330
#     4  10  21  39  58  78 111 155 197 230 271 334
#
# _framework density 23.087266
#
# number of rings (size 3 to 8) (size 9 to 14) (size 15 to 20)
#    0.000    2.000    1.667    1.500    2.333    4.667 
#    0.000    4.167    0.000    0.000    0.000    0.000 
#    0.000    0.000    0.000    0.000    0.000    0.000 
#
# Total GULP energy -268247.739258 kJ/mol
# GULP energy per Si atom -5588.494568 kJ/mol
# Density = 2.303472 g / cm^3
# Si number density = 23.087266 Si / 1000 Ang^3
#
#
#
# Elastic Constant Matrix: (Units=GPa)
#
#
# Indices 1 2 3 4 5 6 
#
# 1 74.0858 6.0440 -2.3179 0.0000 0.0000 0.0000
# 2 6.0440 110.2127 -9.5908 0.0000 0.0000 0.0000
# 3 -2.3179 -9.5908 68.7260 0.0000 0.0000 0.0000
# 4 0.0000 0.0000 0.0000 15.2578 0.0000 0.0000
# 5 0.0000 0.0000 0.0000 0.0000 -4.0550 0.0000
# 6 0.0000 0.0000 0.0000 0.0000 0.0000 41.9912
#
#
#
# Elastic Compliance Matrix: (Units=1/GPa)
#
#
# Indices 1 2 3 4 5 6 
#
# 1 0.013567 -0.000713 0.000358 0.000000 0.000000 0.000000
# 2 -0.000713 0.009222 0.001263 0.000000 0.000000 0.000000
# 3 0.000358 0.001263 0.014739 0.000000 0.000000 0.000000
# 4 0.000000 0.000000 0.000000 0.065540 0.000000 0.000000
# 5 0.000000 0.000000 0.000000 0.000000 -0.246612 0.000000
# 6 0.000000 0.000000 0.000000 0.000000 0.000000 0.023815
#
#
# Mechanical properties :
#
#
# Convention : Reuss Voigt Hill
#
# Bulk Modulus (GPa) = 25.41631 26.81057 26.11344
# Shear Modulus (GPa) = -46.11271 27.89809 -9.10731
#
# Velocity S-wave (km/s) = -4.47399 3.47994 -1.98829
# Velocity P-wave (km/s) = 3.95678 5.27111 2.46257
#
# Compressibility (1/GPa) = 0.03934482
#
# Stress axis : x y z
#
# Youngs Moduli (GPa) = 73.70704 108.43216 67.84789
#
# Poissons Ratio (x) = 0.07730 -0.02430
# Poissons Ratio (y) = 0.05254 -0.08569
# Poissons Ratio (z) = -0.02639 -0.13694
#
# Static dielectric constant tensor:
#      x y z
#    x 1.862460 0.000000 0.000000 
#    y 0.000000 1.846510 0.000000 
#    z 0.000000 0.000000 1.899750 
# 
# From -- ./inp_files/2788.got.cif
#   From: 2010.05.17/outbox.cif.g08.bks.cpg/sg55_2_cif.got.tgz:2788.got - 2010.06.03 13:27:54.
