data_PCOD9427222
_publ_section_title
;
Structure prediction by ZEFSAII (Michael W. Deem and Ramdas Pophale) SiO2 
 PCOD9427222
Probable space group: P B A M
;
_chemical_formula_sum "Si O2"
_cell_formula_units_Z 64
_cell_length_a 22.740173
_cell_length_b 17.251321
_cell_length_c 7.593196
_cell_angle_alpha 90.000000
_cell_angle_beta 90.000000
_cell_angle_gamma 90.000000
_cell_volume 2978.795787
_symmetry_space_group_name_H-M "P B A M"
_symmetry_group_IT_number 55
_symmetry_cell_setting 'orthorhombic'
loop_
_space_group_symop_operation_xyz
x,y,z
-x,-y,z
1/2+x,1/2-y,-z
1/2-x,1/2+y,-z
-x,-y,-z
x,y,-z
1/2-x,1/2+y,z
1/2+x,1/2-y,z
loop_
_atom_site_type_symbol
_atom_site_label
_atom_site_fract_x
_atom_site_fract_y
_atom_site_fract_z
Si Si1 0.726405 0.582427 0.288952
Si Si2 0.859948 0.345661 0.711436
Si Si3 0.765911 0.905218 0.713363
Si Si4 0.884009 0.812213 0.209070
Si Si5 0.566622 0.998669 0.211173
Si Si6 0.644972 0.142048 0.211828
Si Si7 0.991423 0.913709 0.792388
Si Si8 0.888911 0.174164 0.714006
O O1 0.721200 0.578102 0.500000
O O2 0.730762 0.494098 0.223210
O O3 0.786598 0.627369 0.250573
O O4 0.668449 0.626620 0.224928
O O5 0.856081 0.339975 0.500000
O O6 0.794412 0.365811 0.776324
O O7 0.902150 0.417238 0.752848
O O8 0.883176 0.262916 0.775196
O O9 0.764096 0.906762 0.500000
O O10 0.823114 0.857511 0.766278
O O11 0.877117 0.725030 0.280456
O O12 0.937392 0.863713 0.282911
O O13 0.894662 0.803774 0.000000
O O14 0.606627 0.069532 0.279156
O O15 0.500000 0.000000 0.279413
O O16 0.563719 0.007662 0.000000
O O17 0.639619 0.142979 0.000000
O O18 0.051559 0.866526 0.773736
O O19 0.978221 0.924103 0.000000
O O20 0.000000 0.000000 0.716655
O O21 0.889177 0.173685 0.500000
#
# Coordination Sequence:
#
# PCOD9427222 Si02
#       8
#     8   8   8   8   8   8   8   8
#     4  10  20  37  60  84 113 150 187 230 284 334
#     4  10  21  38  57  84 118 148 188 237 283 335
#     4  10  20  36  59  85 113 148 188 230 280 335
#     4  10  22  37  56  82 115 149 187 236 282 331
#     4  10  22  38  59  84 113 152 193 231 279 336
#     4  10  21  37  56  83 114 147 190 235 278 332
#     4  10  22  40  60  84 114 150 189 231 283 338
#     4  10  22  37  57  85 115 148 189 237 282 335
#
# _framework density 21.485191
#
# number of rings (size 3 to 8) (size 9 to 14) (size 15 to 20)
#    0.000    2.000    1.250    1.500    1.750    4.500 
#    0.000    0.000    0.000    0.000    0.000    0.000 
#    0.000    0.000    0.000    0.000    0.000    0.000 
#
# Total GULP energy -357732.197078 kJ/mol
# GULP energy per Si atom -5589.565579 kJ/mol
# Density = 2.143629 g / cm^3
# Si number density = 21.485191 Si / 1000 Ang^3
#
#
#
# Elastic Constant Matrix: (Units=GPa)
#
#
# Indices 1 2 3 4 5 6 
#
# 1 169.9766 93.0408 -20.7042 0.0000 0.0000 0.0000
# 2 93.0408 199.8760 -9.5335 0.0000 0.0000 0.0000
# 3 -20.7042 -9.5335 39.0512 0.0000 0.0000 0.0000
# 4 0.0000 0.0000 0.0000 12.5235 0.0000 0.0000
# 5 0.0000 0.0000 0.0000 0.0000 0.7781 0.0000
# 6 0.0000 0.0000 0.0000 0.0000 0.0000 9.1948
#
#
#
# Elastic Compliance Matrix: (Units=1/GPa)
#
#
# Indices 1 2 3 4 5 6 
#
# 1 0.008346 -0.003717 0.003518 0.000000 0.000000 0.000000
# 2 -0.003717 0.006718 -0.000331 0.000000 0.000000 0.000000
# 3 0.003518 -0.000331 0.027392 0.000000 0.000000 0.000000
# 4 0.000000 0.000000 0.000000 0.079850 0.000000 0.000000
# 5 0.000000 0.000000 0.000000 0.000000 1.285136 0.000000
# 6 0.000000 0.000000 0.000000 0.000000 0.000000 0.108757
#
#
# Mechanical properties :
#
#
# Convention : Reuss Voigt Hill
#
# Bulk Modulus (GPa) = 24.15791 59.39001 41.77396
# Shear Modulus (GPa) = 3.26572 27.57267 15.41919
#
# Velocity S-wave (km/s) = 1.23421 3.58625 2.68184
# Velocity P-wave (km/s) = 3.64684 6.69706 5.39212
#
# Compressibility (1/GPa) = 0.04139430
#
# Stress axis : x y z
#
# Youngs Moduli (GPa) = 119.81132 148.85922 36.50755
#
# Poissons Ratio (x) = 0.55337 -0.12842
# Poissons Ratio (y) = 0.44539 0.01208
# Poissons Ratio (z) = -0.42145 0.04926
#
# Static dielectric constant tensor:
#      x y z
#    x 1.723510 0.000000 0.000000 
#    y 0.000000 1.764320 0.000000 
#    z 0.000000 0.000000 1.827300 
# 
# From -- ./inp_files/9035.got.cif
#   From: 2010.05.17/outbox.cif.g08.bks.cpg/sg55_5_cif.got.tgz:9035.got - 2010.06.03 13:27:54.
