data_PCOD9427676
_publ_section_title
;
Structure prediction by ZEFSAII (Michael W. Deem and Ramdas Pophale) SiO2 
 PCOD9427676
Probable space group: P B A M
;
_chemical_formula_sum "Si O2"
_cell_formula_units_Z 40
_cell_length_a 11.322233
_cell_length_b 9.222929
_cell_length_c 17.712334
_cell_angle_alpha 90.000000
_cell_angle_beta 90.000000
_cell_angle_gamma 90.000000
_cell_volume 1849.595442
_symmetry_space_group_name_H-M "P B A M"
_symmetry_group_IT_number 55
_symmetry_cell_setting 'orthorhombic'
loop_
_space_group_symop_operation_xyz
x,y,z
-x,-y,z
1/2+x,1/2-y,-z
1/2-x,1/2+y,-z
-x,-y,-z
x,y,-z
1/2-x,1/2+y,z
1/2+x,1/2-y,z
loop_
_atom_site_type_symbol
_atom_site_label
_atom_site_fract_x
_atom_site_fract_y
_atom_site_fract_z
Si Si1 0.138698 0.006562 0.285021
Si Si2 0.998960 0.337353 0.409164
Si Si3 0.860324 0.499837 0.914849
Si Si4 0.748470 0.746739 0.184553
Si Si5 0.237168 0.836779 0.590198
O O1 0.174735 0.151504 0.240084
O O2 0.170814 0.867838 0.231956
O O3 0.217005 0.979515 0.359716
O O4 0.000000 0.000000 0.302224
O O5 0.991637 0.346006 0.500000
O O6 0.130730 0.277475 0.393821
O O7 0.000000 0.500000 0.377462
O O8 0.879604 0.254654 0.388478
O O9 0.822388 0.360825 0.866259
O O10 0.822533 0.644303 0.870890
O O11 0.000000 0.500000 0.920138
O O12 0.809676 0.495384 0.000000
O O13 0.232877 0.866306 0.500000
#
# Coordination Sequence:
#
# PCOD9427676 Si02
#       5
#     8   8   8   8   8
#     4  11  25  41  63  91 129 176 217 267 334 392
#     4   9  20  39  62  89 124 161 215 284 342 392
#     4  10  20  39  69  97 125 166 211 257 311 381
#     4  10  23  42  60  94 136 166 207 262 323 392
#     4  10  23  41  64  92 125 171 229 283 333 393
#
# _framework density 21.626351
#
# number of rings (size 3 to 8) (size 9 to 14) (size 15 to 20)
#    0.000    2.000    0.000    1.800    5.600    0.400 
#    0.000    0.000    0.000    9.600    0.000    0.000 
#    0.000    0.800    0.000    0.000    0.000    0.000 
#
# Total GULP energy -223458.068171 kJ/mol
# GULP energy per Si atom -5586.451704 kJ/mol
# Density = 2.157713 g / cm^3
# Si number density = 21.626351 Si / 1000 Ang^3
#
#
#
# Elastic Constant Matrix: (Units=GPa)
#
#
# Indices 1 2 3 4 5 6 
#
# 1 146.6215 45.4835 34.7286 0.0000 0.0000 0.0000
# 2 45.4835 130.5276 42.4199 0.0000 0.0000 0.0000
# 3 34.7286 42.4199 109.8299 0.0000 0.0000 0.0000
# 4 0.0000 0.0000 0.0000 44.9221 0.0000 0.0000
# 5 0.0000 0.0000 0.0000 0.0000 32.0836 0.0000
# 6 0.0000 0.0000 0.0000 0.0000 0.0000 25.9532
#
#
#
# Elastic Compliance Matrix: (Units=1/GPa)
#
#
# Indices 1 2 3 4 5 6 
#
# 1 0.007897 -0.002219 -0.001640 0.000000 0.000000 0.000000
# 2 -0.002219 0.009384 -0.002923 0.000000 0.000000 0.000000
# 3 -0.001640 -0.002923 0.010753 0.000000 0.000000 0.000000
# 4 0.000000 0.000000 0.000000 0.022261 0.000000 0.000000
# 5 0.000000 0.000000 0.000000 0.000000 0.031169 0.000000
# 6 0.000000 0.000000 0.000000 0.000000 0.000000 0.038531
#
#
# Mechanical properties :
#
#
# Convention : Reuss Voigt Hill
#
# Bulk Modulus (GPa) = 69.10746 70.24923 69.67834
# Shear Modulus (GPa) = 36.13209 38.21491 37.17350
#
# Velocity S-wave (km/s) = 4.09191 4.20819 4.15046
# Velocity P-wave (km/s) = 7.37221 7.49437 7.43354
#
# Compressibility (1/GPa) = 0.01447022
#
# Stress axis : x y z
#
# Youngs Moduli (GPa) = 126.62967 106.56116 93.00134
#
# Poissons Ratio (x) = 0.23644 0.15253
# Poissons Ratio (y) = 0.28096 0.27184
# Poissons Ratio (z) = 0.20769 0.31147
#
# Static dielectric constant tensor:
#      x y z
#    x 1.764310 0.000000 0.000000 
#    y 0.000000 1.862130 0.000000 
#    z 0.000000 0.000000 1.779050 
# 
# From -- ./inp_files/20595.got.cif
#   From: 2010.05.17/outbox.cif.g08.bks.cpg/sg55_11_cif.got.tgz:20595.got - 2010.06.03 13:27:54.
