data_PCOD9427944
_publ_section_title
;
Structure prediction by ZEFSAII (Michael W. Deem and Ramdas Pophale) SiO2 
 PCOD9427944
Probable space group: P B A M
;
_chemical_formula_sum "Si O2"
_cell_formula_units_Z 40
_cell_length_a 9.604260
_cell_length_b 13.739071
_cell_length_c 13.801388
_cell_angle_alpha 90.000000
_cell_angle_beta 90.000000
_cell_angle_gamma 90.000000
_cell_volume 1821.142970
_symmetry_space_group_name_H-M "P B A M"
_symmetry_group_IT_number 55
_symmetry_cell_setting 'orthorhombic'
loop_
_space_group_symop_operation_xyz
x,y,z
-x,-y,z
1/2+x,1/2-y,-z
1/2-x,1/2+y,-z
-x,-y,-z
x,y,-z
1/2-x,1/2+y,z
1/2+x,1/2-y,z
loop_
_atom_site_type_symbol
_atom_site_label
_atom_site_fract_x
_atom_site_fract_y
_atom_site_fract_z
Si Si1 0.646317 0.552692 0.290560
Si Si2 0.785571 0.770710 0.109664
Si Si3 0.589886 0.096869 0.606629
Si Si4 0.158372 0.463069 0.110943
Si Si5 0.972633 0.252418 0.765610
O O1 0.500000 0.500000 0.304399
O O2 0.756940 0.553468 0.376197
O O3 0.731161 0.512757 0.195798
O O4 0.617234 0.668182 0.282628
O O5 0.822599 0.654698 0.108982
O O6 0.634528 0.793342 0.153649
O O7 0.905703 0.806260 0.179945
O O8 0.796987 0.804102 0.000000
O O9 0.577453 0.142647 0.500000
O O10 0.537687 0.170572 0.690776
O O11 0.500000 0.000000 0.611480
O O12 0.000000 0.500000 0.132138
O O13 0.189671 0.494350 0.000000
#
# Coordination Sequence:
#
# PCOD9427944 Si02
#       5
#     8   8   8   8   8
#     4  11  25  41  67  97 136 171 217 280 333 400
#     4  10  21  36  63  99 133 178 226 266 324 394
#     4  11  26  48  73  97 126 170 228 288 347 403
#     4   9  18  36  61  93 135 182 228 271 322 390
#     4  11  22  43  65  97 133 182 215 272 331 396
#
# _framework density 21.964229
#
# number of rings (size 3 to 8) (size 9 to 14) (size 15 to 20)
#    0.000    1.600    4.000    1.200    2.800    2.400 
#    0.000    2.000    0.000    1.800    0.000    0.000 
#    0.000    0.000    0.000    0.000    0.000    0.000 
#
# Total GULP energy -223180.656598 kJ/mol
# GULP energy per Si atom -5579.516415 kJ/mol
# Density = 2.191424 g / cm^3
# Si number density = 21.964229 Si / 1000 Ang^3
#
#
#
# Elastic Constant Matrix: (Units=GPa)
#
#
# Indices 1 2 3 4 5 6 
#
# 1 155.5348 37.3173 62.3343 0.0000 0.0000 0.0000
# 2 37.3173 63.1748 22.5625 0.0000 0.0000 0.0000
# 3 62.3343 22.5625 146.5037 0.0000 0.0000 0.0000
# 4 0.0000 0.0000 0.0000 -27.3190 0.0000 0.0000
# 5 0.0000 0.0000 0.0000 0.0000 -50.7361 0.0000
# 6 0.0000 0.0000 0.0000 0.0000 0.0000 45.0370
#
#
#
# Elastic Compliance Matrix: (Units=1/GPa)
#
#
# Indices 1 2 3 4 5 6 
#
# 1 0.008610 -0.003997 -0.003048 0.000000 0.000000 0.000000
# 2 -0.003997 0.018606 -0.001165 0.000000 0.000000 0.000000
# 3 -0.003048 -0.001165 0.008302 0.000000 0.000000 0.000000
# 4 0.000000 0.000000 0.000000 -0.036604 0.000000 0.000000
# 5 0.000000 0.000000 0.000000 0.000000 -0.019710 0.000000
# 6 0.000000 0.000000 0.000000 0.000000 0.000000 0.022204
#
#
# Mechanical properties :
#
#
# Convention : Reuss Voigt Hill
#
# Bulk Modulus (GPa) = 52.36007 67.73794 60.04900
# Shear Modulus (GPa) = 206.66580 9.59633 108.13107
#
# Velocity S-wave (km/s) = 9.71063 2.09250 7.02406
# Velocity P-wave (km/s) = 12.23188 6.06178 9.65308
#
# Compressibility (1/GPa) = 0.01909852
#
# Stress axis : x y z
#
# Youngs Moduli (GPa) = 116.14424 53.74515 120.45457
#
# Poissons Ratio (x) = 0.21484 0.36711
# Poissons Ratio (y) = 0.46428 0.14029
# Poissons Ratio (z) = 0.35398 0.06260
#
# Static dielectric constant tensor:
#      x y z
#    x 1.919890 0.000000 0.000000 
#    y 0.000000 1.849210 0.000000 
#    z 0.000000 0.000000 1.851130 
# 
# From -- ./inp_files/17074.got.cif
#   From: 2010.05.17/outbox.cif.g08.bks.cpg/sg55_9_cif.got.tgz:17074.got - 2010.06.03 13:27:54.
