data_PCOD9427570
_publ_section_title
;
Structure prediction by ZEFSAII (Michael W. Deem and Ramdas Pophale) SiO2 
 PCOD9427570
Probable space group: P B A M
;
_chemical_formula_sum "Si O2"
_cell_formula_units_Z 48
_cell_length_a 19.205903
_cell_length_b 15.367590
_cell_length_c 8.391645
_cell_angle_alpha 90.000000
_cell_angle_beta 90.000000
_cell_angle_gamma 90.000000
_cell_volume 2476.780955
_symmetry_space_group_name_H-M "P B A M"
_symmetry_group_IT_number 55
_symmetry_cell_setting 'orthorhombic'
loop_
_space_group_symop_operation_xyz
x,y,z
-x,-y,z
1/2+x,1/2-y,-z
1/2-x,1/2+y,-z
-x,-y,-z
x,y,-z
1/2-x,1/2+y,z
1/2+x,1/2-y,z
loop_
_atom_site_type_symbol
_atom_site_label
_atom_site_fract_x
_atom_site_fract_y
_atom_site_fract_z
Si Si1 0.715987 0.997122 0.191287
Si Si2 0.021987 0.903399 0.694752
Si Si3 0.677858 0.644190 0.691022
Si Si4 0.934262 0.556950 0.692896
Si Si5 0.414989 0.745544 0.307589
Si Si6 0.261890 0.694552 0.190657
O O1 0.742445 0.902446 0.245637
O O2 0.767799 0.071121 0.253757
O O3 0.638385 0.016532 0.250759
O O4 0.716334 0.999209 0.000000
O O5 0.021359 0.903653 0.500000
O O6 0.100145 0.879950 0.745410
O O7 0.967485 0.829835 0.747824
O O8 0.000000 0.000000 0.746832
O O9 0.678040 0.647037 0.500000
O O10 0.704408 0.736348 0.754627
O O11 0.934595 0.556947 0.500000
O O12 0.936681 0.657736 0.746311
O O13 0.000000 0.500000 0.747595
O O14 0.416523 0.745756 0.500000
O O15 0.336712 0.724371 0.255274
O O16 0.265141 0.694580 0.000000
#
# Coordination Sequence:
#
# PCOD9427570 Si02
#       6
#     8   8   8   8   8   8
#     4  11  24  41  61  86 122 163 202 246 298 360
#     4   9  19  35  58  89 121 150 189 243 299 354
#     4  11  22  38  64  93 118 154 199 249 302 352
#     4  10  22  38  60  89 119 155 202 253 300 353
#     4  10  20  38  62  89 119 156 198 245 299 354
#     4  11  24  40  59  87 122 161 198 242 298 357
#
# _framework density 19.379992999999999
#
# number of rings (size 3 to 8) (size 9 to 14) (size 15 to 20)
#    0.000    1.667    1.667    2.500    2.333    4.333 
#    0.000    1.667    0.000    4.500    0.000    0.000 
#    0.000    0.000    0.000    0.000    0.000    0.000 
#
# Total GULP energy -268280.103087 kJ/mol
# GULP energy per Si atom -5589.168814 kJ/mol
# Density = 1.933588 g / cm^3
# Si number density = 19.379993 Si / 1000 Ang^3
#
#
#
# Elastic Constant Matrix: (Units=GPa)
#
#
# Indices 1 2 3 4 5 6 
#
# 1 100.2935 25.0669 6.1699 0.0000 0.0000 0.0000
# 2 25.0669 124.1723 16.5197 0.0000 0.0000 0.0000
# 3 6.1699 16.5197 8.2559 0.0000 0.0000 0.0000
# 4 0.0000 0.0000 0.0000 -8.9630 0.0000 0.0000
# 5 0.0000 0.0000 0.0000 0.0000 -42.8389 0.0000
# 6 0.0000 0.0000 0.0000 0.0000 0.0000 46.6644
#
#
#
# Elastic Compliance Matrix: (Units=1/GPa)
#
#
# Indices 1 2 3 4 5 6 
#
# 1 0.010649 -0.001487 -0.004983 0.000000 0.000000 0.000000
# 2 -0.001487 0.011182 -0.021264 0.000000 0.000000 0.000000
# 3 -0.004983 -0.021264 0.167399 0.000000 0.000000 0.000000
# 4 0.000000 0.000000 0.000000 -0.111570 0.000000 0.000000
# 5 0.000000 0.000000 0.000000 0.000000 -0.023343 0.000000
# 6 0.000000 0.000000 0.000000 0.000000 0.000000 0.021430
#
#
# Mechanical properties :
#
#
# Convention : Reuss Voigt Hill
#
# Bulk Modulus (GPa) = 7.47602 36.47050 21.97326
# Shear Modulus (GPa) = 28.44104 11.30353 19.87228
#
# Velocity S-wave (km/s) = 3.83501 2.41769 3.20566
# Velocity P-wave (km/s) = 4.84518 5.16267 5.00644
#
# Compressibility (1/GPa) = 0.13376101
#
# Stress axis : x y z
#
# Youngs Moduli (GPa) = 93.90650 89.42587 5.97376
#
# Poissons Ratio (x) = 0.13295 0.02977
# Poissons Ratio (y) = 0.13961 0.12703
# Poissons Ratio (z) = 0.46797 1.90159
#
# Static dielectric constant tensor:
#      x y z
#    x 1.636040 0.000000 0.000000 
#    y 0.000000 1.662880 0.000000 
#    z 0.000000 0.000000 1.667080 
# 
# From -- ./inp_files/5648.got.cif
#   From: 2010.05.17/outbox.cif.g08.bks.cpg/sg55_3_cif.got.tgz:5648.got - 2010.06.03 13:27:54.
