data_PCOD9427110
_publ_section_title
;
Structure prediction by ZEFSAII (Michael W. Deem and Ramdas Pophale) SiO2 
 PCOD9427110
Probable space group: P B A M
;
_chemical_formula_sum "Si O2"
_cell_formula_units_Z 40
_cell_length_a 10.147437
_cell_length_b 17.813027
_cell_length_c 13.171654
_cell_angle_alpha 90.000000
_cell_angle_beta 90.000000
_cell_angle_gamma 90.000000
_cell_volume 2380.862989
_symmetry_space_group_name_H-M "P B A M"
_symmetry_group_IT_number 55
_symmetry_cell_setting 'orthorhombic'
loop_
_space_group_symop_operation_xyz
x,y,z
-x,-y,z
1/2+x,1/2-y,-z
1/2-x,1/2+y,-z
-x,-y,-z
x,y,-z
1/2-x,1/2+y,z
1/2+x,1/2-y,z
loop_
_atom_site_type_symbol
_atom_site_label
_atom_site_fract_x
_atom_site_fract_y
_atom_site_fract_z
Si Si1 0.706830 0.917112 0.319231
Si Si2 0.752825 0.581822 0.283567
Si Si3 0.493087 0.641692 0.619797
Si Si4 0.656596 0.983830 0.116455
Si Si5 0.463084 0.817251 0.382866
O O1 0.689946 0.917883 0.196396
O O2 0.591906 0.868344 0.367704
O O3 0.848674 0.888253 0.352777
O O4 0.698041 0.006336 0.342499
O O5 0.605562 0.600624 0.316084
O O6 0.770154 0.555238 0.167329
O O7 0.848109 0.649464 0.313181
O O8 0.518129 0.629500 0.500000
O O9 0.496061 0.730896 0.639380
O O10 0.500000 0.000000 0.123048
O O11 0.691345 0.970287 0.000000
O O12 0.418635 0.820965 0.500000
#
# Coordination Sequence:
#
# PCOD9427110 Si02
#       5
#     8   8   8   8   8
#     4  10  20  36  55  85 100 146 188 225 262 316
#     4  10  20  36  55  85 100 146 188 225 262 316
#     4  11  23  35  51  78 124 156 165 213 281 323
#     4   9  18  37  62  83 103 135 183 235 286 311
#     4  11  21  35  53  78 114 152 185 213 261 325
#
# _framework density 16.800630999999999
#
# number of rings (size 3 to 8) (size 9 to 14) (size 15 to 20)
#    1.200    0.600    2.000    3.600    0.000    8.000 
#    0.000    2.000    0.000    7.200    0.000    0.000 
#    0.000    0.000    0.000    0.000    0.000    0.000 
#
# Total GULP energy -222844.232955 kJ/mol
# GULP energy per Si atom -5571.105824 kJ/mol
# Density = 1.676239 g / cm^3
# Si number density = 16.800631 Si / 1000 Ang^3
#
#
#
# Elastic Constant Matrix: (Units=GPa)
#
#
# Indices 1 2 3 4 5 6 
#
# 1 52.9303 -13.7047 -5.7406 0.0000 0.0000 0.0000
# 2 -13.7047 37.7863 15.5257 0.0000 0.0000 0.0000
# 3 -5.7406 15.5257 45.1410 0.0000 0.0000 0.0000
# 4 0.0000 0.0000 0.0000 106.8118 0.0000 0.0000
# 5 0.0000 0.0000 0.0000 0.0000 26.7240 0.0000
# 6 0.0000 0.0000 0.0000 0.0000 0.0000 22.9968
#
#
#
# Elastic Compliance Matrix: (Units=1/GPa)
#
#
# Indices 1 2 3 4 5 6 
#
# 1 0.020851 0.007538 0.000059 0.000000 0.000000 0.000000
# 2 0.007538 0.033545 -0.010579 0.000000 0.000000 0.000000
# 3 0.000059 -0.010579 0.025799 0.000000 0.000000 0.000000
# 4 0.000000 0.000000 0.000000 0.009362 0.000000 0.000000
# 5 0.000000 0.000000 0.000000 0.000000 0.037419 0.000000
# 6 0.000000 0.000000 0.000000 0.000000 0.000000 0.043484
#
#
# Mechanical properties :
#
#
# Convention : Reuss Voigt Hill
#
# Bulk Modulus (GPa) = 13.47136 14.22428 13.84782
# Shear Modulus (GPa) = 24.85479 40.62501 32.73990
#
# Velocity S-wave (km/s) = 3.85046 4.92272 4.41923
# Velocity P-wave (km/s) = 5.27294 6.38716 5.85660
#
# Compressibility (1/GPa) = 0.07423158
#
# Stress axis : x y z
#
# Youngs Moduli (GPa) = 47.95947 29.81037 38.76151
#
# Poissons Ratio (x) = -0.22472 -0.00228
# Poissons Ratio (y) = -0.36153 0.41005
# Poissons Ratio (z) = -0.00283 0.31536
#
# Static dielectric constant tensor:
#      x y z
#    x 1.549010 0.000000 0.000000 
#    y 0.000000 1.569250 0.000000 
#    z 0.000000 0.000000 1.567260 
# 
# From -- ./inp_files/12051.got.cif
#   From: 2010.05.17/outbox.cif.g08.bks.cpg/sg55_7_cif.got.tgz:12051.got - 2010.06.03 13:27:54.
