data_PCOD9427518
_publ_section_title
;
Structure prediction by ZEFSAII (Michael W. Deem and Ramdas Pophale) SiO2 
 PCOD9427518
Probable space group: P B A M
;
_chemical_formula_sum "Si O2"
_cell_formula_units_Z 56
_cell_length_a 16.846321
_cell_length_b 11.528836
_cell_length_c 13.882689
_cell_angle_alpha 90.000000
_cell_angle_beta 90.000000
_cell_angle_gamma 90.000000
_cell_volume 2696.274645
_symmetry_space_group_name_H-M "P B A M"
_symmetry_group_IT_number 55
_symmetry_cell_setting 'orthorhombic'
loop_
_space_group_symop_operation_xyz
x,y,z
-x,-y,z
1/2+x,1/2-y,-z
1/2-x,1/2+y,-z
-x,-y,-z
x,y,-z
1/2-x,1/2+y,z
1/2+x,1/2-y,z
loop_
_atom_site_type_symbol
_atom_site_label
_atom_site_fract_x
_atom_site_fract_y
_atom_site_fract_z
Si Si1 0.096454 0.829538 0.193311
Si Si2 0.216121 0.657458 0.238824
Si Si3 0.849314 0.933940 0.887102
Si Si4 0.011684 0.862213 0.607966
Si Si5 0.088009 0.471935 0.713086
Si Si6 0.948348 0.697811 0.111052
Si Si7 0.159015 0.257415 0.611963
O O1 0.182891 0.771964 0.186532
O O2 0.068981 0.830015 0.304694
O O3 0.034674 0.751004 0.134539
O O4 0.099535 0.960964 0.156046
O O5 0.266856 0.576336 0.168704
O O6 0.138948 0.586776 0.271516
O O7 0.273658 0.697390 0.324409
O O8 0.891149 0.809036 0.874239
O O9 0.838989 0.954605 0.000000
O O10 0.038664 0.827334 0.500000
O O11 0.925286 0.807343 0.625651
O O12 0.000000 0.000000 0.608454
O O13 0.072893 0.402145 0.813076
O O14 0.139750 0.386969 0.646786
O O15 0.000000 0.500000 0.673589
O O16 0.943372 0.659951 0.000000
O O17 0.180000 0.253614 0.500000
#
# Coordination Sequence:
#
# PCOD9427518 Si02
#       7
#     8   8   8   8   8   8   8
#     4  12  22  42  68  95 132 175 230 285 342 404
#     4  12  25  43  66  94 142 181 221 281 342 406
#     4  11  25  42  66  97 132 176 227 285 344 405
#     4  10  20  37  66  97 128 168 220 279 338 401
#     4  12  24  47  69 100 140 183 223 283 341 407
#     4  11  23  43  69  99 132 175 231 285 340 407
#     4  11  24  44  68  99 134 175 227 276 339 410
#
# _framework density 20.769397000000001
#
# number of rings (size 3 to 8) (size 9 to 14) (size 15 to 20)
#    0.000    0.714    4.286    3.429    0.000    4.571 
#    0.000    1.429    0.000    0.000    0.000    0.000 
#    0.000    0.000    0.000    0.000    0.000    0.000 
#
# Total GULP energy -313290.266413 kJ/mol
# GULP energy per Si atom -5594.469043 kJ/mol
# Density = 2.072213 g / cm^3
# Si number density = 20.769397 Si / 1000 Ang^3
#
#
#
# Elastic Constant Matrix: (Units=GPa)
#
#
# Indices 1 2 3 4 5 6 
#
# 1 76.4978 20.4775 35.0707 0.0000 0.0000 0.0000
# 2 20.4775 74.9957 14.5222 0.0000 0.0000 0.0000
# 3 35.0707 14.5222 82.6519 0.0000 0.0000 0.0000
# 4 0.0000 0.0000 0.0000 -5.0865 0.0000 0.0000
# 5 0.0000 0.0000 0.0000 0.0000 -7.2472 0.0000
# 6 0.0000 0.0000 0.0000 0.0000 0.0000 39.9677
#
#
#
# Elastic Compliance Matrix: (Units=1/GPa)
#
#
# Indices 1 2 3 4 5 6 
#
# 1 0.017010 -0.003361 -0.006627 0.000000 0.000000 0.000000
# 2 -0.003361 0.014468 -0.001116 0.000000 0.000000 0.000000
# 3 -0.006627 -0.001116 0.015107 0.000000 0.000000 0.000000
# 4 0.000000 0.000000 0.000000 -0.196598 0.000000 0.000000
# 5 0.000000 0.000000 0.000000 0.000000 -0.137985 0.000000
# 6 0.000000 0.000000 0.000000 0.000000 0.000000 0.025020
#
#
# Mechanical properties :
#
#
# Convention : Reuss Voigt Hill
#
# Bulk Modulus (GPa) = 41.02285 41.58735 41.30510
# Shear Modulus (GPa) = -21.49216 16.46513 -2.51351
#
# Velocity S-wave (km/s) = -3.22032 2.81865 -1.10128
# Velocity P-wave (km/s) = 2.44278 5.53714 4.27943
#
# Compressibility (1/GPa) = 0.02437666
#
# Stress axis : x y z
#
# Youngs Moduli (GPa) = 58.78781 69.11817 66.19439
#
# Poissons Ratio (x) = 0.23233 0.43868
# Poissons Ratio (y) = 0.19761 0.07386
# Poissons Ratio (z) = 0.38960 0.07712
#
# Static dielectric constant tensor:
#      x y z
#    x 1.744050 0.000000 0.000000 
#    y 0.000000 1.795370 0.000000 
#    z 0.000000 0.000000 1.735750 
# 
# From -- ./inp_files/18388.got.cif
#   From: 2010.05.17/outbox.cif.g08.bks.cpg/sg55_10_cif.got.tgz:18388.got - 2010.06.03 13:27:54.
