data_PCOD9427498
_publ_section_title
;
Structure prediction by ZEFSAII (Michael W. Deem and Ramdas Pophale) SiO2 
 PCOD9427498
Probable space group: P B A M
;
_chemical_formula_sum "Si O2"
_cell_formula_units_Z 64
_cell_length_a 12.744823
_cell_length_b 29.336549
_cell_length_c 8.057789
_cell_angle_alpha 90.000000
_cell_angle_beta 90.000000
_cell_angle_gamma 90.000000
_cell_volume 3012.719674
_symmetry_space_group_name_H-M "P B A M"
_symmetry_group_IT_number 55
_symmetry_cell_setting 'orthorhombic'
loop_
_space_group_symop_operation_xyz
x,y,z
-x,-y,z
1/2+x,1/2-y,-z
1/2-x,1/2+y,-z
-x,-y,-z
x,y,-z
1/2-x,1/2+y,z
1/2+x,1/2-y,z
loop_
_atom_site_type_symbol
_atom_site_label
_atom_site_fract_x
_atom_site_fract_y
_atom_site_fract_z
Si Si1 0.645010 0.382610 0.692374
Si Si2 0.441862 0.799320 0.700640
Si Si3 0.385920 0.514822 0.802478
Si Si4 0.269475 0.937518 0.803491
Si Si5 0.498648 0.301157 0.702738
Si Si6 0.499749 0.948171 0.306031
Si Si7 0.870622 0.365178 0.809603
Si Si8 0.220133 0.840717 0.700973
O O1 0.618404 0.389486 0.500000
O O2 0.635839 0.432150 0.773943
O O3 0.567115 0.344102 0.761214
O O4 0.763404 0.364345 0.707930
O O5 0.438846 0.799229 0.500000
O O6 0.458069 0.747539 0.758892
O O7 0.540449 0.829943 0.752796
O O8 0.331754 0.820706 0.758354
O O9 0.500000 0.500000 0.735439
O O10 0.294130 0.481419 0.739155
O O11 0.388090 0.506604 0.000000
O O12 0.380547 0.931572 0.713383
O O13 0.205335 0.891407 0.771380
O O14 0.290237 0.942339 0.000000
O O15 0.504259 0.300916 0.500000
O O16 0.377744 0.309232 0.748291
O O17 0.529681 0.947683 0.500000
O O18 0.577488 0.914968 0.211213
O O19 0.500000 0.000000 0.244587
O O20 0.843850 0.356972 0.000000
O O21 0.221986 0.843773 0.500000
#
# Coordination Sequence:
#
# PCOD9427498 Si02
#       8
#     8   8   8   8   8   8   8   8
#     4  11  23  40  64  94 127 165 211 259 308 367
#     4  10  21  39  65  92 120 159 204 255 311 369
#     4  10  22  40  61  88 127 173 212 250 308 369
#     4  11  22  36  58  87 121 161 203 249 303 365
#     4   9  21  39  64  96 123 158 206 256 312 366
#     4  11  23  39  60  87 117 154 201 250 304 363
#     4  12  25  41  61  88 125 162 203 252 310 375
#     4  10  20  37  63  92 123 158 203 256 306 362
#
# _framework density 21.243262999999999
#
# number of rings (size 3 to 8) (size 9 to 14) (size 15 to 20)
#    0.000    1.500    1.250    3.750    1.750    4.250 
#    0.000    2.500    0.000    0.000    0.000    0.000 
#    0.000    0.000    0.000    0.000    0.000    0.000 
#
# Total GULP energy -357843.267829 kJ/mol
# GULP energy per Si atom -5591.301060 kJ/mol
# Density = 2.119491 g / cm^3
# Si number density = 21.243263 Si / 1000 Ang^3
#
#
#
# Elastic Constant Matrix: (Units=GPa)
#
#
# Indices 1 2 3 4 5 6 
#
# 1 92.1113 34.1130 -10.5398 0.0000 0.0000 0.0000
# 2 34.1130 124.1221 -7.8982 0.0000 0.0000 0.0000
# 3 -10.5398 -7.8982 15.8663 0.0000 0.0000 0.0000
# 4 0.0000 0.0000 0.0000 50.1610 0.0000 0.0000
# 5 0.0000 0.0000 0.0000 0.0000 3.3429 0.0000
# 6 0.0000 0.0000 0.0000 0.0000 0.0000 36.3112
#
#
#
# Elastic Compliance Matrix: (Units=1/GPa)
#
#
# Indices 1 2 3 4 5 6 
#
# 1 0.012791 -0.003072 0.006968 0.000000 0.000000 0.000000
# 2 -0.003072 0.009058 0.002468 0.000000 0.000000 0.000000
# 3 0.006968 0.002468 0.068884 0.000000 0.000000 0.000000
# 4 0.000000 0.000000 0.000000 0.019936 0.000000 0.000000
# 5 0.000000 0.000000 0.000000 0.000000 0.299145 0.000000
# 6 0.000000 0.000000 0.000000 0.000000 0.000000 0.027540
#
#
# Mechanical properties :
#
#
# Convention : Reuss Voigt Hill
#
# Bulk Modulus (GPa) = 9.66544 29.27220 19.46882
# Shear Modulus (GPa) = 10.89055 32.39132 21.64094
#
# Velocity S-wave (km/s) = 2.26665 3.90908 3.19520
# Velocity P-wave (km/s) = 3.37788 5.84671 4.77462
#
# Compressibility (1/GPa) = 0.10346138
#
# Stress axis : x y z
#
# Youngs Moduli (GPa) = 78.17695 110.39993 14.51717
#
# Poissons Ratio (x) = 0.33917 -0.10115
# Poissons Ratio (y) = 0.24017 -0.03583
# Poissons Ratio (z) = -0.54473 -0.27249
#
# Static dielectric constant tensor:
#      x y z
#    x 1.760860 0.000000 0.000000 
#    y 0.000000 1.755980 0.000000 
#    z 0.000000 0.000000 1.748200 
# 
# From -- ./inp_files/4493.got.cif
#   From: 2010.05.17/outbox.cif.g08.bks.cpg/sg55_3_cif.got.tgz:4493.got - 2010.06.03 13:27:54.
