data_PCOD9427441
_publ_section_title
;
Structure prediction by ZEFSAII (Michael W. Deem and Ramdas Pophale) SiO2 
 PCOD9427441
Probable space group: P B A M
;
_chemical_formula_sum "Si O2"
_cell_formula_units_Z 64
_cell_length_a 25.205240
_cell_length_b 14.619591
_cell_length_c 8.744610
_cell_angle_alpha 90.000000
_cell_angle_beta 90.000000
_cell_angle_gamma 90.000000
_cell_volume 3222.303961
_symmetry_space_group_name_H-M "P B A M"
_symmetry_group_IT_number 55
_symmetry_cell_setting 'orthorhombic'
loop_
_space_group_symop_operation_xyz
x,y,z
-x,-y,z
1/2+x,1/2-y,-z
1/2-x,1/2+y,-z
-x,-y,-z
x,y,-z
1/2-x,1/2+y,z
1/2+x,1/2-y,z
loop_
_atom_site_type_symbol
_atom_site_label
_atom_site_fract_x
_atom_site_fract_y
_atom_site_fract_z
Si Si1 0.023972 0.401927 0.815421
Si Si2 0.130057 0.109341 0.818834
Si Si3 0.442516 0.453478 0.679618
Si Si4 0.121201 0.301739 0.683392
Si Si5 0.260114 0.551867 0.316329
Si Si6 0.672942 0.805575 0.683611
Si Si7 0.759008 0.654803 0.314258
Si Si8 0.561875 0.749154 0.182513
O O1 0.080625 0.377206 0.744615
O O2 0.000000 0.500000 0.768470
O O3 0.984190 0.319803 0.770745
O O4 0.028348 0.402438 0.000000
O O5 0.106142 0.201160 0.744604
O O6 0.190788 0.100906 0.763780
O O7 0.099568 0.019125 0.762092
O O8 0.126751 0.116412 0.000000
O O9 0.500000 0.500000 0.698132
O O10 0.429192 0.450350 0.500000
O O11 0.443252 0.350893 0.743661
O O12 0.120263 0.300650 0.500000
O O13 0.181479 0.321633 0.736207
O O14 0.268857 0.558076 0.500000
O O15 0.204271 0.600831 0.285148
O O16 0.257332 0.446824 0.268561
O O17 0.664699 0.798313 0.500000
O O18 0.714503 0.726957 0.732361
O O19 0.617772 0.792190 0.767086
O O20 0.760288 0.657022 0.500000
O O21 0.559869 0.739298 0.000000
#
# Coordination Sequence:
#
# PCOD9427441 Si02
#       8
#     8   8   8   8   8   8   8   8
#     4  10  24  45  64  88 128 173 211 258 319 372
#     4  12  24  39  62  94 129 165 202 252 319 384
#     4  11  24  42  66  93 121 158 206 259 314 375
#     4  11  22  40  65  92 123 162 215 267 311 370
#     4  10  20  37  61  87 120 162 207 254 307 366
#     4  10  20  37  61  88 124 164 204 253 310 366
#     4   9  19  36  59  89 120 156 200 255 312 358
#     4  11  24  41  62  90 127 166 209 260 313 376
#
# _framework density 19.861566
#
# number of rings (size 3 to 8) (size 9 to 14) (size 15 to 20)
#    0.000    1.500    1.250    3.750    1.750    5.750 
#    0.000    1.250    0.000    0.000    0.000    0.000 
#    0.000    0.000    0.000    0.000    0.000    0.000 
#
# Total GULP energy -357845.574376 kJ/mol
# GULP energy per Si atom -5591.337100 kJ/mol
# Density = 1.981636 g / cm^3
# Si number density = 19.861566 Si / 1000 Ang^3
#
#
#
# Elastic Constant Matrix: (Units=GPa)
#
#
# Indices 1 2 3 4 5 6 
#
# 1 59.0663 -12.9322 16.8343 0.0000 0.0000 0.0000
# 2 -12.9322 44.8853 3.7111 0.0000 0.0000 0.0000
# 3 16.8343 3.7111 37.0601 0.0000 0.0000 0.0000
# 4 0.0000 0.0000 0.0000 17.9553 0.0000 0.0000
# 5 0.0000 0.0000 0.0000 0.0000 13.5832 0.0000
# 6 0.0000 0.0000 0.0000 0.0000 0.0000 33.6083
#
#
#
# Elastic Compliance Matrix: (Units=1/GPa)
#
#
# Indices 1 2 3 4 5 6 
#
# 1 0.021450 0.007044 -0.010449 0.000000 0.000000 0.000000
# 2 0.007044 0.024778 -0.005681 0.000000 0.000000 0.000000
# 3 -0.010449 -0.005681 0.032299 0.000000 0.000000 0.000000
# 4 0.000000 0.000000 0.000000 0.055694 0.000000 0.000000
# 5 0.000000 0.000000 0.000000 0.000000 0.073620 0.000000
# 6 0.000000 0.000000 0.000000 0.000000 0.000000 0.029755
#
#
# Mechanical properties :
#
#
# Convention : Reuss Voigt Hill
#
# Bulk Modulus (GPa) = 16.56854 17.35978 16.96416
# Shear Modulus (GPa) = 18.12339 21.92258 20.02299
#
# Velocity S-wave (km/s) = 3.02401 3.32591 3.17855
# Velocity P-wave (km/s) = 4.53354 4.84853 4.69368
#
# Compressibility (1/GPa) = 0.06035536
#
# Stress axis : x y z
#
# Youngs Moduli (GPa) = 46.61907 40.35801 30.96116
#
# Poissons Ratio (x) = -0.28429 0.32352
# Poissons Ratio (y) = -0.32839 0.17589
# Poissons Ratio (z) = 0.48713 0.22927
#
# Static dielectric constant tensor:
#      x y z
#    x 1.682300 0.000000 0.000000 
#    y 0.000000 1.690960 0.000000 
#    z 0.000000 0.000000 1.672020 
# 
# From -- ./inp_files/9764.got.cif
#   From: 2010.05.17/outbox.cif.g08.bks.cpg/sg55_5_cif.got.tgz:9764.got - 2010.06.03 13:27:54.
