data_PCOD9427414
_publ_section_title
;
Structure prediction by ZEFSAII (Michael W. Deem and Ramdas Pophale) SiO2 
 PCOD9427414
Probable space group: P B A M
;
_chemical_formula_sum "Si O2"
_cell_formula_units_Z 64
_cell_length_a 15.137231
_cell_length_b 25.180803
_cell_length_c 7.653899
_cell_angle_alpha 90.000000
_cell_angle_beta 90.000000
_cell_angle_gamma 90.000000
_cell_volume 2917.418556
_symmetry_space_group_name_H-M "P B A M"
_symmetry_group_IT_number 55
_symmetry_cell_setting 'orthorhombic'
loop_
_space_group_symop_operation_xyz
x,y,z
-x,-y,z
1/2+x,1/2-y,-z
1/2-x,1/2+y,-z
-x,-y,-z
x,y,-z
1/2-x,1/2+y,z
1/2+x,1/2-y,z
loop_
_atom_site_type_symbol
_atom_site_label
_atom_site_fract_x
_atom_site_fract_y
_atom_site_fract_z
Si Si1 0.248125 0.907632 0.296358
Si Si2 0.068943 0.546405 0.213450
Si Si3 0.960838 0.945783 0.299844
Si Si4 0.357078 0.755037 0.214095
Si Si5 0.936753 0.633311 0.788769
Si Si6 0.675295 0.704633 0.200648
Si Si7 0.768444 0.972978 0.797200
Si Si8 0.992523 0.827070 0.792901
O O1 0.224031 0.905826 0.500000
O O2 0.353392 0.900869 0.276083
O O3 0.207220 0.856654 0.202650
O O4 0.220596 0.963601 0.218529
O O5 0.170033 0.539455 0.273534
O O6 0.000000 0.500000 0.267929
O O7 0.025280 0.602664 0.264257
O O8 0.072018 0.543478 0.000000
O O9 0.990395 0.945536 0.500000
O O10 0.854605 0.947835 0.289488
O O11 0.993531 0.889976 0.227259
O O12 0.000000 0.000000 0.218280
O O13 0.416358 0.806267 0.264986
O O14 0.257547 0.763752 0.279942
O O15 0.404355 0.701505 0.272435
O O16 0.351964 0.756203 0.000000
O O17 0.934314 0.632373 0.000000
O O18 0.578898 0.701850 0.283257
O O19 0.666286 0.722960 0.000000
O O20 0.770697 0.956955 0.000000
O O21 0.995089 0.817072 0.000000
#
# Coordination Sequence:
#
# PCOD9427414 Si02
#       8
#     8   8   8   8   8   8   8   8
#     4  11  20  30  49  79 112 147 190 233 273 327
#     4   9  16  29  52  83 114 146 186 229 278 335
#     4  11  25  43  60  81 112 149 189 239 296 351
#     4   8  16  32  55  84 111 137 179 233 278 322
#     4   9  16  32  54  77 110 149 188 231 275 322
#     4   9  18  34  57  81 108 145 185 233 283 329
#     4  11  21  35  56  83 113 148 187 231 283 342
#     4  10  20  37  60  87 112 143 189 234 285 345
#
# _framework density 21.937201999999999
#
# number of rings (size 3 to 8) (size 9 to 14) (size 15 to 20)
#    0.000    2.250    1.250    3.375    0.000    3.500 
#    2.250    4.375    0.000    0.000    0.000    0.000 
#    0.000    0.000    0.000    0.000    0.000    0.000 
#
# Total GULP energy -357171.824483 kJ/mol
# GULP energy per Si atom -5580.809758 kJ/mol
# Density = 2.188727 g / cm^3
# Si number density = 21.937202 Si / 1000 Ang^3
#
#
#
# Elastic Constant Matrix: (Units=GPa)
#
#
# Indices 1 2 3 4 5 6 
#
# 1 136.3367 50.4389 0.0499 0.0000 0.0000 0.0000
# 2 50.4389 75.6461 0.9791 0.0000 0.0000 0.0000
# 3 0.0499 0.9791 44.0941 0.0000 0.0000 0.0000
# 4 0.0000 0.0000 0.0000 36.9937 0.0000 0.0000
# 5 0.0000 0.0000 0.0000 0.0000 120.6213 0.0000
# 6 0.0000 0.0000 0.0000 0.0000 0.0000 24.9656
#
#
#
# Elastic Compliance Matrix: (Units=1/GPa)
#
#
# Indices 1 2 3 4 5 6 
#
# 1 0.009737 -0.006494 0.000133 0.000000 0.000000 0.000000
# 2 -0.006494 0.017555 -0.000382 0.000000 0.000000 0.000000
# 3 0.000133 -0.000382 0.022687 0.000000 0.000000 0.000000
# 4 0.000000 0.000000 0.000000 0.027032 0.000000 0.000000
# 5 0.000000 0.000000 0.000000 0.000000 0.008290 0.000000
# 6 0.000000 0.000000 0.000000 0.000000 0.000000 0.040055
#
#
# Mechanical properties :
#
#
# Convention : Reuss Voigt Hill
#
# Bulk Modulus (GPa) = 27.40335 39.89031 33.64683
# Shear Modulus (GPa) = 33.11096 50.15674 41.63385
#
# Velocity S-wave (km/s) = 3.88925 4.78680 4.36118
# Velocity P-wave (km/s) = 5.71727 6.98388 6.38208
#
# Compressibility (1/GPa) = 0.03649189
#
# Stress axis : x y z
#
# Youngs Moduli (GPa) = 102.69711 56.96490 44.07791
#
# Poissons Ratio (x) = 0.36995 -0.00587
# Poissons Ratio (y) = 0.66695 0.01686
# Poissons Ratio (z) = -0.01368 0.02179
#
# Static dielectric constant tensor:
#      x y z
#    x 1.838080 0.000000 0.000000 
#    y 0.000000 1.780370 0.000000 
#    z 0.000000 0.000000 1.805090 
# 
# From -- ./inp_files/6498.got.cif
#   From: 2010.05.17/outbox.cif.g08.bks.cpg/sg55_4_cif.got.tgz:6498.got - 2010.06.03 13:27:54.
