data_PCOD9427459
_publ_section_title
;
Structure prediction by ZEFSAII (Michael W. Deem and Ramdas Pophale) SiO2 
 PCOD9427459
Probable space group: P B A M
;
_chemical_formula_sum "Si O2"
_cell_formula_units_Z 56
_cell_length_a 8.770321
_cell_length_b 15.562423
_cell_length_c 19.406336
_cell_angle_alpha 90.000000
_cell_angle_beta 90.000000
_cell_angle_gamma 90.000000
_cell_volume 2648.721222
_symmetry_space_group_name_H-M "P B A M"
_symmetry_group_IT_number 55
_symmetry_cell_setting 'orthorhombic'
loop_
_space_group_symop_operation_xyz
x,y,z
-x,-y,z
1/2+x,1/2-y,-z
1/2-x,1/2+y,-z
-x,-y,-z
x,y,-z
1/2-x,1/2+y,z
1/2+x,1/2-y,z
loop_
_atom_site_type_symbol
_atom_site_label
_atom_site_fract_x
_atom_site_fract_y
_atom_site_fract_z
Si Si1 0.822819 0.970998 0.924044
Si Si2 0.222076 0.623673 0.630481
Si Si3 0.755087 0.366785 0.213658
Si Si4 0.842813 0.043098 0.581804
Si Si5 0.990141 0.750312 0.162364
Si Si6 0.743844 0.660358 0.077195
Si Si7 0.465043 0.281284 0.583377
O O1 0.786487 0.919654 0.855100
O O2 0.727738 0.059025 0.921403
O O3 0.796634 0.929145 0.000000
O O4 0.000000 0.000000 0.923335
O O5 0.239617 0.596843 0.710354
O O6 0.217630 0.530419 0.594240
O O7 0.370821 0.678022 0.604076
O O8 0.084555 0.690655 0.616678
O O9 0.916542 0.324399 0.197899
O O10 0.624533 0.294338 0.214721
O O11 0.859061 0.050472 0.500000
O O12 0.845058 0.142458 0.605309
O O13 0.000000 0.000000 0.609450
O O14 0.111320 0.816221 0.130635
O O15 0.890081 0.713194 0.100171
O O16 0.695166 0.683106 0.000000
O O17 0.462521 0.270373 0.500000
#
# Coordination Sequence:
#
# PCOD9427459 Si02
#       7
#     8   8   8   8   8   8   8
#     4  10  21  38  59  85 115 153 203 258 309 359
#     4  11  21  37  60  88 120 162 198 241 302 359
#     4  11  23  39  57  83 119 157 199 245 302 371
#     4   8  16  33  56  86 115 147 193 237 283 347
#     4  10  22  38  55  84 116 151 189 252 300 360
#     4  10  20  37  62  86 110 147 199 253 310 361
#     4  10  20  37  63  92 120 153 197 249 293 351
#
# _framework density 21.142278000000001
#
# number of rings (size 3 to 8) (size 9 to 14) (size 15 to 20)
#    0.000    2.000    1.429    3.429    0.000    5.143 
#    5.143    2.143    3.143    2.571    0.000    0.000 
#    0.000    0.000    0.000    0.000    0.000    0.000 
#
# Total GULP energy -312158.194538 kJ/mol
# GULP energy per Si atom -5574.253474 kJ/mol
# Density = 2.109416 g / cm^3
# Si number density = 21.142278 Si / 1000 Ang^3
#
#
#
# Elastic Constant Matrix: (Units=GPa)
#
#
# Indices 1 2 3 4 5 6 
#
# 1 20.7537 -10.7628 -5.9910 0.0000 0.0000 0.0000
# 2 -10.7628 36.8599 6.8778 0.0000 0.0000 0.0000
# 3 -5.9910 6.8778 77.1392 0.0000 0.0000 0.0000
# 4 0.0000 0.0000 0.0000 13.0392 0.0000 0.0000
# 5 0.0000 0.0000 0.0000 0.0000 7.8811 0.0000
# 6 0.0000 0.0000 0.0000 0.0000 0.0000 -7.9388
#
#
#
# Elastic Compliance Matrix: (Units=1/GPa)
#
#
# Indices 1 2 3 4 5 6 
#
# 1 0.057465 0.016216 0.003017 0.000000 0.000000 0.000000
# 2 0.016216 0.032165 -0.001608 0.000000 0.000000 0.000000
# 3 0.003017 -0.001608 0.013341 0.000000 0.000000 0.000000
# 4 0.000000 0.000000 0.000000 0.076692 0.000000 0.000000
# 5 0.000000 0.000000 0.000000 0.000000 0.126886 0.000000
# 6 0.000000 0.000000 0.000000 0.000000 0.000000 -0.125964
#
#
# Mechanical properties :
#
#
# Convention : Reuss Voigt Hill
#
# Bulk Modulus (GPa) = 7.23481 12.77788 10.00634
# Shear Modulus (GPa) = 26.12204 12.23821 19.18012
#
# Velocity S-wave (km/s) = 3.51883 2.40854 3.01523
# Velocity P-wave (km/s) = 4.46531 3.71371 4.10674
#
# Compressibility (1/GPa) = 0.13822065
#
# Stress axis : x y z
#
# Youngs Moduli (GPa) = 17.40199 31.08983 74.95512
#
# Poissons Ratio (x) = -0.50416 -0.22615
# Poissons Ratio (y) = -0.28219 0.12056
# Poissons Ratio (z) = -0.05250 0.05001
#
# Static dielectric constant tensor:
#      x y z
#    x 1.797450 0.000000 0.000000 
#    y 0.000000 1.808050 0.000000 
#    z 0.000000 0.000000 1.798680 
# 
# From -- ./inp_files/22633.got.cif
#   From: 2010.05.17/outbox.cif.g08.bks.cpg/sg55_12_cif.got.tgz:22633.got - 2010.06.03 13:27:54.
