data_PCOD9427754
_publ_section_title
;
Structure prediction by ZEFSAII (Michael W. Deem and Ramdas Pophale) SiO2 
 PCOD9427754
Probable space group: P B A M
;
_chemical_formula_sum "Si O2"
_cell_formula_units_Z 64
_cell_length_a 11.217035
_cell_length_b 32.819337
_cell_length_c 9.385309
_cell_angle_alpha 90.000000
_cell_angle_beta 90.000000
_cell_angle_gamma 90.000000
_cell_volume 3455.066846
_symmetry_space_group_name_H-M "P B A M"
_symmetry_group_IT_number 55
_symmetry_cell_setting 'orthorhombic'
loop_
_space_group_symop_operation_xyz
x,y,z
-x,-y,z
1/2+x,1/2-y,-z
1/2-x,1/2+y,-z
-x,-y,-z
x,y,-z
1/2-x,1/2+y,z
1/2+x,1/2-y,z
loop_
_atom_site_type_symbol
_atom_site_label
_atom_site_fract_x
_atom_site_fract_y
_atom_site_fract_z
Si Si1 0.355720 0.337877 0.834344
Si Si2 0.801586 0.721427 0.333649
Si Si3 0.637379 0.098177 0.836225
Si Si4 0.633097 0.015195 0.328117
Si Si5 0.765475 0.313018 0.340298
Si Si6 0.934953 0.880804 0.334969
Si Si7 0.005732 0.674766 0.167606
Si Si8 0.883384 0.973842 0.326984
O O1 0.311456 0.298658 0.746215
O O2 0.249076 0.371068 0.826989
O O3 0.467739 0.359386 0.763000
O O4 0.375143 0.327661 0.000000
O O5 0.798542 0.709916 0.500000
O O6 0.801889 0.770147 0.324629
O O7 0.915622 0.702518 0.256710
O O8 0.647983 0.060586 0.731668
O O9 0.525980 0.127500 0.803195
O O10 0.628980 0.083799 0.000000
O O11 0.633588 0.015053 0.500000
O O12 0.500000 0.000000 0.283406
O O13 0.752381 0.990251 0.281094
O O14 0.821082 0.312489 0.500000
O O15 0.679094 0.351499 0.333276
O O16 0.863200 0.315880 0.219225
O O17 0.977963 0.882905 0.500000
O O18 0.903706 0.926641 0.288275
O O19 0.986347 0.681468 0.000000
O O20 0.882333 0.975880 0.500000
O O21 0.000000 0.000000 0.279737
#
# Coordination Sequence:
#
# PCOD9427754 Si02
#       8
#     8   8   8   8   8   8   8   8
#     4  10  21  38  59  86 116 149 194 239 283 345
#     4  10  21  38  59  84 114 150 195 241 288 342
#     4   9  20  38  57  80 113 151 189 230 281 346
#     4  10  21  34  56  88 114 144 193 245 289 345
#     4  10  23  38  57  84 115 152 193 239 290 345
#     4  10  21  37  59  85 117 154 191 238 297 346
#     4  10  22  39  59  84 115 151 194 238 288 346
#     4   9  18  34  56  84 117 150 188 239 297 354
#
# _framework density 18.523520999999999
#
# number of rings (size 3 to 8) (size 9 to 14) (size 15 to 20)
#    0.000    2.250    0.000    2.625    3.500    5.750 
#    0.000    0.625    0.000    2.250    0.000    0.000 
#    0.000    0.000    0.000    0.000    0.000    0.000 
#
# Total GULP energy -356984.647661 kJ/mol
# GULP energy per Si atom -5577.885120 kJ/mol
# Density = 1.848136 g / cm^3
# Si number density = 18.523521 Si / 1000 Ang^3
#
#
#
# Elastic Constant Matrix: (Units=GPa)
#
#
# Indices 1 2 3 4 5 6 
#
# 1 73.7913 36.5741 28.8814 0.0000 0.0000 0.0000
# 2 36.5741 108.4196 42.4475 0.0000 0.0000 0.0000
# 3 28.8814 42.4475 63.0010 0.0000 0.0000 0.0000
# 4 0.0000 0.0000 0.0000 14.0503 0.0000 0.0000
# 5 0.0000 0.0000 0.0000 0.0000 22.9453 0.0000
# 6 0.0000 0.0000 0.0000 0.0000 0.0000 18.5417
#
#
#
# Elastic Compliance Matrix: (Units=1/GPa)
#
#
# Indices 1 2 3 4 5 6 
#
# 1 0.017580 -0.003770 -0.005520 0.000000 0.000000 0.000000
# 2 -0.003770 0.013336 -0.007257 0.000000 0.000000 0.000000
# 3 -0.005520 -0.007257 0.023293 0.000000 0.000000 0.000000
# 4 0.000000 0.000000 0.000000 0.071173 0.000000 0.000000
# 5 0.000000 0.000000 0.000000 0.000000 0.043582 0.000000
# 6 0.000000 0.000000 0.000000 0.000000 0.000000 0.053933
#
#
# Mechanical properties :
#
#
# Convention : Reuss Voigt Hill
#
# Bulk Modulus (GPa) = 47.35632 51.22421 49.29027
# Shear Modulus (GPa) = 19.00931 20.26139 19.63535
#
# Velocity S-wave (km/s) = 3.20695 3.31088 3.25933
# Velocity P-wave (km/s) = 6.27166 6.50612 6.38996
#
# Compressibility (1/GPa) = 0.02111650
#
# Stress axis : x y z
#
# Youngs Moduli (GPa) = 56.88145 74.98258 42.93157
#
# Poissons Ratio (x) = 0.28265 0.23696
# Poissons Ratio (y) = 0.21442 0.31157
# Poissons Ratio (z) = 0.31396 0.54418
#
# Static dielectric constant tensor:
#      x y z
#    x 1.655760 0.000000 0.000000 
#    y 0.000000 1.617860 0.000000 
#    z 0.000000 0.000000 1.627000 
# 
# From -- ./inp_files/4691.got.cif
#   From: 2010.05.17/outbox.cif.g08.bks.cpg/sg55_3_cif.got.tgz:4691.got - 2010.06.03 13:27:54.
