data_PCOD9427831
_publ_section_title
;
Structure prediction by ZEFSAII (Michael W. Deem and Ramdas Pophale) SiO2 
 PCOD9427831
Probable space group: P B A M
;
_chemical_formula_sum "Si O2"
_cell_formula_units_Z 60
_cell_length_a 14.279797
_cell_length_b 13.921220
_cell_length_c 15.273626
_cell_angle_alpha 90.000000
_cell_angle_beta 90.000000
_cell_angle_gamma 90.000000
_cell_volume 3036.277647
_symmetry_space_group_name_H-M "P B A M"
_symmetry_group_IT_number 55
_symmetry_cell_setting 'orthorhombic'
loop_
_space_group_symop_operation_xyz
x,y,z
-x,-y,z
1/2+x,1/2-y,-z
1/2-x,1/2+y,-z
-x,-y,-z
x,y,-z
1/2-x,1/2+y,z
1/2+x,1/2-y,z
loop_
_atom_site_type_symbol
_atom_site_label
_atom_site_fract_x
_atom_site_fract_y
_atom_site_fract_z
Si Si1 0.940072 0.804498 0.289544
Si Si2 0.156850 0.515657 0.342053
Si Si3 0.112262 0.987572 0.101729
Si Si4 0.866112 0.198424 0.783710
Si Si5 0.513801 0.133104 0.600671
Si Si6 0.000000 0.000000 0.638213
Si Si7 0.821450 0.115844 0.406074
Si Si8 0.263698 0.638287 0.801666
O O1 0.961989 0.742091 0.375462
O O2 0.836360 0.796639 0.254248
O O3 0.023996 0.776051 0.224939
O O4 0.951184 0.917684 0.305479
O O5 0.079269 0.430834 0.335425
O O6 0.238734 0.462080 0.395130
O O7 0.207638 0.561867 0.258508
O O8 0.093582 0.600723 0.384355
O O9 0.142526 0.900361 0.164058
O O10 0.172043 0.080576 0.130430
O O11 0.129788 0.966093 0.000000
O O12 0.000000 0.000000 0.111944
O O13 0.831180 0.178086 0.683133
O O14 0.812224 0.284070 0.830953
O O15 0.537855 0.111642 0.500000
O O16 0.082254 0.944036 0.590772
O O17 0.809308 0.167533 0.500000
#
# Coordination Sequence:
#
# PCOD9427831 Si02
#       8
#     8   8   8   8   8   4   8   8
#     4  11  21  38  61  89 124 171 210 266 328 381
#     4  11  21  40  59  83 121 172 219 266 310 369
#     4  11  24  46  75  99 126 165 213 274 343 413
#     4  11  23  40  64  98 134 164 211 271 322 396
#     4  11  24  40  57  86 127 177 233 273 310 377
#     4  10  21  36  52  78 125 162 221 280 312 360
#     4  11  21  36  57  86 127 175 214 259 312 371
#     4  12  22  41  67  97 126 166 214 267 336 392
#
# _framework density 19.761039
#
# number of rings (size 3 to 8) (size 9 to 14) (size 15 to 20)
#    0.000    0.933    5.333    3.400    0.933    3.200 
#    0.000    0.000    0.000    0.000    0.000    2.800 
#    0.000    0.000    0.000    0.000    0.000    0.000 
#
# Total GULP energy -334606.263022 kJ/mol
# GULP energy per Si atom -5576.771050 kJ/mol
# Density = 1.971606 g / cm^3
# Si number density = 19.761039 Si / 1000 Ang^3
#
#
#
# Elastic Constant Matrix: (Units=GPa)
#
#
# Indices 1 2 3 4 5 6 
#
# 1 97.5667 23.5296 20.1781 0.0000 0.0000 0.0000
# 2 23.5296 75.0909 23.3390 0.0000 0.0000 0.0000
# 3 20.1781 23.3390 77.8434 0.0000 0.0000 0.0000
# 4 0.0000 0.0000 0.0000 11.9875 0.0000 0.0000
# 5 0.0000 0.0000 0.0000 0.0000 -57.4042 0.0000
# 6 0.0000 0.0000 0.0000 0.0000 0.0000 37.3469
#
#
#
# Elastic Compliance Matrix: (Units=1/GPa)
#
#
# Indices 1 2 3 4 5 6 
#
# 1 0.011383 -0.002922 -0.002075 0.000000 0.000000 0.000000
# 2 -0.002922 0.015436 -0.003871 0.000000 0.000000 0.000000
# 3 -0.002075 -0.003871 0.014545 0.000000 0.000000 0.000000
# 4 0.000000 0.000000 0.000000 0.083420 0.000000 0.000000
# 5 0.000000 0.000000 0.000000 0.000000 -0.017420 0.000000
# 6 0.000000 0.000000 0.000000 0.000000 0.000000 0.026776
#
#
# Mechanical properties :
#
#
# Convention : Reuss Voigt Hill
#
# Bulk Modulus (GPa) = 42.32065 42.73271 42.52668
# Shear Modulus (GPa) = 31.29892 10.61634 20.95763
#
# Velocity S-wave (km/s) = 3.98410 2.32035 3.26015
# Velocity P-wave (km/s) = 6.52892 5.37125 5.97818
#
# Compressibility (1/GPa) = 0.02362913
#
# Stress axis : x y z
#
# Youngs Moduli (GPa) = 87.84918 64.78439 68.75446
#
# Poissons Ratio (x) = 0.18931 0.14264
# Poissons Ratio (y) = 0.25670 0.26612
# Poissons Ratio (z) = 0.18225 0.25075
#
# Static dielectric constant tensor:
#      x y z
#    x 1.735190 0.000000 0.000000 
#    y 0.000000 1.724700 0.000000 
#    z 0.000000 0.000000 1.707930 
# 
# From -- ./inp_files/19093.got.cif
#   From: 2010.05.17/outbox.cif.g08.bks.cpg/sg55_10_cif.got.tgz:19093.got - 2010.06.03 13:27:54.
