data_PCOD9427144
_publ_section_title
;
Structure prediction by ZEFSAII (Michael W. Deem and Ramdas Pophale) SiO2 
 PCOD9427144
Probable space group: P B A M
;
_chemical_formula_sum "Si O2"
_cell_formula_units_Z 64
_cell_length_a 16.012696
_cell_length_b 13.887751
_cell_length_c 15.263050
_cell_angle_alpha 90.000000
_cell_angle_beta 90.000000
_cell_angle_gamma 90.000000
_cell_volume 3394.202170
_symmetry_space_group_name_H-M "P B A M"
_symmetry_group_IT_number 55
_symmetry_cell_setting 'orthorhombic'
loop_
_space_group_symop_operation_xyz
x,y,z
-x,-y,z
1/2+x,1/2-y,-z
1/2-x,1/2+y,-z
-x,-y,-z
x,y,-z
1/2-x,1/2+y,z
1/2+x,1/2-y,z
loop_
_atom_site_type_symbol
_atom_site_label
_atom_site_fract_x
_atom_site_fract_y
_atom_site_fract_z
Si Si1 0.223446 0.999496 0.675420
Si Si2 0.167844 0.554672 0.836109
Si Si3 0.486528 0.155124 0.258115
Si Si4 0.609615 0.148843 0.902148
Si Si5 0.885033 0.607612 0.400711
Si Si6 0.209299 0.760551 0.097693
Si Si7 0.861346 0.190435 0.283106
Si Si8 0.722750 0.295713 0.600494
O O1 0.305210 0.956791 0.626072
O O2 0.154363 0.916019 0.680321
O O3 0.257276 0.022717 0.772566
O O4 0.196917 0.098026 0.629792
O O5 0.091499 0.592161 0.775562
O O6 0.136666 0.462384 0.889187
O O7 0.195265 0.646368 0.892418
O O8 0.544886 0.172086 0.174041
O O9 0.540654 0.103100 0.331827
O O10 0.448886 0.255612 0.292978
O O11 0.693683 0.211207 0.892235
O O12 0.575272 0.162505 0.000000
O O13 0.910005 0.585927 0.500000
O O14 0.850418 0.717131 0.395349
O O15 0.161191 0.807064 0.179740
O O16 0.183061 0.791798 0.000000
O O17 0.793897 0.257510 0.333610
O O18 0.753644 0.297134 0.500000
#
# Coordination Sequence:
#
# PCOD9427144 Si02
#       8
#     8   8   8   8   8   8   8   8
#     4  11  19  37  61  83 109 148 196 237 278 329
#     4  11  21  35  60  85 113 145 191 241 280 334
#     4  11  22  36  54  85 119 150 177 229 293 345
#     4  11  22  37  59  84 118 152 186 233 289 343
#     4  10  22  38  57  84 121 153 183 234 286 342
#     4  10  20  36  57  83 112 153 194 231 278 335
#     4  10  21  37  58  83 116 147 190 242 280 339
#     4  10  20  37  61  83 110 152 197 236 280 334
#
# _framework density 18.855682000000002
#
# number of rings (size 3 to 8) (size 9 to 14) (size 15 to 20)
#    0.000    1.500    5.000    1.875    0.000    4.000 
#    0.000    1.250    0.000    1.500    0.000    1.750 
#    0.000    0.000    0.000    0.000    0.000    0.000 
#
# Total GULP energy -357364.749464 kJ/mol
# GULP energy per Si atom -5583.824210 kJ/mol
# Density = 1.881277 g / cm^3
# Si number density = 18.855682 Si / 1000 Ang^3
#
#
#
# Elastic Constant Matrix: (Units=GPa)
#
#
# Indices 1 2 3 4 5 6 
#
# 1 28.0972 13.1113 9.8210 0.0000 0.0000 0.0000
# 2 13.1113 98.8013 9.2748 0.0000 0.0000 0.0000
# 3 9.8210 9.2748 91.6839 0.0000 0.0000 0.0000
# 4 0.0000 0.0000 0.0000 18.1803 0.0000 0.0000
# 5 0.0000 0.0000 0.0000 0.0000 -11.5151 0.0000
# 6 0.0000 0.0000 0.0000 0.0000 0.0000 15.4102
#
#
#
# Elastic Compliance Matrix: (Units=1/GPa)
#
#
# Indices 1 2 3 4 5 6 
#
# 1 0.039147 -0.004847 -0.003703 0.000000 0.000000 0.000000
# 2 -0.004847 0.010819 -0.000575 0.000000 0.000000 0.000000
# 3 -0.003703 -0.000575 0.011362 0.000000 0.000000 0.000000
# 4 0.000000 0.000000 0.000000 0.055005 0.000000 0.000000
# 5 0.000000 0.000000 0.000000 0.000000 -0.086843 0.000000
# 6 0.000000 0.000000 0.000000 0.000000 0.000000 0.064892
#
#
# Mechanical properties :
#
#
# Convention : Reuss Voigt Hill
#
# Bulk Modulus (GPa) = 23.21455 31.44408 27.32931
# Shear Modulus (GPa) = 39.37279 16.84011 28.10645
#
# Velocity S-wave (km/s) = 4.57454 2.99173 3.86503
# Velocity P-wave (km/s) = 6.34353 5.35222 5.86884
#
# Compressibility (1/GPa) = 0.04307643
#
# Stress axis : x y z
#
# Youngs Moduli (GPa) = 25.54475 92.43358 88.01361
#
# Poissons Ratio (x) = 0.44806 0.32591
# Poissons Ratio (y) = 0.12382 0.05062
# Poissons Ratio (z) = 0.09459 0.05317
#
# Static dielectric constant tensor:
#      x y z
#    x 1.636990 0.000000 0.000000 
#    y 0.000000 1.674910 0.000000 
#    z 0.000000 0.000000 1.667180 
# 
# From -- ./inp_files/19525.got.cif
#   From: 2010.05.17/outbox.cif.g08.bks.cpg/sg55_10_cif.got.tgz:19525.got - 2010.06.03 13:27:54.
