data_PCOD9427120
_publ_section_title
;
Structure prediction by ZEFSAII (Michael W. Deem and Ramdas Pophale) SiO2 
 PCOD9427120
Probable space group: P B A M
;
_chemical_formula_sum "Si O2"
_cell_formula_units_Z 32
_cell_length_a 24.547535
_cell_length_b 5.019923
_cell_length_c 14.141047
_cell_angle_alpha 90.000000
_cell_angle_beta 90.000000
_cell_angle_gamma 90.000000
_cell_volume 1742.555059
_symmetry_space_group_name_H-M "P B A M"
_symmetry_group_IT_number 55
_symmetry_cell_setting 'orthorhombic'
loop_
_space_group_symop_operation_xyz
x,y,z
-x,-y,z
1/2+x,1/2-y,-z
1/2-x,1/2+y,-z
-x,-y,-z
x,y,-z
1/2-x,1/2+y,z
1/2+x,1/2-y,z
loop_
_atom_site_type_symbol
_atom_site_label
_atom_site_fract_x
_atom_site_fract_y
_atom_site_fract_z
Si Si1 0.539785 0.749770 0.500000
Si Si2 0.540180 0.251013 0.000000
Si Si3 0.102454 0.630545 0.309463
Si Si4 0.061149 0.121434 0.794788
Si Si5 0.785256 0.569417 0.612033
O O1 0.500000 0.500000 0.500000
O O2 0.576839 0.761327 0.593129
O O3 0.500000 0.000000 0.500000
O O4 0.500000 0.500000 0.000000
O O5 0.571746 0.275040 0.098684
O O6 0.500000 0.000000 0.000000
O O7 0.162614 0.521698 0.329690
O O8 0.068139 0.377451 0.271999
O O9 0.099032 0.876926 0.237133
O O10 0.000000 0.000000 0.788931
O O11 0.798587 0.547735 0.500000
O O12 0.764618 0.867162 0.630184
#
# Coordination Sequence:
#
# PCOD9427120 Si02
#       5
#     4   4   8   8   8
#     4  12  24  34  48  76 118 152 176 204 259 336
#     4  10  20  36  56  80 110 148 190 232 270 310
#     4  12  22  37  55  83 111 151 186 225 278 334
#     4  11  22  36  57  82 116 148 187 227 272 333
#     4  10  21  38  58  78 106 143 191 243 278 315
#
# _framework density 18.363838000000001
#
# number of rings (size 3 to 8) (size 9 to 14) (size 15 to 20)
#    0.000    1.000    1.250    9.000    0.000    0.000 
#    0.000    0.000    0.000    0.000    0.000   17.500 
#    0.000    0.000    0.000    0.000    0.000    0.000 
#
# Total GULP energy -178863.081796 kJ/mol
# GULP energy per Si atom -5589.471306 kJ/mol
# Density = 1.832204 g / cm^3
# Si number density = 18.363838 Si / 1000 Ang^3
#
#
#
# Elastic Constant Matrix: (Units=GPa)
#
#
# Indices 1 2 3 4 5 6 
#
# 1 40.2726 -3.7954 26.7297 0.0000 0.0000 0.0000
# 2 -3.7954 107.2172 27.3763 0.0000 0.0000 0.0000
# 3 26.7297 27.3763 100.7570 0.0000 0.0000 0.0000
# 4 0.0000 0.0000 0.0000 17.9954 0.0000 0.0000
# 5 0.0000 0.0000 0.0000 0.0000 11.0022 0.0000
# 6 0.0000 0.0000 0.0000 0.0000 0.0000 19.2602
#
#
#
# Elastic Compliance Matrix: (Units=1/GPa)
#
#
# Indices 1 2 3 4 5 6 
#
# 1 0.031293 0.003468 -0.009244 0.000000 0.000000 0.000000
# 2 0.003468 0.010407 -0.003748 0.000000 0.000000 0.000000
# 3 -0.009244 -0.003748 0.013395 0.000000 0.000000 0.000000
# 4 0.000000 0.000000 0.000000 0.055570 0.000000 0.000000
# 5 0.000000 0.000000 0.000000 0.000000 0.090891 0.000000
# 6 0.000000 0.000000 0.000000 0.000000 0.000000 0.051921
#
#
# Mechanical properties :
#
#
# Convention : Reuss Voigt Hill
#
# Bulk Modulus (GPa) = 27.74079 38.76313 33.25196
# Shear Modulus (GPa) = 17.57229 22.84732 20.20980
#
# Velocity S-wave (km/s) = 3.09673 3.53107 3.32101
# Velocity P-wave (km/s) = 5.28444 6.14645 5.73167
#
# Compressibility (1/GPa) = 0.03604800
#
# Stress axis : x y z
#
# Youngs Moduli (GPa) = 31.95604 96.09373 74.65242
#
# Poissons Ratio (x) = -0.33326 0.69008
# Poissons Ratio (y) = -0.11083 0.27976
# Poissons Ratio (z) = 0.29540 0.36012
#
# Static dielectric constant tensor:
#      x y z
#    x 1.616200 0.000000 0.000000 
#    y 0.000000 1.620530 0.000000 
#    z 0.000000 0.000000 1.681700 
# 
# From -- ./inp_files/19193.got.cif
#   From: 2010.05.17/outbox.cif.g08.bks.cpg/sg55_10_cif.got.tgz:19193.got - 2010.06.03 13:27:54.
