data_PCOD9427487
_publ_section_title
;
Structure prediction by ZEFSAII (Michael W. Deem and Ramdas Pophale) SiO2 
 PCOD9427487
Probable space group: P B A M
;
_chemical_formula_sum "Si O2"
_cell_formula_units_Z 56
_cell_length_a 22.229383
_cell_length_b 14.904483
_cell_length_c 8.852155
_cell_angle_alpha 90.000000
_cell_angle_beta 90.000000
_cell_angle_gamma 90.000000
_cell_volume 2932.873519
_symmetry_space_group_name_H-M "P B A M"
_symmetry_group_IT_number 55
_symmetry_cell_setting 'orthorhombic'
loop_
_space_group_symop_operation_xyz
x,y,z
-x,-y,z
1/2+x,1/2-y,-z
1/2-x,1/2+y,-z
-x,-y,-z
x,y,-z
1/2-x,1/2+y,z
1/2+x,1/2-y,z
loop_
_atom_site_type_symbol
_atom_site_label
_atom_site_fract_x
_atom_site_fract_y
_atom_site_fract_z
Si Si1 0.903497 0.838793 0.680719
Si Si2 0.361979 0.492102 0.821454
Si Si3 0.123086 0.700874 0.678426
Si Si4 0.929752 0.481937 0.181796
Si Si5 0.222742 0.825855 0.818148
Si Si6 0.354318 0.854177 0.681516
Si Si7 0.461503 0.373699 0.678266
O O1 0.901777 0.846614 0.500000
O O2 0.890219 0.736597 0.719266
O O3 0.970643 0.862950 0.731788
O O4 0.857276 0.910503 0.747844
O O5 0.312516 0.418049 0.778517
O O6 0.424068 0.447714 0.766354
O O7 0.361285 0.501536 0.000000
O O8 0.133574 0.686012 0.500000
O O9 0.096700 0.611214 0.753328
O O10 0.183073 0.743224 0.753786
O O11 0.073240 0.779406 0.694293
O O12 0.888063 0.561671 0.245174
O O13 0.000000 0.500000 0.224886
O O14 0.926905 0.479907 0.000000
O O15 0.287944 0.836470 0.745778
O O16 0.225964 0.818547 0.000000
O O17 0.352303 0.865015 0.500000
O O18 0.461248 0.397093 0.500000
#
# Coordination Sequence:
#
# PCOD9427487 Si02
#       7
#     8   8   8   8   8   8   8
#     4  10  21  36  55  81 112 145 181 226 280 333
#     4  10  21  35  55  83 113 148 186 225 272 332
#     4  10  20  37  63  89 115 153 198 242 291 350
#     4  11  24  41  62  90 123 159 199 247 308 369
#     4  10  22  41  60  83 118 154 193 241 294 351
#     4  11  24  41  61  85 114 151 199 249 293 346
#     4   9  18  34  56  83 115 147 180 223 276 333
#
# _framework density 19.093900999999999
#
# number of rings (size 3 to 8) (size 9 to 14) (size 15 to 20)
#    0.000    1.857    0.000    3.429    0.000    9.143 
#    0.000    2.857    0.000    0.000    0.000    0.000 
#    0.000    0.000    0.000    0.000    0.000    0.000 
#
# Total GULP energy -312798.424053 kJ/mol
# GULP energy per Si atom -5585.686144 kJ/mol
# Density = 1.905044 g / cm^3
# Si number density = 19.093901 Si / 1000 Ang^3
#
#
#
# Elastic Constant Matrix: (Units=GPa)
#
#
# Indices 1 2 3 4 5 6 
#
# 1 83.4304 18.2958 20.5862 0.0000 0.0000 0.0000
# 2 18.2958 106.5064 30.5291 0.0000 0.0000 0.0000
# 3 20.5862 30.5291 34.7671 0.0000 0.0000 0.0000
# 4 0.0000 0.0000 0.0000 31.0576 0.0000 0.0000
# 5 0.0000 0.0000 0.0000 0.0000-1777.3944 0.0000
# 6 0.0000 0.0000 0.0000 0.0000 0.0000 14.7857
#
#
#
# Elastic Compliance Matrix: (Units=1/GPa)
#
#
# Indices 1 2 3 4 5 6 
#
# 1 0.014037 -0.000039 -0.008278 0.000000 0.000000 0.000000
# 2 -0.000039 0.012547 -0.010995 0.000000 0.000000 0.000000
# 3 -0.008278 -0.010995 0.043319 0.000000 0.000000 0.000000
# 4 0.000000 0.000000 0.000000 0.032198 0.000000 0.000000
# 5 0.000000 0.000000 0.000000 0.000000 -0.000563 0.000000
# 6 0.000000 0.000000 0.000000 0.000000 0.000000 0.067633
#
#
# Mechanical properties :
#
#
# Convention : Reuss Voigt Hill
#
# Bulk Modulus (GPa) = 31.96853 40.39177 36.18015
# Shear Modulus (GPa) = 22.91253 -335.95735 -156.52241
#
# Velocity S-wave (km/s) = 3.46785 -13.27901 -9.06383
# Velocity P-wave (km/s) = 5.72833 14.62564 9.51566
#
# Compressibility (1/GPa) = 0.03128076
#
# Stress axis : x y z
#
# Youngs Moduli (GPa) = 71.24034 79.69802 23.08457
#
# Poissons Ratio (x) = 0.00307 0.19109
# Poissons Ratio (y) = 0.00275 0.25382
# Poissons Ratio (z) = 0.58970 0.87628
#
# Static dielectric constant tensor:
#      x y z
#    x 1.662470 0.000000 0.000000 
#    y 0.000000 1.660950 0.000000 
#    z 0.000000 0.000000 1.641820 
# 
# From -- ./inp_files/8705.got.cif
#   From: 2010.05.17/outbox.cif.g08.bks.cpg/sg55_5_cif.got.tgz:8705.got - 2010.06.03 13:27:54.
