data_PCOD9427712
_publ_section_title
;
Structure prediction by ZEFSAII (Michael W. Deem and Ramdas Pophale) SiO2 
 PCOD9427712
Probable space group: P B A M
;
_chemical_formula_sum "Si O2"
_cell_formula_units_Z 60
_cell_length_a 11.260953
_cell_length_b 20.431153
_cell_length_c 11.812580
_cell_angle_alpha 90.000000
_cell_angle_beta 90.000000
_cell_angle_gamma 90.000000
_cell_volume 2717.770527
_symmetry_space_group_name_H-M "P B A M"
_symmetry_group_IT_number 55
_symmetry_cell_setting 'orthorhombic'
loop_
_space_group_symop_operation_xyz
x,y,z
-x,-y,z
1/2+x,1/2-y,-z
1/2-x,1/2+y,-z
-x,-y,-z
x,y,-z
1/2-x,1/2+y,z
1/2+x,1/2-y,z
loop_
_atom_site_type_symbol
_atom_site_label
_atom_site_fract_x
_atom_site_fract_y
_atom_site_fract_z
Si Si1 0.664997 0.034233 0.871200
Si Si2 0.740294 0.180736 0.374140
Si Si3 0.410835 0.707549 0.881988
Si Si4 0.773164 0.327278 0.693882
Si Si5 0.260083 0.026521 0.625830
Si Si6 0.500000 0.500000 0.704160
Si Si7 0.392710 0.382648 0.816477
Si Si8 0.031613 0.345471 0.793702
O O1 0.782530 0.080614 0.873489
O O2 0.556138 0.084468 0.850251
O O3 0.682169 0.996174 0.748621
O O4 0.656728 0.004617 0.000000
O O5 0.745994 0.155740 0.500000
O O6 0.762556 0.258656 0.371658
O O7 0.840075 0.148157 0.297422
O O8 0.615270 0.161052 0.317430
O O9 0.334668 0.678564 0.781289
O O10 0.540654 0.675480 0.878629
O O11 0.421836 0.785252 0.868729
O O12 0.350968 0.690819 0.000000
O O13 0.763804 0.394811 0.627392
O O14 0.897459 0.331478 0.759939
O O15 0.306619 0.005068 0.500000
O O16 0.122515 0.004535 0.636069
O O17 0.488355 0.437339 0.784713
#
# Coordination Sequence:
#
# PCOD9427712 Si02
#       8
#     8   8   8   8   8   4   8   8
#     4  10  23  43  66  92 129 175 221 270 333 399
#     4  10  22  40  65  93 130 173 216 272 337 399
#     4  11  22  39  64  94 130 168 214 271 335 397
#     4  11  23  43  61  98 129 170 225 277 332 398
#     4  11  24  42  66  96 132 174 226 280 336 399
#     4  10  21  40  65  94 135 172 209 268 333 408
#     4  10  20  41  63  98 130 166 216 266 330 398
#     4  10  23  42  63  92 131 168 222 269 330 397
#
# _framework density 22.076919
#
# number of rings (size 3 to 8) (size 9 to 14) (size 15 to 20)
#    0.000    1.600    2.667    1.400    0.000    8.533 
#    0.000    3.000    0.000    0.000    0.000    0.000 
#    0.000    0.000    0.000    0.000    0.000    0.000 
#
# Total GULP energy -334756.487471 kJ/mol
# GULP energy per Si atom -5579.274791 kJ/mol
# Density = 2.202667 g / cm^3
# Si number density = 22.076919 Si / 1000 Ang^3
#
#
#
# Elastic Constant Matrix: (Units=GPa)
#
#
# Indices 1 2 3 4 5 6 
#
# 1 56.9015 -2.4730 13.2156 0.0000 0.0000 0.0000
# 2 -2.4730 88.5421 30.6550 0.0000 0.0000 0.0000
# 3 13.2156 30.6550 160.9518 0.0000 0.0000 0.0000
# 4 0.0000 0.0000 0.0000 -14.0404 0.0000 0.0000
# 5 0.0000 0.0000 0.0000 0.0000 -0.4572 0.0000
# 6 0.0000 0.0000 0.0000 0.0000 0.0000 35.1950
#
#
#
# Elastic Compliance Matrix: (Units=1/GPa)
#
#
# Indices 1 2 3 4 5 6 
#
# 1 0.018013 0.001087 -0.001686 0.000000 0.000000 0.000000
# 2 0.001087 0.012157 -0.002405 0.000000 0.000000 0.000000
# 3 -0.001686 -0.002405 0.006809 0.000000 0.000000 0.000000
# 4 0.000000 0.000000 0.000000 -0.071223 0.000000 0.000000
# 5 0.000000 0.000000 0.000000 0.000000 -2.186993 0.000000
# 6 0.000000 0.000000 0.000000 0.000000 0.000000 0.028413
#
#
# Mechanical properties :
#
#
# Convention : Reuss Voigt Hill
#
# Bulk Modulus (GPa) = 32.28744 43.24340 37.76542
# Shear Modulus (GPa) = -2.29727 21.80599 9.75436
#
# Velocity S-wave (km/s) = -1.02119 3.14622 2.10427
# Velocity P-wave (km/s) = 3.64229 5.72961 4.80077
#
# Compressibility (1/GPa) = 0.03097179
#
# Stress axis : x y z
#
# Youngs Moduli (GPa) = 55.51526 82.25736 146.85422
#
# Poissons Ratio (x) = -0.08940 0.24760
# Poissons Ratio (y) = -0.06034 0.35314
# Poissons Ratio (z) = 0.09360 0.19780
#
# Static dielectric constant tensor:
#      x y z
#    x 1.780730 0.000000 0.000000 
#    y 0.000000 1.862720 0.000000 
#    z 0.000000 0.000000 1.880080 
# 
# From -- ./inp_files/13470.got.cif
#   From: 2010.05.17/outbox.cif.g08.bks.cpg/sg55_7_cif.got.tgz:13470.got - 2010.06.03 13:27:54.
