data_PCOD9427656
_publ_section_title
;
Structure prediction by ZEFSAII (Michael W. Deem and Ramdas Pophale) SiO2 
 PCOD9427656
Probable space group: P B A M
;
_chemical_formula_sum "Si O2"
_cell_formula_units_Z 56
_cell_length_a 14.613190
_cell_length_b 22.197509
_cell_length_c 7.647354
_cell_angle_alpha 90.000000
_cell_angle_beta 90.000000
_cell_angle_gamma 90.000000
_cell_volume 2480.621287
_symmetry_space_group_name_H-M "P B A M"
_symmetry_group_IT_number 55
_symmetry_cell_setting 'orthorhombic'
loop_
_space_group_symop_operation_xyz
x,y,z
-x,-y,z
1/2+x,1/2-y,-z
1/2-x,1/2+y,-z
-x,-y,-z
x,y,-z
1/2-x,1/2+y,z
1/2+x,1/2-y,z
loop_
_atom_site_type_symbol
_atom_site_label
_atom_site_fract_x
_atom_site_fract_y
_atom_site_fract_z
Si Si1 0.868678 0.877294 0.711063
Si Si2 0.643468 0.031541 0.000000
Si Si3 0.958652 0.403915 0.000000
Si Si4 0.699607 0.699315 0.288680
Si Si5 0.780241 0.995982 0.709565
Si Si6 0.078490 0.688215 0.303265
Si Si7 0.070782 0.909220 0.288465
Si Si8 0.391821 0.759785 0.801632
O O1 0.869069 0.878860 0.500000
O O2 0.792812 0.926209 0.763391
O O3 0.859309 0.808275 0.764490
O O4 0.968322 0.899299 0.775857
O O5 0.706149 0.029635 0.172799
O O6 0.590165 0.968073 0.000000
O O7 0.567572 0.083391 0.000000
O O8 0.930943 0.366319 0.170453
O O9 0.700719 0.697510 0.500000
O O10 0.650545 0.761796 0.239735
O O11 0.637109 0.644338 0.226319
O O12 0.803576 0.698799 0.226941
O O13 0.762364 0.000591 0.500000
O O14 0.877598 0.028491 0.745086
O O15 0.103806 0.669060 0.500000
O O16 0.979842 0.721552 0.308783
O O17 0.065469 0.904494 0.500000
O O18 0.423638 0.763589 0.000000
#
# Coordination Sequence:
#
# PCOD9427656 Si02
#       8
#     8   4   4   8   8   8   8   8
#     4  10  20  39  63  92 132 173 215 266 326 390
#     4  11  28  50  67  92 132 164 223 286 326 391
#     4  11  28  50  68  92 128 175 216 276 346 387
#     4  10  22  39  64  94 129 175 218 270 332 392
#     4  10  23  41  69  98 126 173 224 269 325 389
#     4  11  24  45  71 101 134 171 222 275 332 401
#     4   9  18  38  63  91 129 168 211 264 323 388
#     4  12  25  38  62  98 139 178 218 273 333 396
#
# _framework density 22.57499
#
# number of rings (size 3 to 8) (size 9 to 14) (size 15 to 20)
#    0.000    1.571    2.143    1.714    6.000    2.857 
#    1.286    2.143    0.000    0.000    0.000    0.000 
#    0.000    0.000    0.000    0.000    0.000    0.000 
#
# Total GULP energy -313320.436416 kJ/mol
# GULP energy per Si atom -5595.007793 kJ/mol
# Density = 2.252361 g / cm^3
# Si number density = 22.574990 Si / 1000 Ang^3
#
#
#
# Elastic Constant Matrix: (Units=GPa)
#
#
# Indices 1 2 3 4 5 6 
#
# 1 80.8869 -4.0423 2.5954 0.0000 0.0000 0.0000
# 2 -4.0423 73.0545 15.2687 0.0000 0.0000 0.0000
# 3 2.5954 15.2687 70.6157 0.0000 0.0000 0.0000
# 4 0.0000 0.0000 0.0000 39.5315 0.0000 0.0000
# 5 0.0000 0.0000 0.0000 0.0000 36.1469 0.0000
# 6 0.0000 0.0000 0.0000 0.0000 0.0000 15.7997
#
#
#
# Elastic Compliance Matrix: (Units=1/GPa)
#
#
# Indices 1 2 3 4 5 6 
#
# 1 0.012424 0.000820 -0.000634 0.000000 0.000000 0.000000
# 2 0.000820 0.014390 -0.003142 0.000000 0.000000 0.000000
# 3 -0.000634 -0.003142 0.014864 0.000000 0.000000 0.000000
# 4 0.000000 0.000000 0.000000 0.025296 0.000000 0.000000
# 5 0.000000 0.000000 0.000000 0.000000 0.027665 0.000000
# 6 0.000000 0.000000 0.000000 0.000000 0.000000 0.063292
#
#
# Mechanical properties :
#
#
# Convention : Reuss Voigt Hill
#
# Bulk Modulus (GPa) = 27.95863 28.02231 27.99047
# Shear Modulus (GPa) = 28.44699 32.34466 30.39583
#
# Velocity S-wave (km/s) = 3.55366 3.78929 3.67337
# Velocity P-wave (km/s) = 5.40829 5.62005 5.51519
#
# Compressibility (1/GPa) = 0.03576713
#
# Stress axis : x y z
#
# Youngs Moduli (GPa) = 80.48773 69.49072 67.27779
#
# Poissons Ratio (x) = -0.05698 0.04265
# Poissons Ratio (y) = -0.06600 0.21136
# Poissons Ratio (z) = 0.05102 0.21832
#
# Static dielectric constant tensor:
#      x y z
#    x 1.818350 0.000000 0.000000 
#    y 0.000000 1.830080 0.000000 
#    z 0.000000 0.000000 1.884450 
# 
# From -- ./inp_files/6231.got.cif
#   From: 2010.05.17/outbox.cif.g08.bks.cpg/sg55_4_cif.got.tgz:6231.got - 2010.06.03 13:27:54.
