data_PCOD9427467
_publ_section_title
;
Structure prediction by ZEFSAII (Michael W. Deem and Ramdas Pophale) SiO2 
 PCOD9427467
Probable space group: P B A M
;
_chemical_formula_sum "Si O2"
_cell_formula_units_Z 40
_cell_length_a 11.813927
_cell_length_b 13.836860
_cell_length_c 12.009947
_cell_angle_alpha 90.000000
_cell_angle_beta 90.000000
_cell_angle_gamma 90.000000
_cell_volume 1963.237860
_symmetry_space_group_name_H-M "P B A M"
_symmetry_group_IT_number 55
_symmetry_cell_setting 'orthorhombic'
loop_
_space_group_symop_operation_xyz
x,y,z
-x,-y,z
1/2+x,1/2-y,-z
1/2-x,1/2+y,-z
-x,-y,-z
x,y,-z
1/2-x,1/2+y,z
1/2+x,1/2-y,z
loop_
_atom_site_type_symbol
_atom_site_label
_atom_site_fract_x
_atom_site_fract_y
_atom_site_fract_z
Si Si1 0.964997 0.722019 0.762640
Si Si2 0.024400 0.661835 0.000000
Si Si3 0.254102 0.924028 0.238289
Si Si4 0.106839 0.573845 0.374459
Si Si5 0.691141 0.014415 0.000000
Si Si6 0.031484 0.887757 0.629050
O O1 0.853474 0.655790 0.762511
O O2 0.059903 0.665216 0.691368
O O3 0.945325 0.821733 0.698806
O O4 0.010954 0.724439 0.888620
O O5 0.918983 0.585736 0.000000
O O6 0.135993 0.593268 0.000000
O O7 0.147027 0.881299 0.301060
O O8 0.298404 0.015658 0.308485
O O9 0.240783 0.960927 0.111829
O O10 0.141902 0.596877 0.500000
O O11 0.000000 0.500000 0.379118
O O12 0.041145 0.856361 0.500000
O O13 0.000000 0.000000 0.628849
#
# Coordination Sequence:
#
# PCOD9427467 Si02
#       6
#     8   4   8   8   4   8
#     4  10  20  37  62  89 118 156 207 252 299 360
#     4   9  16  33  62  95 125 147 190 260 302 348
#     4  10  20  37  62  90 121 158 199 251 309 365
#     4   9  16  28  53  87 114 143 193 250 296 347
#     4   9  16  33  62  95 125 155 187 245 316 361
#     4  11  26  44  59  82 124 168 205 254 309 363
#
# _framework density 20.374504999999999
#
# number of rings (size 3 to 8) (size 9 to 14) (size 15 to 20)
#    0.000    2.200    2.000    1.200    0.000    4.800 
#    0.000    4.000    0.000    0.000    0.000    0.000 
#    0.000    0.000    0.000    0.000    0.000    0.000 
#
# Total GULP energy -223303.894385 kJ/mol
# GULP energy per Si atom -5582.597360 kJ/mol
# Density = 2.032813 g / cm^3
# Si number density = 20.374505 Si / 1000 Ang^3
#
#
#
# Elastic Constant Matrix: (Units=GPa)
#
#
# Indices 1 2 3 4 5 6 
#
# 1 34.0357 5.2544 30.1583 0.0000 0.0000 0.0000
# 2 5.2544 65.0816 48.4028 0.0000 0.0000 0.0000
# 3 30.1583 48.4028 212.3056 0.0000 0.0000 0.0000
# 4 0.0000 0.0000 0.0000 30.7968 0.0000 0.0000
# 5 0.0000 0.0000 0.0000 0.0000 16.9161 0.0000
# 6 0.0000 0.0000 0.0000 0.0000 0.0000 15.6075
#
#
#
# Elastic Compliance Matrix: (Units=1/GPa)
#
#
# Indices 1 2 3 4 5 6 
#
# 1 0.033667 0.001010 -0.005013 0.000000 0.000000 0.000000
# 2 0.001010 0.018533 -0.004369 0.000000 0.000000 0.000000
# 3 -0.005013 -0.004369 0.006418 0.000000 0.000000 0.000000
# 4 0.000000 0.000000 0.000000 0.032471 0.000000 0.000000
# 5 0.000000 0.000000 0.000000 0.000000 0.059115 0.000000
# 6 0.000000 0.000000 0.000000 0.000000 0.000000 0.064072
#
#
# Mechanical properties :
#
#
# Convention : Reuss Voigt Hill
#
# Bulk Modulus (GPa) = 23.88065 53.22822 38.55443
# Shear Modulus (GPa) = 20.41011 27.83792 24.12402
#
# Velocity S-wave (km/s) = 3.16847 3.70038 3.44471
# Velocity P-wave (km/s) = 5.01318 6.66623 5.89791
#
# Compressibility (1/GPa) = 0.04187491
#
# Stress axis : x y z
#
# Youngs Moduli (GPa) = 29.70303 53.95804 155.80556
#
# Poissons Ratio (x) = -0.05449 0.78100
# Poissons Ratio (y) = -0.03000 0.68067
# Poissons Ratio (z) = 0.14889 0.23573
#
# Static dielectric constant tensor:
#      x y z
#    x 1.739520 0.000000 0.000000 
#    y 0.000000 1.760640 0.000000 
#    z 0.000000 0.000000 1.712780 
# 
# From -- ./inp_files/13028.got.cif
#   From: 2010.05.17/outbox.cif.g08.bks.cpg/sg55_7_cif.got.tgz:13028.got - 2010.06.03 13:27:54.
