data_PCOD9427288
_publ_section_title
;
Structure prediction by ZEFSAII (Michael W. Deem and Ramdas Pophale) SiO2 
 PCOD9427288
Probable space group: P B A M
;
_chemical_formula_sum "Si O2"
_cell_formula_units_Z 34
_cell_length_a 7.140631
_cell_length_b 23.499622
_cell_length_c 7.636782
_cell_angle_alpha 90.000000
_cell_angle_beta 90.000000
_cell_angle_gamma 90.000000
_cell_volume 1281.468281
_symmetry_space_group_name_H-M "P B A M"
_symmetry_group_IT_number 55
_symmetry_cell_setting 'orthorhombic'
loop_
_space_group_symop_operation_xyz
x,y,z
-x,-y,z
1/2+x,1/2-y,-z
1/2-x,1/2+y,-z
-x,-y,-z
x,y,-z
1/2-x,1/2+y,z
1/2+x,1/2-y,z
loop_
_atom_site_type_symbol
_atom_site_label
_atom_site_fract_x
_atom_site_fract_y
_atom_site_fract_z
Si Si1 0.338147 0.803189 0.301358
Si Si2 0.000000 0.500000 0.500000
Si Si3 0.013331 0.413979 0.797278
Si Si4 0.568917 0.320311 0.803487
Si Si5 0.456947 0.437707 0.210439
O O1 0.295762 0.820229 0.500000
O O2 0.500807 0.845913 0.236811
O O3 0.156384 0.813082 0.185801
O O4 0.375230 0.736210 0.297494
O O5 0.072454 0.544507 0.655040
O O6 0.236608 0.425770 0.764273
O O7 0.967622 0.426890 0.000000
O O8 0.579705 0.383956 0.726925
O O9 0.646367 0.318008 0.000000
O O10 0.500000 0.500000 0.282077
O O11 0.487818 0.438638 0.000000
#
# Coordination Sequence:
#
# PCOD9427288 Si02
#       5
#     8   2   8   8   8
#     4  11  21  39  60  87 120 158 206 253 307 366
#     4  12  22  40  58  86 120 156 208 238 290 372
#     4  10  21  39  62  85 121 163 196 247 306 356
#     4  10  20  36  61  87 118 160 202 252 310 365
#     4   8  16  35  61  86 114 154 201 244 297 361
#
# _framework density 26.532066
#
# number of rings (size 3 to 8) (size 9 to 14) (size 15 to 20)
#    0.000    2.118    1.176    4.588    0.000    0.000 
#    4.235    0.588    0.000    0.000    0.000    0.000 
#    0.000    0.000    0.000    0.000    0.000    0.000 
#
# Total GULP energy -189652.690245 kJ/mol
# GULP energy per Si atom -5578.020301 kJ/mol
# Density = 2.647168 g / cm^3
# Si number density = 26.532066 Si / 1000 Ang^3
#
#
#
# Elastic Constant Matrix: (Units=GPa)
#
#
# Indices 1 2 3 4 5 6 
#
# 1 49.2723 25.2888 8.4396 0.0000 0.0000 0.0000
# 2 25.2888 236.9678 52.8997 0.0000 0.0000 0.0000
# 3 8.4396 52.8997 181.3991 0.0000 0.0000 0.0000
# 4 0.0000 0.0000 0.0000 30.5498 0.0000 0.0000
# 5 0.0000 0.0000 0.0000 0.0000 -446.4401 0.0000
# 6 0.0000 0.0000 0.0000 0.0000 0.0000 42.1484
#
#
#
# Elastic Compliance Matrix: (Units=1/GPa)
#
#
# Indices 1 2 3 4 5 6 
#
# 1 0.021493 -0.002215 -0.000354 0.000000 0.000000 0.000000
# 2 -0.002215 0.004742 -0.001280 0.000000 0.000000 0.000000
# 3 -0.000354 -0.001280 0.005902 0.000000 0.000000 0.000000
# 4 0.000000 0.000000 0.000000 0.032733 0.000000 0.000000
# 5 0.000000 0.000000 0.000000 0.000000 -0.002240 0.000000
# 6 0.000000 0.000000 0.000000 0.000000 0.000000 0.023726
#
#
# Mechanical properties :
#
#
# Convention : Reuss Voigt Hill
#
# Bulk Modulus (GPa) = 40.91659 71.21062 56.06360
# Shear Modulus (GPa) = 48.92365 -49.34763 -0.21199
#
# Velocity S-wave (km/s) = 4.29878 -4.31736 -0.28297
# Velocity P-wave (km/s) = 6.33201 1.43000 4.59017
#
# Compressibility (1/GPa) = 0.02443996
#
# Stress axis : x y z
#
# Youngs Moduli (GPa) = 46.52750 210.88017 169.42237
#
# Poissons Ratio (x) = 0.46702 0.06000
# Poissons Ratio (y) = 0.10304 0.21683
# Poissons Ratio (z) = 0.01648 0.26989
#
# Static dielectric constant tensor:
#      x y z
#    x 2.171660 0.000000 0.000000 
#    y 0.000000 2.170640 0.000000 
#    z 0.000000 0.000000 1.922650 
# 
# From -- ./inp_files/2116.got.cif
#   From: 2010.05.17/outbox.cif.g08.bks.cpg/sg55_2_cif.got.tgz:2116.got - 2010.06.03 13:27:54.
