data_PCOD9427636
_publ_section_title
;
Structure prediction by ZEFSAII (Michael W. Deem and Ramdas Pophale) SiO2 
 PCOD9427636
Probable space group: P B A M
;
_chemical_formula_sum "Si O2"
_cell_formula_units_Z 58
_cell_length_a 35.304976
_cell_length_b 10.130993
_cell_length_c 7.889875
_cell_angle_alpha 90.000000
_cell_angle_beta 90.000000
_cell_angle_gamma 90.000000
_cell_volume 2822.006817
_symmetry_space_group_name_H-M "P B A M"
_symmetry_group_IT_number 55
_symmetry_cell_setting 'orthorhombic'
loop_
_space_group_symop_operation_xyz
x,y,z
-x,-y,z
1/2+x,1/2-y,-z
1/2-x,1/2+y,-z
-x,-y,-z
x,y,-z
1/2-x,1/2+y,z
1/2+x,1/2-y,z
loop_
_atom_site_type_symbol
_atom_site_label
_atom_site_fract_x
_atom_site_fract_y
_atom_site_fract_z
Si Si1 0.283072 0.540900 0.792525
Si Si2 0.500000 0.500000 0.000000
Si Si3 0.017015 0.711324 0.201851
Si Si4 0.558437 0.068702 0.199470
Si Si5 0.551400 0.524201 0.683820
Si Si6 0.135295 0.318226 0.692649
Si Si7 0.632785 0.472591 0.193091
Si Si8 0.717127 0.154478 0.795295
O O1 0.325188 0.495671 0.739814
O O2 0.277187 0.693215 0.739841
O O3 0.249900 0.443728 0.735636
O O4 0.283557 0.541082 0.000000
O O5 0.468875 0.537974 0.152589
O O6 0.041969 0.578791 0.212934
O O7 0.036316 0.826324 0.305278
O O8 0.975187 0.666524 0.256507
O O9 0.016508 0.757257 0.000000
O O10 0.598286 0.093146 0.286095
O O11 0.563483 0.094150 0.000000
O O12 0.542161 0.465157 0.500000
O O13 0.596396 0.521643 0.707453
O O14 0.137482 0.271160 0.500000
O O15 0.174967 0.385758 0.738888
O O16 0.131217 0.186989 0.804714
O O17 0.629732 0.520917 0.000000
O O18 0.717805 0.153853 0.000000
#
# Coordination Sequence:
#
# PCOD9427636 Si02
#       8
#     8   2   8   8   8   8   8   8
#     4   8  16  32  60  84 110 146 195 243 300 365
#     4  12  26  44  60  84 124 156 202 248 294 354
#     4   9  19  39  59  82 114 151 197 247 299 352
#     4   9  19  36  61  81 107 154 197 240 296 352
#     4  12  25  40  61  90 121 158 203 251 302 359
#     4  11  22  34  53  84 118 150 194 243 293 359
#     4  10  20  39  60  84 118 156 193 249 304 357
#     4   9  17  35  57  84 110 146 193 244 299 368
#
# _framework density 20.552751000000001
#
# number of rings (size 3 to 8) (size 9 to 14) (size 15 to 20)
#    0.000    2.207    1.379    3.517    1.931    1.103 
#    2.483    4.828    0.000    0.000    0.000    0.000 
#    0.000    0.000    0.000    0.000    0.000    0.000 
#
# Total GULP energy -323445.244176 kJ/mol
# GULP energy per Si atom -5576.642141 kJ/mol
# Density = 2.050597 g / cm^3
# Si number density = 20.552751 Si / 1000 Ang^3
#
#
#
# Elastic Constant Matrix: (Units=GPa)
#
#
# Indices 1 2 3 4 5 6 
#
# 1 205.5206 60.7806 41.0795 0.0000 0.0000 0.0000
# 2 60.7806 48.8571 26.1105 0.0000 0.0000 0.0000
# 3 41.0795 26.1105 83.2579 0.0000 0.0000 0.0000
# 4 0.0000 0.0000 0.0000 -6.8802 0.0000 0.0000
# 5 0.0000 0.0000 0.0000 0.0000 -173.2600 0.0000
# 6 0.0000 0.0000 0.0000 0.0000 0.0000 31.9289
#
#
#
# Elastic Compliance Matrix: (Units=1/GPa)
#
#
# Indices 1 2 3 4 5 6 
#
# 1 0.007762 -0.009141 -0.000963 0.000000 0.000000 0.000000
# 2 -0.009141 0.035355 -0.006577 0.000000 0.000000 0.000000
# 3 -0.000963 -0.006577 0.014549 0.000000 0.000000 0.000000
# 4 0.000000 0.000000 0.000000 -0.145344 0.000000 0.000000
# 5 0.000000 0.000000 0.000000 0.000000 -0.005772 0.000000
# 6 0.000000 0.000000 0.000000 0.000000 0.000000 0.031320
#
#
# Mechanical properties :
#
#
# Convention : Reuss Voigt Hill
#
# Bulk Modulus (GPa) = 41.14810 65.95301 53.55055
# Shear Modulus (GPa) = -241.92874 -15.66460 -128.79667
#
# Velocity S-wave (km/s) = -10.86125 -2.76373 -7.92480
# Velocity P-wave (km/s) = 11.71429 4.68775 7.59110
#
# Compressibility (1/GPa) = 0.02430246
#
# Stress axis : x y z
#
# Youngs Moduli (GPa) = 128.84014 28.28446 68.73488
#
# Poissons Ratio (x) = 0.25855 0.06618
# Poissons Ratio (y) = 1.17776 0.45210
# Poissons Ratio (z) = 0.12405 0.18604
#
# Static dielectric constant tensor:
#      x y z
#    x 1.735680 0.000000 0.000000 
#    y 0.000000 1.676270 0.000000 
#    z 0.000000 0.000000 1.748460 
# 
# From -- ./inp_files/10694.got.cif
#   From: 2010.05.17/outbox.cif.g08.bks.cpg/sg55_6_cif.got.tgz:10694.got - 2010.06.03 13:27:54.
