data_PCOD9427900
_publ_section_title
;
Structure prediction by ZEFSAII (Michael W. Deem and Ramdas Pophale) SiO2 
 PCOD9427900
Probable space group: P B A M
;
_chemical_formula_sum "Si O2"
_cell_formula_units_Z 64
_cell_length_a 9.578906
_cell_length_b 17.292822
_cell_length_c 19.829760
_cell_angle_alpha 90.000000
_cell_angle_beta 90.000000
_cell_angle_gamma 90.000000
_cell_volume 3284.726699
_symmetry_space_group_name_H-M "P B A M"
_symmetry_group_IT_number 55
_symmetry_cell_setting 'orthorhombic'
loop_
_space_group_symop_operation_xyz
x,y,z
-x,-y,z
1/2+x,1/2-y,-z
1/2-x,1/2+y,-z
-x,-y,-z
x,y,-z
1/2-x,1/2+y,z
1/2+x,1/2-y,z
loop_
_atom_site_type_symbol
_atom_site_label
_atom_site_fract_x
_atom_site_fract_y
_atom_site_fract_z
Si Si1 0.966599 0.585511 0.922239
Si Si2 0.059700 0.086784 0.080183
Si Si3 0.120020 0.610221 0.573186
Si Si4 0.922905 0.301670 0.705197
Si Si5 0.249083 0.349424 0.289211
Si Si6 0.694755 0.833421 0.154810
Si Si7 0.289903 0.346949 0.139728
Si Si8 0.792833 0.561735 0.575103
O O1 0.051366 0.651171 0.884023
O O2 0.000000 0.500000 0.894766
O O3 0.806688 0.607398 0.912378
O O4 0.007832 0.585678 0.000000
O O5 0.945281 0.143162 0.112821
O O6 0.198668 0.106099 0.121922
O O7 0.080889 0.100187 0.000000
O O8 0.000000 0.000000 0.088366
O O9 0.151877 0.645096 0.500000
O O10 0.136590 0.665884 0.635537
O O11 0.205897 0.531041 0.580451
O O12 0.956412 0.586165 0.573541
O O13 0.871650 0.214010 0.709911
O O14 0.845623 0.344086 0.767169
O O15 0.090480 0.314077 0.708356
O O16 0.264107 0.383863 0.213894
O O17 0.265160 0.401058 0.356350
O O18 0.743285 0.744621 0.145052
O O19 0.735592 0.582946 0.500000
#
# Coordination Sequence:
#
# PCOD9427900 Si02
#       8
#     8   8   8   8   8   8   8   8
#     4  11  23  39  59  85 114 145 188 239 287 340
#     4  11  25  43  61  85 118 151 188 239 297 352
#     4   8  15  30  53  82 114 148 190 235 276 327
#     4  10  21  36  57  84 116 149 189 236 283 335
#     4  10  21  36  57  84 116 149 189 236 283 335
#     4  11  23  39  60  85 115 152 193 237 286 344
#     4  11  23  39  60  85 115 152 193 237 286 344
#     4   8  15  30  53  82 114 148 190 235 276 327
#
# _framework density 19.484117000000001
#
# number of rings (size 3 to 8) (size 9 to 14) (size 15 to 20)
#    0.000    2.000    1.250    3.000    5.250    7.500 
#    0.000    0.000    0.000    0.000    0.000    1.750 
#    0.000    0.000    0.000    0.000    0.000    0.000 
#
# Total GULP energy -356771.489223 kJ/mol
# GULP energy per Si atom -5574.554519 kJ/mol
# Density = 1.943977 g / cm^3
# Si number density = 19.484117 Si / 1000 Ang^3
#
#
#
# Elastic Constant Matrix: (Units=GPa)
#
#
# Indices 1 2 3 4 5 6 
#
# 1 33.7815 -12.6142 -12.9932 0.0000 0.0000 0.0000
# 2 -12.6142 19.8839 5.6998 0.0000 0.0000 0.0000
# 3 -12.9932 5.6998 78.6502 0.0000 0.0000 0.0000
# 4 0.0000 0.0000 0.0000 28.0954 0.0000 0.0000
# 5 0.0000 0.0000 0.0000 0.0000 21.7226 0.0000
# 6 0.0000 0.0000 0.0000 0.0000 0.0000 16.3044
#
#
#
# Elastic Compliance Matrix: (Units=1/GPa)
#
#
# Indices 1 2 3 4 5 6 
#
# 1 0.040589 0.024333 0.004942 0.000000 0.000000 0.000000
# 2 0.024333 0.065946 -0.000759 0.000000 0.000000 0.000000
# 3 0.004942 -0.000759 0.013586 0.000000 0.000000 0.000000
# 4 0.000000 0.000000 0.000000 0.035593 0.000000 0.000000
# 5 0.000000 0.000000 0.000000 0.000000 0.046035 0.000000
# 6 0.000000 0.000000 0.000000 0.000000 0.000000 0.061333
#
#
# Mechanical properties :
#
#
# Convention : Reuss Voigt Hill
#
# Bulk Modulus (GPa) = 5.64489 10.27782 7.96136
# Shear Modulus (GPa) = 18.86069 23.37270 21.11670
#
# Velocity S-wave (km/s) = 3.11465 3.46725 3.29567
# Velocity P-wave (km/s) = 3.97972 4.61687 4.31009
#
# Compressibility (1/GPa) = 0.17715127
#
# Stress axis : x y z
#
# Youngs Moduli (GPa) = 24.63739 15.16391 73.60531
#
# Poissons Ratio (x) = -0.36898 -0.36375
# Poissons Ratio (y) = -0.59949 0.05589
# Poissons Ratio (z) = -0.12176 0.01151
#
# Static dielectric constant tensor:
#      x y z
#    x 1.703910 0.000000 0.000000 
#    y 0.000000 1.693430 0.000000 
#    z 0.000000 0.000000 1.698310 
# 
# From -- ./inp_files/21111.got.cif
#   From: 2010.05.17/outbox.cif.g08.bks.cpg/sg55_11_cif.got.tgz:21111.got - 2010.06.03 13:27:54.
