data_PCOD9427773
_publ_section_title
;
Structure prediction by ZEFSAII (Michael W. Deem and Ramdas Pophale) SiO2 
 PCOD9427773
Probable space group: P B A M
;
_chemical_formula_sum "Si O2"
_cell_formula_units_Z 58
_cell_length_a 8.814562
_cell_length_b 25.382444
_cell_length_c 14.506711
_cell_angle_alpha 90.000000
_cell_angle_beta 90.000000
_cell_angle_gamma 90.000000
_cell_volume 3245.660819
_symmetry_space_group_name_H-M "P B A M"
_symmetry_group_IT_number 55
_symmetry_cell_setting 'orthorhombic'
loop_
_space_group_symop_operation_xyz
x,y,z
-x,-y,z
1/2+x,1/2-y,-z
1/2-x,1/2+y,-z
-x,-y,-z
x,y,-z
1/2-x,1/2+y,z
1/2+x,1/2-y,z
loop_
_atom_site_type_symbol
_atom_site_label
_atom_site_fract_x
_atom_site_fract_y
_atom_site_fract_z
Si Si1 0.175418 0.194426 0.389687
Si Si2 0.817738 0.385714 0.745050
Si Si3 0.669301 1.000000 0.694245
Si Si4 0.818806 0.806847 0.891627
Si Si5 0.500000 0.000000 0.500000
Si Si6 0.181193 0.806847 0.108373
Si Si7 0.817736 0.614285 0.254950
Si Si8 0.324584 0.305575 0.610313
O O1 0.180228 0.190228 0.500000
O O2 0.268327 0.147987 0.343485
O O3 0.250001 0.250000 0.363856
O O4 0.000001 0.192964 0.359883
O O5 0.760202 0.445277 0.728289
O O6 0.749171 0.353860 0.830902
O O7 0.000001 0.385952 0.751137
O O8 0.630812 1.000000 0.584214
O O9 0.500000 0.000000 0.737598
O O10 0.739798 0.054722 0.728289
O O11 0.750000 0.750000 0.864169
O O12 0.999999 0.804933 0.880635
O O13 0.783815 0.814403 0.000000
O O14 0.249168 0.853860 0.169098
O O15 0.216183 0.814403 0.000000
O O16 0.768324 0.647987 0.343485
O O17 0.319775 0.309773 0.500000
#
# Coordination Sequence:
#
# PCOD9427773 Si02
#       8
#     8   8   8   8   2   8   8   8
#     4  10  21  35  51  76 108 143 180 223 277 337
#     4  11  21  35  57  82 109 143 186 233 281 330
#     4   8  20  34  56  81 109 146 191 231 274 325
#     4  10  21  38  60  85 114 149 187 230 283 343
#     4   8  16  40  56  80 112 148 204 236 266 338
#     4  10  21  38  60  85 114 149 187 230 283 343
#     4  11  21  35  57  82 109 143 186 233 281 330
#     4  10  21  35  51  76 108 143 180 223 277 337
#
# _framework density 17.870011999999999
#
# number of rings (size 3 to 8) (size 9 to 14) (size 15 to 20)
#    0.414    1.655    0.000    3.310    1.931    3.310 
#    0.000    3.448    0.000    5.793    0.000    0.000 
#    0.000    0.000    0.000    0.000    0.000    0.000 
#
# Total GULP energy -322882.472186 kJ/mol
# GULP energy per Si atom -5566.939176 kJ/mol
# Density = 1.782934 g / cm^3
# Si number density = 17.870012 Si / 1000 Ang^3
#
#
#
# Elastic Constant Matrix: (Units=GPa)
#
#
# Indices 1 2 3 4 5 6 
#
# 1 63.8924 41.7403 28.7654 0.0000 0.0000 0.0000
# 2 41.7403 183.9184 65.2966 0.0000 0.0000 0.0000
# 3 28.7654 65.2966 89.9258 0.0000 0.0000 0.0000
# 4 0.0000 0.0000 0.0000 12.0302 0.0000 0.0000
# 5 0.0000 0.0000 0.0000 0.0000 108.0244 0.0000
# 6 0.0000 0.0000 0.0000 0.0000 0.0000 22.5028
#
#
#
# Elastic Compliance Matrix: (Units=1/GPa)
#
#
# Indices 1 2 3 4 5 6 
#
# 1 0.019415 -0.002966 -0.004057 0.000000 0.000000 0.000000
# 2 -0.002966 0.007779 -0.004700 0.000000 0.000000 0.000000
# 3 -0.004057 -0.004700 0.015830 0.000000 0.000000 0.000000
# 4 0.000000 0.000000 0.000000 0.083124 0.000000 0.000000
# 5 0.000000 0.000000 0.000000 0.000000 0.009257 0.000000
# 6 0.000000 0.000000 0.000000 0.000000 0.000000 0.044439
#
#
# Mechanical properties :
#
#
# Convention : Reuss Voigt Hill
#
# Bulk Modulus (GPa) = 51.07327 67.70459 59.38893
# Shear Modulus (GPa) = 23.83036 41.97376 32.90206
#
# Velocity S-wave (km/s) = 3.65573 4.85174 4.29556
# Velocity P-wave (km/s) = 6.81627 8.32799 7.60976
#
# Compressibility (1/GPa) = 0.01957972
#
# Stress axis : x y z
#
# Youngs Moduli (GPa) = 51.50532 128.55420 63.16949
#
# Poissons Ratio (x) = 0.38129 0.25627
# Poissons Ratio (y) = 0.15277 0.29687
# Poissons Ratio (z) = 0.20895 0.60415
#
# Static dielectric constant tensor:
#      x y z
#    x 1.609110 0.000000 0.000000 
#    y 0.000000 1.617250 0.000000 
#    z 0.000000 0.000000 1.625210 
# 
# From -- ./inp_files/17765.got.cif
#   From: 2010.05.17/outbox.cif.g08.bks.cpg/sg55_9_cif.got.tgz:17765.got - 2010.06.03 13:27:54.
