data_PCOD9427401
_publ_section_title
;
Structure prediction by ZEFSAII (Michael W. Deem and Ramdas Pophale) SiO2 
 PCOD9427401
Probable space group: P B A M
;
_chemical_formula_sum "Si O2"
_cell_formula_units_Z 48
_cell_length_a 19.182399
_cell_length_b 15.340795
_cell_length_c 8.675301
_cell_angle_alpha 90.000000
_cell_angle_beta 90.000000
_cell_angle_gamma 90.000000
_cell_volume 2552.909026
_symmetry_space_group_name_H-M "P B A M"
_symmetry_group_IT_number 55
_symmetry_cell_setting 'orthorhombic'
loop_
_space_group_symop_operation_xyz
x,y,z
-x,-y,z
1/2+x,1/2-y,-z
1/2-x,1/2+y,-z
-x,-y,-z
x,y,-z
1/2-x,1/2+y,z
1/2+x,1/2-y,z
loop_
_atom_site_type_symbol
_atom_site_label
_atom_site_fract_x
_atom_site_fract_y
_atom_site_fract_z
Si Si1 0.918760 0.233680 0.184802
Si Si2 0.195155 0.897838 0.315534
Si Si3 0.650855 0.901384 0.315085
Si Si4 0.423441 0.733204 0.814517
Si Si5 0.847530 0.592742 0.184753
Si Si6 0.188279 0.099409 0.684430
O O1 0.863434 0.168280 0.259813
O O2 0.898190 0.330970 0.235751
O O3 0.997772 0.214124 0.236113
O O4 0.914832 0.226579 0.000000
O O5 0.204323 0.891826 0.500000
O O6 0.269467 0.880769 0.236003
O O7 0.175333 0.997880 0.277273
O O8 0.645860 0.895440 0.500000
O O9 0.731561 0.881342 0.270399
O O10 0.636475 0.999988 0.262084
O O11 0.398964 0.829796 0.766391
O O12 0.367522 0.663337 0.757537
O O13 0.422945 0.732405 0.000000
O O14 0.849873 0.583217 0.000000
O O15 0.184574 0.108105 0.500000
#
# Coordination Sequence:
#
# PCOD9427401 Si02
#       6
#     8   8   8   8   8   8
#     4  11  23  38  55  80 113 150 186 226 276 331
#     4  10  21  38  58  84 113 143 184 234 279 328
#     4  10  21  38  59  85 112 143 184 232 278 328
#     4  10  23  38  54  80 114 147 184 227 274 328
#     4  10  20  37  60  84 110 146 186 229 278 330
#     4   9  20  37  58  81 108 141 180 226 277 327
#
# _framework density 18.80208
#
# number of rings (size 3 to 8) (size 9 to 14) (size 15 to 20)
#    0.000    2.000    0.000    4.000    0.000   10.667 
#    0.000    6.667    0.000    0.000    0.000    0.000 
#    0.000    0.000    0.000    0.000    0.000    0.000 
#
# Total GULP energy -268159.965667 kJ/mol
# GULP energy per Si atom -5586.665951 kJ/mol
# Density = 1.875929 g / cm^3
# Si number density = 18.802080 Si / 1000 Ang^3
#
#
#
# Elastic Constant Matrix: (Units=GPa)
#
#
# Indices 1 2 3 4 5 6 
#
# 1 9.8760 0.3552 -0.1330 0.0000 0.0000 0.0000
# 2 0.3552 23.3609 0.0045 0.0000 0.0000 0.0000
# 3 -0.1330 0.0045 18.9191 0.0000 0.0000 0.0000
# 4 0.0000 0.0000 0.0000 40.7450 0.0000 0.0000
# 5 0.0000 0.0000 0.0000 0.0000 -20.2235 0.0000
# 6 0.0000 0.0000 0.0000 0.0000 0.0000 -6.6965
#
#
#
# Elastic Compliance Matrix: (Units=1/GPa)
#
#
# Indices 1 2 3 4 5 6 
#
# 1 0.101321 -0.001541 0.000713 0.000000 0.000000 0.000000
# 2 -0.001541 0.042830 -0.000021 0.000000 0.000000 0.000000
# 3 0.000713 -0.000021 0.052862 0.000000 0.000000 0.000000
# 4 0.000000 0.000000 0.000000 0.024543 0.000000 0.000000
# 5 0.000000 0.000000 0.000000 0.000000 -0.049447 0.000000
# 6 0.000000 0.000000 0.000000 0.000000 0.000000 -0.149333
#
#
# Mechanical properties :
#
#
# Convention : Reuss Voigt Hill
#
# Bulk Modulus (GPa) = 5.11993 5.84546 5.48269
# Shear Modulus (GPa) = 55.81710 6.22696 31.02203
#
# Velocity S-wave (km/s) = 5.45446 1.82182 4.06633
# Velocity P-wave (km/s) = 6.51131 2.74610 4.99691
#
# Compressibility (1/GPa) = 0.19531531
#
# Stress axis : x y z
#
# Youngs Moduli (GPa) = 9.86963 23.34808 18.91727
#
# Poissons Ratio (x) = 0.03597 -0.01349
# Poissons Ratio (y) = 0.01520 0.00040
# Poissons Ratio (z) = -0.00704 0.00049
#
# Static dielectric constant tensor:
#      x y z
#    x 1.634690 0.000000 0.000000 
#    y 0.000000 1.637710 0.000000 
#    z 0.000000 0.000000 1.632810 
# 
# From -- ./inp_files/5617.got.cif
#   From: 2010.05.17/outbox.cif.g08.bks.cpg/sg55_3_cif.got.tgz:5617.got - 2010.06.03 13:27:54.
