data_PCOD9427625
_publ_section_title
;
Structure prediction by ZEFSAII (Michael W. Deem and Ramdas Pophale) SiO2 
 PCOD9427625
Probable space group: P B A M
;
_chemical_formula_sum "Si O2"
_cell_formula_units_Z 64
_cell_length_a 8.263999
_cell_length_b 14.978372
_cell_length_c 21.628575
_cell_angle_alpha 90.000000
_cell_angle_beta 90.000000
_cell_angle_gamma 90.000000
_cell_volume 2677.212076
_symmetry_space_group_name_H-M "P B A M"
_symmetry_group_IT_number 55
_symmetry_cell_setting 'orthorhombic'
loop_
_space_group_symop_operation_xyz
x,y,z
-x,-y,z
1/2+x,1/2-y,-z
1/2-x,1/2+y,-z
-x,-y,-z
x,y,-z
1/2-x,1/2+y,z
1/2+x,1/2-y,z
loop_
_atom_site_type_symbol
_atom_site_label
_atom_site_fract_x
_atom_site_fract_y
_atom_site_fract_z
Si Si1 0.831805 0.457902 0.803504
Si Si2 0.298129 0.214122 0.388060
Si Si3 0.879246 0.626532 0.571436
Si Si4 0.274743 0.323874 0.069817
Si Si5 0.319016 0.713838 0.750715
Si Si6 0.330160 0.530043 0.573217
Si Si7 0.395951 0.123944 0.930566
Si Si8 0.641828 0.627709 0.800882
O O1 0.802624 0.361066 0.776111
O O2 0.841387 0.443014 0.877324
O O3 0.691635 0.527250 0.785611
O O4 0.000000 0.500000 0.782651
O O5 0.478547 0.175482 0.391894
O O6 0.272184 0.305628 0.424811
O O7 0.231452 0.228102 0.319627
O O8 0.195621 0.133752 0.417230
O O9 0.934556 0.617155 0.500000
O O10 0.816407 0.531997 0.596698
O O11 0.297940 0.216887 0.075113
O O12 0.379392 0.365538 0.125174
O O13 0.086225 0.350926 0.076930
O O14 0.326382 0.348099 0.000000
O O15 0.493430 0.670599 0.763867
O O16 0.292123 0.806269 0.786289
O O17 0.500000 0.500000 0.601201
O O18 0.332702 0.510725 0.500000
O O19 0.372930 0.088570 0.000000
#
# Coordination Sequence:
#
# PCOD9427625 Si02
#       8
#     8   8   8   8   8   8   8   8
#     4  12  25  43  67  98 129 183 230 288 348 411
#     4  12  25  43  68  99 135 182 231 284 344 412
#     4  11  23  42  71 106 141 179 228 287 350 414
#     4  10  20  38  69 100 133 173 222 287 352 413
#     4  12  28  46  67  95 134 183 234 285 338 413
#     4  10  22  41  68 102 142 181 222 282 348 406
#     4  10  21  39  66 103 137 176 229 288 358 420
#     4  12  24  46  69  93 136 179 231 286 351 410
#
# _framework density 23.905465
#
# number of rings (size 3 to 8) (size 9 to 14) (size 15 to 20)
#    0.000    0.875    2.500    4.875    0.000    5.750 
#    0.000    0.000    0.000    1.500    0.000    0.000 
#    0.000    0.000    0.000    0.000    0.000    0.000 
#
# Total GULP energy -358393.541252 kJ/mol
# GULP energy per Si atom -5599.899082 kJ/mol
# Density = 2.385105 g / cm^3
# Si number density = 23.905465 Si / 1000 Ang^3
#
#
#
# Elastic Constant Matrix: (Units=GPa)
#
#
# Indices 1 2 3 4 5 6 
#
# 1 67.6484 -6.7923 19.6961 0.0000 0.0000 0.0000
# 2 -6.7923 76.8360 -1.7395 0.0000 0.0000 0.0000
# 3 19.6961 -1.7395 82.3853 0.0000 0.0000 0.0000
# 4 0.0000 0.0000 0.0000 -6.8896 0.0000 0.0000
# 5 0.0000 0.0000 0.0000 0.0000 32.2650 0.0000
# 6 0.0000 0.0000 0.0000 0.0000 0.0000 43.7775
#
#
#
# Elastic Compliance Matrix: (Units=1/GPa)
#
#
# Indices 1 2 3 4 5 6 
#
# 1 0.016023 0.001330 -0.003803 0.000000 0.000000 0.000000
# 2 0.001330 0.013131 -0.000041 0.000000 0.000000 0.000000
# 3 -0.003803 -0.000041 0.013046 0.000000 0.000000 0.000000
# 4 0.000000 0.000000 0.000000 -0.145146 0.000000 0.000000
# 5 0.000000 0.000000 0.000000 0.000000 0.030993 0.000000
# 6 0.000000 0.000000 0.000000 0.000000 0.000000 0.022843
#
#
# Mechanical properties :
#
#
# Convention : Reuss Voigt Hill
#
# Bulk Modulus (GPa) = 26.90001 27.68870 27.29435
# Shear Modulus (GPa) = -157.77172 28.21093 -64.78039
#
# Velocity S-wave (km/s) = -8.13274 3.43899 -5.21128
# Velocity P-wave (km/s) = 8.76992 5.23227 4.97669
#
# Compressibility (1/GPa) = 0.03717470
#
# Stress axis : x y z
#
# Youngs Moduli (GPa) = 62.41017 76.15332 76.64993
#
# Poissons Ratio (x) = -0.10131 0.29147
# Poissons Ratio (y) = -0.08303 0.00313
# Poissons Ratio (z) = 0.23732 0.00311
#
# Static dielectric constant tensor:
#      x y z
#    x 1.971400 0.000000 0.000000 
#    y 0.000000 1.870700 0.000000 
#    z 0.000000 0.000000 1.928250 
# 
# From -- ./inp_files/23485.got.cif
#   From: 2010.05.17/outbox.cif.g08.bks.cpg/sg55_12_cif.got.tgz:23485.got - 2010.06.03 13:27:54.
