data_PCOD9427249
_publ_section_title
;
Structure prediction by ZEFSAII (Michael W. Deem and Ramdas Pophale) SiO2 
 PCOD9427249
Probable space group: P B A M
;
_chemical_formula_sum "Si O2"
_cell_formula_units_Z 56
_cell_length_a 20.848466
_cell_length_b 9.501863
_cell_length_c 13.498482
_cell_angle_alpha 90.000000
_cell_angle_beta 90.000000
_cell_angle_gamma 90.000000
_cell_volume 2674.039399
_symmetry_space_group_name_H-M "P B A M"
_symmetry_group_IT_number 55
_symmetry_cell_setting 'orthorhombic'
loop_
_space_group_symop_operation_xyz
x,y,z
-x,-y,z
1/2+x,1/2-y,-z
1/2-x,1/2+y,-z
-x,-y,-z
x,y,-z
1/2-x,1/2+y,z
1/2+x,1/2-y,z
loop_
_atom_site_type_symbol
_atom_site_label
_atom_site_fract_x
_atom_site_fract_y
_atom_site_fract_z
Si Si1 0.931071 0.464836 0.726209
Si Si2 0.712112 0.530056 0.110661
Si Si3 0.336690 0.150553 0.888678
Si Si4 0.092103 0.253911 0.615911
Si Si5 0.813377 0.193238 0.383926
Si Si6 0.045259 0.806112 0.614132
Si Si7 0.713898 0.408079 0.316490
O O1 0.888786 0.384149 0.806243
O O2 0.902008 0.607325 0.682727
O O3 0.946588 0.361111 0.634240
O O4 0.000000 0.500000 0.772224
O O5 0.786042 0.478815 0.112019
O O6 0.698430 0.696606 0.124179
O O7 0.688866 0.442494 0.205805
O O8 0.687665 0.492294 0.000000
O O9 0.364500 0.156243 0.000000
O O10 0.081513 0.289336 0.500000
O O11 0.157082 0.168011 0.625745
O O12 0.027632 0.167939 0.649927
O O13 0.817311 0.231416 0.500000
O O14 0.884700 0.146868 0.348058
O O15 0.778073 0.316041 0.324752
O O16 0.771053 0.055680 0.368029
O O17 0.045242 0.848521 0.500000
#
# Coordination Sequence:
#
# PCOD9427249 Si02
#       7
#     8   8   8   8   8   8   8
#     4  10  20  36  59  88 119 158 201 245 297 359
#     4  10  22  40  62  90 120 154 199 252 308 366
#     4  10  22  40  63  91 119 151 198 253 307 361
#     4  10  22  38  58  87 124 163 205 246 291 357
#     4  11  24  39  58  88 126 163 201 246 302 361
#     4   9  19  37  59  83 117 162 204 245 294 357
#     4  12  24  39  60  90 122 160 203 253 306 357
#
# _framework density 20.9421
#
# number of rings (size 3 to 8) (size 9 to 14) (size 15 to 20)
#    0.000    1.714    0.000    4.286    6.000    2.571 
#    0.000    2.143    0.000    0.857    0.000    9.000 
#    0.000    0.000    0.000    0.000    0.000    0.000 
#
# Total GULP energy -312158.206125 kJ/mol
# GULP energy per Si atom -5574.253681 kJ/mol
# Density = 2.089444 g / cm^3
# Si number density = 20.942100 Si / 1000 Ang^3
#
#
#
# Elastic Constant Matrix: (Units=GPa)
#
#
# Indices 1 2 3 4 5 6 
#
# 1 82.9938 26.1300 28.7217 0.0000 0.0000 0.0000
# 2 26.1300 59.1406 27.6745 0.0000 0.0000 0.0000
# 3 28.7217 27.6745 108.2415 0.0000 0.0000 0.0000
# 4 0.0000 0.0000 0.0000 27.3525 0.0000 0.0000
# 5 0.0000 0.0000 0.0000 0.0000 26.8313 0.0000
# 6 0.0000 0.0000 0.0000 0.0000 0.0000 29.4388
#
#
#
# Elastic Compliance Matrix: (Units=1/GPa)
#
#
# Indices 1 2 3 4 5 6 
#
# 1 0.014579 -0.005260 -0.002523 0.000000 0.000000 0.000000
# 2 -0.005260 0.021105 -0.004000 0.000000 0.000000 0.000000
# 3 -0.002523 -0.004000 0.010931 0.000000 0.000000 0.000000
# 4 0.000000 0.000000 0.000000 0.036560 0.000000 0.000000
# 5 0.000000 0.000000 0.000000 0.000000 0.037270 0.000000
# 6 0.000000 0.000000 0.000000 0.000000 0.000000 0.033969
#
#
# Mechanical properties :
#
#
# Convention : Reuss Voigt Hill
#
# Bulk Modulus (GPa) = 43.39066 46.15871 44.77468
# Shear Modulus (GPa) = 26.93051 27.91449 27.42250
#
# Velocity S-wave (km/s) = 3.58991 3.65490 3.62255
# Velocity P-wave (km/s) = 6.16016 6.31665 6.23889
#
# Compressibility (1/GPa) = 0.02304644
#
# Stress axis : x y z
#
# Youngs Moduli (GPa) = 68.59373 47.38237 91.48357
#
# Poissons Ratio (x) = 0.24925 0.23086
# Poissons Ratio (y) = 0.36083 0.36595
# Poissons Ratio (z) = 0.17309 0.18954
#
# Static dielectric constant tensor:
#      x y z
#    x 1.801510 0.000000 0.000000 
#    y 0.000000 1.776140 0.000000 
#    z 0.000000 0.000000 1.777270 
# 
# From -- ./inp_files/19755.got.cif
#   From: 2010.05.17/outbox.cif.g08.bks.cpg/sg55_10_cif.got.tgz:19755.got - 2010.06.03 13:27:54.
