data_PCOD9427504
_publ_section_title
;
Structure prediction by ZEFSAII (Michael W. Deem and Ramdas Pophale) SiO2 
 PCOD9427504
Probable space group: P B A M
;
_chemical_formula_sum "Si O2"
_cell_formula_units_Z 64
_cell_length_a 8.091626
_cell_length_b 14.653450
_cell_length_c 22.209139
_cell_angle_alpha 90.000000
_cell_angle_beta 90.000000
_cell_angle_gamma 90.000000
_cell_volume 2633.342875
_symmetry_space_group_name_H-M "P B A M"
_symmetry_group_IT_number 55
_symmetry_cell_setting 'orthorhombic'
loop_
_space_group_symop_operation_xyz
x,y,z
-x,-y,z
1/2+x,1/2-y,-z
1/2-x,1/2+y,-z
-x,-y,-z
x,y,-z
1/2-x,1/2+y,z
1/2+x,1/2-y,z
loop_
_atom_site_type_symbol
_atom_site_label
_atom_site_fract_x
_atom_site_fract_y
_atom_site_fract_z
Si Si1 0.506739 0.720853 0.626702
Si Si2 0.869601 0.218963 0.760800
Si Si3 0.157508 0.442016 0.796842
Si Si4 0.678741 0.127927 0.068472
Si Si5 0.824828 0.055924 0.431442
Si Si6 0.186327 0.626644 0.572306
Si Si7 0.323473 0.616639 0.813437
Si Si8 0.571883 0.337735 0.934123
O O1 0.547628 0.732456 0.696241
O O2 0.640916 0.646100 0.605135
O O3 0.332806 0.675619 0.609672
O O4 0.528715 0.814698 0.590456
O O5 0.712472 0.150168 0.763373
O O6 0.814535 0.314606 0.788651
O O7 0.005141 0.166507 0.799974
O O8 0.134425 0.420301 0.868236
O O9 0.303121 0.516241 0.788047
O O10 0.000000 0.500000 0.775530
O O11 0.600010 0.229393 0.072611
O O12 0.878216 0.139585 0.070557
O O13 0.638961 0.093426 0.000000
O O14 0.787828 0.082116 0.500000
O O15 0.694214 0.979892 0.411408
O O16 0.000000 0.000000 0.431652
O O17 0.216342 0.632389 0.500000
O O18 0.319409 0.611344 0.885061
O O19 0.630127 0.364743 0.000000
#
# Coordination Sequence:
#
# PCOD9427504 Si02
#       8
#     8   8   8   8   8   8   8   8
#     4  11  22  38  63  92 125 167 212 259 315 376
#     4  12  26  44  64  93 130 176 226 274 322 391
#     4  12  27  43  66  94 127 175 221 276 337 398
#     4  10  22  41  66 101 131 164 218 274 339 404
#     4   8  16  33  58  86 119 156 196 244 298 364
#     4  10  20  37  63  95 127 163 209 259 318 380
#     4  12  24  44  67  90 129 173 223 274 336 393
#     4  10  20  38  68  94 126 166 210 273 337 394
#
# _framework density 24.303709999999999
#
# number of rings (size 3 to 8) (size 9 to 14) (size 15 to 20)
#    0.000    1.375    2.500    3.750    1.750    4.750 
#    0.000    1.875    0.000    2.250    0.000    0.000 
#    0.000    0.000    0.000    0.000    0.000    0.000 
#
# Total GULP energy -358155.734379 kJ/mol
# GULP energy per Si atom -5596.183350 kJ/mol
# Density = 2.424839 g / cm^3
# Si number density = 24.303710 Si / 1000 Ang^3
#
#
#
# Elastic Constant Matrix: (Units=GPa)
#
#
# Indices 1 2 3 4 5 6 
#
# 1 55.8326 8.1163 10.9631 0.0000 0.0000 0.0000
# 2 8.1163 89.1818 11.3651 0.0000 0.0000 0.0000
# 3 10.9631 11.3651 77.5347 0.0000 0.0000 0.0000
# 4 0.0000 0.0000 0.0000 -1.8674 0.0000 0.0000
# 5 0.0000 0.0000 0.0000 0.0000 8.4922 0.0000
# 6 0.0000 0.0000 0.0000 0.0000 0.0000 36.9162
#
#
#
# Elastic Compliance Matrix: (Units=1/GPa)
#
#
# Indices 1 2 3 4 5 6 
#
# 1 0.018588 -0.001383 -0.002426 0.000000 0.000000 0.000000
# 2 -0.001383 0.011529 -0.001494 0.000000 0.000000 0.000000
# 3 -0.002426 -0.001494 0.013459 0.000000 0.000000 0.000000
# 4 0.000000 0.000000 0.000000 -0.535499 0.000000 0.000000
# 5 0.000000 0.000000 0.000000 0.000000 0.117756 0.000000
# 6 0.000000 0.000000 0.000000 0.000000 0.000000 0.027088
#
#
# Mechanical properties :
#
#
# Convention : Reuss Voigt Hill
#
# Bulk Modulus (GPa) = 30.32925 31.49311 30.91118
# Shear Modulus (GPa) = -15.36179 21.51517 3.07669
#
# Velocity S-wave (km/s) = -2.51684 2.97856 1.12636
# Velocity P-wave (km/s) = 2.01504 4.98151 3.79972
#
# Compressibility (1/GPa) = 0.03297147
#
# Stress axis : x y z
#
# Youngs Moduli (GPa) = 53.79835 86.73530 74.29708
#
# Poissons Ratio (x) = 0.11992 0.18021
# Poissons Ratio (y) = 0.07438 0.11104
# Poissons Ratio (z) = 0.13049 0.12962
#
# Static dielectric constant tensor:
#      x y z
#    x 2.015240 0.000000 0.000000 
#    y 0.000000 1.883240 0.000000 
#    z 0.000000 0.000000 1.922980 
# 
# From -- ./inp_files/23470.got.cif
#   From: 2010.05.17/outbox.cif.g08.bks.cpg/sg55_12_cif.got.tgz:23470.got - 2010.06.03 13:27:54.
