data_PCOD9427892
_publ_section_title
;
Structure prediction by ZEFSAII (Michael W. Deem and Ramdas Pophale) SiO2 
 PCOD9427892
Probable space group: P B A M
;
_chemical_formula_sum "Si O2"
_cell_formula_units_Z 64
_cell_length_a 25.079953
_cell_length_b 14.630691
_cell_length_c 8.864583
_cell_angle_alpha 90.000000
_cell_angle_beta 90.000000
_cell_angle_gamma 90.000000
_cell_volume 3252.743870
_symmetry_space_group_name_H-M "P B A M"
_symmetry_group_IT_number 55
_symmetry_cell_setting 'orthorhombic'
loop_
_space_group_symop_operation_xyz
x,y,z
-x,-y,z
1/2+x,1/2-y,-z
1/2-x,1/2+y,-z
-x,-y,-z
x,y,-z
1/2-x,1/2+y,z
1/2+x,1/2-y,z
loop_
_atom_site_type_symbol
_atom_site_label
_atom_site_fract_x
_atom_site_fract_y
_atom_site_fract_z
Si Si1 0.673795 0.991223 0.678142
Si Si2 0.299422 0.820497 0.818188
Si Si3 0.093414 0.220735 0.179782
Si Si4 0.806489 0.291989 0.180286
Si Si5 0.977839 0.272386 0.173805
Si Si6 0.055809 0.552429 0.327473
Si Si7 0.939967 0.971983 0.682029
Si Si8 0.606229 0.658821 0.677357
O O1 0.684229 0.989796 0.500000
O O2 0.687988 0.892068 0.746177
O O3 0.609756 0.003158 0.700807
O O4 0.702828 0.077626 0.751770
O O5 0.353409 0.770177 0.764650
O O6 0.249040 0.757514 0.779319
O O7 0.301561 0.828215 0.000000
O O8 0.040563 0.281614 0.203507
O O9 0.079927 0.123494 0.252673
O O10 0.099238 0.207247 0.000000
O O11 0.852493 0.222803 0.235516
O O12 0.809502 0.301893 0.000000
O O13 0.948243 0.366318 0.208714
O O14 0.951984 0.199636 0.285701
O O15 0.970451 0.244281 0.000000
O O16 0.060703 0.589388 0.500000
O O17 0.000000 0.500000 0.319942
O O18 0.941522 0.967027 0.500000
O O19 0.898904 0.053241 0.723641
O O20 0.000000 0.000000 0.732929
O O21 0.617385 0.664491 0.500000
#
# Coordination Sequence:
#
# PCOD9427892 Si02
#       8
#     8   8   8   8   8   8   8   8
#     4  11  23  40  65  94 124 161 203 253 306 360
#     4  10  24  45  65  89 124 165 206 253 307 361
#     4  10  22  39  60  89 124 161 206 256 305 362
#     4  11  24  43  67  91 121 164 210 256 307 362
#     4  11  21  33  56  88 119 156 199 248 304 362
#     4  10  21  36  56  86 123 162 200 245 304 366
#     4  10  21  37  58  86 122 165 205 247 308 370
#     4  11  22  38  60  87 121 158 202 254 305 365
#
# _framework density 19.675695999999999
#
# number of rings (size 3 to 8) (size 9 to 14) (size 15 to 20)
#    0.000    1.500    2.500    2.250    0.000    5.000 
#    0.000    3.750    0.000    0.000    0.000    0.000 
#    0.000    0.000    0.000    0.000    0.000    0.000 
#
# Total GULP energy -357395.245741 kJ/mol
# GULP energy per Si atom -5584.300715 kJ/mol
# Density = 1.963091 g / cm^3
# Si number density = 19.675696 Si / 1000 Ang^3
#
#
#
# Elastic Constant Matrix: (Units=GPa)
#
#
# Indices 1 2 3 4 5 6 
#
# 1 100.1023 48.4553 30.1850 0.0000 0.0000 0.0000
# 2 48.4553 115.8469 32.3023 0.0000 0.0000 0.0000
# 3 30.1850 32.3023 23.5918 0.0000 0.0000 0.0000
# 4 0.0000 0.0000 0.0000 37.9208 0.0000 0.0000
# 5 0.0000 0.0000 0.0000 0.0000 21.8708 0.0000
# 6 0.0000 0.0000 0.0000 0.0000 0.0000 28.6200
#
#
#
# Elastic Compliance Matrix: (Units=1/GPa)
#
#
# Indices 1 2 3 4 5 6 
#
# 1 0.016455 -0.001637 -0.018812 0.000000 0.000000 0.000000
# 2 -0.001637 0.014126 -0.017247 0.000000 0.000000 0.000000
# 3 -0.018812 -0.017247 0.090072 0.000000 0.000000 0.000000
# 4 0.000000 0.000000 0.000000 0.026371 0.000000 0.000000
# 5 0.000000 0.000000 0.000000 0.000000 0.045723 0.000000
# 6 0.000000 0.000000 0.000000 0.000000 0.000000 0.034941
#
#
# Mechanical properties :
#
#
# Convention : Reuss Voigt Hill
#
# Bulk Modulus (GPa) = 22.09422 51.26957 36.68190
# Shear Modulus (GPa) = 15.71511 26.25554 20.98532
#
# Velocity S-wave (km/s) = 2.82921 3.65693 3.26937
# Velocity P-wave (km/s) = 4.68253 6.62908 5.73894
#
# Compressibility (1/GPa) = 0.04526071
#
# Stress axis : x y z
#
# Youngs Moduli (GPa) = 60.77240 70.79217 11.10227
#
# Poissons Ratio (x) = 0.11590 0.20886
# Poissons Ratio (y) = 0.09949 0.19148
# Poissons Ratio (z) = 1.14325 1.22093
#
# Static dielectric constant tensor:
#      x y z
#    x 1.708800 0.000000 0.000000 
#    y 0.000000 1.679940 0.000000 
#    z 0.000000 0.000000 1.667240 
# 
# From -- ./inp_files/9808.got.cif
#   From: 2010.05.17/outbox.cif.g08.bks.cpg/sg55_5_cif.got.tgz:9808.got - 2010.06.03 13:27:54.
