data_PCOD9427042
_publ_section_title
;
Structure prediction by ZEFSAII (Michael W. Deem and Ramdas Pophale) SiO2 
 PCOD9427042
Probable space group: P B A M
;
_chemical_formula_sum "Si O2"
_cell_formula_units_Z 56
_cell_length_a 6.155638
_cell_length_b 32.513462
_cell_length_c 12.944238
_cell_angle_alpha 90.000000
_cell_angle_beta 90.000000
_cell_angle_gamma 90.000000
_cell_volume 2590.674060
_symmetry_space_group_name_H-M "P B A M"
_symmetry_group_IT_number 55
_symmetry_cell_setting 'orthorhombic'
loop_
_space_group_symop_operation_xyz
x,y,z
-x,-y,z
1/2+x,1/2-y,-z
1/2-x,1/2+y,-z
-x,-y,-z
x,y,-z
1/2-x,1/2+y,z
1/2+x,1/2-y,z
loop_
_atom_site_type_symbol
_atom_site_label
_atom_site_fract_x
_atom_site_fract_y
_atom_site_fract_z
Si Si1 0.276792 0.378597 0.384432
Si Si2 0.981154 0.045275 0.714724
Si Si3 0.451608 0.759219 0.181063
Si Si4 0.251246 0.593349 0.117442
Si Si5 0.081866 0.656838 0.742767
Si Si6 0.573024 0.297862 0.382715
Si Si7 0.851548 0.540005 0.892129
O O1 0.193875 0.384341 0.500000
O O2 0.439621 0.415900 0.358457
O O3 0.395389 0.334352 0.378684
O O4 0.079067 0.376465 0.305055
O O5 0.774753 0.039739 0.787561
O O6 0.152074 0.059909 0.802651
O O7 0.000000 0.000000 0.664913
O O8 0.204360 0.748589 0.137540
O O9 0.451064 0.808000 0.197892
O O10 0.461540 0.735149 0.291672
O O11 0.253638 0.636182 0.179102
O O12 0.002607 0.579799 0.105174
O O13 0.340266 0.595412 0.000000
O O14 0.205064 0.679158 0.648865
O O15 0.578619 0.281215 0.500000
O O16 0.000000 0.500000 0.894744
O O17 0.719951 0.538504 0.000000
#
# Coordination Sequence:
#
# PCOD9427042 Si02
#       7
#     8   8   8   8   8   8   8
#     4  11  23  39  58  86 122 166 213 253 312 390
#     4  12  23  38  62  87 125 163 208 267 332 385
#     4  10  21  36  61  94 127 166 208 266 324 387
#     4  11  23  38  61  91 121 161 210 260 321 388
#     4  11  21  40  62  87 129 167 206 263 322 386
#     4  10  21  37  60  92 124 161 208 261 316 377
#     4  10  20  35  58  87 116 148 197 262 325 381
#
# _framework density 21.615997
#
# number of rings (size 3 to 8) (size 9 to 14) (size 15 to 20)
#    0.000    1.286    5.714    0.857    0.000    3.714 
#    0.000    0.000    0.000    4.714    0.000    0.000 
#    0.000    0.000    0.000    0.000    0.000    0.000 
#
# Total GULP energy -311787.267046 kJ/mol
# GULP energy per Si atom -5567.629769 kJ/mol
# Density = 2.156680 g / cm^3
# Si number density = 21.615997 Si / 1000 Ang^3
#
#
#
# Elastic Constant Matrix: (Units=GPa)
#
#
# Indices 1 2 3 4 5 6 
#
# 1 68.2607 2.2272 7.9963 0.0000 0.0000 0.0000
# 2 2.2272 87.4882 22.1180 0.0000 0.0000 0.0000
# 3 7.9963 22.1180 46.3221 0.0000 0.0000 0.0000
# 4 0.0000 0.0000 0.0000 56.8073 0.0000 0.0000
# 5 0.0000 0.0000 0.0000 0.0000 39.1617 0.0000
# 6 0.0000 0.0000 0.0000 0.0000 0.0000 35.7951
#
#
#
# Elastic Compliance Matrix: (Units=1/GPa)
#
#
# Indices 1 2 3 4 5 6 
#
# 1 0.014959 0.000309 -0.002730 0.000000 0.000000 0.000000
# 2 0.000309 0.013006 -0.006263 0.000000 0.000000 0.000000
# 3 -0.002730 -0.006263 0.025050 0.000000 0.000000 0.000000
# 4 0.000000 0.000000 0.000000 0.017603 0.000000 0.000000
# 5 0.000000 0.000000 0.000000 0.000000 0.025535 0.000000
# 6 0.000000 0.000000 0.000000 0.000000 0.000000 0.027937
#
#
# Mechanical properties :
#
#
# Convention : Reuss Voigt Hill
#
# Bulk Modulus (GPa) = 28.05301 29.63936 28.84619
# Shear Modulus (GPa) = 32.60710 37.66812 35.13761
#
# Velocity S-wave (km/s) = 3.88812 4.17898 4.03617
# Velocity P-wave (km/s) = 5.75870 6.08496 5.92408
#
# Compressibility (1/GPa) = 0.03564679
#
# Stress axis : x y z
#
# Youngs Moduli (GPa) = 66.84749 76.88939 39.92032
#
# Poissons Ratio (x) = -0.02379 0.10899
# Poissons Ratio (y) = -0.02068 0.25004
# Poissons Ratio (z) = 0.18250 0.48159
#
# Static dielectric constant tensor:
#      x y z
#    x 1.882010 0.000000 0.000000 
#    y 0.000000 1.827040 0.000000 
#    z 0.000000 0.000000 1.778940 
# 
# From -- ./inp_files/16775.got.cif
#   From: 2010.05.17/outbox.cif.g08.bks.cpg/sg55_9_cif.got.tgz:16775.got - 2010.06.03 13:27:54.
