data_PCOD9427244
_publ_section_title
;
Structure prediction by ZEFSAII (Michael W. Deem and Ramdas Pophale) SiO2 
 PCOD9427244
Probable space group: P B A M
;
_chemical_formula_sum "Si O2"
_cell_formula_units_Z 48
_cell_length_a 28.674755
_cell_length_b 9.599344
_cell_length_c 8.611292
_cell_angle_alpha 90.000000
_cell_angle_beta 90.000000
_cell_angle_gamma 90.000000
_cell_volume 2370.334224
_symmetry_space_group_name_H-M "P B A M"
_symmetry_group_IT_number 55
_symmetry_cell_setting 'orthorhombic'
loop_
_space_group_symop_operation_xyz
x,y,z
-x,-y,z
1/2+x,1/2-y,-z
1/2-x,1/2+y,-z
-x,-y,-z
x,y,-z
1/2-x,1/2+y,z
1/2+x,1/2-y,z
loop_
_atom_site_type_symbol
_atom_site_label
_atom_site_fract_x
_atom_site_fract_y
_atom_site_fract_z
Si Si1 0.120321 0.328704 0.814574
Si Si2 0.955253 0.100176 0.681080
Si Si3 0.279531 0.312466 0.812782
Si Si4 0.301265 0.005404 0.315366
Si Si5 0.638789 0.479572 0.814346
Si Si6 0.982379 0.656502 0.318000
O O1 0.147158 0.456291 0.735122
O O2 0.065838 0.325498 0.771748
O O3 0.141503 0.180201 0.758584
O O4 0.125998 0.339233 0.000000
O O5 0.941592 0.113186 0.500000
O O6 0.911577 0.039717 0.770983
O O7 0.975758 0.245826 0.739896
O O8 0.000000 0.000000 0.690238
O O9 0.232932 0.387756 0.754246
O O10 0.287473 0.156740 0.750676
O O11 0.321418 0.414798 0.759103
O O12 0.278678 0.306573 0.000000
O O13 0.297524 0.008128 0.500000
O O14 0.642986 0.473253 0.000000
O O15 0.973980 0.694612 0.500000
O O16 0.000000 0.500000 0.311257
#
# Coordination Sequence:
#
# PCOD9427244 Si02
#       6
#     8   8   8   8   8   8
#     4  11  23  41  64  92 126 169 213 262 319 378
#     4  10  20  36  59  87 121 164 208 255 310 367
#     4  11  24  45  69  96 129 167 208 259 319 383
#     4  12  26  44  68  98 129 165 210 262 318 381
#     4  10  23  40  63  92 124 163 208 257 311 373
#     4  10  22  39  58  86 125 167 211 262 317 374
#
# _framework density 20.250309000000001
#
# number of rings (size 3 to 8) (size 9 to 14) (size 15 to 20)
#    0.000    1.333    1.667    3.500    2.333    4.667 
#    0.000    0.000    0.000    0.000    0.000    0.000 
#    0.000    0.000    0.000    0.000    0.000    0.000 
#
# Total GULP energy -268334.128000 kJ/mol
# GULP energy per Si atom -5590.294333 kJ/mol
# Density = 2.020422 g / cm^3
# Si number density = 20.250309 Si / 1000 Ang^3
#
#
#
# Elastic Constant Matrix: (Units=GPa)
#
#
# Indices 1 2 3 4 5 6 
#
# 1 56.3994 13.8529 6.8359 0.0000 0.0000 0.0000
# 2 13.8529 108.0765 30.7733 0.0000 0.0000 0.0000
# 3 6.8359 30.7733 54.9764 0.0000 0.0000 0.0000
# 4 0.0000 0.0000 0.0000 24.5862 0.0000 0.0000
# 5 0.0000 0.0000 0.0000 0.0000 38.6252 0.0000
# 6 0.0000 0.0000 0.0000 0.0000 0.0000 37.9738
#
#
#
# Elastic Compliance Matrix: (Units=1/GPa)
#
#
# Indices 1 2 3 4 5 6 
#
# 1 0.018368 -0.002027 -0.001149 0.000000 0.000000 0.000000
# 2 -0.002027 0.011231 -0.006034 0.000000 0.000000 0.000000
# 3 -0.001149 -0.006034 0.021710 0.000000 0.000000 0.000000
# 4 0.000000 0.000000 0.000000 0.040673 0.000000 0.000000
# 5 0.000000 0.000000 0.000000 0.000000 0.025890 0.000000
# 6 0.000000 0.000000 0.000000 0.000000 0.000000 0.026334
#
#
# Mechanical properties :
#
#
# Convention : Reuss Voigt Hill
#
# Bulk Modulus (GPa) = 30.40673 35.81961 33.11317
# Shear Modulus (GPa) = 28.80348 31.43635 30.11992
#
# Velocity S-wave (km/s) = 3.77553 3.94431 3.86084
# Velocity P-wave (km/s) = 5.83560 6.20244 6.02181
#
# Compressibility (1/GPa) = 0.03288746
#
# Stress axis : x y z
#
# Youngs Moduli (GPa) = 54.44283 89.04121 46.06101
#
# Poissons Ratio (x) = 0.18050 0.05294
# Poissons Ratio (y) = 0.11036 0.27795
# Poissons Ratio (z) = 0.06257 0.53731
#
# Static dielectric constant tensor:
#      x y z
#    x 1.699080 0.000000 0.000000 
#    y 0.000000 1.749610 0.000000 
#    z 0.000000 0.000000 1.696490 
# 
# From -- ./inp_files/10499.got.cif
#   From: 2010.05.17/outbox.cif.g08.bks.cpg/sg55_6_cif.got.tgz:10499.got - 2010.06.03 13:27:54.
