data_PCOD9427836
_publ_section_title
;
Structure prediction by ZEFSAII (Michael W. Deem and Ramdas Pophale) SiO2 
 PCOD9427836
Probable space group: P B A M
;
_chemical_formula_sum "Si O2"
_cell_formula_units_Z 32
_cell_length_a 5.020834
_cell_length_b 24.667198
_cell_length_c 13.815291
_cell_angle_alpha 90.000000
_cell_angle_beta 90.000000
_cell_angle_gamma 90.000000
_cell_volume 1711.022497
_symmetry_space_group_name_H-M "P B A M"
_symmetry_group_IT_number 55
_symmetry_cell_setting 'orthorhombic'
loop_
_space_group_symop_operation_xyz
x,y,z
-x,-y,z
1/2+x,1/2-y,-z
1/2-x,1/2+y,-z
-x,-y,-z
x,y,-z
1/2-x,1/2+y,z
1/2+x,1/2-y,z
loop_
_atom_site_type_symbol
_atom_site_label
_atom_site_fract_x
_atom_site_fract_y
_atom_site_fract_z
Si Si1 0.951484 0.286781 0.111621
Si Si2 0.359725 0.557644 0.113590
Si Si3 0.243878 0.961265 0.611203
Si Si4 0.854196 0.607184 0.207445
O O1 0.157997 0.237328 0.122863
O O2 0.026911 0.333863 0.185939
O O3 0.979533 0.307172 0.000000
O O4 0.500000 0.500000 0.131284
O O5 0.583203 0.600363 0.146500
O O6 0.084928 0.566737 0.169216
O O7 0.303877 0.562351 0.000000
O O8 0.197717 0.943798 0.500000
O O9 0.284439 0.911721 0.684363
O O10 0.500000 0.000000 0.613048
O O11 0.000000 0.000000 0.641263
#
# Coordination Sequence:
#
# PCOD9427836 Si02
#       4
#     8   8   8   8
#     4  10  21  36  53  75 104 140 184 228 268 316
#     4  11  22  33  49  79 114 143 173 212 266 335
#     4  10  21  37  57  82 110 140 178 222 268 323
#     4  12  21  35  57  77 106 146 184 221 271 323
#
# _framework density 18.702268
#
# number of rings (size 3 to 8) (size 9 to 14) (size 15 to 20)
#    0.000    1.250    0.000    8.250    0.000    4.000 
#    0.000    0.000    0.000    1.500    0.000    0.000 
#    0.000    0.000    0.000    0.000    0.000    0.000 
#
# Total GULP energy -178925.319883 kJ/mol
# GULP energy per Si atom -5591.416246 kJ/mol
# Density = 1.865970 g / cm^3
# Si number density = 18.702268 Si / 1000 Ang^3
#
#
#
# Elastic Constant Matrix: (Units=GPa)
#
#
# Indices 1 2 3 4 5 6 
#
# 1 85.1219 -6.1989 6.1309 0.0000 0.0000 0.0000
# 2 -6.1989 68.5261 35.5684 0.0000 0.0000 0.0000
# 3 6.1309 35.5684 118.8677 0.0000 0.0000 0.0000
# 4 0.0000 0.0000 0.0000 19.8356 0.0000 0.0000
# 5 0.0000 0.0000 0.0000 0.0000 12.2198 0.0000
# 6 0.0000 0.0000 0.0000 0.0000 0.0000 27.2036
#
#
#
# Elastic Compliance Matrix: (Units=1/GPa)
#
#
# Indices 1 2 3 4 5 6 
#
# 1 0.011949 0.001658 -0.001113 0.000000 0.000000 0.000000
# 2 0.001658 0.017506 -0.005324 0.000000 0.000000 0.000000
# 3 -0.001113 -0.005324 0.010063 0.000000 0.000000 0.000000
# 4 0.000000 0.000000 0.000000 0.050414 0.000000 0.000000
# 5 0.000000 0.000000 0.000000 0.000000 0.081834 0.000000
# 6 0.000000 0.000000 0.000000 0.000000 0.000000 0.036760
#
#
# Mechanical properties :
#
#
# Convention : Reuss Voigt Hill
#
# Bulk Modulus (GPa) = 33.37548 38.16848 35.77198
# Shear Modulus (GPa) = 21.92304 27.65281 24.78793
#
# Velocity S-wave (km/s) = 3.42747 3.84940 3.64455
# Velocity P-wave (km/s) = 5.79205 6.34113 6.07280
#
# Compressibility (1/GPa) = 0.02996212
#
# Stress axis : x y z
#
# Youngs Moduli (GPa) = 83.69070 57.12213 99.37247
#
# Poissons Ratio (x) = -0.09473 0.11055
# Poissons Ratio (y) = -0.13879 0.52905
# Poissons Ratio (z) = 0.09311 0.30411
#
# Static dielectric constant tensor:
#      x y z
#    x 1.635170 0.000000 0.000000 
#    y 0.000000 1.659570 0.000000 
#    z 0.000000 0.000000 1.651440 
# 
# From -- ./inp_files/11206.got.cif
#   From: 2010.05.17/outbox.cif.g08.bks.cpg/sg55_6_cif.got.tgz:11206.got - 2010.06.03 13:27:54.
