data_PCOD9427593
_publ_section_title
;
Structure prediction by ZEFSAII (Michael W. Deem and Ramdas Pophale) SiO2 
 PCOD9427593
Probable space group: P B A M
;
_chemical_formula_sum "Si O2"
_cell_formula_units_Z 40
_cell_length_a 12.665990
_cell_length_b 17.401308
_cell_length_c 8.272786
_cell_angle_alpha 90.000000
_cell_angle_beta 90.000000
_cell_angle_gamma 90.000000
_cell_volume 1823.361687
_symmetry_space_group_name_H-M "P B A M"
_symmetry_group_IT_number 55
_symmetry_cell_setting 'orthorhombic'
loop_
_space_group_symop_operation_xyz
x,y,z
-x,-y,z
1/2+x,1/2-y,-z
1/2-x,1/2+y,-z
-x,-y,-z
x,y,-z
1/2-x,1/2+y,z
1/2+x,1/2-y,z
loop_
_atom_site_type_symbol
_atom_site_label
_atom_site_fract_x
_atom_site_fract_y
_atom_site_fract_z
Si Si1 0.722691 0.812840 0.813035
Si Si2 0.183356 0.341797 0.806571
Si Si3 0.632585 0.550095 0.190260
Si Si4 0.027912 0.586515 0.691473
Si Si5 0.927843 0.888608 0.686557
O O1 0.743601 0.727781 0.741694
O O2 0.636597 0.871987 0.744005
O O3 0.840041 0.846187 0.790412
O O4 0.693890 0.804072 0.000000
O O5 0.251795 0.418085 0.780199
O O6 0.068333 0.356182 0.735367
O O7 0.172272 0.330415 0.000000
O O8 0.543282 0.612505 0.234395
O O9 0.608518 0.477181 0.299730
O O10 0.622140 0.530238 0.000000
O O11 0.033642 0.578813 0.500000
O O12 0.000000 0.500000 0.757803
O O13 0.928730 0.863637 0.500000
#
# Coordination Sequence:
#
# PCOD9427593 Si02
#       5
#     8   8   8   8   8
#     4  11  24  42  64  91 126 167 213 263 313 375
#     4  10  24  42  64  92 124 164 212 262 313 372
#     4  10  20  38  63  90 120 161 207 255 307 371
#     4  11  25  44  67  97 132 170 214 265 323 388
#     4  11  22  37  59  91 125 161 203 254 312 374
#
# _framework density 21.9375
#
# number of rings (size 3 to 8) (size 9 to 14) (size 15 to 20)
#    0.000    1.400    0.000    6.000    2.800    8.000 
#    0.000    0.000    0.000    0.000    0.000    0.000 
#    0.000    0.000    0.000    0.000    0.000    0.000 
#
# Total GULP energy -223258.378189 kJ/mol
# GULP energy per Si atom -5581.459455 kJ/mol
# Density = 2.188757 g / cm^3
# Si number density = 21.937500 Si / 1000 Ang^3
#
#
#
# Elastic Constant Matrix: (Units=GPa)
#
#
# Indices 1 2 3 4 5 6 
#
# 1 51.9805 -4.4447 -11.4689 0.0000 0.0000 0.0000
# 2 -4.4447 59.1241 -4.9700 0.0000 0.0000 0.0000
# 3 -11.4689 -4.9700 33.0038 0.0000 0.0000 0.0000
# 4 0.0000 0.0000 0.0000 2476.7646 0.0000 0.0000
# 5 0.0000 0.0000 0.0000 0.0000 39.9934 0.0000
# 6 0.0000 0.0000 0.0000 0.0000 0.0000 26.9371
#
#
#
# Elastic Compliance Matrix: (Units=1/GPa)
#
#
# Indices 1 2 3 4 5 6 
#
# 1 0.021123 0.002233 0.007676 0.000000 0.000000 0.000000
# 2 0.002233 0.017367 0.003391 0.000000 0.000000 0.000000
# 3 0.007676 0.003391 0.033478 0.000000 0.000000 0.000000
# 4 0.000000 0.000000 0.000000 0.000404 0.000000 0.000000
# 5 0.000000 0.000000 0.000000 0.000000 0.025004 0.000000
# 6 0.000000 0.000000 0.000000 0.000000 0.000000 0.037124
#
#
# Mechanical properties :
#
#
# Convention : Reuss Voigt Hill
#
# Bulk Modulus (GPa) = 10.14521 11.37126 10.75824
# Shear Modulus (GPa) = 35.52326 519.73848 277.63087
#
# Velocity S-wave (km/s) = 4.02841 15.40883 11.26189
# Velocity P-wave (km/s) = 5.12563 17.93797 13.19172
#
# Compressibility (1/GPa) = 0.09856867
#
# Stress axis : x y z
#
# Youngs Moduli (GPa) = 47.34252 57.58204 29.87058
#
# Poissons Ratio (x) = -0.12859 -0.22930
# Poissons Ratio (y) = -0.10572 -0.10130
# Poissons Ratio (z) = -0.36342 -0.19527
#
# Static dielectric constant tensor:
#      x y z
#    x 1.789190 0.000000 0.000000 
#    y 0.000000 1.860960 0.000000 
#    z 0.000000 0.000000 1.761430 
# 
# From -- ./inp_files/3644.got.cif
#   From: 2010.05.17/outbox.cif.g08.bks.cpg/sg55_2_cif.got.tgz:3644.got - 2010.06.03 13:27:54.
