data_PCOD9427228
_publ_section_title
;
Structure prediction by ZEFSAII (Michael W. Deem and Ramdas Pophale) SiO2 
 PCOD9427228
Probable space group: P B A M
;
_chemical_formula_sum "Si O2"
_cell_formula_units_Z 48
_cell_length_a 7.387626
_cell_length_b 14.146489
_cell_length_c 18.782879
_cell_angle_alpha 90.000000
_cell_angle_beta 90.000000
_cell_angle_gamma 90.000000
_cell_volume 1962.979337
_symmetry_space_group_name_H-M "P B A M"
_symmetry_group_IT_number 55
_symmetry_cell_setting 'orthorhombic'
loop_
_space_group_symop_operation_xyz
x,y,z
-x,-y,z
1/2+x,1/2-y,-z
1/2-x,1/2+y,-z
-x,-y,-z
x,y,-z
1/2-x,1/2+y,z
1/2+x,1/2-y,z
loop_
_atom_site_type_symbol
_atom_site_label
_atom_site_fract_x
_atom_site_fract_y
_atom_site_fract_z
Si Si1 0.300255 0.540956 0.079272
Si Si2 0.668527 0.110026 0.348716
Si Si3 0.339986 0.888172 0.500000
Si Si4 0.175644 0.394920 0.195184
Si Si5 0.237039 0.167455 0.500000
Si Si6 0.229870 0.684474 0.192155
Si Si7 0.251120 0.671663 0.653446
O O1 0.500000 0.500000 0.072771
O O2 0.203154 0.467323 0.131889
O O3 0.312174 0.638941 0.121837
O O4 0.220949 0.550114 0.000000
O O5 0.710223 0.064555 0.425109
O O6 0.715835 0.062582 0.273771
O O7 0.452137 0.130162 0.348514
O O8 0.758883 0.213806 0.348029
O O9 0.557097 0.870875 0.500000
O O10 0.258158 0.782271 0.500000
O O11 0.283273 0.297160 0.186385
O O12 0.970375 0.358430 0.196638
O O13 0.155776 0.144188 0.421798
O O14 0.326803 0.656060 0.266936
#
# Coordination Sequence:
#
# PCOD9427228 Si02
#       7
#     8   8   4   8   4   8   8
#     4  11  25  43  61  82 107 138 180 229 281 335
#     4   8  14  24  42  70 103 139 177 215 256 305
#     4   8  12  20  36  63 100 137 174 214 252 295
#     4  10  20  36  59  86 115 147 183 223 271 326
#     4   8  12  20  36  63 100 137 174 214 252 295
#     4  10  20  36  59  86 115 147 183 223 271 326
#     4   8  14  24  42  70 103 139 177 215 256 305
#
# _framework density 24.452625999999999
#
# number of rings (size 3 to 8) (size 9 to 14) (size 15 to 20)
#    0.000    2.833    0.000    1.500    0.000    3.333 
#    0.000    0.000    0.000    1.000    0.000    7.000 
#    0.000    0.000    0.000    0.000    0.000    0.000 
#
# Total GULP energy -267985.292363 kJ/mol
# GULP energy per Si atom -5583.026924 kJ/mol
# Density = 2.439697 g / cm^3
# Si number density = 24.452626 Si / 1000 Ang^3
#
#
#
# Elastic Constant Matrix: (Units=GPa)
#
#
# Indices 1 2 3 4 5 6 
#
# 1 45.1509 8.2646 22.5902 0.0000 0.0000 0.0000
# 2 8.2646 103.5631 61.6740 0.0000 0.0000 0.0000
# 3 22.5902 61.6740 292.4343 0.0000 0.0000 0.0000
# 4 0.0000 0.0000 0.0000 23.7960 0.0000 0.0000
# 5 0.0000 0.0000 0.0000 0.0000 -1.3646 0.0000
# 6 0.0000 0.0000 0.0000 0.0000 0.0000 21.5678
#
#
#
# Elastic Compliance Matrix: (Units=1/GPa)
#
#
# Indices 1 2 3 4 5 6 
#
# 1 0.023110 -0.000893 -0.001597 0.000000 0.000000 0.000000
# 2 -0.000893 0.011077 -0.002267 0.000000 0.000000 0.000000
# 3 -0.001597 -0.002267 0.004021 0.000000 0.000000 0.000000
# 4 0.000000 0.000000 0.000000 0.042024 0.000000 0.000000
# 5 0.000000 0.000000 0.000000 0.000000 -0.732837 0.000000
# 6 0.000000 0.000000 0.000000 0.000000 0.000000 0.046365
#
#
# Mechanical properties :
#
#
# Convention : Reuss Voigt Hill
#
# Bulk Modulus (GPa) = 34.85033 69.57845 52.21439
# Shear Modulus (GPa) = -8.51558 32.04114 11.76278
#
# Velocity S-wave (km/s) = -1.86816 3.62378 2.19565
# Velocity P-wave (km/s) = 3.10318 6.78419 5.27518
#
# Compressibility (1/GPa) = 0.02869413
#
# Stress axis : x y z
#
# Youngs Moduli (GPa) = 43.27057 90.27381 248.68968
#
# Poissons Ratio (x) = 0.08064 0.39712
# Poissons Ratio (y) = 0.03865 0.56383
# Poissons Ratio (z) = 0.06910 0.20467
#
# Static dielectric constant tensor:
#      x y z
#    x 1.971700 0.000000 0.000000 
#    y 0.000000 2.008380 0.000000 
#    z 0.000000 0.000000 2.015240 
# 
# From -- ./inp_files/20819.got.cif
#   From: 2010.05.17/outbox.cif.g08.bks.cpg/sg55_11_cif.got.tgz:20819.got - 2010.06.03 13:27:54.
