data_PCOD9427974
_publ_section_title
;
Structure prediction by ZEFSAII (Michael W. Deem and Ramdas Pophale) SiO2 
 PCOD9427974
Probable space group: P B A M
;
_chemical_formula_sum "Si O2"
_cell_formula_units_Z 64
_cell_length_a 33.829766
_cell_length_b 11.797290
_cell_length_c 8.925204
_cell_angle_alpha 90.000000
_cell_angle_beta 90.000000
_cell_angle_gamma 90.000000
_cell_volume 3562.044991
_symmetry_space_group_name_H-M "P B A M"
_symmetry_group_IT_number 55
_symmetry_cell_setting 'orthorhombic'
loop_
_space_group_symop_operation_xyz
x,y,z
-x,-y,z
1/2+x,1/2-y,-z
1/2-x,1/2+y,-z
-x,-y,-z
x,y,-z
1/2-x,1/2+y,z
1/2+x,1/2-y,z
loop_
_atom_site_type_symbol
_atom_site_label
_atom_site_fract_x
_atom_site_fract_y
_atom_site_fract_z
Si Si1 0.302957 0.547280 0.320883
Si Si2 0.133326 0.203918 0.820815
Si Si3 0.328554 0.310913 0.179596
Si Si4 0.860236 0.533630 0.819619
Si Si5 0.557835 0.416642 0.680980
Si Si6 0.288094 0.096962 0.679155
Si Si7 0.971928 0.165430 0.320304
Si Si8 0.909251 0.318633 0.821079
O O1 0.307816 0.545152 0.500000
O O2 0.327699 0.650472 0.252270
O O3 0.319805 0.431764 0.251232
O O4 0.256554 0.560298 0.286632
O O5 0.130098 0.336997 0.783767
O O6 0.095920 0.135601 0.757943
O O7 0.135242 0.192187 0.000000
O O8 0.298856 0.216640 0.244836
O O9 0.372451 0.264554 0.216401
O O10 0.325148 0.316060 0.000000
O O11 0.820041 0.491918 0.741969
O O12 0.894334 0.443763 0.776212
O O13 0.855076 0.523342 0.000000
O O14 0.562046 0.412591 0.500000
O O15 0.517809 0.348861 0.722507
O O16 0.549778 0.547608 0.723352
O O17 0.292239 0.107067 0.500000
O O18 0.970673 0.170964 0.500000
O O19 0.948491 0.270437 0.253060
O O20 0.914079 0.317476 0.000000
#
# Coordination Sequence:
#
# PCOD9427974 Si02
#       8
#     8   8   8   8   8   8   8   8
#     4  11  24  38  55  81 112 144 181 229 281 334
#     4  11  23  38  57  82 110 147 190 229 279 339
#     4  10  21  37  57  81 110 142 182 228 273 327
#     4   9  21  40  57  77 110 149 188 230 276 333
#     4   9  19  36  55  80 115 149 179 226 282 333
#     4  10  22  38  57  81 109 142 183 229 279 330
#     4   9  18  33  56  83 111 144 183 224 277 336
#     4   9  18  34  55  79 106 139 180 227 274 320
#
# _framework density 17.967206000000001
#
# number of rings (size 3 to 8) (size 9 to 14) (size 15 to 20)
#    0.000    2.250    0.000    3.750    1.750    8.500 
#    0.000    1.875    0.000    3.750    0.000    0.000 
#    0.000    0.000    0.000    0.000    0.000    0.000 
#
# Total GULP energy -357317.994064 kJ/mol
# GULP energy per Si atom -5583.093657 kJ/mol
# Density = 1.792631 g / cm^3
# Si number density = 17.967206 Si / 1000 Ang^3
#
#
#
# Elastic Constant Matrix: (Units=GPa)
#
#
# Indices 1 2 3 4 5 6 
#
# 1 55.1284 8.7778 15.3259 0.0000 0.0000 0.0000
# 2 8.7778 39.4651 8.6389 0.0000 0.0000 0.0000
# 3 15.3259 8.6389 19.8625 0.0000 0.0000 0.0000
# 4 0.0000 0.0000 0.0000 16.0846 0.0000 0.0000
# 5 0.0000 0.0000 0.0000 0.0000 232.7461 0.0000
# 6 0.0000 0.0000 0.0000 0.0000 0.0000 10.0261
#
#
#
# Elastic Compliance Matrix: (Units=1/GPa)
#
#
# Indices 1 2 3 4 5 6 
#
# 1 0.023160 -0.001370 -0.017274 0.000000 0.000000 0.000000
# 2 -0.001370 0.028086 -0.011159 0.000000 0.000000 0.000000
# 3 -0.017274 -0.011159 0.068528 0.000000 0.000000 0.000000
# 4 0.000000 0.000000 0.000000 0.062171 0.000000 0.000000
# 5 0.000000 0.000000 0.000000 0.000000 0.004297 0.000000
# 6 0.000000 0.000000 0.000000 0.000000 0.000000 0.099740
#
#
# Mechanical properties :
#
#
# Convention : Reuss Voigt Hill
#
# Bulk Modulus (GPa) = 16.62000 19.99348 18.30674
# Shear Modulus (GPa) = 13.67452 57.21892 35.44672
#
# Velocity S-wave (km/s) = 2.76176 5.64938 4.44650
# Velocity P-wave (km/s) = 4.40909 7.32843 6.04756
#
# Compressibility (1/GPa) = 0.06016849
#
# Stress axis : x y z
#
# Youngs Moduli (GPa) = 43.17810 35.60478 14.59255
#
# Poissons Ratio (x) = 0.04877 0.25208
# Poissons Ratio (y) = 0.05915 0.16283
# Poissons Ratio (z) = 0.74587 0.39730
#
# Static dielectric constant tensor:
#      x y z
#    x 1.599790 0.000000 0.000000 
#    y 0.000000 1.604580 0.000000 
#    z 0.000000 0.000000 1.600120 
# 
# From -- ./inp_files/4606.got.cif
#   From: 2010.05.17/outbox.cif.g08.bks.cpg/sg55_3_cif.got.tgz:4606.got - 2010.06.03 13:27:54.
