data_PCOD9427369
_publ_section_title
;
Structure prediction by ZEFSAII (Michael W. Deem and Ramdas Pophale) SiO2 
 PCOD9427369
Probable space group: P B A M
;
_chemical_formula_sum "Si O2"
_cell_formula_units_Z 64
_cell_length_a 23.982141
_cell_length_b 15.132932
_cell_length_c 9.164405
_cell_angle_alpha 90.000000
_cell_angle_beta 90.000000
_cell_angle_gamma 90.000000
_cell_volume 3325.946861
_symmetry_space_group_name_H-M "P B A M"
_symmetry_group_IT_number 55
_symmetry_cell_setting 'orthorhombic'
loop_
_space_group_symop_operation_xyz
x,y,z
-x,-y,z
1/2+x,1/2-y,-z
1/2-x,1/2+y,-z
-x,-y,-z
x,y,-z
1/2-x,1/2+y,z
1/2+x,1/2-y,z
loop_
_atom_site_type_symbol
_atom_site_label
_atom_site_fract_x
_atom_site_fract_y
_atom_site_fract_z
Si Si1 0.462045 0.087171 0.332064
Si Si2 0.969006 0.088946 0.823712
Si Si3 0.530394 0.234921 0.174224
Si Si4 0.759529 0.262069 0.328368
Si Si5 0.168424 0.565161 0.675535
Si Si6 0.129468 0.191022 0.669753
Si Si7 0.865042 0.990953 0.171437
Si Si8 0.254250 0.924592 0.828059
O O1 0.462008 0.120569 0.500000
O O2 0.492477 0.155262 0.226963
O O3 0.397492 0.070446 0.291906
O O4 0.500000 0.000000 0.329565
O O5 0.998544 0.176767 0.771305
O O6 0.904485 0.073179 0.787014
O O7 0.972992 0.092548 0.000000
O O8 0.000000 0.000000 0.775612
O O9 0.591506 0.238644 0.245406
O O10 0.535590 0.236258 0.000000
O O11 0.771314 0.245070 0.500000
O O12 0.799696 0.343345 0.280947
O O13 0.695291 0.292505 0.315757
O O14 0.760841 0.170443 0.240439
O O15 0.175047 0.556858 0.500000
O O16 0.196989 0.479990 0.749607
O O17 0.114890 0.193325 0.500000
O O18 0.119137 0.094996 0.738253
O O19 0.801121 0.015963 0.189251
O O20 0.875535 0.971415 0.000000
O O21 0.266137 0.914444 0.000000
#
# Coordination Sequence:
#
# PCOD9427369 Si02
#       8
#     8   8   8   8   8   8   8   8
#     4  10  24  45  66  88 119 163 212 262 314 364
#     4   9  17  33  56  82 119 162 193 224 288 364
#     4  11  23  39  63  90 122 163 204 253 305 365
#     4  10  23  41  62  87 120 165 205 246 307 374
#     4  10  22  44  67  89 125 168 210 256 309 376
#     4  11  22  38  61  88 121 159 205 254 302 363
#     4  10  20  37  58  85 122 160 197 240 299 365
#     4  11  24  38  62  94 123 156 199 256 313 367
#
# _framework density 19.242642
#
# number of rings (size 3 to 8) (size 9 to 14) (size 15 to 20)
#    0.000    1.750    2.500    1.125    3.500    2.750 
#    0.000    1.875    0.000    0.000    0.000    0.000 
#    0.000    0.000    0.000    0.000    0.000    0.000 
#
# Total GULP energy -357210.051191 kJ/mol
# GULP energy per Si atom -5581.407050 kJ/mol
# Density = 1.919884 g / cm^3
# Si number density = 19.242642 Si / 1000 Ang^3
#
#
#
# Elastic Constant Matrix: (Units=GPa)
#
#
# Indices 1 2 3 4 5 6 
#
# 1 113.3879 32.6336 52.0888 0.0000 0.0000 0.0000
# 2 32.6336 80.6369 37.6354 0.0000 0.0000 0.0000
# 3 52.0888 37.6354 55.8139 0.0000 0.0000 0.0000
# 4 0.0000 0.0000 0.0000 33.7338 0.0000 0.0000
# 5 0.0000 0.0000 0.0000 0.0000 23.2799 0.0000
# 6 0.0000 0.0000 0.0000 0.0000 0.0000 25.7678
#
#
#
# Elastic Compliance Matrix: (Units=1/GPa)
#
#
# Indices 1 2 3 4 5 6 
#
# 1 0.015465 0.000697 -0.014902 0.000000 0.000000 0.000000
# 2 0.000697 0.018128 -0.012874 0.000000 0.000000 0.000000
# 3 -0.014902 -0.012874 0.040505 0.000000 0.000000 0.000000
# 4 0.000000 0.000000 0.000000 0.029644 0.000000 0.000000
# 5 0.000000 0.000000 0.000000 0.000000 0.042956 0.000000
# 6 0.000000 0.000000 0.000000 0.000000 0.000000 0.038808
#
#
# Mechanical properties :
#
#
# Convention : Reuss Voigt Hill
#
# Bulk Modulus (GPa) = 50.15328 54.95046 52.55187
# Shear Modulus (GPa) = 20.29953 25.05502 22.67727
#
# Velocity S-wave (km/s) = 3.25148 3.61232 3.43664
# Velocity P-wave (km/s) = 6.34164 6.78359 6.56633
#
# Compressibility (1/GPa) = 0.01993887
#
# Stress axis : x y z
#
# Youngs Moduli (GPa) = 64.66339 55.16360 24.68801
#
# Poissons Ratio (x) = -0.03844 0.36791
# Poissons Ratio (y) = -0.04506 0.31783
# Poissons Ratio (z) = 0.96364 0.71018
#
# Static dielectric constant tensor:
#      x y z
#    x 1.692620 0.000000 0.000000 
#    y 0.000000 1.665920 0.000000 
#    z 0.000000 0.000000 1.655670 
# 
# From -- ./inp_files/9787.got.cif
#   From: 2010.05.17/outbox.cif.g08.bks.cpg/sg55_5_cif.got.tgz:9787.got - 2010.06.03 13:27:54.
