data_PCOD9427502
_publ_section_title
;
Structure prediction by ZEFSAII (Michael W. Deem and Ramdas Pophale) SiO2 
 PCOD9427502
Probable space group: P B A M
;
_chemical_formula_sum "Si O2"
_cell_formula_units_Z 48
_cell_length_a 15.139887
_cell_length_b 7.593608
_cell_length_c 16.994375
_cell_angle_alpha 90.000000
_cell_angle_beta 90.000000
_cell_angle_gamma 90.000000
_cell_volume 1953.781554
_symmetry_space_group_name_H-M "P B A M"
_symmetry_group_IT_number 55
_symmetry_cell_setting 'orthorhombic'
loop_
_space_group_symop_operation_xyz
x,y,z
-x,-y,z
1/2+x,1/2-y,-z
1/2-x,1/2+y,-z
-x,-y,-z
x,y,-z
1/2-x,1/2+y,z
1/2+x,1/2-y,z
loop_
_atom_site_type_symbol
_atom_site_label
_atom_site_fract_x
_atom_site_fract_y
_atom_site_fract_z
Si Si1 0.555854 0.162797 0.659452
Si Si2 0.360041 0.250200 0.088021
Si Si3 0.786152 0.917291 0.835420
Si Si4 0.371902 0.498424 0.588264
Si Si5 0.249641 0.244233 0.334813
Si Si6 0.528197 0.293789 0.168995
O O1 0.557186 0.352433 0.614949
O O2 0.661353 0.129322 0.667503
O O3 0.521165 0.203093 0.746735
O O4 0.500000 0.000000 0.625868
O O5 0.324604 0.388278 0.153183
O O6 0.293377 0.093829 0.103789
O O7 0.460389 0.210491 0.108504
O O8 0.353909 0.321034 0.000000
O O9 0.759297 0.863401 0.747057
O O10 0.870031 0.795622 0.856226
O O11 0.387408 0.438497 0.500000
O O12 0.281774 0.616900 0.594436
O O13 0.341883 0.339971 0.646211
O O14 0.500000 0.500000 0.176688
#
# Coordination Sequence:
#
# PCOD9427502 Si02
#       6
#     8   8   8   8   8   8
#     4   9  21  40  60  93 126 170 215 270 323 394
#     4  11  23  38  64  95 131 172 219 279 337 384
#     4  10  21  40  63  94 126 173 223 272 321 407
#     4  10  20  37  63  94 127 161 214 269 325 385
#     4   9  20  36  62  90 122 173 213 263 322 390
#     4   9  21  40  63  89 125 175 222 268 327 397
#
# _framework density 24.567741000000002
#
# number of rings (size 3 to 8) (size 9 to 14) (size 15 to 20)
#    1.000    1.333    0.000    2.000    2.333    8.000 
#    0.000    0.000    0.000    3.000    0.000    0.000 
#    0.000    0.000    0.000    0.000    0.000    0.000 
#
# Total GULP energy -267634.524476 kJ/mol
# GULP energy per Si atom -5575.719260 kJ/mol
# Density = 2.451182 g / cm^3
# Si number density = 24.567741 Si / 1000 Ang^3
#
#
#
# Elastic Constant Matrix: (Units=GPa)
#
#
# Indices 1 2 3 4 5 6 
#
# 1 70.4098 33.9881 30.6043 0.0000 0.0000 0.0000
# 2 33.9881 63.2985 13.4982 0.0000 0.0000 0.0000
# 3 30.6043 13.4982 99.1505 0.0000 0.0000 0.0000
# 4 0.0000 0.0000 0.0000 18.4581 0.0000 0.0000
# 5 0.0000 0.0000 0.0000 0.0000 19.7996 0.0000
# 6 0.0000 0.0000 0.0000 0.0000 0.0000 49.4226
#
#
#
# Elastic Compliance Matrix: (Units=1/GPa)
#
#
# Indices 1 2 3 4 5 6 
#
# 1 0.021508 -0.010436 -0.005218 0.000000 0.000000 0.000000
# 2 -0.010436 0.021334 0.000317 0.000000 0.000000 0.000000
# 3 -0.005218 0.000317 0.011653 0.000000 0.000000 0.000000
# 4 0.000000 0.000000 0.000000 0.054177 0.000000 0.000000
# 5 0.000000 0.000000 0.000000 0.000000 0.050506 0.000000
# 6 0.000000 0.000000 0.000000 0.000000 0.000000 0.020234
#
#
# Mechanical properties :
#
#
# Convention : Reuss Voigt Hill
#
# Bulk Modulus (GPa) = 41.97975 43.22667 42.60321
# Shear Modulus (GPa) = 22.93287 27.85394 25.39340
#
# Velocity S-wave (km/s) = 3.05856 3.37079 3.21846
# Velocity P-wave (km/s) = 5.44036 5.72562 5.58481
#
# Compressibility (1/GPa) = 0.02382101
#
# Stress axis : x y z
#
# Youngs Moduli (GPa) = 46.49336 46.87285 85.81338
#
# Poissons Ratio (x) = 0.48917 0.44779
# Poissons Ratio (y) = 0.48521 -0.02719
# Poissons Ratio (z) = 0.24261 -0.01485
#
# Static dielectric constant tensor:
#      x y z
#    x 2.058150 0.000000 0.000000 
#    y 0.000000 2.111960 0.000000 
#    z 0.000000 0.000000 1.862600 
# 
# From -- ./inp_files/21514.got.cif
#   From: 2010.05.17/outbox.cif.g08.bks.cpg/sg55_11_cif.got.tgz:21514.got - 2010.06.03 13:27:54.
