data_PCOD9427601
_publ_section_title
;
Structure prediction by ZEFSAII (Michael W. Deem and Ramdas Pophale) SiO2 
 PCOD9427601
Probable space group: P B A M
;
_chemical_formula_sum "Si O2"
_cell_formula_units_Z 56
_cell_length_a 14.976078
_cell_length_b 22.041730
_cell_length_c 8.700649
_cell_angle_alpha 90.000000
_cell_angle_beta 90.000000
_cell_angle_gamma 90.000000
_cell_volume 2872.072643
_symmetry_space_group_name_H-M "P B A M"
_symmetry_group_IT_number 55
_symmetry_cell_setting 'orthorhombic'
loop_
_space_group_symop_operation_xyz
x,y,z
-x,-y,z
1/2+x,1/2-y,-z
1/2-x,1/2+y,-z
-x,-y,-z
x,y,-z
1/2-x,1/2+y,z
1/2+x,1/2-y,z
loop_
_atom_site_type_symbol
_atom_site_label
_atom_site_fract_x
_atom_site_fract_y
_atom_site_fract_z
Si Si1 0.826851 0.273237 0.184445
Si Si2 0.508803 0.429266 0.186398
Si Si3 0.516586 0.852327 0.319822
Si Si4 0.873122 0.456989 0.819455
Si Si5 0.199664 0.119223 0.815333
Si Si6 0.662743 0.639013 0.682507
Si Si7 0.154961 0.402555 0.818672
O O1 0.919448 0.305331 0.232381
O O2 0.747009 0.318483 0.238152
O O3 0.824150 0.207435 0.258020
O O4 0.822517 0.268681 0.000000
O O5 0.500000 0.500000 0.232182
O O6 0.602381 0.399984 0.241997
O O7 0.425344 0.391114 0.246342
O O8 0.508342 0.427861 0.000000
O O9 0.515756 0.839297 0.500000
O O10 0.562639 0.917319 0.285563
O O11 0.417325 0.857224 0.253182
O O12 0.772647 0.433508 0.788352
O O13 0.878842 0.528500 0.799606
O O14 0.893159 0.442706 0.000000
O O15 0.191921 0.124939 0.000000
O O16 0.656292 0.638322 0.500000
O O17 0.749956 0.603275 0.738688
O O18 0.164356 0.390877 0.000000
#
# Coordination Sequence:
#
# PCOD9427601 Si02
#       7
#     8   8   8   8   8   8   8
#     4  10  21  41  63  83 112 154 205 248 288 350
#     4  10  20  38  64  91 119 156 202 246 295 362
#     4  11  22  36  57  88 123 154 187 236 298 352
#     4   9  18  35  59  87 117 151 194 237 278 339
#     4   8  16  33  60  88 111 143 192 245 286 333
#     4  12  26  41  57  84 121 154 193 251 310 355
#     4  11  22  38  60  84 113 155 201 238 281 344
#
# _framework density 19.498113
#
# number of rings (size 3 to 8) (size 9 to 14) (size 15 to 20)
#    0.000    1.857    0.000    5.571    0.000    6.571 
#    0.000    7.857    0.000    0.000    0.000    0.000 
#    0.000    0.000    0.000    0.000    0.000    0.000 
#
# Total GULP energy -312850.460349 kJ/mol
# GULP energy per Si atom -5586.615363 kJ/mol
# Density = 1.945373 g / cm^3
# Si number density = 19.498113 Si / 1000 Ang^3
#
#
#
# Elastic Constant Matrix: (Units=GPa)
#
#
# Indices 1 2 3 4 5 6 
#
# 1 83.1414 1.9049 10.5719 0.0000 0.0000 0.0000
# 2 1.9049 54.4134 13.2644 0.0000 0.0000 0.0000
# 3 10.5719 13.2644 41.9608 0.0000 0.0000 0.0000
# 4 0.0000 0.0000 0.0000 69.5952 0.0000 0.0000
# 5 0.0000 0.0000 0.0000 0.0000 1.2867 0.0000
# 6 0.0000 0.0000 0.0000 0.0000 0.0000 10.9696
#
#
#
# Elastic Compliance Matrix: (Units=1/GPa)
#
#
# Indices 1 2 3 4 5 6 
#
# 1 0.012432 0.000356 -0.003245 0.000000 0.000000 0.000000
# 2 0.000356 0.019922 -0.006387 0.000000 0.000000 0.000000
# 3 -0.003245 -0.006387 0.026668 0.000000 0.000000 0.000000
# 4 0.000000 0.000000 0.000000 0.014369 0.000000 0.000000
# 5 0.000000 0.000000 0.000000 0.000000 0.777172 0.000000
# 6 0.000000 0.000000 0.000000 0.000000 0.000000 0.091161
#
#
# Mechanical properties :
#
#
# Convention : Reuss Voigt Hill
#
# Bulk Modulus (GPa) = 24.70950 25.66645 25.18797
# Shear Modulus (GPa) = 5.13469 26.62192 15.87831
#
# Velocity S-wave (km/s) = 1.62455 3.69908 2.85678
# Velocity P-wave (km/s) = 4.02730 5.60682 4.88137
#
# Compressibility (1/GPa) = 0.04047027
#
# Stress axis : x y z
#
# Youngs Moduli (GPa) = 80.43671 50.19463 37.49759
#
# Poissons Ratio (x) = -0.01786 0.12167
# Poissons Ratio (y) = -0.02861 0.23951
# Poissons Ratio (z) = 0.26099 0.32061
#
# Static dielectric constant tensor:
#      x y z
#    x 1.690660 0.000000 0.000000 
#    y 0.000000 1.764000 0.000000 
#    z 0.000000 0.000000 1.654520 
# 
# From -- ./inp_files/6125.got.cif
#   From: 2010.05.17/outbox.cif.g08.bks.cpg/sg55_4_cif.got.tgz:6125.got - 2010.06.03 13:27:54.
