data_PCOD9427867
_publ_section_title
;
Structure prediction by ZEFSAII (Michael W. Deem and Ramdas Pophale) SiO2 
 PCOD9427867
Probable space group: P B A M
;
_chemical_formula_sum "Si O2"
_cell_formula_units_Z 48
_cell_length_a 9.537517
_cell_length_b 31.696640
_cell_length_c 8.772727
_cell_angle_alpha 90.000000
_cell_angle_beta 90.000000
_cell_angle_gamma 90.000000
_cell_volume 2652.058912
_symmetry_space_group_name_H-M "P B A M"
_symmetry_group_IT_number 55
_symmetry_cell_setting 'orthorhombic'
loop_
_space_group_symop_operation_xyz
x,y,z
-x,-y,z
1/2+x,1/2-y,-z
1/2-x,1/2+y,-z
-x,-y,-z
x,y,-z
1/2-x,1/2+y,z
1/2+x,1/2-y,z
loop_
_atom_site_type_symbol
_atom_site_label
_atom_site_fract_x
_atom_site_fract_y
_atom_site_fract_z
Si Si1 0.909876 0.040466 0.682056
Si Si2 0.584691 0.630813 0.182610
Si Si3 0.396951 0.961962 0.183249
Si Si4 0.588123 0.790482 0.683742
Si Si5 0.912490 0.791703 0.684586
Si Si6 0.587457 0.133245 0.182597
O O1 0.918474 0.044754 0.500000
O O2 0.955769 0.084472 0.757616
O O3 0.750496 0.033142 0.733505
O O4 0.000000 0.000000 0.729754
O O5 0.487111 0.666847 0.251170
O O6 0.748370 0.638333 0.226867
O O7 0.577981 0.631248 0.000000
O O8 0.452999 0.915082 0.220622
O O9 0.500000 0.000000 0.222147
O O10 0.372917 0.962521 0.000000
O O11 0.587441 0.790660 0.500000
O O12 0.750231 0.788610 0.733453
O O13 0.500570 0.749396 0.733943
O O14 0.510194 0.832191 0.741139
O O15 0.915433 0.793302 0.500000
O O16 0.579220 0.138015 0.000000
#
# Coordination Sequence:
#
# PCOD9427867 Si02
#       6
#     8   8   8   8   8   8
#     4  10  21  36  55  81 111 142 179 223 268 317
#     4  10  21  37  57  80 106 141 181 220 268 320
#     4   9  19  36  56  79 109 145 184 224 267 318
#     4  10  21  36  56  80 107 142 179 217 266 320
#     4  10  21  37  56  80 108 139 178 220 264 317
#     4   9  19  35  54  78 107 139 179 223 265 313
#
# _framework density 18.099143999999999
#
# number of rings (size 3 to 8) (size 9 to 14) (size 15 to 20)
#    0.000    2.333    0.000    3.000    0.000    9.000 
#    0.000    3.333    0.000    0.000    0.000    0.000 
#    0.000    0.000    0.000    0.000    0.000    0.000 
#
# Total GULP energy -267929.969305 kJ/mol
# GULP energy per Si atom -5581.874361 kJ/mol
# Density = 1.805795 g / cm^3
# Si number density = 18.099144 Si / 1000 Ang^3
#
#
#
# Elastic Constant Matrix: (Units=GPa)
#
#
# Indices 1 2 3 4 5 6 
#
# 1 125.3850 117.2480 35.0851 0.0000 0.0000 0.0000
# 2 117.2480 181.9548 40.1619 0.0000 0.0000 0.0000
# 3 35.0851 40.1619 15.5788 0.0000 0.0000 0.0000
# 4 0.0000 0.0000 0.0000 29.2375 0.0000 0.0000
# 5 0.0000 0.0000 0.0000 0.0000 32.5567 0.0000
# 6 0.0000 0.0000 0.0000 0.0000 0.0000 40.4408
#
#
#
# Elastic Compliance Matrix: (Units=1/GPa)
#
#
# Indices 1 2 3 4 5 6 
#
# 1 0.026874 -0.009184 -0.036846 0.000000 0.000000 0.000000
# 2 -0.009184 0.015891 -0.020283 0.000000 0.000000 0.000000
# 3 -0.036846 -0.020283 0.199459 0.000000 0.000000 0.000000
# 4 0.000000 0.000000 0.000000 0.034203 0.000000 0.000000
# 5 0.000000 0.000000 0.000000 0.000000 0.030716 0.000000
# 6 0.000000 0.000000 0.000000 0.000000 0.000000 0.024727
#
#
# Mechanical properties :
#
#
# Convention : Reuss Voigt Hill
#
# Bulk Modulus (GPa) = 9.12424 78.65652 43.89038
# Shear Modulus (GPa) = 9.97948 29.14190 19.56069
#
# Velocity S-wave (km/s) = 2.35069 4.01699 3.29105
# Velocity P-wave (km/s) = 3.52418 8.06647 6.22446
#
# Compressibility (1/GPa) = 0.10959822
#
# Stress axis : x y z
#
# Youngs Moduli (GPa) = 37.21112 62.92946 5.01355
#
# Poissons Ratio (x) = 0.57795 0.18473
# Poissons Ratio (y) = 0.34175 0.10169
# Poissons Ratio (z) = 1.37108 1.27639
#
# Static dielectric constant tensor:
#      x y z
#    x 1.600800 0.000000 0.000000 
#    y 0.000000 1.603810 0.000000 
#    z 0.000000 0.000000 1.611350 
# 
# From -- ./inp_files/2820.got.cif
#   From: 2010.05.17/outbox.cif.g08.bks.cpg/sg55_2_cif.got.tgz:2820.got - 2010.06.03 13:27:54.
