data_PCOD9427131
_publ_section_title
;
Structure prediction by ZEFSAII (Michael W. Deem and Ramdas Pophale) SiO2 
 PCOD9427131
Probable space group: P B A M
;
_chemical_formula_sum "Si O2"
_cell_formula_units_Z 64
_cell_length_a 15.942036
_cell_length_b 24.235986
_cell_length_c 7.876696
_cell_angle_alpha 90.000000
_cell_angle_beta 90.000000
_cell_angle_gamma 90.000000
_cell_volume 3043.326605
_symmetry_space_group_name_H-M "P B A M"
_symmetry_group_IT_number 55
_symmetry_cell_setting 'orthorhombic'
loop_
_space_group_symop_operation_xyz
x,y,z
-x,-y,z
1/2+x,1/2-y,-z
1/2-x,1/2+y,-z
-x,-y,-z
x,y,-z
1/2-x,1/2+y,z
1/2+x,1/2-y,z
loop_
_atom_site_type_symbol
_atom_site_label
_atom_site_fract_x
_atom_site_fract_y
_atom_site_fract_z
Si Si1 0.404099 0.994786 0.204832
Si Si2 0.836539 0.873720 0.301033
Si Si3 0.346222 0.114219 0.295691
Si Si4 0.002053 0.312758 0.705095
Si Si5 0.094940 0.010149 0.801621
Si Si6 0.166792 0.378021 0.797806
Si Si7 0.650788 0.607152 0.300981
Si Si8 0.001788 0.813246 0.291552
O O1 0.363127 0.938205 0.267048
O O2 0.500000 0.000000 0.265912
O O3 0.355965 0.049798 0.255591
O O4 0.406055 0.992189 0.000000
O O5 0.831622 0.859587 0.500000
O O6 0.743607 0.865404 0.228138
O O7 0.913508 0.838265 0.230583
O O8 0.861767 0.937972 0.286177
O O9 0.345495 0.119886 0.500000
O O10 0.427462 0.147365 0.231479
O O11 0.999557 0.313402 0.500000
O O12 0.092586 0.335778 0.756999
O O13 0.988489 0.249975 0.761486
O O14 0.144840 0.953020 0.783155
O O15 0.088619 0.024517 0.000000
O O16 0.000000 0.000000 0.736339
O O17 0.258119 0.366323 0.723599
O O18 0.176075 0.381061 0.000000
O O19 0.635997 0.597917 0.500000
O O20 0.577345 0.647088 0.235744
O O21 0.002339 0.814058 0.500000
#
# Coordination Sequence:
#
# PCOD9427131 Si02
#       8
#     8   8   8   8   8   8   8   8
#     4  10  20  36  57  79 110 151 187 224 281 347
#     4  10  20  37  59  85 115 152 193 239 288 344
#     4  10  21  34  56  87 115 142 184 238 286 333
#     4  10  21  39  60  85 114 150 194 240 287 339
#     4  11  22  36  57  87 121 155 188 235 292 350
#     4  11  23  39  59  86 118 153 192 238 291 349
#     4  11  22  38  62  89 116 153 196 241 291 346
#     4   9  20  38  61  85 112 150 196 240 284 335
#
# _framework density 21.029619
#
# number of rings (size 3 to 8) (size 9 to 14) (size 15 to 20)
#    0.000    1.750    2.500    1.875    0.000    5.250 
#    0.000    5.625    0.000    1.500    0.000    0.000 
#    0.000    0.000    0.000    0.000    0.000    0.000 
#
# Total GULP energy -357663.709846 kJ/mol
# GULP energy per Si atom -5588.495466 kJ/mol
# Density = 2.098175 g / cm^3
# Si number density = 21.029619 Si / 1000 Ang^3
#
#
#
# Elastic Constant Matrix: (Units=GPa)
#
#
# Indices 1 2 3 4 5 6 
#
# 1 100.8036 -2.0890 -5.3227 0.0000 0.0000 0.0000
# 2 -2.0890 73.1248 -8.4718 0.0000 0.0000 0.0000
# 3 -5.3227 -8.4718 23.1770 0.0000 0.0000 0.0000
# 4 0.0000 0.0000 0.0000 110.2308 0.0000 0.0000
# 5 0.0000 0.0000 0.0000 0.0000 4.3460 0.0000
# 6 0.0000 0.0000 0.0000 0.0000 0.0000 5.6847
#
#
#
# Elastic Compliance Matrix: (Units=1/GPa)
#
#
# Indices 1 2 3 4 5 6 
#
# 1 0.010066 0.000580 0.002524 0.000000 0.000000 0.000000
# 2 0.000580 0.014313 0.005365 0.000000 0.000000 0.000000
# 3 0.002524 0.005365 0.045687 0.000000 0.000000 0.000000
# 4 0.000000 0.000000 0.000000 0.009072 0.000000 0.000000
# 5 0.000000 0.000000 0.000000 0.000000 0.230096 0.000000
# 6 0.000000 0.000000 0.000000 0.000000 0.000000 0.175910
#
#
# Mechanical properties :
#
#
# Convention : Reuss Voigt Hill
#
# Bulk Modulus (GPa) = 11.49387 18.37093 14.93240
# Shear Modulus (GPa) = 10.05616 38.25157 24.15387
#
# Velocity S-wave (km/s) = 2.18913 4.26953 3.39272
# Velocity P-wave (km/s) = 3.44487 5.74977 4.73957
#
# Compressibility (1/GPa) = 0.08700288
#
# Stress axis : x y z
#
# Youngs Moduli (GPa) = 99.34876 69.86465 21.88817
#
# Poissons Ratio (x) = -0.04052 -0.05524
# Poissons Ratio (y) = -0.05761 -0.11743
# Poissons Ratio (z) = -0.25071 -0.37483
#
# Static dielectric constant tensor:
#      x y z
#    x 1.770160 0.000000 0.000000 
#    y 0.000000 1.714830 0.000000 
#    z 0.000000 0.000000 1.775640 
# 
# From -- ./inp_files/6536.got.cif
#   From: 2010.05.17/outbox.cif.g08.bks.cpg/sg55_4_cif.got.tgz:6536.got - 2010.06.03 13:27:54.
