data_PCOD9427409
_publ_section_title
;
Structure prediction by ZEFSAII (Michael W. Deem and Ramdas Pophale) SiO2 
 PCOD9427409
Probable space group: P B A M
;
_chemical_formula_sum "Si O2"
_cell_formula_units_Z 64
_cell_length_a 13.680712
_cell_length_b 18.525125
_cell_length_c 13.701021
_cell_angle_alpha 90.000000
_cell_angle_beta 90.000000
_cell_angle_gamma 90.000000
_cell_volume 3472.344288
_symmetry_space_group_name_H-M "P B A M"
_symmetry_group_IT_number 55
_symmetry_cell_setting 'orthorhombic'
loop_
_space_group_symop_operation_xyz
x,y,z
-x,-y,z
1/2+x,1/2-y,-z
1/2-x,1/2+y,-z
-x,-y,-z
x,y,-z
1/2-x,1/2+y,z
1/2+x,1/2-y,z
loop_
_atom_site_type_symbol
_atom_site_label
_atom_site_fract_x
_atom_site_fract_y
_atom_site_fract_z
Si Si1 0.561825 0.602572 0.614647
Si Si2 0.753932 0.416385 0.112053
Si Si3 0.738709 0.292250 0.733475
Si Si4 0.760658 0.029448 0.275362
Si Si5 0.435823 0.223461 0.386448
Si Si6 0.610173 0.154740 0.730792
Si Si7 0.986443 0.418964 0.888705
Si Si8 0.845703 0.906493 0.386350
O O1 0.580469 0.581995 0.500000
O O2 0.646288 0.574472 0.685619
O O3 0.555209 0.689499 0.616141
O O4 0.455271 0.574414 0.646571
O O5 0.720578 0.347837 0.177089
O O6 0.732397 0.492096 0.168390
O O7 0.870985 0.407121 0.110273
O O8 0.718692 0.416401 0.000000
O O9 0.848562 0.292966 0.690656
O O10 0.693833 0.213960 0.752470
O O11 0.676136 0.325953 0.645685
O O12 0.667623 0.080358 0.290170
O O13 0.763712 0.958195 0.342258
O O14 0.412888 0.203968 0.500000
O O15 0.534627 0.183784 0.350685
O O16 0.544019 0.138124 0.824795
O O17 0.000000 0.500000 0.848685
O O18 0.023625 0.418700 0.000000
O O19 0.845613 0.912950 0.500000
#
# Coordination Sequence:
#
# PCOD9427409 Si02
#       8
#     8   8   8   8   8   8   8   8
#     4  10  20  37  60  85 116 159 207 243 288 358
#     4  10  22  41  64  87 117 159 199 248 310 368
#     4  11  22  39  61  86 123 160 201 250 303 361
#     4  11  22  35  61  91 120 150 201 256 298 352
#     4  11  23  37  56  87 126 162 200 243 295 356
#     4  12  23  37  61  93 120 154 201 252 303 348
#     4  10  20  38  63  86 112 149 198 247 297 360
#     4  10  21  38  58  85 118 163 208 245 293 356
#
# _framework density 18.431353000000001
#
# number of rings (size 3 to 8) (size 9 to 14) (size 15 to 20)
#    0.000    1.375    5.000    1.125    0.000    3.000 
#    0.000    0.000    0.000    9.375    0.000    0.000 
#    0.000    0.000    0.000    0.000    0.000    0.000 
#
# Total GULP energy -356677.162833 kJ/mol
# GULP energy per Si atom -5573.080669 kJ/mol
# Density = 1.838940 g / cm^3
# Si number density = 18.431353 Si / 1000 Ang^3
#
#
#
# Elastic Constant Matrix: (Units=GPa)
#
#
# Indices 1 2 3 4 5 6 
#
# 1 71.3893 24.5913 38.6080 0.0000 0.0000 0.0000
# 2 24.5913 82.9450 42.6003 0.0000 0.0000 0.0000
# 3 38.6080 42.6003 85.1199 0.0000 0.0000 0.0000
# 4 0.0000 0.0000 0.0000 -86.4062 0.0000 0.0000
# 5 0.0000 0.0000 0.0000 0.0000 10.9592 0.0000
# 6 0.0000 0.0000 0.0000 0.0000 0.0000 30.2149
#
#
#
# Elastic Compliance Matrix: (Units=1/GPa)
#
#
# Indices 1 2 3 4 5 6 
#
# 1 0.018717 -0.001600 -0.007689 0.000000 0.000000 0.000000
# 2 -0.001600 0.016364 -0.007464 0.000000 0.000000 0.000000
# 3 -0.007689 -0.007464 0.018971 0.000000 0.000000 0.000000
# 4 0.000000 0.000000 0.000000 -0.011573 0.000000 0.000000
# 5 0.000000 0.000000 0.000000 0.000000 0.091248 0.000000
# 6 0.000000 0.000000 0.000000 0.000000 0.000000 0.033096
#
#
# Mechanical properties :
#
#
# Convention : Reuss Voigt Hill
#
# Bulk Modulus (GPa) = 48.67042 50.11705 49.39374
# Shear Modulus (GPa) = 24.13392 -0.13611 11.99891
#
# Velocity S-wave (km/s) = 3.62248 -0.27204 2.55425
# Velocity P-wave (km/s) = 6.63024 5.21071 5.96287
#
# Compressibility (1/GPa) = 0.02054636
#
# Stress axis : x y z
#
# Youngs Moduli (GPa) = 53.42731 61.10934 52.71216
#
# Poissons Ratio (x) = 0.09780 0.40528
# Poissons Ratio (y) = 0.08550 0.39344
# Poissons Ratio (z) = 0.41078 0.45612
#
# Static dielectric constant tensor:
#      x y z
#    x 1.665640 0.000000 0.000000 
#    y 0.000000 1.665640 0.000000 
#    z 0.000000 0.000000 1.639130 
# 
# From -- ./inp_files/18564.got.cif
#   From: 2010.05.17/outbox.cif.g08.bks.cpg/sg55_10_cif.got.tgz:18564.got - 2010.06.03 13:27:54.
