data_PCOD9427363
_publ_section_title
;
Structure prediction by ZEFSAII (Michael W. Deem and Ramdas Pophale) SiO2 
 PCOD9427363
Probable space group: P B A M
;
_chemical_formula_sum "Si O2"
_cell_formula_units_Z 56
_cell_length_a 21.360862
_cell_length_b 15.090903
_cell_length_c 7.760411
_cell_angle_alpha 90.000000
_cell_angle_beta 90.000000
_cell_angle_gamma 90.000000
_cell_volume 2501.604932
_symmetry_space_group_name_H-M "P B A M"
_symmetry_group_IT_number 55
_symmetry_cell_setting 'orthorhombic'
loop_
_space_group_symop_operation_xyz
x,y,z
-x,-y,z
1/2+x,1/2-y,-z
1/2-x,1/2+y,-z
-x,-y,-z
x,y,-z
1/2-x,1/2+y,z
1/2+x,1/2-y,z
loop_
_atom_site_type_symbol
_atom_site_label
_atom_site_fract_x
_atom_site_fract_y
_atom_site_fract_z
Si Si1 0.452936 0.923655 0.210602
Si Si2 0.653108 0.956452 0.800997
Si Si3 0.252611 0.801505 0.289841
Si Si4 0.485919 0.728332 0.794551
Si Si5 0.382705 0.226343 0.296641
Si Si6 0.778249 0.003213 0.305128
Si Si7 0.146061 0.156692 0.706412
O O1 0.469417 0.826817 0.274055
O O2 0.500000 0.000000 0.268772
O O3 0.384804 0.958345 0.262407
O O4 0.453809 0.923102 0.000000
O O5 0.609518 0.869969 0.789023
O O6 0.715582 0.943758 0.693660
O O7 0.670428 0.967363 0.000000
O O8 0.257117 0.803366 0.500000
O O9 0.185162 0.760805 0.240250
O O10 0.310468 0.739355 0.229250
O O11 0.245460 0.903549 0.229036
O O12 0.557668 0.711788 0.741328
O O13 0.427325 0.669438 0.739105
O O14 0.485373 0.730916 0.000000
O O15 0.380295 0.213063 0.500000
O O16 0.799268 0.024159 0.500000
O O17 0.828978 0.937682 0.223379
O O18 0.155645 0.154032 0.500000
#
# Coordination Sequence:
#
# PCOD9427363 Si02
#       7
#     8   8   8   8   8   8   8
#     4   9  17  31  49  73 109 144 177 218 272 335
#     4  11  20  33  55  82 113 148 185 229 282 343
#     4   9  19  37  61  86 112 146 193 240 282 334
#     4  11  22  37  56  81 114 153 190 234 287 340
#     4  11  21  37  58  83 114 150 190 236 284 337
#     4  10  20  37  60  83 111 146 187 237 287 334
#     4  10  20  37  58  84 115 147 185 234 286 339
#
# _framework density 22.385629000000002
#
# number of rings (size 3 to 8) (size 9 to 14) (size 15 to 20)
#    0.000    1.857    2.857    2.143    0.000    0.571 
#    0.000    5.000    0.000    4.286    0.000    0.000 
#    0.000    0.000    0.000    0.000    0.000    0.000 
#
# Total GULP energy -312498.717770 kJ/mol
# GULP energy per Si atom -5580.334246 kJ/mol
# Density = 2.233468 g / cm^3
# Si number density = 22.385629 Si / 1000 Ang^3
#
#
#
# Elastic Constant Matrix: (Units=GPa)
#
#
# Indices 1 2 3 4 5 6 
#
# 1 80.6882 -2.8849 -0.6716 0.0000 0.0000 0.0000
# 2 -2.8849 52.6861 2.4536 0.0000 0.0000 0.0000
# 3 -0.6716 2.4536 45.6430 0.0000 0.0000 0.0000
# 4 0.0000 0.0000 0.0000 8.2126 0.0000 0.0000
# 5 0.0000 0.0000 0.0000 0.0000 73.4348 0.0000
# 6 0.0000 0.0000 0.0000 0.0000 0.0000 32.2725
#
#
#
# Elastic Compliance Matrix: (Units=1/GPa)
#
#
# Indices 1 2 3 4 5 6 
#
# 1 0.012419 0.000673 0.000147 0.000000 0.000000 0.000000
# 2 0.000673 0.019064 -0.001015 0.000000 0.000000 0.000000
# 3 0.000147 -0.001015 0.021966 0.000000 0.000000 0.000000
# 4 0.000000 0.000000 0.000000 0.121765 0.000000 0.000000
# 5 0.000000 0.000000 0.000000 0.000000 0.013618 0.000000
# 6 0.000000 0.000000 0.000000 0.000000 0.000000 0.030986
#
#
# Mechanical properties :
#
#
# Convention : Reuss Voigt Hill
#
# Bulk Modulus (GPa) = 18.84709 19.64572 19.24640
# Shear Modulus (GPa) = 21.01776 34.79200 27.90488
#
# Velocity S-wave (km/s) = 3.06746 3.94663 3.53449
# Velocity P-wave (km/s) = 4.58076 5.43718 5.02724
#
# Compressibility (1/GPa) = 0.05305860
#
# Stress axis : x y z
#
# Youngs Moduli (GPa) = 80.52389 52.45361 45.52512
#
# Poissons Ratio (x) = -0.03531 -0.00667
# Poissons Ratio (y) = -0.05421 0.04621
# Poissons Ratio (z) = -0.01180 0.05324
#
# Static dielectric constant tensor:
#      x y z
#    x 1.871060 0.000000 0.000000 
#    y 0.000000 1.879880 0.000000 
#    z 0.000000 0.000000 1.809910 
# 
# From -- ./inp_files/8697.got.cif
#   From: 2010.05.17/outbox.cif.g08.bks.cpg/sg55_5_cif.got.tgz:8697.got - 2010.06.03 13:27:54.
