data_PCOD9427803
_publ_section_title
;
Structure prediction by ZEFSAII (Michael W. Deem and Ramdas Pophale) SiO2 
 PCOD9427803
Probable space group: P B A M
;
_chemical_formula_sum "Si O2"
_cell_formula_units_Z 64
_cell_length_a 15.135737
_cell_length_b 24.364970
_cell_length_c 7.630199
_cell_angle_alpha 90.000000
_cell_angle_beta 90.000000
_cell_angle_gamma 90.000000
_cell_volume 2813.878353
_symmetry_space_group_name_H-M "P B A M"
_symmetry_group_IT_number 55
_symmetry_cell_setting 'orthorhombic'
loop_
_space_group_symop_operation_xyz
x,y,z
-x,-y,z
1/2+x,1/2-y,-z
1/2-x,1/2+y,-z
-x,-y,-z
x,y,-z
1/2-x,1/2+y,z
1/2+x,1/2-y,z
loop_
_atom_site_type_symbol
_atom_site_label
_atom_site_fract_x
_atom_site_fract_y
_atom_site_fract_z
Si Si1 0.013799 0.207435 0.212588
Si Si2 0.842647 0.880898 0.211756
Si Si3 0.178289 0.688121 0.294369
Si Si4 0.398746 0.499912 0.212261
Si Si5 0.556168 0.051464 0.203886
Si Si6 0.981676 0.671684 0.199151
Si Si7 0.257091 0.921092 0.294590
Si Si8 0.692630 0.693315 0.292106
O O1 0.041371 0.268460 0.277807
O O2 0.913439 0.192136 0.263575
O O3 0.081074 0.160786 0.272101
O O4 0.014614 0.209864 0.000000
O O5 0.749391 0.858493 0.271680
O O6 0.858556 0.942454 0.270723
O O7 0.845135 0.880665 0.000000
O O8 0.156392 0.694893 0.500000
O O9 0.087983 0.674744 0.197815
O O10 0.218086 0.746047 0.227681
O O11 0.500000 0.500000 0.270663
O O12 0.336495 0.451078 0.273651
O O13 0.399080 0.497608 0.000000
O O14 0.541524 0.112782 0.281931
O O15 0.662049 0.045096 0.211938
O O16 0.500000 0.000000 0.277519
O O17 0.528138 0.055725 0.000000
O O18 0.946705 0.671129 0.000000
O O19 0.277417 0.917993 0.500000
O O20 0.243358 0.859587 0.219431
O O21 0.708507 0.691504 0.500000
#
# Coordination Sequence:
#
# PCOD9427803 Si02
#       8
#     8   8   8   8   8   8   8   8
#     4   9  18  34  58  87 113 145 190 237 283 340
#     4  10  21  35  56  85 116 145 184 236 285 339
#     4  10  21  36  56  83 115 152 188 225 282 349
#     4  10  22  41  63  87 117 156 197 239 293 350
#     4  10  23  41  61  85 115 154 199 248 300 350
#     4   9  19  37  59  83 113 148 190 239 290 338
#     4  11  24  40  61  89 121 156 199 246 291 346
#     4   9  20  38  56  81 117 152 186 230 285 342
#
# _framework density 22.744409999999998
#
# number of rings (size 3 to 8) (size 9 to 14) (size 15 to 20)
#    0.000    2.250    0.000    1.500    3.500    4.500 
#    0.000    0.000    0.000    0.000    0.000    0.000 
#    0.000    0.000    0.000    0.000    0.000    0.000 
#
# Total GULP energy -357432.150256 kJ/mol
# GULP energy per Si atom -5584.877348 kJ/mol
# Density = 2.269264 g / cm^3
# Si number density = 22.744410 Si / 1000 Ang^3
#
#
#
# Elastic Constant Matrix: (Units=GPa)
#
#
# Indices 1 2 3 4 5 6 
#
# 1 56.6008 21.6507 -2.1644 0.0000 0.0000 0.0000
# 2 21.6507 99.9908 14.3765 0.0000 0.0000 0.0000
# 3 -2.1644 14.3765 52.7654 0.0000 0.0000 0.0000
# 4 0.0000 0.0000 0.0000 4.6111 0.0000 0.0000
# 5 0.0000 0.0000 0.0000 0.0000 31.3745 0.0000
# 6 0.0000 0.0000 0.0000 0.0000 0.0000 41.0688
#
#
#
# Elastic Compliance Matrix: (Units=1/GPa)
#
#
# Indices 1 2 3 4 5 6 
#
# 1 0.019469 -0.004507 0.002027 0.000000 0.000000 0.000000
# 2 -0.004507 0.011452 -0.003305 0.000000 0.000000 0.000000
# 3 0.002027 -0.003305 0.019935 0.000000 0.000000 0.000000
# 4 0.000000 0.000000 0.000000 0.216870 0.000000 0.000000
# 5 0.000000 0.000000 0.000000 0.000000 0.031873 0.000000
# 6 0.000000 0.000000 0.000000 0.000000 0.000000 0.024349
#
#
# Mechanical properties :
#
#
# Convention : Reuss Voigt Hill
#
# Bulk Modulus (GPa) = 25.45463 30.78697 28.12080
# Shear Modulus (GPa) = 14.34247 27.11049 20.72648
#
# Velocity S-wave (km/s) = 2.51389 3.45623 3.02201
# Velocity P-wave (km/s) = 4.43194 5.43073 4.95655
#
# Compressibility (1/GPa) = 0.03928558
#
# Stress axis : x y z
#
# Youngs Moduli (GPa) = 51.36349 87.32100 50.16191
#
# Poissons Ratio (x) = 0.39355 -0.10166
# Poissons Ratio (y) = 0.23149 0.16579
# Poissons Ratio (z) = -0.10409 0.28860
#
# Static dielectric constant tensor:
#      x y z
#    x 1.802240 0.000000 0.000000 
#    y 0.000000 1.870300 0.000000 
#    z 0.000000 0.000000 1.883200 
# 
# From -- ./inp_files/6549.got.cif
#   From: 2010.05.17/outbox.cif.g08.bks.cpg/sg55_4_cif.got.tgz:6549.got - 2010.06.03 13:27:54.
