data_PCOD9427317
_publ_section_title
;
Structure prediction by ZEFSAII (Michael W. Deem and Ramdas Pophale) SiO2 
 PCOD9427317
Probable space group: P B A M
;
_chemical_formula_sum "Si O2"
_cell_formula_units_Z 52
_cell_length_a 12.620537
_cell_length_b 19.257101
_cell_length_c 9.102914
_cell_angle_alpha 90.000000
_cell_angle_beta 90.000000
_cell_angle_gamma 90.000000
_cell_volume 2212.326301
_symmetry_space_group_name_H-M "P B A M"
_symmetry_group_IT_number 55
_symmetry_cell_setting 'orthorhombic'
loop_
_space_group_symop_operation_xyz
x,y,z
-x,-y,z
1/2+x,1/2-y,-z
1/2-x,1/2+y,-z
-x,-y,-z
x,y,-z
1/2-x,1/2+y,z
1/2+x,1/2-y,z
loop_
_atom_site_type_symbol
_atom_site_label
_atom_site_fract_x
_atom_site_fract_y
_atom_site_fract_z
Si Si1 0.804600 0.415677 0.834730
Si Si2 0.074497 0.081912 0.172320
Si Si3 0.000000 0.500000 0.754658
Si Si4 0.366618 0.871950 0.332641
Si Si5 0.399710 0.722449 0.333278
Si Si6 0.148528 0.722727 0.666995
Si Si7 0.642277 0.631776 0.177890
O O1 0.691036 0.443367 0.772700
O O2 0.898202 0.470896 0.838964
O O3 0.850699 0.350884 0.746835
O O4 0.781716 0.391607 0.000000
O O5 0.087824 0.163709 0.211140
O O6 0.049812 0.924690 0.221737
O O7 0.071460 0.065690 0.000000
O O8 0.946993 0.564020 0.670693
O O9 0.328782 0.864138 0.500000
O O10 0.432304 0.801287 0.294032
O O11 0.261923 0.883228 0.232762
O O12 0.430897 0.699046 0.500000
O O13 0.274433 0.734563 0.342080
O O14 0.109523 0.717774 0.500000
O O15 0.112105 0.793115 0.749372
O O16 0.641619 0.636723 0.000000
#
# Coordination Sequence:
#
# PCOD9427317 Si02
#       7
#     8   8   4   8   8   8   8
#     4  10  22  41  61  87 122 164 215 262 311 374
#     4   9  19  36  60  91 124 156 194 252 319 375
#     4  12  26  42  64  88 120 170 224 270 312 370
#     4  10  23  42  61  86 122 166 213 260 313 375
#     4   8  16  32  55  85 117 153 196 244 302 366
#     4   9  18  34  58  89 124 161 200 249 310 371
#     4  10  20  36  62  95 125 157 200 256 319 378
#
# _framework density 23.504670999999998
#
# number of rings (size 3 to 8) (size 9 to 14) (size 15 to 20)
#    0.000    2.462    0.000    2.308    2.154    7.385 
#    0.000    0.769    0.000    3.692    0.000    0.000 
#    0.000    0.000    0.000    0.000    0.000    0.000 
#
# Total GULP energy -289556.093520 kJ/mol
# GULP energy per Si atom -5568.386414 kJ/mol
# Density = 2.345117 g / cm^3
# Si number density = 23.504671 Si / 1000 Ang^3
#
#
#
# Elastic Constant Matrix: (Units=GPa)
#
#
# Indices 1 2 3 4 5 6 
#
# 1 141.3679 36.5664 18.7055 0.0000 0.0000 0.0000
# 2 36.5664 71.9389 21.8181 0.0000 0.0000 0.0000
# 3 18.7055 21.8181 67.6382 0.0000 0.0000 0.0000
# 4 0.0000 0.0000 0.0000 2.9190 0.0000 0.0000
# 5 0.0000 0.0000 0.0000 0.0000 10.3153 0.0000
# 6 0.0000 0.0000 0.0000 0.0000 0.0000 49.9305
#
#
#
# Elastic Compliance Matrix: (Units=1/GPa)
#
#
# Indices 1 2 3 4 5 6 
#
# 1 0.008208 -0.003861 -0.001024 0.000000 0.000000 0.000000
# 2 -0.003861 0.017225 -0.004488 0.000000 0.000000 0.000000
# 3 -0.001024 -0.004488 0.016516 0.000000 0.000000 0.000000
# 4 0.000000 0.000000 0.000000 0.342578 0.000000 0.000000
# 5 0.000000 0.000000 0.000000 0.000000 0.096944 0.000000
# 6 0.000000 0.000000 0.000000 0.000000 0.000000 0.020028
#
#
# Mechanical properties :
#
#
# Convention : Reuss Voigt Hill
#
# Bulk Modulus (GPa) = 43.10315 48.34722 45.72519
# Shear Modulus (GPa) = 9.47006 26.22329 17.84668
#
# Velocity S-wave (km/s) = 2.00942 3.34378 2.75850
# Velocity P-wave (km/s) = 4.87459 5.96000 5.44441
#
# Compressibility (1/GPa) = 0.02320016
#
# Stress axis : x y z
#
# Youngs Moduli (GPa) = 121.83093 58.05609 60.54869
#
# Poissons Ratio (x) = 0.22418 0.06202
# Poissons Ratio (y) = 0.47045 0.27176
# Poissons Ratio (z) = 0.12480 0.26057
#
# Static dielectric constant tensor:
#      x y z
#    x 2.058360 0.000000 0.000000 
#    y 0.000000 1.958350 0.000000 
#    z 0.000000 0.000000 1.836070 
# 
# From -- ./inp_files/7621.got.cif
#   From: 2010.05.17/outbox.cif.g08.bks.cpg/sg55_4_cif.got.tgz:7621.got - 2010.06.03 13:27:54.
