data_PCOD9427199
_publ_section_title
;
Structure prediction by ZEFSAII (Michael W. Deem and Ramdas Pophale) SiO2 
 PCOD9427199
Probable space group: P B A M
;
_chemical_formula_sum "Si O2"
_cell_formula_units_Z 64
_cell_length_a 25.079638
_cell_length_b 14.419870
_cell_length_c 8.842433
_cell_angle_alpha 90.000000
_cell_angle_beta 90.000000
_cell_angle_gamma 90.000000
_cell_volume 3197.822740
_symmetry_space_group_name_H-M "P B A M"
_symmetry_group_IT_number 55
_symmetry_cell_setting 'orthorhombic'
loop_
_space_group_symop_operation_xyz
x,y,z
-x,-y,z
1/2+x,1/2-y,-z
1/2-x,1/2+y,-z
-x,-y,-z
x,y,-z
1/2-x,1/2+y,z
1/2+x,1/2-y,z
loop_
_atom_site_type_symbol
_atom_site_label
_atom_site_fract_x
_atom_site_fract_y
_atom_site_fract_z
Si Si1 0.621240 0.626615 0.821125
Si Si2 0.942698 0.649157 0.179557
Si Si3 0.951356 0.275741 0.321641
Si Si4 0.710958 0.952890 0.673757
Si Si5 0.669382 0.248916 0.820481
Si Si6 0.330580 0.547775 0.680912
Si Si7 0.398309 0.046567 0.178376
Si Si8 0.279622 0.271642 0.325734
O O1 0.571367 0.685759 0.762316
O O2 0.628320 0.528205 0.739362
O O3 0.673685 0.685098 0.773601
O O4 0.619163 0.614842 0.000000
O O5 0.885261 0.694784 0.207702
O O6 0.936099 0.540357 0.214401
O O7 0.989124 0.698093 0.271871
O O8 0.954532 0.657272 0.000000
O O9 0.946826 0.262700 0.500000
O O10 0.915478 0.363376 0.270784
O O11 0.699633 0.979844 0.500000
O O12 0.662235 0.980016 0.779877
O O13 0.715162 0.840380 0.678085
O O14 0.770059 0.986396 0.716610
O O15 0.662284 0.353787 0.761374
O O16 0.720602 0.207289 0.735097
O O17 0.679991 0.249102 0.000000
O O18 0.333016 0.559852 0.500000
O O19 0.402297 0.066281 0.000000
O O20 0.286020 0.301941 0.500000
#
# Coordination Sequence:
#
# PCOD9427199 Si02
#       8
#     8   8   8   8   8   8   8   8
#     4  12  24  39  63  91 121 161 207 255 310 369
#     4  10  24  43  62  88 122 161 207 256 307 362
#     4  12  25  42  63  89 122 160 207 258 310 367
#     4   9  19  35  56  85 123 162 198 242 297 357
#     4  10  21  40  63  90 124 162 206 255 306 365
#     4  10  22  40  61  89 127 164 201 254 309 366
#     4  11  22  37  60  89 124 165 204 249 302 363
#     4  10  20  36  58  87 124 162 200 248 305 362
#
# _framework density 20.013617
#
# number of rings (size 3 to 8) (size 9 to 14) (size 15 to 20)
#    0.000    1.500    1.250    4.875    1.750    6.000 
#    0.000    0.625    0.000    3.750    0.000    0.000 
#    0.000    0.000    0.000    0.000    0.000    0.000 
#
# Total GULP energy -358012.373744 kJ/mol
# GULP energy per Si atom -5593.943340 kJ/mol
# Density = 1.996807 g / cm^3
# Si number density = 20.013617 Si / 1000 Ang^3
#
#
#
# Elastic Constant Matrix: (Units=GPa)
#
#
# Indices 1 2 3 4 5 6 
#
# 1 51.4308 1.4183 31.0480 0.0000 0.0000 0.0000
# 2 1.4183 33.1134 0.2378 0.0000 0.0000 0.0000
# 3 31.0480 0.2378 54.3854 0.0000 0.0000 0.0000
# 4 0.0000 0.0000 0.0000 6.4011 0.0000 0.0000
# 5 0.0000 0.0000 0.0000 0.0000 52.3682 0.0000
# 6 0.0000 0.0000 0.0000 0.0000 0.0000 25.6838
#
#
#
# Elastic Compliance Matrix: (Units=1/GPa)
#
#
# Indices 1 2 3 4 5 6 
#
# 1 0.029712 -0.001151 -0.016957 0.000000 0.000000 0.000000
# 2 -0.001151 0.030245 0.000525 0.000000 0.000000 0.000000
# 3 -0.016957 0.000525 0.028066 0.000000 0.000000 0.000000
# 4 0.000000 0.000000 0.000000 0.156224 0.000000 0.000000
# 5 0.000000 0.000000 0.000000 0.000000 0.019096 0.000000
# 6 0.000000 0.000000 0.000000 0.000000 0.000000 0.038935
#
#
# Mechanical properties :
#
#
# Convention : Reuss Voigt Hill
#
# Bulk Modulus (GPa) = 18.91935 22.70419 20.81177
# Shear Modulus (GPa) = 14.08201 23.97230 19.02716
#
# Velocity S-wave (km/s) = 2.65546 3.46468 3.08670
# Velocity P-wave (km/s) = 4.34462 5.23205 4.80885
#
# Compressibility (1/GPa) = 0.05285595
#
# Stress axis : x y z
#
# Youngs Moduli (GPa) = 33.65617 33.06353 35.63060
#
# Poissons Ratio (x) = 0.03805 0.60420
# Poissons Ratio (y) = 0.03873 -0.01870
# Poissons Ratio (z) = 0.57072 -0.01735
#
# Static dielectric constant tensor:
#      x y z
#    x 1.701900 0.000000 0.000000 
#    y 0.000000 1.721080 0.000000 
#    z 0.000000 0.000000 1.661570 
# 
# From -- ./inp_files/9717.got.cif
#   From: 2010.05.17/outbox.cif.g08.bks.cpg/sg55_5_cif.got.tgz:9717.got - 2010.06.03 13:27:54.
