data_PCOD9427058
_publ_section_title
;
Structure prediction by ZEFSAII (Michael W. Deem and Ramdas Pophale) SiO2 
 PCOD9427058
Probable space group: P B A M
;
_chemical_formula_sum "Si O2"
_cell_formula_units_Z 48
_cell_length_a 9.414247
_cell_length_b 17.273241
_cell_length_c 14.433936
_cell_angle_alpha 90.000000
_cell_angle_beta 90.000000
_cell_angle_gamma 90.000000
_cell_volume 2347.168112
_symmetry_space_group_name_H-M "P B A M"
_symmetry_group_IT_number 55
_symmetry_cell_setting 'orthorhombic'
loop_
_space_group_symop_operation_xyz
x,y,z
-x,-y,z
1/2+x,1/2-y,-z
1/2-x,1/2+y,-z
-x,-y,-z
x,y,-z
1/2-x,1/2+y,z
1/2+x,1/2-y,z
loop_
_atom_site_type_symbol
_atom_site_label
_atom_site_fract_x
_atom_site_fract_y
_atom_site_fract_z
Si Si1 0.135214 0.955935 0.774994
Si Si2 0.727402 0.269737 0.324046
Si Si3 0.129748 0.350976 0.824882
Si Si4 0.490593 0.759687 0.000000
Si Si5 0.333676 0.091059 0.801802
Si Si6 0.734630 0.356853 0.000000
Si Si7 0.952775 0.151331 0.603299
O O1 0.220163 0.894078 0.837291
O O2 0.081735 0.910256 0.684070
O O3 0.251289 0.021566 0.752772
O O4 0.000000 0.000000 0.816735
O O5 0.647860 0.205223 0.262410
O O6 0.796459 0.329731 0.251758
O O7 0.610984 0.315965 0.382347
O O8 0.845380 0.223354 0.381167
O O9 0.003268 0.411433 0.806913
O O10 0.076068 0.300717 0.910260
O O11 0.426569 0.673725 0.000000
O O12 0.656882 0.782104 0.000000
O O13 0.273541 0.097643 0.906635
O O14 0.934554 0.119663 0.500000
#
# Coordination Sequence:
#
# PCOD9427058 Si02
#       7
#     8   8   8   4   8   4   8
#     4  11  24  40  63  87 121 169 205 250 313 366
#     4  11  20  38  68  89 121 158 199 256 311 366
#     4  10  22  38  63  88 128 163 207 249 303 367
#     4  10  20  35  58  97 119 167 207 261 299 348
#     4  11  21  40  59  92 125 170 202 246 315 362
#     4  10  22  33  62  89 129 159 213 257 291 364
#     4  11  24  42  64  94 120 153 207 261 316 375
#
# _framework density 20.450175000000002
#
# number of rings (size 3 to 8) (size 9 to 14) (size 15 to 20)
#    0.000    1.333    5.000    1.000    0.000    2.333 
#    0.000    3.333    0.000    2.000    0.000    0.000 
#    0.000    0.000    0.000    0.000    0.000    0.000 
#
# Total GULP energy -268071.689314 kJ/mol
# GULP energy per Si atom -5584.826861 kJ/mol
# Density = 2.040363 g / cm^3
# Si number density = 20.450175 Si / 1000 Ang^3
#
#
#
# Elastic Constant Matrix: (Units=GPa)
#
#
# Indices 1 2 3 4 5 6 
#
# 1 92.3656 11.5174 16.7052 0.0000 0.0000 0.0000
# 2 11.5174 50.4248 -3.9622 0.0000 0.0000 0.0000
# 3 16.7052 -3.9622 43.7066 0.0000 0.0000 0.0000
# 4 0.0000 0.0000 0.0000 6.0817 0.0000 0.0000
# 5 0.0000 0.0000 0.0000 0.0000 22.8865 0.0000
# 6 0.0000 0.0000 0.0000 0.0000 0.0000 47.8329
#
#
#
# Elastic Compliance Matrix: (Units=1/GPa)
#
#
# Indices 1 2 3 4 5 6 
#
# 1 0.012108 -0.003152 -0.004914 0.000000 0.000000 0.000000
# 2 -0.003152 0.020794 0.003090 0.000000 0.000000 0.000000
# 3 -0.004914 0.003090 0.025038 0.000000 0.000000 0.000000
# 4 0.000000 0.000000 0.000000 0.164427 0.000000 0.000000
# 5 0.000000 0.000000 0.000000 0.000000 0.043694 0.000000
# 6 0.000000 0.000000 0.000000 0.000000 0.000000 0.020906
#
#
# Mechanical properties :
#
#
# Convention : Reuss Voigt Hill
#
# Bulk Modulus (GPa) = 20.83805 26.11309 23.47557
# Shear Modulus (GPa) = 15.97879 26.17599 21.07739
#
# Velocity S-wave (km/s) = 2.79830 3.58157 3.21389
# Velocity P-wave (km/s) = 4.54449 5.46813 5.02757
#
# Compressibility (1/GPa) = 0.04798913
#
# Stress axis : x y z
#
# Youngs Moduli (GPa) = 82.58856 48.09047 39.93927
#
# Poissons Ratio (x) = 0.15157 0.19625
# Poissons Ratio (y) = 0.26029 -0.12340
# Poissons Ratio (z) = 0.40581 -0.14859
#
# Static dielectric constant tensor:
#      x y z
#    x 1.753180 0.000000 0.000000 
#    y 0.000000 1.744280 0.000000 
#    z 0.000000 0.000000 1.693020 
# 
# From -- ./inp_files/17399.got.cif
#   From: 2010.05.17/outbox.cif.g08.bks.cpg/sg55_9_cif.got.tgz:17399.got - 2010.06.03 13:27:54.
