data_PCOD9427546
_publ_section_title
;
Structure prediction by ZEFSAII (Michael W. Deem and Ramdas Pophale) SiO2 
 PCOD9427546
Probable space group: P B A M
;
_chemical_formula_sum "Si O2"
_cell_formula_units_Z 64
_cell_length_a 31.409466
_cell_length_b 12.181700
_cell_length_c 8.713408
_cell_angle_alpha 90.000000
_cell_angle_beta 90.000000
_cell_angle_gamma 90.000000
_cell_volume 3333.930198
_symmetry_space_group_name_H-M "P B A M"
_symmetry_group_IT_number 55
_symmetry_cell_setting 'orthorhombic'
loop_
_space_group_symop_operation_xyz
x,y,z
-x,-y,z
1/2+x,1/2-y,-z
1/2-x,1/2+y,-z
-x,-y,-z
x,y,-z
1/2-x,1/2+y,z
1/2+x,1/2-y,z
loop_
_atom_site_type_symbol
_atom_site_label
_atom_site_fract_x
_atom_site_fract_y
_atom_site_fract_z
Si Si1 0.625233 0.108607 0.815934
Si Si2 0.291572 0.283287 0.817301
Si Si3 0.830481 0.002567 0.317936
Si Si4 0.541024 0.727253 0.816730
Si Si5 0.431372 0.498000 0.682328
Si Si6 0.626188 0.855023 0.186809
Si Si7 0.698985 0.257314 0.316772
Si Si8 0.548305 0.251812 0.683850
O O1 0.667834 0.169012 0.759695
O O2 0.584810 0.174585 0.751466
O O3 0.624798 0.981658 0.765072
O O4 0.623784 0.110868 0.000000
O O5 0.305297 0.406758 0.776467
O O6 0.330581 0.205745 0.763660
O O7 0.247261 0.256082 0.737099
O O8 0.286793 0.270746 0.000000
O O9 0.822097 0.017783 0.500000
O O10 0.880875 0.016013 0.293467
O O11 0.817315 0.879215 0.276290
O O12 0.545119 0.600135 0.768008
O O13 0.584031 0.789091 0.764049
O O14 0.498683 0.776870 0.742239
O O15 0.538165 0.735570 0.000000
O O16 0.440312 0.488113 0.500000
O O17 0.443135 0.621325 0.730475
O O18 0.626310 0.852478 0.000000
O O19 0.695904 0.245713 0.500000
O O20 0.550449 0.247511 0.500000
#
# Coordination Sequence:
#
# PCOD9427546 Si02
#       8
#     8   8   8   8   8   8   8   8
#     4  11  23  42  65  89 118 161 207 252 302 359
#     4  11  23  41  64  93 124 160 205 255 303 359
#     4  10  21  40  64  90 123 162 200 245 304 364
#     4  11  22  39  62  91 121 157 202 251 301 360
#     4  10  20  38  61  87 123 160 195 243 304 361
#     4   9  22  42  61  86 123 158 198 252 306 352
#     4  11  24  43  63  92 127 162 202 251 306 365
#     4  11  23  41  61  89 125 161 198 248 305 363
#
# _framework density 19.196560999999999
#
# number of rings (size 3 to 8) (size 9 to 14) (size 15 to 20)
#    0.000    1.500    2.500    2.250    1.750    4.000 
#    0.000    6.875    0.000    0.000    0.000    0.000 
#    0.000    0.000    0.000    0.000    0.000    0.000 
#
# Total GULP energy -357777.161919 kJ/mol
# GULP energy per Si atom -5590.268155 kJ/mol
# Density = 1.915287 g / cm^3
# Si number density = 19.196561 Si / 1000 Ang^3
#
#
#
# Elastic Constant Matrix: (Units=GPa)
#
#
# Indices 1 2 3 4 5 6 
#
# 1 116.8205 40.4173 19.7198 0.0000 0.0000 0.0000
# 2 40.4173 103.3877 23.0515 0.0000 0.0000 0.0000
# 3 19.7198 23.0515 30.8024 0.0000 0.0000 0.0000
# 4 0.0000 0.0000 0.0000 30.3329 0.0000 0.0000
# 5 0.0000 0.0000 0.0000 0.0000 25.3253 0.0000
# 6 0.0000 0.0000 0.0000 0.0000 0.0000 10.6863
#
#
#
# Elastic Compliance Matrix: (Units=1/GPa)
#
#
# Indices 1 2 3 4 5 6 
#
# 1 0.010357 -0.003085 -0.004322 0.000000 0.000000 0.000000
# 2 -0.003085 0.012529 -0.007401 0.000000 0.000000 0.000000
# 3 -0.004322 -0.007401 0.040770 0.000000 0.000000 0.000000
# 4 0.000000 0.000000 0.000000 0.032968 0.000000 0.000000
# 5 0.000000 0.000000 0.000000 0.000000 0.039486 0.000000
# 6 0.000000 0.000000 0.000000 0.000000 0.000000 0.093577
#
#
# Mechanical properties :
#
#
# Convention : Reuss Voigt Hill
#
# Bulk Modulus (GPa) = 29.37688 46.37643 37.87665
# Shear Modulus (GPa) = 18.47409 24.45703 21.46556
#
# Velocity S-wave (km/s) = 3.10557 3.57323 3.34757
# Velocity P-wave (km/s) = 5.30997 6.42146 5.89198
#
# Compressibility (1/GPa) = 0.03404038
#
# Stress axis : x y z
#
# Youngs Moduli (GPa) = 96.55195 79.81770 24.52770
#
# Poissons Ratio (x) = 0.24626 0.10600
# Poissons Ratio (y) = 0.29789 0.18152
# Poissons Ratio (z) = 0.41727 0.59071
#
# Static dielectric constant tensor:
#      x y z
#    x 1.651080 0.000000 0.000000 
#    y 0.000000 1.645810 0.000000 
#    z 0.000000 0.000000 1.647970 
# 
# From -- ./inp_files/4656.got.cif
#   From: 2010.05.17/outbox.cif.g08.bks.cpg/sg55_3_cif.got.tgz:4656.got - 2010.06.03 13:27:54.
