data_PCOD9427062
_publ_section_title
;
Structure prediction by ZEFSAII (Michael W. Deem and Ramdas Pophale) SiO2 
 PCOD9427062
Probable space group: P B A M
;
_chemical_formula_sum "Si O2"
_cell_formula_units_Z 48
_cell_length_a 29.456762
_cell_length_b 10.340677
_cell_length_c 8.950893
_cell_angle_alpha 90.000000
_cell_angle_beta 90.000000
_cell_angle_gamma 90.000000
_cell_volume 2726.467619
_symmetry_space_group_name_H-M "P B A M"
_symmetry_group_IT_number 55
_symmetry_cell_setting 'orthorhombic'
loop_
_space_group_symop_operation_xyz
x,y,z
-x,-y,z
1/2+x,1/2-y,-z
1/2-x,1/2+y,-z
-x,-y,-z
x,y,-z
1/2-x,1/2+y,z
1/2+x,1/2-y,z
loop_
_atom_site_type_symbol
_atom_site_label
_atom_site_fract_x
_atom_site_fract_y
_atom_site_fract_z
Si Si1 0.887339 0.267178 0.322470
Si Si2 0.387477 0.514216 0.822351
Si Si3 0.973120 0.368400 0.177878
Si Si4 0.527750 0.367273 0.322450
Si Si5 0.781344 0.987431 0.178118
Si Si6 0.218578 0.730977 0.321850
O O1 0.894575 0.256488 0.500000
O O2 0.895596 0.127306 0.248029
O O3 0.923477 0.364289 0.251900
O O4 0.834695 0.300461 0.295208
O O5 0.422507 0.611657 0.746359
O O6 0.334535 0.544888 0.795364
O O7 0.395201 0.509463 0.000000
O O8 0.000000 0.500000 0.208981
O O9 0.001348 0.249528 0.245609
O O10 0.968755 0.352946 0.000000
O O11 0.500000 0.500000 0.295528
O O12 0.530169 0.347017 0.500000
O O13 0.772715 0.128091 0.250397
O O14 0.749889 0.878195 0.249627
O O15 0.774332 0.994693 0.000000
O O16 0.225618 0.737360 0.500000
#
# Coordination Sequence:
#
# PCOD9427062 Si02
#       6
#     8   8   8   8   8   8
#     4  10  20  36  59  85 113 149 191 231 281 342
#     4  10  20  35  59  87 114 147 189 236 283 333
#     4  11  24  40  58  83 115 152 191 234 285 339
#     4  11  22  36  59  88 114 147 189 233 280 333
#     4  10  21  38  60  87 117 151 191 237 287 342
#     4  10  21  38  61  87 116 151 190 236 288 344
#
# _framework density 17.605197
#
# number of rings (size 3 to 8) (size 9 to 14) (size 15 to 20)
#    0.000    1.667    1.667    3.000    0.000    6.000 
#    3.000    0.000    0.000    0.000    0.000    0.000 
#    0.000    0.000    0.000    0.000    0.000    0.000 
#
# Total GULP energy -268159.730949 kJ/mol
# GULP energy per Si atom -5586.661061 kJ/mol
# Density = 1.756513 g / cm^3
# Si number density = 17.605197 Si / 1000 Ang^3
#
#
#
# Elastic Constant Matrix: (Units=GPa)
#
#
# Indices 1 2 3 4 5 6 
#
# 1 119.4428 76.2815 78.1777 0.0000 0.0000 0.0000
# 2 76.2815 98.1073 71.7292 0.0000 0.0000 0.0000
# 3 78.1777 71.7292 94.0340 0.0000 0.0000 0.0000
# 4 0.0000 0.0000 0.0000 57.1176 0.0000 0.0000
# 5 0.0000 0.0000 0.0000 0.0000 30.8924 0.0000
# 6 0.0000 0.0000 0.0000 0.0000 0.0000 31.3357
#
#
#
# Elastic Compliance Matrix: (Units=1/GPa)
#
#
# Indices 1 2 3 4 5 6 
#
# 1 0.020807 -0.007983 -0.011209 0.000000 0.000000 0.000000
# 2 -0.007983 0.026108 -0.013279 0.000000 0.000000 0.000000
# 3 -0.011209 -0.013279 0.030083 0.000000 0.000000 0.000000
# 4 0.000000 0.000000 0.000000 0.017508 0.000000 0.000000
# 5 0.000000 0.000000 0.000000 0.000000 0.032370 0.000000
# 6 0.000000 0.000000 0.000000 0.000000 0.000000 0.031912
#
#
# Mechanical properties :
#
#
# Convention : Reuss Voigt Hill
#
# Bulk Modulus (GPa) = 82.94320 84.88453 83.91387
# Shear Modulus (GPa) = 21.95404 29.56218 25.75811
#
# Velocity S-wave (km/s) = 3.53515 4.10222 3.82919
# Velocity P-wave (km/s) = 7.99239 8.41177 8.20476
#
# Compressibility (1/GPa) = 0.01205644
#
# Stress axis : x y z
#
# Youngs Moduli (GPa) = 48.06074 38.30221 33.24183
#
# Poissons Ratio (x) = 0.30575 0.37262
# Poissons Ratio (y) = 0.38365 0.44141
# Poissons Ratio (z) = 0.53873 0.50860
#
# Static dielectric constant tensor:
#      x y z
#    x 1.608030 0.000000 0.000000 
#    y 0.000000 1.560180 0.000000 
#    z 0.000000 0.000000 1.584260 
# 
# From -- ./inp_files/10517.got.cif
#   From: 2010.05.17/outbox.cif.g08.bks.cpg/sg55_6_cif.got.tgz:10517.got - 2010.06.03 13:27:54.
