data_PCOD9427992
_publ_section_title
;
Structure prediction by ZEFSAII (Michael W. Deem and Ramdas Pophale) SiO2 
 PCOD9427992
Probable space group: P B A M
;
_chemical_formula_sum "Si O2"
_cell_formula_units_Z 64
_cell_length_a 12.209076
_cell_length_b 31.775376
_cell_length_c 7.700350
_cell_angle_alpha 90.000000
_cell_angle_beta 90.000000
_cell_angle_gamma 90.000000
_cell_volume 2987.335232
_symmetry_space_group_name_H-M "P B A M"
_symmetry_group_IT_number 55
_symmetry_cell_setting 'orthorhombic'
loop_
_space_group_symop_operation_xyz
x,y,z
-x,-y,z
1/2+x,1/2-y,-z
1/2-x,1/2+y,-z
-x,-y,-z
x,y,-z
1/2-x,1/2+y,z
1/2+x,1/2-y,z
loop_
_atom_site_type_symbol
_atom_site_label
_atom_site_fract_x
_atom_site_fract_y
_atom_site_fract_z
Si Si1 0.512848 0.664265 0.788292
Si Si2 0.289593 0.706855 0.212438
Si Si3 0.405959 0.876245 0.795749
Si Si4 0.030697 0.931553 0.796423
Si Si5 0.730581 0.042776 0.301946
Si Si6 0.292738 0.544318 0.706420
Si Si7 0.751315 0.197845 0.213075
Si Si8 0.847153 0.373351 0.790064
O O1 0.408408 0.690578 0.730927
O O2 0.505754 0.615811 0.734345
O O3 0.628184 0.683182 0.732991
O O4 0.510867 0.664347 0.000000
O O5 0.269532 0.754464 0.269330
O O6 0.202297 0.671475 0.267663
O O7 0.287901 0.707320 0.000000
O O8 0.335832 0.918902 0.780367
O O9 0.336500 0.836745 0.725280
O O10 0.529036 0.879975 0.724750
O O11 0.418903 0.867625 0.000000
O O12 0.916657 0.955913 0.776889
O O13 0.139435 0.947534 0.703609
O O14 0.059546 0.930182 0.000000
O O15 0.691805 0.041439 0.500000
O O16 0.724223 0.995771 0.224786
O O17 0.301715 0.539221 0.500000
O O18 0.232239 0.588113 0.742467
O O19 0.749648 0.197406 0.000000
O O20 0.847802 0.372656 0.000000
#
# Coordination Sequence:
#
# PCOD9427992 Si02
#       8
#     8   8   8   8   8   8   8   8
#     4   9  16  28  50  81 114 146 179 221 278 336
#     4   9  17  29  50  82 117 148 182 231 285 336
#     4  10  21  37  57  84 115 148 191 242 290 335
#     4  11  20  36  61  90 120 146 182 235 289 337
#     4  11  24  40  58  82 113 151 193 234 284 347
#     4  11  24  40  58  82 113 151 193 234 284 347
#     4   9  17  29  50  82 117 148 182 231 285 336
#     4  10  21  37  57  84 115 148 191 242 290 335
#
# _framework density 21.423776
#
# number of rings (size 3 to 8) (size 9 to 14) (size 15 to 20)
#    0.000    2.000    2.500    1.500    1.750    4.500 
#    0.000    2.500    0.000    0.750    0.000    0.000 
#    0.000    0.000    0.000    0.000    0.000    0.000 
#
# Total GULP energy -357478.065328 kJ/mol
# GULP energy per Si atom -5585.594771 kJ/mol
# Density = 2.137501 g / cm^3
# Si number density = 21.423776 Si / 1000 Ang^3
#
#
#
# Elastic Constant Matrix: (Units=GPa)
#
#
# Indices 1 2 3 4 5 6 
#
# 1 106.0779 23.9817 -3.9983 0.0000 0.0000 0.0000
# 2 23.9817 105.6622 -1.7529 0.0000 0.0000 0.0000
# 3 -3.9983 -1.7529 37.1076 0.0000 0.0000 0.0000
# 4 0.0000 0.0000 0.0000 37.5466 0.0000 0.0000
# 5 0.0000 0.0000 0.0000 0.0000 -2.6071 0.0000
# 6 0.0000 0.0000 0.0000 0.0000 0.0000 12.6706
#
#
#
# Elastic Compliance Matrix: (Units=1/GPa)
#
#
# Indices 1 2 3 4 5 6 
#
# 1 0.009972 -0.002247 0.000968 0.000000 0.000000 0.000000
# 2 -0.002247 0.009978 0.000229 0.000000 0.000000 0.000000
# 3 0.000968 0.000229 0.027064 0.000000 0.000000 0.000000
# 4 0.000000 0.000000 0.000000 0.026634 0.000000 0.000000
# 5 0.000000 0.000000 0.000000 0.000000 -0.383573 0.000000
# 6 0.000000 0.000000 0.000000 0.000000 0.000000 0.078923
#
#
# Mechanical properties :
#
#
# Convention : Reuss Voigt Hill
#
# Bulk Modulus (GPa) = 22.26478 31.70099 26.98288
# Shear Modulus (GPa) = -23.37179 24.89651 0.76236
#
# Velocity S-wave (km/s) = -3.30650 3.41265 0.59718
# Velocity P-wave (km/s) = 2.04014 5.50976 3.61907
#
# Compressibility (1/GPa) = 0.04491398
#
# Stress axis : x y z
#
# Youngs Moduli (GPa) = 100.28524 100.22102 36.94972
#
# Poissons Ratio (x) = 0.22521 -0.03578
# Poissons Ratio (y) = 0.22536 -0.00847
# Poissons Ratio (z) = -0.09710 -0.02297
#
# Static dielectric constant tensor:
#      x y z
#    x 1.737100 0.000000 0.000000 
#    y 0.000000 1.770930 0.000000 
#    z 0.000000 0.000000 1.805580 
# 
# From -- ./inp_files/4483.got.cif
#   From: 2010.05.17/outbox.cif.g08.bks.cpg/sg55_3_cif.got.tgz:4483.got - 2010.06.03 13:27:54.
