data_PCOD9427251
_publ_section_title
;
Structure prediction by ZEFSAII (Michael W. Deem and Ramdas Pophale) SiO2 
 PCOD9427251
Probable space group: P B A M
;
_chemical_formula_sum "Si O2"
_cell_formula_units_Z 64
_cell_length_a 15.836596
_cell_length_b 24.351897
_cell_length_c 8.676435
_cell_angle_alpha 90.000000
_cell_angle_beta 90.000000
_cell_angle_gamma 90.000000
_cell_volume 3346.077176
_symmetry_space_group_name_H-M "P B A M"
_symmetry_group_IT_number 55
_symmetry_cell_setting 'orthorhombic'
loop_
_space_group_symop_operation_xyz
x,y,z
-x,-y,z
1/2+x,1/2-y,-z
1/2-x,1/2+y,-z
-x,-y,-z
x,y,-z
1/2-x,1/2+y,z
1/2+x,1/2-y,z
loop_
_atom_site_type_symbol
_atom_site_label
_atom_site_fract_x
_atom_site_fract_y
_atom_site_fract_z
Si Si1 0.593061 0.637281 0.184608
Si Si2 0.746898 0.072496 0.315107
Si Si3 0.746486 0.445432 0.313959
Si Si4 0.904429 0.371687 0.314306
Si Si5 0.404174 0.627089 0.814232
Si Si6 0.914760 0.635758 0.184184
Si Si7 0.841995 0.751688 0.813863
Si Si8 0.846376 0.249291 0.315408
O O1 0.669853 0.603820 0.257719
O O2 0.500701 0.615984 0.232445
O O3 0.602477 0.700417 0.236135
O O4 0.599515 0.634423 0.000000
O O5 0.743514 0.075088 0.500000
O O6 0.664127 0.101771 0.248361
O O7 0.750376 0.008846 0.266520
O O8 0.744867 0.443541 0.500000
O O9 0.830050 0.412439 0.262461
O O10 0.663974 0.414461 0.253159
O O11 0.908229 0.373905 0.500000
O O12 0.879152 0.309533 0.270081
O O13 0.996134 0.384581 0.248255
O O14 0.379713 0.689427 0.768632
O O15 0.400390 0.624652 0.000000
O O16 0.899685 0.699691 0.228737
O O17 0.914797 0.632650 0.000000
O O18 0.750662 0.744460 0.737551
O O19 0.831997 0.751144 0.000000
O O20 0.851511 0.243940 0.500000
#
# Coordination Sequence:
#
# PCOD9427251 Si02
#       8
#     8   8   8   8   8   8   8   8
#     4  11  23  40  61  89 125 159 196 245 301 361
#     4  11  24  42  63  86 116 158 205 252 302 354
#     4  10  23  43  63  85 118 158 202 253 302 350
#     4  10  22  40  61  89 122 157 196 244 298 353
#     4  10  22  39  62  90 120 158 198 241 297 358
#     4  11  23  39  62  91 122 159 198 243 298 356
#     4  10  20  36  59  88 122 156 191 238 296 354
#     4  11  21  35  61  92 121 157 198 241 294 356
#
# _framework density 19.126874999999998
#
# number of rings (size 3 to 8) (size 9 to 14) (size 15 to 20)
#    0.000    1.500    2.500    2.250    0.000    6.000 
#    0.000    5.000    0.000    0.000    0.000    0.000 
#    0.000    0.000    0.000    0.000    0.000    0.000 
#
# Total GULP energy -357756.997150 kJ/mol
# GULP energy per Si atom -5589.953080 kJ/mol
# Density = 1.908334 g / cm^3
# Si number density = 19.126875 Si / 1000 Ang^3
#
#
#
# Elastic Constant Matrix: (Units=GPa)
#
#
# Indices 1 2 3 4 5 6 
#
# 1 114.6111 35.5778 17.1059 0.0000 0.0000 0.0000
# 2 35.5778 117.6396 22.1290 0.0000 0.0000 0.0000
# 3 17.1059 22.1290 14.8410 0.0000 0.0000 0.0000
# 4 0.0000 0.0000 0.0000 16.6556 0.0000 0.0000
# 5 0.0000 0.0000 0.0000 0.0000 35.4403 0.0000
# 6 0.0000 0.0000 0.0000 0.0000 0.0000 0.4803
#
#
#
# Elastic Compliance Matrix: (Units=1/GPa)
#
#
# Indices 1 2 3 4 5 6 
#
# 1 0.010673 -0.001270 -0.010408 0.000000 0.000000 0.000000
# 2 -0.001270 0.011965 -0.016377 0.000000 0.000000 0.000000
# 3 -0.010408 -0.016377 0.103797 0.000000 0.000000 0.000000
# 4 0.000000 0.000000 0.000000 0.060040 0.000000 0.000000
# 5 0.000000 0.000000 0.000000 0.000000 0.028216 0.000000
# 6 0.000000 0.000000 0.000000 0.000000 0.000000 2.082099
#
#
# Mechanical properties :
#
#
# Convention : Reuss Voigt Hill
#
# Bulk Modulus (GPa) = 14.21982 44.07972 29.14977
# Shear Modulus (GPa) = 2.10407 22.00050 12.05229
#
# Velocity S-wave (km/s) = 1.04998 3.39520 2.51295
# Velocity P-wave (km/s) = 2.98673 6.20208 4.86756
#
# Compressibility (1/GPa) = 0.07032437
#
# Stress axis : x y z
#
# Youngs Moduli (GPa) = 93.69624 83.57472 9.63420
#
# Poissons Ratio (x) = 0.10614 0.10027
# Poissons Ratio (y) = 0.11899 0.15778
# Poissons Ratio (z) = 0.97519 1.36874
#
# Static dielectric constant tensor:
#      x y z
#    x 1.638950 0.000000 0.000000 
#    y 0.000000 1.655850 0.000000 
#    z 0.000000 0.000000 1.645800 
# 
# From -- ./inp_files/6647.got.cif
#   From: 2010.05.17/outbox.cif.g08.bks.cpg/sg55_4_cif.got.tgz:6647.got - 2010.06.03 13:27:54.
