data_PCOD9427002
_publ_section_title
;
Structure prediction by ZEFSAII (Michael W. Deem and Ramdas Pophale) SiO2 
 PCOD9427002
Probable space group: P B A M
;
_chemical_formula_sum "Si O2"
_cell_formula_units_Z 36
_cell_length_a 10.037356
_cell_length_b 15.870408
_cell_length_c 12.757605
_cell_angle_alpha 90.000000
_cell_angle_beta 90.000000
_cell_angle_gamma 90.000000
_cell_volume 2032.247374
_symmetry_space_group_name_H-M "P B A M"
_symmetry_group_IT_number 55
_symmetry_cell_setting 'orthorhombic'
loop_
_space_group_symop_operation_xyz
x,y,z
-x,-y,z
1/2+x,1/2-y,-z
1/2-x,1/2+y,-z
-x,-y,-z
x,y,-z
1/2-x,1/2+y,z
1/2+x,1/2-y,z
loop_
_atom_site_type_symbol
_atom_site_label
_atom_site_fract_x
_atom_site_fract_y
_atom_site_fract_z
Si Si1 0.488780 0.900104 0.616078
Si Si2 0.173301 0.879039 0.620341
Si Si3 0.500000 0.500000 0.242635
Si Si4 0.896693 0.833144 0.123946
Si Si5 0.880017 0.275510 0.228289
O O1 0.539831 0.873541 0.500000
O O2 0.332627 0.880192 0.620801
O O3 0.562667 0.856077 0.711456
O O4 0.500000 0.000000 0.622462
O O5 0.126574 0.879847 0.500000
O O6 0.132799 0.795281 0.681774
O O7 0.111684 0.957525 0.683451
O O8 0.560786 0.423176 0.174481
O O9 0.760702 0.798522 0.176035
O O10 0.013955 0.765776 0.148570
O O11 0.879316 0.842656 0.000000
#
# Coordination Sequence:
#
# PCOD9427002 Si02
#       5
#     8   8   4   8   8
#     4  10  20  35  57  85 120 154 186 233 293 354
#     4  10  20  36  58  90 120 153 192 232 291 359
#     4  10  22  38  62  88 120 156 194 250 292 354
#     4  11  23  40  62  84 116 158 205 250 295 340
#     4  11  21  39  60  86 118 156 196 243 293 348
#
# _framework density 17.714379000000001
#
# number of rings (size 3 to 8) (size 9 to 14) (size 15 to 20)
#    0.000    1.556    2.222    3.333    0.000    0.000 
#    0.000    2.222    0.000    2.667    0.000    0.000 
#    0.000    0.000    0.000    0.000    0.000    0.000 
#
# Total GULP energy -200932.365379 kJ/mol
# GULP energy per Si atom -5581.454594 kJ/mol
# Density = 1.767406 g / cm^3
# Si number density = 17.714379 Si / 1000 Ang^3
#
#
#
# Elastic Constant Matrix: (Units=GPa)
#
#
# Indices 1 2 3 4 5 6 
#
# 1 84.6618 29.3038 39.1655 0.0000 0.0000 0.0000
# 2 29.3038 76.3871 45.5244 0.0000 0.0000 0.0000
# 3 39.1655 45.5244 126.0670 0.0000 0.0000 0.0000
# 4 0.0000 0.0000 0.0000 23.0508 0.0000 0.0000
# 5 0.0000 0.0000 0.0000 0.0000 22.0632 0.0000
# 6 0.0000 0.0000 0.0000 0.0000 0.0000 29.6809
#
#
#
# Elastic Compliance Matrix: (Units=1/GPa)
#
#
# Indices 1 2 3 4 5 6 
#
# 1 0.014564 -0.003683 -0.003195 0.000000 0.000000 0.000000
# 2 -0.003683 0.017613 -0.005216 0.000000 0.000000 0.000000
# 3 -0.003195 -0.005216 0.010808 0.000000 0.000000 0.000000
# 4 0.000000 0.000000 0.000000 0.043383 0.000000 0.000000
# 5 0.000000 0.000000 0.000000 0.000000 0.045324 0.000000
# 6 0.000000 0.000000 0.000000 0.000000 0.000000 0.033692
#
#
# Mechanical properties :
#
#
# Convention : Reuss Voigt Hill
#
# Bulk Modulus (GPa) = 53.19787 57.23371 55.21579
# Shear Modulus (GPa) = 25.53134 26.50046 26.01590
#
# Velocity S-wave (km/s) = 3.80054 3.87199 3.83643
# Velocity P-wave (km/s) = 7.02530 7.23665 7.13176
#
# Compressibility (1/GPa) = 0.01879775
#
# Stress axis : x y z
#
# Youngs Moduli (GPa) = 68.66012 56.77711 92.52141
#
# Poissons Ratio (x) = 0.20913 0.29558
# Poissons Ratio (y) = 0.25290 0.48258
# Poissons Ratio (z) = 0.21935 0.29614
#
# Static dielectric constant tensor:
#      x y z
#    x 1.580440 0.000000 0.000000 
#    y 0.000000 1.667790 0.000000 
#    z 0.000000 0.000000 1.595700 
# 
# From -- ./inp_files/13902.got.cif
#   From: 2010.05.17/outbox.cif.g08.bks.cpg/sg55_7_cif.got.tgz:13902.got - 2010.06.03 13:27:54.
