data_PCOD9427155
_publ_section_title
;
Structure prediction by ZEFSAII (Michael W. Deem and Ramdas Pophale) SiO2 
 PCOD9427155
Probable space group: P B A M
;
_chemical_formula_sum "Si O2"
_cell_formula_units_Z 56
_cell_length_a 11.045661
_cell_length_b 24.090189
_cell_length_c 10.826369
_cell_angle_alpha 90.000000
_cell_angle_beta 90.000000
_cell_angle_gamma 90.000000
_cell_volume 2880.810842
_symmetry_space_group_name_H-M "P B A M"
_symmetry_group_IT_number 55
_symmetry_cell_setting 'orthorhombic'
loop_
_space_group_symop_operation_xyz
x,y,z
-x,-y,z
1/2+x,1/2-y,-z
1/2-x,1/2+y,-z
-x,-y,-z
x,y,-z
1/2-x,1/2+y,z
1/2+x,1/2-y,z
loop_
_atom_site_type_symbol
_atom_site_label
_atom_site_fract_x
_atom_site_fract_y
_atom_site_fract_z
Si Si1 0.831106 0.813359 0.769359
Si Si2 0.187725 0.531410 0.150101
Si Si3 0.944082 0.917976 0.143663
Si Si4 0.951284 0.304117 0.500000
Si Si5 0.709428 0.581632 0.849058
Si Si6 0.828944 0.785217 0.500000
Si Si7 0.071939 0.637070 0.762945
Si Si8 0.664774 0.189374 0.857996
O O1 0.848891 0.820691 0.623329
O O2 0.697397 0.834029 0.803999
O O3 0.839595 0.748170 0.792152
O O4 0.925037 0.851910 0.841078
O O5 0.320768 0.554312 0.189479
O O6 0.194772 0.466419 0.181090
O O7 0.093221 0.571721 0.216301
O O8 0.174291 0.537202 0.000000
O O9 0.074766 0.933606 0.195177
O O10 0.947353 0.933058 0.000000
O O11 0.818119 0.272685 0.500000
O O12 0.952303 0.341911 0.623366
O O13 0.069633 0.263862 0.500000
O O14 0.744940 0.642872 0.805118
O O15 0.706909 0.583801 0.000000
O O16 0.964646 0.660073 0.846312
O O17 0.696247 0.200114 0.000000
#
# Coordination Sequence:
#
# PCOD9427155 Si02
#       8
#     8   8   8   4   8   4   8   8
#     4  10  21  35  53  77 106 138 176 219 269 325
#     4   9  17  33  55  78 106 141 182 221 264 320
#     4   9  17  31  53  80 109 142 176 219 270 315
#     4  10  20  38  58  79 104 143 191 230 269 324
#     4   9  19  32  50  79 110 142 179 218 262 321
#     4  10  20  36  58  78 103 144 183 221 268 319
#     4  10  21  36  55  75 102 142 178 220 268 322
#     4  11  22  32  49  78 110 141 170 213 270 322
#
# _framework density 19.438972
#
# number of rings (size 3 to 8) (size 9 to 14) (size 15 to 20)
#    0.000    2.286    1.429    1.286    2.000    4.000 
#    0.000    2.143    0.000    3.429    0.000    5.000 
#    0.000    0.000    0.000    0.000    0.000    0.000 
#
# Total GULP energy -312023.020495 kJ/mol
# GULP energy per Si atom -5571.839652 kJ/mol
# Density = 1.939473 g / cm^3
# Si number density = 19.438972 Si / 1000 Ang^3
#
#
#
# Elastic Constant Matrix: (Units=GPa)
#
#
# Indices 1 2 3 4 5 6 
#
# 1 61.6279 5.9068 3.7221 0.0000 0.0000 0.0000
# 2 5.9068 69.6467 -3.2256 0.0000 0.0000 0.0000
# 3 3.7221 -3.2256 24.2534 0.0000 0.0000 0.0000
# 4 0.0000 0.0000 0.0000 10.1197 0.0000 0.0000
# 5 0.0000 0.0000 0.0000 0.0000 15.8765 0.0000
# 6 0.0000 0.0000 0.0000 0.0000 0.0000 18.4787
#
#
#
# Elastic Compliance Matrix: (Units=1/GPa)
#
#
# Indices 1 2 3 4 5 6 
#
# 1 0.016539 -0.001530 -0.002742 0.000000 0.000000 0.000000
# 2 -0.001530 0.014589 0.002175 0.000000 0.000000 0.000000
# 3 -0.002742 0.002175 0.041941 0.000000 0.000000 0.000000
# 4 0.000000 0.000000 0.000000 0.098817 0.000000 0.000000
# 5 0.000000 0.000000 0.000000 0.000000 0.062986 0.000000
# 6 0.000000 0.000000 0.000000 0.000000 0.000000 0.054116
#
#
# Mechanical properties :
#
#
# Convention : Reuss Voigt Hill
#
# Bulk Modulus (GPa) = 14.51883 18.70385 16.61134
# Shear Modulus (GPa) = 15.81580 18.83661 17.32621
#
# Velocity S-wave (km/s) = 2.85548 3.11627 2.98873
# Velocity P-wave (km/s) = 4.28449 4.75299 4.52481
#
# Compressibility (1/GPa) = 0.06887609
#
# Stress axis : x y z
#
# Youngs Moduli (GPa) = 60.46455 68.54644 23.84286
#
# Poissons Ratio (x) = 0.10485 0.06537
# Poissons Ratio (y) = 0.09249 -0.05186
# Poissons Ratio (z) = 0.16577 -0.14908
#
# Static dielectric constant tensor:
#      x y z
#    x 1.724220 0.000000 0.000000 
#    y 0.000000 1.718910 0.000000 
#    z 0.000000 0.000000 1.663380 
# 
# From -- ./inp_files/13548.got.cif
#   From: 2010.05.17/outbox.cif.g08.bks.cpg/sg55_7_cif.got.tgz:13548.got - 2010.06.03 13:27:54.
