data_PCOD9427159
_publ_section_title
;
Structure prediction by ZEFSAII (Michael W. Deem and Ramdas Pophale) SiO2 
 PCOD9427159
Probable space group: P B A M
;
_chemical_formula_sum "Si O2"
_cell_formula_units_Z 56
_cell_length_a 15.072203
_cell_length_b 5.114366
_cell_length_c 35.426612
_cell_angle_alpha 90.000000
_cell_angle_beta 90.000000
_cell_angle_gamma 90.000000
_cell_volume 2730.851975
_symmetry_space_group_name_H-M "P B A M"
_symmetry_group_IT_number 55
_symmetry_cell_setting 'orthorhombic'
loop_
_space_group_symop_operation_xyz
x,y,z
-x,-y,z
1/2+x,1/2-y,-z
1/2-x,1/2+y,-z
-x,-y,-z
x,y,-z
1/2-x,1/2+y,z
1/2+x,1/2-y,z
loop_
_atom_site_type_symbol
_atom_site_label
_atom_site_fract_x
_atom_site_fract_y
_atom_site_fract_z
Si Si1 0.435346 0.749437 0.040421
Si Si2 0.936265 0.749319 0.122552
Si Si3 0.438477 0.245609 0.456966
Si Si4 0.893539 0.024858 0.686575
Si Si5 0.307724 0.879858 0.808831
Si Si6 0.392695 0.975034 0.270678
Si Si7 0.306924 0.262640 0.388630
O O1 0.500000 0.500000 0.040199
O O2 0.388938 0.738305 0.081260
O O3 0.500000 0.000000 0.040447
O O4 0.385418 0.751405 0.000000
O O5 0.870447 0.704752 0.156919
O O6 0.000000 0.500000 0.121666
O O7 0.000000 0.000000 0.127397
O O8 0.500000 0.500000 0.457117
O O9 0.406672 0.198676 0.500000
O O10 0.360789 0.290470 0.427323
O O11 0.500000 0.000000 0.445765
O O12 0.861873 0.235197 0.717797
O O13 0.865532 0.144076 0.646723
O O14 0.862664 0.734791 0.697708
O O15 0.000000 0.000000 0.687360
O O16 0.226709 0.676557 0.810884
O O17 0.358465 0.868158 0.769009
O O18 0.500000 0.000000 0.269562
O O19 0.224894 0.463865 0.387098
#
# Coordination Sequence:
#
# PCOD9427159 Si02
#       7
#     8   8   8   8   8   8   8
#     4   8  14  26  48  78 104 130 175 231 276 316
#     4  10  20  36  58  80 108 147 188 230 275 337
#     4  10  22  42  66  88 116 159 204 241 282 339
#     4  10  22  40  61  84 113 151 192 234 280 339
#     4  12  25  38  56  83 116 150 185 236 293 342
#     4  10  22  40  61  82 107 147 196 238 279 333
#     4  12  25  38  60  93 126 156 188 238 295 346
#
# _framework density 20.506419999999999
#
# number of rings (size 3 to 8) (size 9 to 14) (size 15 to 20)
#    0.000    1.714    0.000    4.286    0.000    7.429 
#    0.000    0.000    0.000    0.857    0.000    0.000 
#    0.000    0.000    0.000    0.000    0.000    0.000 
#
# Total GULP energy -312605.674347 kJ/mol
# GULP energy per Si atom -5582.244185 kJ/mol
# Density = 2.045975 g / cm^3
# Si number density = 20.506420 Si / 1000 Ang^3
#
#
#
# Elastic Constant Matrix: (Units=GPa)
#
#
# Indices 1 2 3 4 5 6 
#
# 1 29.3399 10.5462 38.0383 0.0000 0.0000 0.0000
# 2 10.5462 105.0781 15.1356 0.0000 0.0000 0.0000
# 3 38.0383 15.1356 152.1482 0.0000 0.0000 0.0000
# 4 0.0000 0.0000 0.0000 27.0568 0.0000 0.0000
# 5 0.0000 0.0000 0.0000 0.0000 -29.7788 0.0000
# 6 0.0000 0.0000 0.0000 0.0000 0.0000 26.8609
#
#
#
# Elastic Compliance Matrix: (Units=1/GPa)
#
#
# Indices 1 2 3 4 5 6 
#
# 1 0.051577 -0.003367 -0.012560 0.000000 0.000000 0.000000
# 2 -0.003367 0.009875 -0.000140 0.000000 0.000000 0.000000
# 3 -0.012560 -0.000140 0.009727 0.000000 0.000000 0.000000
# 4 0.000000 0.000000 0.000000 0.036959 0.000000 0.000000
# 5 0.000000 0.000000 0.000000 0.000000 -0.033581 0.000000
# 6 0.000000 0.000000 0.000000 0.000000 0.000000 0.037229
#
#
# Mechanical properties :
#
#
# Convention : Reuss Voigt Hill
#
# Bulk Modulus (GPa) = 25.61260 46.00072 35.80666
# Shear Modulus (GPa) = 31.86025 19.68417 25.77221
#
# Velocity S-wave (km/s) = 3.94594 3.10159 3.54897
# Velocity P-wave (km/s) = 5.76869 5.94201 5.85599
#
# Compressibility (1/GPa) = 0.03904328
#
# Stress axis : x y z
#
# Youngs Moduli (GPa) = 19.38848 101.26642 102.81145
#
# Poissons Ratio (x) = 0.34101 1.29128
# Poissons Ratio (y) = 0.06529 0.01444
# Poissons Ratio (z) = 0.24351 0.01422
#
# Static dielectric constant tensor:
#      x y z
#    x 1.709110 0.000000 0.000000 
#    y 0.000000 1.702340 0.000000 
#    z 0.000000 0.000000 1.774600 
# 
# From -- ./inp_files/24175.got.cif
#   From: 2010.05.17/outbox.cif.g08.bks.cpg/sg55_13_cif.got.tgz:24175.got - 2010.06.03 13:27:54.
