data_PCOD9427012
_publ_section_title
;
Structure prediction by ZEFSAII (Michael W. Deem and Ramdas Pophale) SiO2 
 PCOD9427012
Probable space group: P B A M
;
_chemical_formula_sum "Si O2"
_cell_formula_units_Z 64
_cell_length_a 32.489472
_cell_length_b 5.298983
_cell_length_c 16.193804
_cell_angle_alpha 90.000000
_cell_angle_beta 90.000000
_cell_angle_gamma 90.000000
_cell_volume 2787.944078
_symmetry_space_group_name_H-M "P B A M"
_symmetry_group_IT_number 55
_symmetry_cell_setting 'orthorhombic'
loop_
_space_group_symop_operation_xyz
x,y,z
-x,-y,z
1/2+x,1/2-y,-z
1/2-x,1/2+y,-z
-x,-y,-z
x,y,-z
1/2-x,1/2+y,z
1/2+x,1/2-y,z
loop_
_atom_site_type_symbol
_atom_site_label
_atom_site_fract_x
_atom_site_fract_y
_atom_site_fract_z
Si Si1 0.274571 0.246660 0.899737
Si Si2 0.227504 0.555567 0.600078
Si Si3 0.612606 0.668427 0.313331
Si Si4 0.039513 0.177045 0.745715
Si Si5 0.345003 0.702770 0.407832
Si Si6 0.582989 0.322100 0.906938
Si Si7 0.933634 0.546053 0.590255
Si Si8 0.630730 0.837841 0.856919
O O1 0.252750 0.506329 0.873389
O O2 0.321315 0.218778 0.869730
O O3 0.275991 0.246769 0.000000
O O4 0.229302 0.570440 0.500000
O O5 0.257816 0.329264 0.628858
O O6 0.182744 0.438476 0.617934
O O7 0.580854 0.479322 0.271066
O O8 0.652788 0.523728 0.343930
O O9 0.621886 0.866180 0.241226
O O10 0.587005 0.778400 0.389867
O O11 0.047679 0.254485 0.840250
O O12 0.040256 0.374948 0.670239
O O13 0.000000 0.000000 0.739511
O O14 0.331279 0.621780 0.500000
O O15 0.392410 0.784966 0.413229
O O16 0.604567 0.595627 0.890001
O O17 0.616665 0.098444 0.898404
O O18 0.566866 0.325890 0.000000
O O19 0.953452 0.557772 0.500000
#
# Coordination Sequence:
#
# PCOD9427012 Si02
#       8
#     8   8   8   8   8   8   8   8
#     4  10  20  35  57  88 123 162 207 257 314 369
#     4   9  18  31  48  75 110 148 194 252 313 362
#     4  10  21  38  60  86 118 163 208 260 311 376
#     4  10  23  42  61  91 131 162 201 263 325 382
#     4   9  19  34  56  82 112 155 207 261 306 365
#     4  11  22  40  67  98 127 170 217 256 314 383
#     4  10  20  38  63  90 118 162 216 260 317 383
#     4  11  22  40  64  91 131 170 215 263 308 374
#
# _framework density 22.955983
#
# number of rings (size 3 to 8) (size 9 to 14) (size 15 to 20)
#    0.000    2.000    1.250    2.250    1.750    2.500 
#    0.000    1.875    0.000    2.250    0.000    0.000 
#    0.000    0.000    0.000    0.000    0.000    0.000 
#
# Total GULP energy -357293.399286 kJ/mol
# GULP energy per Si atom -5582.709364 kJ/mol
# Density = 2.290373 g / cm^3
# Si number density = 22.955983 Si / 1000 Ang^3
#
#
#
# Elastic Constant Matrix: (Units=GPa)
#
#
# Indices 1 2 3 4 5 6 
#
# 1 68.7901 6.4599 26.5986 0.0000 0.0000 0.0000
# 2 6.4599 82.4519 14.5798 0.0000 0.0000 0.0000
# 3 26.5986 14.5798 112.5986 0.0000 0.0000 0.0000
# 4 0.0000 0.0000 0.0000 26.1082 0.0000 0.0000
# 5 0.0000 0.0000 0.0000 0.0000 24.6738 0.0000
# 6 0.0000 0.0000 0.0000 0.0000 0.0000 26.3946
#
#
#
# Elastic Compliance Matrix: (Units=1/GPa)
#
#
# Indices 1 2 3 4 5 6 
#
# 1 0.016027 -0.000600 -0.003708 0.000000 0.000000 0.000000
# 2 -0.000600 0.012435 -0.001468 0.000000 0.000000 0.000000
# 3 -0.003708 -0.001468 0.009947 0.000000 0.000000 0.000000
# 4 0.000000 0.000000 0.000000 0.038302 0.000000 0.000000
# 5 0.000000 0.000000 0.000000 0.000000 0.040529 0.000000
# 6 0.000000 0.000000 0.000000 0.000000 0.000000 0.037886
#
#
# Mechanical properties :
#
#
# Convention : Reuss Voigt Hill
#
# Bulk Modulus (GPa) = 37.23567 39.90193 38.56880
# Shear Modulus (GPa) = 28.46859 29.84882 29.15871
#
# Velocity S-wave (km/s) = 3.52538 3.60983 3.56785
# Velocity P-wave (km/s) = 5.72946 5.89866 5.81468
#
# Compressibility (1/GPa) = 0.02685597
#
# Stress axis : x y z
#
# Youngs Moduli (GPa) = 62.39394 80.41859 100.53032
#
# Poissons Ratio (x) = 0.04825 0.37280
# Poissons Ratio (y) = 0.03743 0.14762
# Poissons Ratio (z) = 0.23138 0.11809
#
# Static dielectric constant tensor:
#      x y z
#    x 1.843640 0.000000 0.000000 
#    y 0.000000 1.918640 0.000000 
#    z 0.000000 0.000000 1.920050 
# 
# From -- ./inp_files/22161.got.cif
#   From: 2010.05.17/outbox.cif.g08.bks.cpg/sg55_12_cif.got.tgz:22161.got - 2010.06.03 13:27:54.
