data_PCOD9427119
_publ_section_title
;
Structure prediction by ZEFSAII (Michael W. Deem and Ramdas Pophale) SiO2 
 PCOD9427119
Probable space group: P B A M
;
_chemical_formula_sum "Si O2"
_cell_formula_units_Z 58
_cell_length_a 15.503705
_cell_length_b 22.702100
_cell_length_c 7.381755
_cell_angle_alpha 90.000000
_cell_angle_beta 90.000000
_cell_angle_gamma 90.000000
_cell_volume 2598.131662
_symmetry_space_group_name_H-M "P B A M"
_symmetry_group_IT_number 55
_symmetry_cell_setting 'orthorhombic'
loop_
_space_group_symop_operation_xyz
x,y,z
-x,-y,z
1/2+x,1/2-y,-z
1/2-x,1/2+y,-z
-x,-y,-z
x,y,-z
1/2-x,1/2+y,z
1/2+x,1/2-y,z
loop_
_atom_site_type_symbol
_atom_site_label
_atom_site_fract_x
_atom_site_fract_y
_atom_site_fract_z
Si Si1 0.643770 0.351850 0.292976
Si Si2 0.839821 0.716305 0.210692
Si Si3 0.545994 0.661974 0.722734
Si Si4 0.872405 0.527644 0.718189
Si Si5 0.464402 0.202388 0.718526
Si Si6 0.000000 0.500000 0.000000
Si Si7 0.779845 0.111030 0.705371
Si Si8 0.825901 0.393298 0.279635
O O1 0.638716 0.373097 0.500000
O O2 0.658800 0.281415 0.293128
O O3 0.548055 0.359655 0.215055
O O4 0.729391 0.380189 0.212205
O O5 0.936330 0.690697 0.230868
O O6 0.770011 0.673278 0.295811
O O7 0.819465 0.722160 0.000000
O O8 0.546047 0.661987 0.500000
O O9 0.556019 0.730507 0.776736
O O10 0.626523 0.623348 0.786061
O O11 0.885854 0.534952 0.500000
O O12 0.789887 0.565459 0.779255
O O13 0.853295 0.459403 0.763973
O O14 0.954627 0.540858 0.839574
O O15 0.461730 0.201747 0.500000
O O16 0.394598 0.155263 0.783761
O O17 0.794928 0.090557 0.500000
O O18 0.823994 0.389332 0.500000
#
# Coordination Sequence:
#
# PCOD9427119 Si02
#       8
#     8   8   8   8   8   2   8   8
#     4   9  17  35  59  80 108 146 187 234 292 348
#     4  11  22  32  49  80 114 145 188 233 285 350
#     4   8  15  30  55  83 105 140 186 229 283 342
#     4  10  24  41  62  90 118 155 202 240 289 350
#     4   9  17  31  53  77 107 144 184 226 282 345
#     4  12  26  44  64  82 122 164 194 252 288 336
#     4  10  20  36  56  79 113 149 189 238 283 344
#     4   9  18  35  58  83 111 145 191 242 286 345
#
# _framework density 22.323734999999999
#
# number of rings (size 3 to 8) (size 9 to 14) (size 15 to 20)
#    0.000    2.483    0.000    3.103    2.897    2.207 
#    1.241    6.207    0.000    4.138    0.000    0.966 
#    0.000    0.000    0.000    0.000    0.000    0.276 
#
# Total GULP energy -323411.639234 kJ/mol
# GULP energy per Si atom -5576.062745 kJ/mol
# Density = 2.227292 g / cm^3
# Si number density = 22.323735 Si / 1000 Ang^3
#
#
#
# Elastic Constant Matrix: (Units=GPa)
#
#
# Indices 1 2 3 4 5 6 
#
# 1 136.6118 42.6745 2.4875 0.0000 0.0000 0.0000
# 2 42.6745 30.9426 1.3904 0.0000 0.0000 0.0000
# 3 2.4875 1.3904 94.2882 0.0000 0.0000 0.0000
# 4 0.0000 0.0000 0.0000 -7.0282 0.0000 0.0000
# 5 0.0000 0.0000 0.0000 0.0000 329.6081 0.0000
# 6 0.0000 0.0000 0.0000 0.0000 0.0000 29.6325
#
#
#
# Elastic Compliance Matrix: (Units=1/GPa)
#
#
# Indices 1 2 3 4 5 6 
#
# 1 0.012861 -0.017734 -0.000078 0.000000 0.000000 0.000000
# 2 -0.017734 0.056792 -0.000370 0.000000 0.000000 0.000000
# 3 -0.000078 -0.000370 0.010613 0.000000 0.000000 0.000000
# 4 0.000000 0.000000 0.000000 -0.142284 0.000000 0.000000
# 5 0.000000 0.000000 0.000000 0.000000 0.003034 0.000000
# 6 0.000000 0.000000 0.000000 0.000000 0.000000 0.033747
#
#
# Mechanical properties :
#
#
# Convention : Reuss Voigt Hill
#
# Bulk Modulus (GPa) = 22.77696 39.43858 31.10777
# Shear Modulus (GPa) = 194.09239 84.79516 139.44378
#
# Velocity S-wave (km/s) = 9.33451 6.16983 7.91201
# Velocity P-wave (km/s) = 11.24290 8.27410 9.87075
#
# Compressibility (1/GPa) = 0.04390401
#
# Stress axis : x y z
#
# Youngs Moduli (GPa) = 77.75382 17.60805 94.22156
#
# Poissons Ratio (x) = 0.31226 0.00733
# Poissons Ratio (y) = 1.37888 0.03482
# Poissons Ratio (z) = 0.00605 0.00651
#
# Static dielectric constant tensor:
#      x y z
#    x 1.865720 0.000000 0.000000 
#    y 0.000000 1.791610 0.000000 
#    z 0.000000 0.000000 1.353990 
# 
# From -- ./inp_files/6393.got.cif
#   From: 2010.05.17/outbox.cif.g08.bks.cpg/sg55_4_cif.got.tgz:6393.got - 2010.06.03 13:27:54.
