data_PCOD9427717
_publ_section_title
;
Structure prediction by ZEFSAII (Michael W. Deem and Ramdas Pophale) SiO2 
 PCOD9427717
Probable space group: P B A M
;
_chemical_formula_sum "Si O2"
_cell_formula_units_Z 48
_cell_length_a 16.760448
_cell_length_b 9.518677
_cell_length_c 15.526433
_cell_angle_alpha 90.000000
_cell_angle_beta 90.000000
_cell_angle_gamma 90.000000
_cell_volume 2477.045058
_symmetry_space_group_name_H-M "P B A M"
_symmetry_group_IT_number 55
_symmetry_cell_setting 'orthorhombic'
loop_
_space_group_symop_operation_xyz
x,y,z
-x,-y,z
1/2+x,1/2-y,-z
1/2-x,1/2+y,-z
-x,-y,-z
x,y,-z
1/2-x,1/2+y,z
1/2+x,1/2-y,z
loop_
_atom_site_type_symbol
_atom_site_label
_atom_site_fract_x
_atom_site_fract_y
_atom_site_fract_z
Si Si1 0.173360 0.644157 0.812501
Si Si2 0.131105 0.571065 0.000000
Si Si3 0.421137 0.402017 0.399987
Si Si4 0.704434 0.550851 0.749496
Si Si5 0.539444 0.222473 0.000000
Si Si6 0.984851 0.339460 0.711947
Si Si7 0.433463 0.621111 0.822193
O O1 0.211450 0.526618 0.750623
O O2 0.080430 0.658271 0.788458
O O3 0.210827 0.793708 0.787943
O O4 0.178532 0.602767 0.912290
O O5 0.097656 0.412425 0.000000
O O6 0.051556 0.667528 0.000000
O O7 0.500000 0.500000 0.389906
O O8 0.398915 0.403150 0.500000
O O9 0.347417 0.445508 0.338391
O O10 0.448002 0.249495 0.365967
O O11 0.650247 0.455862 0.812278
O O12 0.554483 0.313416 0.915355
O O13 0.000000 0.500000 0.689385
O O14 0.055716 0.245632 0.752232
O O15 0.500000 0.500000 0.806466
#
# Coordination Sequence:
#
# PCOD9427717 Si02
#       7
#     8   4   8   8   4   8   8
#     4  11  25  39  62  86 130 171 211 257 308 373
#     4  11  22  41  55  94 124 165 220 263 307 360
#     4  10  20  41  70  95 120 157 206 259 313 383
#     4  11  24  42  60  92 127 165 207 257 326 381
#     4  11  23  33  65  90 123 160 222 276 301 350
#     4  11  21  38  65  94 127 164 210 261 311 381
#     4  12  20  40  62  89 123 168 214 260 313 372
#
# _framework density 19.377928000000001
#
# number of rings (size 3 to 8) (size 9 to 14) (size 15 to 20)
#    0.000    1.000    6.667    1.250    4.667    2.333 
#    0.000    3.333    0.000    0.000    0.000    0.000 
#    0.000    0.000    0.000    0.000    0.000    0.000 
#
# Total GULP energy -268105.109234 kJ/mol
# GULP energy per Si atom -5585.523109 kJ/mol
# Density = 1.933382 g / cm^3
# Si number density = 19.377928 Si / 1000 Ang^3
#
#
#
# Elastic Constant Matrix: (Units=GPa)
#
#
# Indices 1 2 3 4 5 6 
#
# 1 19.7155 21.9732 19.0742 0.0000 0.0000 0.0000
# 2 21.9732 127.9829 50.9582 0.0000 0.0000 0.0000
# 3 19.0742 50.9582 144.0790 0.0000 0.0000 0.0000
# 4 0.0000 0.0000 0.0000 8.8179 0.0000 0.0000
# 5 0.0000 0.0000 0.0000 0.0000 15.5673 0.0000
# 6 0.0000 0.0000 0.0000 0.0000 0.0000 33.2388
#
#
#
# Elastic Compliance Matrix: (Units=1/GPa)
#
#
# Indices 1 2 3 4 5 6 
#
# 1 0.066306 -0.009182 -0.005531 0.000000 0.000000 0.000000
# 2 -0.009182 0.010366 -0.002451 0.000000 0.000000 0.000000
# 3 -0.005531 -0.002451 0.008540 0.000000 0.000000 0.000000
# 4 0.000000 0.000000 0.000000 0.113406 0.000000 0.000000
# 5 0.000000 0.000000 0.000000 0.000000 0.064237 0.000000
# 6 0.000000 0.000000 0.000000 0.000000 0.000000 0.030085
#
#
# Mechanical properties :
#
#
# Convention : Reuss Voigt Hill
#
# Bulk Modulus (GPa) = 19.65221 52.86542 36.25881
# Shear Modulus (GPa) = 14.52528 24.84290 19.68409
#
# Velocity S-wave (km/s) = 2.74081 3.58442 3.19062
# Velocity P-wave (km/s) = 4.49218 6.66867 5.68554
#
# Compressibility (1/GPa) = 0.05088487
#
# Stress axis : x y z
#
# Youngs Moduli (GPa) = 15.08166 96.47185 117.10219
#
# Poissons Ratio (x) = 0.88579 0.64764
# Poissons Ratio (y) = 0.13848 0.28697
# Poissons Ratio (z) = 0.08341 0.23641
#
# Static dielectric constant tensor:
#      x y z
#    x 1.745780 0.000000 0.000000 
#    y 0.000000 1.694070 0.000000 
#    z 0.000000 0.000000 1.650930 
# 
# From -- ./inp_files/19383.got.cif
#   From: 2010.05.17/outbox.cif.g08.bks.cpg/sg55_10_cif.got.tgz:19383.got - 2010.06.03 13:27:54.
