data_PCOD9427508
_publ_section_title
;
Structure prediction by ZEFSAII (Michael W. Deem and Ramdas Pophale) SiO2 
 PCOD9427508
Probable space group: P B A M
;
_chemical_formula_sum "Si O2"
_cell_formula_units_Z 64
_cell_length_a 13.052632
_cell_length_b 29.056270
_cell_length_c 7.588872
_cell_angle_alpha 90.000000
_cell_angle_beta 90.000000
_cell_angle_gamma 90.000000
_cell_volume 2878.161663
_symmetry_space_group_name_H-M "P B A M"
_symmetry_group_IT_number 55
_symmetry_cell_setting 'orthorhombic'
loop_
_space_group_symop_operation_xyz
x,y,z
-x,-y,z
1/2+x,1/2-y,-z
1/2-x,1/2+y,-z
-x,-y,-z
x,y,-z
1/2-x,1/2+y,z
1/2+x,1/2-y,z
loop_
_atom_site_type_symbol
_atom_site_label
_atom_site_fract_x
_atom_site_fract_y
_atom_site_fract_z
Si Si1 0.822053 0.705975 0.800537
Si Si2 0.023087 0.652432 0.783407
Si Si3 0.248837 0.955612 0.287363
Si Si4 0.519590 0.050689 0.202127
Si Si5 0.263231 0.197473 0.784057
Si Si6 0.597119 0.469098 0.713669
Si Si7 0.348128 0.361679 0.298504
Si Si8 0.575265 0.363342 0.203263
O O1 0.776112 0.752743 0.721184
O O2 0.727518 0.670870 0.805913
O O3 0.920683 0.679525 0.723763
O O4 0.853824 0.718356 0.000000
O O5 0.124753 0.679978 0.729324
O O6 0.023095 0.598871 0.723062
O O7 0.019481 0.650286 0.000000
O O8 0.260393 0.956875 0.500000
O O9 0.357792 0.944430 0.205962
O O10 0.170312 0.914522 0.244371
O O11 0.199158 0.003687 0.231705
O O12 0.500000 0.000000 0.283925
O O13 0.481638 0.047972 0.000000
O O14 0.175869 0.161697 0.727552
O O15 0.268102 0.198468 0.000000
O O16 0.500000 0.500000 0.767085
O O17 0.595040 0.466813 0.500000
O O18 0.590026 0.417841 0.782122
O O19 0.313701 0.357735 0.500000
O O20 0.467319 0.350321 0.288367
O O21 0.564766 0.350046 0.000000
#
# Coordination Sequence:
#
# PCOD9427508 Si02
#       8
#     8   8   8   8   8   8   8   8
#     4  10  20  37  64  89 110 147 197 244 288 351
#     4   9  18  35  56  84 119 149 183 235 293 343
#     4  10  21  37  57  79 111 155 196 232 285 349
#     4  10  21  35  56  83 114 150 186 236 294 339
#     4   9  21  37  58  88 121 152 188 241 303 351
#     4  10  20  38  57  78 115 159 189 227 294 350
#     4  11  22  39  60  84 118 156 192 244 298 347
#     4  11  23  37  59  90 118 154 201 246 291 351
#
# _framework density 22.236416999999999
#
# number of rings (size 3 to 8) (size 9 to 14) (size 15 to 20)
#    0.000    2.000    2.500    0.750    3.500    1.500 
#    0.000    1.250    0.000    2.250    0.000    0.000 
#    0.000    0.000    0.000    0.000    0.000    0.000 
#
# Total GULP energy -357382.433573 kJ/mol
# GULP energy per Si atom -5584.100525 kJ/mol
# Density = 2.218581 g / cm^3
# Si number density = 22.236417 Si / 1000 Ang^3
#
#
#
# Elastic Constant Matrix: (Units=GPa)
#
#
# Indices 1 2 3 4 5 6 
#
# 1 129.6172 79.0347 2.3603 0.0000 0.0000 0.0000
# 2 79.0347 157.6646 6.1208 0.0000 0.0000 0.0000
# 3 2.3603 6.1208 45.3245 0.0000 0.0000 0.0000
# 4 0.0000 0.0000 0.0000 1.5655 0.0000 0.0000
# 5 0.0000 0.0000 0.0000 0.0000 38.4870 0.0000
# 6 0.0000 0.0000 0.0000 0.0000 0.0000 33.9678
#
#
#
# Elastic Compliance Matrix: (Units=1/GPa)
#
#
# Indices 1 2 3 4 5 6 
#
# 1 0.011113 -0.005577 0.000174 0.000000 0.000000 0.000000
# 2 -0.005577 0.009175 -0.000949 0.000000 0.000000 0.000000
# 3 0.000174 -0.000949 0.022182 0.000000 0.000000 0.000000
# 4 0.000000 0.000000 0.000000 0.638773 0.000000 0.000000
# 5 0.000000 0.000000 0.000000 0.000000 0.025983 0.000000
# 6 0.000000 0.000000 0.000000 0.000000 0.000000 0.029440
#
#
# Mechanical properties :
#
#
# Convention : Reuss Voigt Hill
#
# Bulk Modulus (GPa) = 33.59415 56.40420 44.99917
# Shear Modulus (GPa) = 6.58509 31.14343 18.86426
#
# Velocity S-wave (km/s) = 1.72274 3.74647 2.91580
# Velocity P-wave (km/s) = 4.37008 6.64345 5.62286
#
# Compressibility (1/GPa) = 0.02976709
#
# Stress axis : x y z
#
# Youngs Moduli (GPa) = 89.98733 108.98884 45.08127
#
# Poissons Ratio (x) = 0.60787 -0.00787
# Poissons Ratio (y) = 0.50189 0.04276
# Poissons Ratio (z) = -0.01570 0.10339
#
# Static dielectric constant tensor:
#      x y z
#    x 1.770580 0.000000 0.000000 
#    y 0.000000 1.813360 0.000000 
#    z 0.000000 0.000000 1.860160 
# 
# From -- ./inp_files/4529.got.cif
#   From: 2010.05.17/outbox.cif.g08.bks.cpg/sg55_3_cif.got.tgz:4529.got - 2010.06.03 13:27:54.
