data_PCOD9427355
_publ_section_title
;
Structure prediction by ZEFSAII (Michael W. Deem and Ramdas Pophale) SiO2 
 PCOD9427355
Probable space group: P B A M
;
_chemical_formula_sum "Si O2"
_cell_formula_units_Z 64
_cell_length_a 24.262511
_cell_length_b 15.287513
_cell_length_c 8.785437
_cell_angle_alpha 90.000000
_cell_angle_beta 90.000000
_cell_angle_gamma 90.000000
_cell_volume 3258.636768
_symmetry_space_group_name_H-M "P B A M"
_symmetry_group_IT_number 55
_symmetry_cell_setting 'orthorhombic'
loop_
_space_group_symop_operation_xyz
x,y,z
-x,-y,z
1/2+x,1/2-y,-z
1/2-x,1/2+y,-z
-x,-y,-z
x,y,-z
1/2-x,1/2+y,z
1/2+x,1/2-y,z
loop_
_atom_site_type_symbol
_atom_site_label
_atom_site_fract_x
_atom_site_fract_y
_atom_site_fract_z
Si Si1 0.471361 0.592027 0.322009
Si Si2 0.130700 0.805378 0.319583
Si Si3 0.744955 0.416995 0.820678
Si Si4 0.858862 0.996466 0.322090
Si Si5 0.256832 0.774450 0.317095
Si Si6 0.523526 0.759222 0.820649
Si Si7 0.043503 0.425878 0.814300
Si Si8 0.329014 0.933757 0.815330
O O1 0.500000 0.500000 0.287281
O O2 0.483261 0.611885 0.500000
O O3 0.406473 0.575033 0.304684
O O4 0.494532 0.668540 0.220503
O O5 0.128995 0.790920 0.500000
O O6 0.193612 0.793626 0.268972
O O7 0.085087 0.744269 0.245188
O O8 0.116880 0.907315 0.291407
O O9 0.691948 0.476378 0.785185
O O10 0.734445 0.325413 0.735760
O O11 0.796815 0.476963 0.770351
O O12 0.750473 0.399414 0.000000
O O13 0.840792 0.997082 0.500000
O O14 0.260464 0.780017 0.500000
O O15 0.297287 0.848025 0.247918
O O16 0.483935 0.835572 0.761618
O O17 0.528372 0.770212 0.000000
O O18 0.000000 0.500000 0.767654
O O19 0.107003 0.436105 0.765807
O O20 0.045203 0.426537 0.000000
O O21 0.327003 0.929296 0.000000
#
# Coordination Sequence:
#
# PCOD9427355 Si02
#       8
#     8   8   8   8   8   8   8   8
#     4  10  20  37  58  81 118 164 199 233 291 364
#     4  10  21  40  62  85 120 159 201 251 302 366
#     4  11  24  39  62  92 123 157 200 256 314 371
#     4  10  20  38  61  84 117 162 204 240 295 369
#     4  11  24  41  64  91 123 164 205 251 309 375
#     4  11  23  36  60  92 120 155 203 255 302 361
#     4   9  21  42  64  86 119 163 206 251 307 363
#     4  10  22  42  66  93 125 161 206 261 312 363
#
# _framework density 19.640115999999999
#
# number of rings (size 3 to 8) (size 9 to 14) (size 15 to 20)
#    0.000    1.750    2.500    1.125    3.500    2.750 
#    0.000    0.625    0.000    1.875    0.000    0.000 
#    0.000    0.000    0.000    0.000    0.000    0.000 
#
# Total GULP energy -357280.620158 kJ/mol
# GULP energy per Si atom -5582.509690 kJ/mol
# Density = 1.959541 g / cm^3
# Si number density = 19.640116 Si / 1000 Ang^3
#
#
#
# Elastic Constant Matrix: (Units=GPa)
#
#
# Indices 1 2 3 4 5 6 
#
# 1 118.9728 34.7613 21.1836 0.0000 0.0000 0.0000
# 2 34.7613 44.9471 14.0977 0.0000 0.0000 0.0000
# 3 21.1836 14.0977 12.8744 0.0000 0.0000 0.0000
# 4 0.0000 0.0000 0.0000 -306.3197 0.0000 0.0000
# 5 0.0000 0.0000 0.0000 0.0000 29.7962 0.0000
# 6 0.0000 0.0000 0.0000 0.0000 0.0000 24.8650
#
#
#
# Elastic Compliance Matrix: (Units=1/GPa)
#
#
# Indices 1 2 3 4 5 6 
#
# 1 0.012565 -0.004924 -0.015283 0.000000 0.000000 0.000000
# 2 -0.004924 0.035817 -0.031118 0.000000 0.000000 0.000000
# 3 -0.015283 -0.031118 0.136894 0.000000 0.000000 0.000000
# 4 0.000000 0.000000 0.000000 -0.003265 0.000000 0.000000
# 5 0.000000 0.000000 0.000000 0.000000 0.033561 0.000000
# 6 0.000000 0.000000 0.000000 0.000000 0.000000 0.040217
#
#
# Mechanical properties :
#
#
# Convention : Reuss Voigt Hill
#
# Bulk Modulus (GPa) = 12.10260 35.20885 23.65573
# Shear Modulus (GPa) = 12.95397 -43.21493 -15.13048
#
# Velocity S-wave (km/s) = 2.57099 -4.69587 -2.77859
# Velocity P-wave (km/s) = 3.87155 3.38166 1.33290
#
# Compressibility (1/GPa) = 0.08262684
#
# Stress axis : x y z
#
# Youngs Moduli (GPa) = 79.58492 27.91976 7.30491
#
# Poissons Ratio (x) = 0.13748 0.11164
# Poissons Ratio (y) = 0.39190 0.22731
# Poissons Ratio (z) = 1.21627 0.86880
#
# Static dielectric constant tensor:
#      x y z
#    x 1.706650 0.000000 0.000000 
#    y 0.000000 1.693220 0.000000 
#    z 0.000000 0.000000 1.673510 
# 
# From -- ./inp_files/9790.got.cif
#   From: 2010.05.17/outbox.cif.g08.bks.cpg/sg55_5_cif.got.tgz:9790.got - 2010.06.03 13:27:54.
