data_PCOD9427530
_publ_section_title
;
Structure prediction by ZEFSAII (Michael W. Deem and Ramdas Pophale) SiO2 
 PCOD9427530
Probable space group: P B A M
;
_chemical_formula_sum "Si O2"
_cell_formula_units_Z 48
_cell_length_a 27.526509
_cell_length_b 9.825315
_cell_length_c 7.525954
_cell_angle_alpha 90.000000
_cell_angle_beta 90.000000
_cell_angle_gamma 90.000000
_cell_volume 2035.444094
_symmetry_space_group_name_H-M "P B A M"
_symmetry_group_IT_number 55
_symmetry_cell_setting 'orthorhombic'
loop_
_space_group_symop_operation_xyz
x,y,z
-x,-y,z
1/2+x,1/2-y,-z
1/2-x,1/2+y,-z
-x,-y,-z
x,y,-z
1/2-x,1/2+y,z
1/2+x,1/2-y,z
loop_
_atom_site_type_symbol
_atom_site_label
_atom_site_fract_x
_atom_site_fract_y
_atom_site_fract_z
Si Si1 0.565009 0.733979 0.785262
Si Si2 0.129948 0.005719 0.784727
Si Si3 0.038749 0.179520 0.797458
Si Si4 0.230232 0.146273 0.293609
Si Si5 0.806759 0.565724 0.718622
Si Si6 0.082241 0.454312 0.292018
O O1 0.611458 0.644191 0.732077
O O2 0.515034 0.664269 0.719428
O O3 0.567138 0.889743 0.728314
O O4 0.563221 0.732619 0.000000
O O5 0.086580 0.106615 0.722348
O O6 0.181694 0.054611 0.716040
O O7 0.133064 0.012200 0.000000
O O8 0.049215 0.340940 0.798279
O O9 0.036194 0.128749 0.000000
O O10 0.241871 0.169727 0.500000
O O11 0.217289 0.293662 0.218364
O O12 0.275053 0.061542 0.218278
O O13 0.806770 0.565839 0.500000
O O14 0.862557 0.559411 0.774315
O O15 0.081012 0.419739 0.500000
#
# Coordination Sequence:
#
# PCOD9427530 Si02
#       6
#     8   8   8   8   8   8
#     4  10  22  38  57  83 114 152 192 227 274 339
#     4  10  21  38  59  85 114 146 188 238 281 325
#     4  10  20  38  61  81 110 153 192 228 279 338
#     4  10  20  38  60  82 110 147 187 228 277 338
#     4   9  20  36  58  83 109 144 185 226 276 336
#     4  11  22  37  57  86 117 146 186 237 282 327
#
# _framework density 23.582079
#
# number of rings (size 3 to 8) (size 9 to 14) (size 15 to 20)
#    0.000    2.000    1.667    1.500    2.333    5.333 
#    0.000    2.500    0.000    3.000    0.000    0.000 
#    0.000    0.000    0.000    0.000    0.000    0.000 
#
# Total GULP energy -268396.787031 kJ/mol
# GULP energy per Si atom -5591.599730 kJ/mol
# Density = 2.352841 g / cm^3
# Si number density = 23.582079 Si / 1000 Ang^3
#
#
#
# Elastic Constant Matrix: (Units=GPa)
#
#
# Indices 1 2 3 4 5 6 
#
# 1 58.3883 5.1104 -2.6387 0.0000 0.0000 0.0000
# 2 5.1104 62.0436 -3.0756 0.0000 0.0000 0.0000
# 3 -2.6387 -3.0756 66.4364 0.0000 0.0000 0.0000
# 4 0.0000 0.0000 0.0000 12.0310 0.0000 0.0000
# 5 0.0000 0.0000 0.0000 0.0000 16.7604 0.0000
# 6 0.0000 0.0000 0.0000 0.0000 0.0000 47.4635
#
#
#
# Elastic Compliance Matrix: (Units=1/GPa)
#
#
# Indices 1 2 3 4 5 6 
#
# 1 0.017277 -0.001392 0.000622 0.000000 0.000000 0.000000
# 2 -0.001392 0.016267 0.000698 0.000000 0.000000 0.000000
# 3 0.000622 0.000698 0.015109 0.000000 0.000000 0.000000
# 4 0.000000 0.000000 0.000000 0.083119 0.000000 0.000000
# 5 0.000000 0.000000 0.000000 0.000000 0.059664 0.000000
# 6 0.000000 0.000000 0.000000 0.000000 0.000000 0.021069
#
#
# Mechanical properties :
#
#
# Convention : Reuss Voigt Hill
#
# Bulk Modulus (GPa) = 20.61552 20.62896 20.62224
# Shear Modulus (GPa) = 21.85132 27.74914 24.80023
#
# Velocity S-wave (km/s) = 3.04732 3.43403 3.24644
# Velocity P-wave (km/s) = 4.59811 4.94875 4.77665
#
# Compressibility (1/GPa) = 0.04850715
#
# Stress axis : x y z
#
# Youngs Moduli (GPa) = 57.88158 61.47431 66.18583
#
# Poissons Ratio (x) = 0.08559 -0.04115
# Poissons Ratio (y) = 0.08058 -0.04618
# Poissons Ratio (z) = -0.03599 -0.04289
#
# Static dielectric constant tensor:
#      x y z
#    x 1.851690 0.000000 0.000000 
#    y 0.000000 1.870460 0.000000 
#    z 0.000000 0.000000 1.928500 
# 
# From -- ./inp_files/2836.got.cif
#   From: 2010.05.17/outbox.cif.g08.bks.cpg/sg55_2_cif.got.tgz:2836.got - 2010.06.03 13:27:54.
