data_PCOD9427971
_publ_section_title
;
Structure prediction by ZEFSAII (Michael W. Deem and Ramdas Pophale) SiO2 
 PCOD9427971
Probable space group: P B A M
;
_chemical_formula_sum "Si O2"
_cell_formula_units_Z 44
_cell_length_a 6.980302
_cell_length_b 14.782891
_cell_length_c 15.905400
_cell_angle_alpha 90.000000
_cell_angle_beta 90.000000
_cell_angle_gamma 90.000000
_cell_volume 1641.263014
_symmetry_space_group_name_H-M "P B A M"
_symmetry_group_IT_number 55
_symmetry_cell_setting 'orthorhombic'
loop_
_space_group_symop_operation_xyz
x,y,z
-x,-y,z
1/2+x,1/2-y,-z
1/2-x,1/2+y,-z
-x,-y,-z
x,y,-z
1/2-x,1/2+y,z
1/2+x,1/2-y,z
loop_
_atom_site_type_symbol
_atom_site_label
_atom_site_fract_x
_atom_site_fract_y
_atom_site_fract_z
Si Si1 0.710810 0.616404 0.000000
Si Si2 0.845575 0.329972 0.000000
Si Si3 0.151981 0.669889 0.180786
Si Si4 0.055932 0.170478 0.500000
Si Si5 0.264172 0.419532 0.631571
Si Si6 0.290145 0.381543 0.818643
Si Si7 0.679572 0.876916 0.635154
O O1 0.659483 0.576284 0.909154
O O2 0.942326 0.627942 0.000000
O O3 0.636797 0.720713 0.000000
O O4 0.755333 0.352909 0.909613
O O5 0.134623 0.778338 0.184389
O O6 0.238964 0.638463 0.268434
O O7 0.940989 0.627499 0.179378
O O8 0.220757 0.191466 0.572711
O O9 0.087535 0.868658 0.426302
O O10 0.330521 0.424107 0.728757
O O11 0.238702 0.523386 0.603665
O O12 0.051404 0.375825 0.629771
#
# Coordination Sequence:
#
# PCOD9427971 Si02
#       7
#     4   4   8   4   8   8   8
#     4   8  14  28  49  77 104 140 178 206 253 324
#     4   8  14  28  49  77 104 140 178 206 253 324
#     4   9  18  32  54  79 110 141 175 218 267 317
#     4  12  23  38  62  80 100 144 189 224 271 330
#     4  10  21  37  57  81 107 139 182 226 268 319
#     4   9  18  32  54  79 110 141 175 218 267 317
#     4  10  21  37  57  81 107 139 182 226 268 319
#
# _framework density 26.808624999999999
#
# number of rings (size 3 to 8) (size 9 to 14) (size 15 to 20)
#    0.000    2.545    0.000    2.182    2.545    1.455 
#    0.000    1.818    0.000    5.455    0.000    2.545 
#    0.000    0.000    0.000    0.000    0.000    1.455 
#
# Total GULP energy -245309.362659 kJ/mol
# GULP energy per Si atom -5575.212788 kJ/mol
# Density = 2.674761 g / cm^3
# Si number density = 26.808625 Si / 1000 Ang^3
#
#
#
# Elastic Constant Matrix: (Units=GPa)
#
#
# Indices 1 2 3 4 5 6 
#
# 1 114.8443 18.6190 50.9449 0.0000 0.0000 0.0000
# 2 18.6190 83.7449 32.8171 0.0000 0.0000 0.0000
# 3 50.9449 32.8171 278.7242 0.0000 0.0000 0.0000
# 4 0.0000 0.0000 0.0000 -55.3673 0.0000 0.0000
# 5 0.0000 0.0000 0.0000 0.0000 57.0058 0.0000
# 6 0.0000 0.0000 0.0000 0.0000 0.0000 5.2035
#
#
#
# Elastic Compliance Matrix: (Units=1/GPa)
#
#
# Indices 1 2 3 4 5 6 
#
# 1 0.009658 -0.001526 -0.001586 0.000000 0.000000 0.000000
# 2 -0.001526 0.012760 -0.001223 0.000000 0.000000 0.000000
# 3 -0.001586 -0.001223 0.004022 0.000000 0.000000 0.000000
# 4 0.000000 0.000000 0.000000 -0.018061 0.000000 0.000000
# 5 0.000000 0.000000 0.000000 0.000000 0.017542 0.000000
# 6 0.000000 0.000000 0.000000 0.000000 0.000000 0.192180
#
#
# Mechanical properties :
#
#
# Convention : Reuss Voigt Hill
#
# Bulk Modulus (GPa) = 56.27608 75.78616 66.03112
# Shear Modulus (GPa) = 21.48751 26.36388 23.92570
#
# Velocity S-wave (km/s) = 2.83418 3.13934 2.99065
# Velocity P-wave (km/s) = 5.63448 6.43982 6.05057
#
# Compressibility (1/GPa) = 0.01776954
#
# Stress axis : x y z
#
# Youngs Moduli (GPa) = 103.53863 78.37169 248.65435
#
# Poissons Ratio (x) = 0.11959 0.39428
# Poissons Ratio (y) = 0.15799 0.30421
# Poissons Ratio (z) = 0.16418 0.09588
#
# Static dielectric constant tensor:
#      x y z
#    x 2.104610 0.000000 0.000000 
#    y 0.000000 2.045520 0.000000 
#    z 0.000000 0.000000 2.089210 
# 
# From -- ./inp_files/18596.got.cif
#   From: 2010.05.17/outbox.cif.g08.bks.cpg/sg55_10_cif.got.tgz:18596.got - 2010.06.03 13:27:54.
