data_PCOD9427545
_publ_section_title
;
Structure prediction by ZEFSAII (Michael W. Deem and Ramdas Pophale) SiO2 
 PCOD9427545
Probable space group: P B A M
;
_chemical_formula_sum "Si O2"
_cell_formula_units_Z 56
_cell_length_a 17.530885
_cell_length_b 14.209561
_cell_length_c 11.559368
_cell_angle_alpha 90.000000
_cell_angle_beta 90.000000
_cell_angle_gamma 90.000000
_cell_volume 2879.510003
_symmetry_space_group_name_H-M "P B A M"
_symmetry_group_IT_number 55
_symmetry_cell_setting 'orthorhombic'
loop_
_space_group_symop_operation_xyz
x,y,z
-x,-y,z
1/2+x,1/2-y,-z
1/2-x,1/2+y,-z
-x,-y,-z
x,y,-z
1/2-x,1/2+y,z
1/2+x,1/2-y,z
loop_
_atom_site_type_symbol
_atom_site_label
_atom_site_fract_x
_atom_site_fract_y
_atom_site_fract_z
Si Si1 0.127158 0.905141 0.871905
Si Si2 0.006056 0.103641 0.315236
Si Si3 0.366378 0.882010 0.637231
Si Si4 0.679662 0.900320 0.632099
Si Si5 0.673738 0.393812 0.207589
Si Si6 0.782653 0.694823 0.131056
Si Si7 0.530704 0.810927 0.370769
O O1 0.056556 0.901332 0.786112
O O2 0.192742 0.827326 0.856846
O O3 0.168311 0.006007 0.855600
O O4 0.095504 0.897806 0.000000
O O5 0.982915 0.199688 0.377235
O O6 0.091775 0.117795 0.269388
O O7 0.000000 0.000000 0.372057
O O8 0.354603 0.848047 0.500000
O O9 0.317564 0.843122 0.746466
O O10 0.453188 0.857784 0.672788
O O11 0.350278 0.992754 0.632357
O O12 0.695397 0.869780 0.500000
O O13 0.758083 0.896959 0.700495
O O14 0.611180 0.837813 0.685399
O O15 0.692909 0.303566 0.131026
O O16 0.803283 0.656583 0.000000
O O17 0.538591 0.850738 0.500000
#
# Coordination Sequence:
#
# PCOD9427545 Si02
#       7
#     8   8   8   8   8   8   8
#     4  10  22  40  59  84 118 157 203 250 299 363
#     4  10  22  37  57  83 116 163 205 246 295 361
#     4  10  20  39  65  91 120 160 204 251 308 372
#     4  10  21  37  63  93 121 157 205 255 312 368
#     4  11  21  37  61  86 120 158 202 248 305 361
#     4  11  22  38  63  93 122 157 203 256 308 363
#     4  10  20  38  61  87 121 159 203 253 304 365
#
# _framework density 19.447754
#
# number of rings (size 3 to 8) (size 9 to 14) (size 15 to 20)
#    0.000    1.714    2.857    1.714    0.000    6.286 
#    0.000    2.857    0.000    2.571    0.000    0.000 
#    0.000    0.000    0.000    0.000    0.000    0.000 
#
# Total GULP energy -311775.364061 kJ/mol
# GULP energy per Si atom -5567.417215 kJ/mol
# Density = 1.940349 g / cm^3
# Si number density = 19.447754 Si / 1000 Ang^3
#
#
#
# Elastic Constant Matrix: (Units=GPa)
#
#
# Indices 1 2 3 4 5 6 
#
# 1 124.8706 41.9118 55.9083 0.0000 0.0000 0.0000
# 2 41.9118 74.9367 24.0094 0.0000 0.0000 0.0000
# 3 55.9083 24.0094 107.3327 0.0000 0.0000 0.0000
# 4 0.0000 0.0000 0.0000 9.3373 0.0000 0.0000
# 5 0.0000 0.0000 0.0000 0.0000 10.6883 0.0000
# 6 0.0000 0.0000 0.0000 0.0000 0.0000 33.5791
#
#
#
# Elastic Compliance Matrix: (Units=1/GPa)
#
#
# Indices 1 2 3 4 5 6 
#
# 1 0.012002 -0.005073 -0.005117 0.000000 0.000000 0.000000
# 2 -0.005073 0.016519 -0.001053 0.000000 0.000000 0.000000
# 3 -0.005117 -0.001053 0.012218 0.000000 0.000000 0.000000
# 4 0.000000 0.000000 0.000000 0.107097 0.000000 0.000000
# 5 0.000000 0.000000 0.000000 0.000000 0.093560 0.000000
# 6 0.000000 0.000000 0.000000 0.000000 0.000000 0.029780
#
#
# Mechanical properties :
#
#
# Convention : Reuss Voigt Hill
#
# Bulk Modulus (GPa) = 54.78421 61.19988 57.99205
# Shear Modulus (GPa) = 16.68076 23.07498 19.87787
#
# Velocity S-wave (km/s) = 2.93187 3.44831 3.20052
# Velocity P-wave (km/s) = 6.30018 6.88416 6.59863
#
# Compressibility (1/GPa) = 0.01825343
#
# Stress axis : x y z
#
# Youngs Moduli (GPa) = 83.31884 60.53520 81.84905
#
# Poissons Ratio (x) = 0.30711 0.41881
# Poissons Ratio (y) = 0.42270 0.08615
# Poissons Ratio (z) = 0.42633 0.06372
#
# Static dielectric constant tensor:
#      x y z
#    x 1.679390 0.000000 0.000000 
#    y 0.000000 1.702230 0.000000 
#    z 0.000000 0.000000 1.697370 
# 
# From -- ./inp_files/14209.got.cif
#   From: 2010.05.17/outbox.cif.g08.bks.cpg/sg55_8_cif.got.tgz:14209.got - 2010.06.03 13:27:54.
