data_PCOD9427143
_publ_section_title
;
Structure prediction by ZEFSAII (Michael W. Deem and Ramdas Pophale) SiO2 
 PCOD9427143
Probable space group: P B A M
;
_chemical_formula_sum "Si O2"
_cell_formula_units_Z 48
_cell_length_a 29.346541
_cell_length_b 8.259735
_cell_length_c 7.894859
_cell_angle_alpha 90.000000
_cell_angle_beta 90.000000
_cell_angle_gamma 90.000000
_cell_volume 1913.671599
_symmetry_space_group_name_H-M "P B A M"
_symmetry_group_IT_number 55
_symmetry_cell_setting 'orthorhombic'
loop_
_space_group_symop_operation_xyz
x,y,z
-x,-y,z
1/2+x,1/2-y,-z
1/2-x,1/2+y,-z
-x,-y,-z
x,y,-z
1/2-x,1/2+y,z
1/2+x,1/2-y,z
loop_
_atom_site_type_symbol
_atom_site_label
_atom_site_fract_x
_atom_site_fract_y
_atom_site_fract_z
Si Si1 0.817104 0.719898 0.695758
Si Si2 0.011614 0.240693 0.306653
Si Si3 0.933366 0.456243 0.803379
Si Si4 0.598912 0.411860 0.703141
Si Si5 0.735974 0.904682 0.198347
Si Si6 0.646951 0.743909 0.204743
O O1 0.823034 0.676212 0.500000
O O2 0.865663 0.775976 0.769483
O O3 0.789646 0.575183 0.782746
O O4 0.783188 0.874275 0.708234
O O5 0.998136 0.202879 0.500000
O O6 0.044047 0.400821 0.302561
O O7 0.046872 0.107811 0.236005
O O8 0.967317 0.301460 0.209152
O O9 0.884738 0.394366 0.741567
O O10 0.931727 0.505977 0.000000
O O11 0.596230 0.392252 0.500000
O O12 0.622456 0.581700 0.738989
O O13 0.698390 0.774711 0.260846
O O14 0.745452 0.879833 0.000000
O O15 0.647548 0.745358 0.000000
#
# Coordination Sequence:
#
# PCOD9427143 Si02
#       6
#     8   8   8   8   8   8
#     4  11  23  40  61  87 116 150 189 233 282 336
#     4  10  20  36  57  83 111 145 186 230 278 332
#     4  10  20  36  57  83 111 145 186 230 278 332
#     4  10  23  39  57  82 114 149 188 230 279 333
#     4  11  23  40  61  87 116 150 189 233 282 336
#     4  10  23  39  57  82 114 149 188 230 279 333
#
# _framework density 25.082673
#
# number of rings (size 3 to 8) (size 9 to 14) (size 15 to 20)
#    0.000    1.667    0.000    5.000    0.000    8.667 
#    0.000    3.333    0.000    0.000    0.000    0.000 
#    0.000    0.000    0.000    0.000    0.000    0.000 
#
# Total GULP energy -268655.233759 kJ/mol
# GULP energy per Si atom -5596.984037 kJ/mol
# Density = 2.502558 g / cm^3
# Si number density = 25.082673 Si / 1000 Ang^3
#
#
#
# Elastic Constant Matrix: (Units=GPa)
#
#
# Indices 1 2 3 4 5 6 
#
# 1 108.4244 -7.0330 3.6278 0.0000 0.0000 0.0000
# 2 -7.0330 75.5720 -4.1503 0.0000 0.0000 0.0000
# 3 3.6278 -4.1503 54.7751 0.0000 0.0000 0.0000
# 4 0.0000 0.0000 0.0000 33.7476 0.0000 0.0000
# 5 0.0000 0.0000 0.0000 0.0000 17.0800 0.0000
# 6 0.0000 0.0000 0.0000 0.0000 0.0000 47.2280
#
#
#
# Elastic Compliance Matrix: (Units=1/GPa)
#
#
# Indices 1 2 3 4 5 6 
#
# 1 0.009296 0.000835 -0.000552 0.000000 0.000000 0.000000
# 2 0.000835 0.013363 0.000957 0.000000 0.000000 0.000000
# 3 -0.000552 0.000957 0.018366 0.000000 0.000000 0.000000
# 4 0.000000 0.000000 0.000000 0.029632 0.000000 0.000000
# 5 0.000000 0.000000 0.000000 0.000000 0.058548 0.000000
# 6 0.000000 0.000000 0.000000 0.000000 0.000000 0.021174
#
#
# Mechanical properties :
#
#
# Convention : Reuss Voigt Hill
#
# Bulk Modulus (GPa) = 22.98696 24.85119 23.91907
# Shear Modulus (GPa) = 30.78827 36.03291 33.41059
#
# Velocity S-wave (km/s) = 3.50733 3.79432 3.65364
# Velocity P-wave (km/s) = 5.05828 5.39676 5.23026
#
# Compressibility (1/GPa) = 0.04350293
#
# Stress axis : x y z
#
# Youngs Moduli (GPa) = 107.57727 74.83541 54.44970
#
# Poissons Ratio (x) = -0.06247 0.03008
# Poissons Ratio (y) = -0.08980 -0.05212
# Poissons Ratio (z) = 0.05943 -0.07163
#
# Static dielectric constant tensor:
#      x y z
#    x 1.989830 0.000000 0.000000 
#    y 0.000000 2.069310 0.000000 
#    z 0.000000 0.000000 1.910100 
# 
# From -- ./inp_files/10546.got.cif
#   From: 2010.05.17/outbox.cif.g08.bks.cpg/sg55_6_cif.got.tgz:10546.got - 2010.06.03 13:27:54.
