data_PCOD9427163
_publ_section_title
;
Structure prediction by ZEFSAII (Michael W. Deem and Ramdas Pophale) SiO2 
 PCOD9427163
Probable space group: P B A M
;
_chemical_formula_sum "Si O2"
_cell_formula_units_Z 56
_cell_length_a 11.868860
_cell_length_b 23.029027
_cell_length_c 9.521447
_cell_angle_alpha 90.000000
_cell_angle_beta 90.000000
_cell_angle_gamma 90.000000
_cell_volume 2602.480897
_symmetry_space_group_name_H-M "P B A M"
_symmetry_group_IT_number 55
_symmetry_cell_setting 'orthorhombic'
loop_
_space_group_symop_operation_xyz
x,y,z
-x,-y,z
1/2+x,1/2-y,-z
1/2-x,1/2+y,-z
-x,-y,-z
x,y,-z
1/2-x,1/2+y,z
1/2+x,1/2-y,z
loop_
_atom_site_type_symbol
_atom_site_label
_atom_site_fract_x
_atom_site_fract_y
_atom_site_fract_z
Si Si1 0.906081 0.066305 0.840469
Si Si2 0.008598 0.164787 0.660681
Si Si3 0.728253 0.848261 0.340653
Si Si4 0.794942 0.977513 0.657220
Si Si5 0.572388 0.052953 0.341892
Si Si6 0.655691 0.744708 0.832169
Si Si7 0.177771 0.354878 0.841641
O O1 0.981656 0.103348 0.734037
O O2 0.788929 0.103567 0.847109
O O3 0.875668 0.004128 0.774671
O O4 0.948958 0.064279 0.000000
O O5 0.966147 0.165285 0.500000
O O6 0.945798 0.212304 0.754092
O O7 0.141847 0.172239 0.658703
O O8 0.684134 0.841013 0.500000
O O9 0.736911 0.916437 0.307243
O O10 0.665815 0.808869 0.228734
O O11 0.846209 0.970744 0.500000
O O12 0.695888 0.024784 0.645292
O O13 0.528236 0.063900 0.500000
O O14 0.500000 0.000000 0.277485
O O15 0.588736 0.112130 0.256402
O O16 0.768399 0.706608 0.796846
O O17 0.642667 0.742606 0.000000
O O18 0.133367 0.349238 0.000000
#
# Coordination Sequence:
#
# PCOD9427163 Si02
#       7
#     8   8   8   8   8   8   8
#     4   9  17  31  53  80 108 137 175 218 271 330
#     4  10  20  36  58  81 106 142 188 230 277 335
#     4  10  22  38  56  80 111 148 188 233 281 333
#     4   9  18  34  53  75 109 145 179 224 277 330
#     4   9  17  30  50  77 105 136 175 220 268 320
#     4  10  21  38  58  79 108 143 183 233 282 335
#     4   8  16  31  50  72  98 133 172 213 262 317
#
# _framework density 21.51793
#
# number of rings (size 3 to 8) (size 9 to 14) (size 15 to 20)
#    0.000    2.714    0.000    2.143    0.000    6.571 
#    2.571    2.857    0.000    0.000    0.000    0.000 
#    0.000    0.000    0.000    0.000    0.000    0.000 
#
# Total GULP energy -312616.262680 kJ/mol
# GULP energy per Si atom -5582.433262 kJ/mol
# Density = 2.146895 g / cm^3
# Si number density = 21.517930 Si / 1000 Ang^3
#
#
#
# Elastic Constant Matrix: (Units=GPa)
#
#
# Indices 1 2 3 4 5 6 
#
# 1 24.4749 1.1599 20.6584 0.0000 0.0000 0.0000
# 2 1.1599 106.4847 55.2542 0.0000 0.0000 0.0000
# 3 20.6584 55.2542 98.8447 0.0000 0.0000 0.0000
# 4 0.0000 0.0000 0.0000 29.3320 0.0000 0.0000
# 5 0.0000 0.0000 0.0000 0.0000 11.3452 0.0000
# 6 0.0000 0.0000 0.0000 0.0000 0.0000 28.8031
#
#
#
# Elastic Compliance Matrix: (Units=1/GPa)
#
#
# Indices 1 2 3 4 5 6 
#
# 1 0.053391 0.007337 -0.015260 0.000000 0.000000 0.000000
# 2 0.007337 0.014236 -0.009491 0.000000 0.000000 0.000000
# 3 -0.015260 -0.009491 0.018612 0.000000 0.000000 0.000000
# 4 0.000000 0.000000 0.000000 0.034092 0.000000 0.000000
# 5 0.000000 0.000000 0.000000 0.000000 0.088143 0.000000
# 6 0.000000 0.000000 0.000000 0.000000 0.000000 0.034718
#
#
# Mechanical properties :
#
#
# Convention : Reuss Voigt Hill
#
# Bulk Modulus (GPa) = 19.45159 42.66102 31.05630
# Shear Modulus (GPa) = 16.94008 24.07818 20.50913
#
# Velocity S-wave (km/s) = 2.80885 3.34875 3.09061
# Velocity P-wave (km/s) = 4.42480 5.90093 5.21535
#
# Compressibility (1/GPa) = 0.05140969
#
# Stress axis : x y z
#
# Youngs Moduli (GPa) = 18.72987 70.24406 53.72948
#
# Poissons Ratio (x) = -0.51535 0.81990
# Poissons Ratio (y) = -0.13741 0.50996
# Poissons Ratio (z) = 0.28581 0.66671
#
# Static dielectric constant tensor:
#      x y z
#    x 1.820430 0.000000 0.000000 
#    y 0.000000 1.794070 0.000000 
#    z 0.000000 0.000000 1.765290 
# 
# From -- ./inp_files/6021.got.cif
#   From: 2010.05.17/outbox.cif.g08.bks.cpg/sg55_4_cif.got.tgz:6021.got - 2010.06.03 13:27:54.
