data_PCOD9427368
_publ_section_title
;
Structure prediction by ZEFSAII (Michael W. Deem and Ramdas Pophale) SiO2 
 PCOD9427368
Probable space group: P B A M
;
_chemical_formula_sum "Si O2"
_cell_formula_units_Z 64
_cell_length_a 18.879680
_cell_length_b 15.527833
_cell_length_c 11.145045
_cell_angle_alpha 90.000000
_cell_angle_beta 90.000000
_cell_angle_gamma 90.000000
_cell_volume 3267.287167
_symmetry_space_group_name_H-M "P B A M"
_symmetry_group_IT_number 55
_symmetry_cell_setting 'orthorhombic'
loop_
_space_group_symop_operation_xyz
x,y,z
-x,-y,z
1/2+x,1/2-y,-z
1/2-x,1/2+y,-z
-x,-y,-z
x,y,-z
1/2-x,1/2+y,z
1/2+x,1/2-y,z
loop_
_atom_site_type_symbol
_atom_site_label
_atom_site_fract_x
_atom_site_fract_y
_atom_site_fract_z
Si Si1 0.892739 0.747293 0.275275
Si Si2 0.256427 0.820346 0.136721
Si Si3 0.016565 0.835553 0.134953
Si Si4 0.329029 0.587458 0.368476
Si Si5 0.340332 0.075954 0.365627
Si Si6 0.368615 0.183292 0.132810
Si Si7 0.359651 0.466392 0.854017
Si Si8 0.444567 0.930951 0.638893
O O1 0.826439 0.704451 0.207207
O O2 0.856706 0.814501 0.365930
O O3 0.938544 0.665069 0.314593
O O4 0.947530 0.807945 0.205096
O O5 0.203643 0.738541 0.139869
O O6 0.206805 0.901598 0.170437
O O7 0.277996 0.836011 0.000000
O O8 0.068740 0.753026 0.134246
O O9 0.067640 0.914161 0.171269
O O10 0.993893 0.855220 0.000000
O O11 0.349660 0.549417 0.500000
O O12 0.243875 0.584169 0.362318
O O13 0.353832 0.539961 0.246447
O O14 0.363500 0.106154 0.500000
O O15 0.371157 0.125834 0.251215
O O16 0.368734 0.978641 0.354720
O O17 0.370012 0.139936 0.000000
O O18 0.357903 0.486328 0.000000
O O19 0.464303 0.922486 0.500000
O O20 0.500000 0.000000 0.693680
#
# Coordination Sequence:
#
# PCOD9427368 Si02
#       8
#     8   8   8   8   8   8   8   8
#     4  12  21  36  60  87 119 155 198 248 306 359
#     4   9  18  34  59  88 118 150 197 244 290 356
#     4   9  20  37  59  86 120 155 197 249 300 359
#     4  11  24  39  57  89 124 155 200 256 306 355
#     4  10  20  37  58  85 121 157 199 249 300 356
#     4   9  17  35  59  87 119 155 195 241 294 352
#     4   9  20  41  63  84 115 161 202 242 300 369
#     4  10  22  39  59  82 115 159 203 245 296 362
#
# _framework density 19.588117
#
# number of rings (size 3 to 8) (size 9 to 14) (size 15 to 20)
#    0.000    2.125    1.250    3.750    0.000    2.000 
#    0.000    8.125    0.000    3.375    0.000    0.000 
#    0.000    0.000    0.000    0.000    0.000    0.000 
#
# Total GULP energy -356394.590346 kJ/mol
# GULP energy per Si atom -5568.665474 kJ/mol
# Density = 1.954353 g / cm^3
# Si number density = 19.588117 Si / 1000 Ang^3
#
#
#
# Elastic Constant Matrix: (Units=GPa)
#
#
# Indices 1 2 3 4 5 6 
#
# 1 106.8533 34.1995 34.6625 0.0000 0.0000 0.0000
# 2 34.1995 73.8778 62.2712 0.0000 0.0000 0.0000
# 3 34.6625 62.2712 110.2853 0.0000 0.0000 0.0000
# 4 0.0000 0.0000 0.0000 8.1521 0.0000 0.0000
# 5 0.0000 0.0000 0.0000 0.0000 60.6690 0.0000
# 6 0.0000 0.0000 0.0000 0.0000 0.0000 19.2614
#
#
#
# Elastic Compliance Matrix: (Units=1/GPa)
#
#
# Indices 1 2 3 4 5 6 
#
# 1 0.011058 -0.004178 -0.001117 0.000000 0.000000 0.000000
# 2 -0.004178 0.027407 -0.014162 0.000000 0.000000 0.000000
# 3 -0.001117 -0.014162 0.017415 0.000000 0.000000 0.000000
# 4 0.000000 0.000000 0.000000 0.122667 0.000000 0.000000
# 5 0.000000 0.000000 0.000000 0.000000 0.016483 0.000000
# 6 0.000000 0.000000 0.000000 0.000000 0.000000 0.051917
#
#
# Mechanical properties :
#
#
# Convention : Reuss Voigt Hill
#
# Bulk Modulus (GPa) = 58.93792 61.47586 60.20689
# Shear Modulus (GPa) = 17.15180 28.27539 22.71359
#
# Velocity S-wave (km/s) = 2.96230 3.80346 3.40893
# Velocity P-wave (km/s) = 6.46949 7.12326 6.80423
#
# Compressibility (1/GPa) = 0.01696701
#
# Stress axis : x y z
#
# Youngs Moduli (GPa) = 90.43242 36.48733 57.42303
#
# Poissons Ratio (x) = 0.15244 0.06412
# Poissons Ratio (y) = 0.37781 0.81321
# Poissons Ratio (z) = 0.10097 0.51673
#
# Static dielectric constant tensor:
#      x y z
#    x 1.727240 0.000000 0.000000 
#    y 0.000000 1.693520 0.000000 
#    z 0.000000 0.000000 1.710460 
# 
# From -- ./inp_files/15004.got.cif
#   From: 2010.05.17/outbox.cif.g08.bks.cpg/sg55_8_cif.got.tgz:15004.got - 2010.06.03 13:27:54.
