data_PCOD9427966
_publ_section_title
;
Structure prediction by ZEFSAII (Michael W. Deem and Ramdas Pophale) SiO2 
 PCOD9427966
Probable space group: P B A M
;
_chemical_formula_sum "Si O2"
_cell_formula_units_Z 34
_cell_length_a 25.174515
_cell_length_b 5.002240
_cell_length_c 11.558293
_cell_angle_alpha 90.000000
_cell_angle_beta 90.000000
_cell_angle_gamma 90.000000
_cell_volume 1455.523885
_symmetry_space_group_name_H-M "P B A M"
_symmetry_group_IT_number 55
_symmetry_cell_setting 'orthorhombic'
loop_
_space_group_symop_operation_xyz
x,y,z
-x,-y,z
1/2+x,1/2-y,-z
1/2-x,1/2+y,-z
-x,-y,-z
x,y,-z
1/2-x,1/2+y,z
1/2+x,1/2-y,z
loop_
_atom_site_type_symbol
_atom_site_label
_atom_site_fract_x
_atom_site_fract_y
_atom_site_fract_z
Si Si1 0.214683 0.925641 0.371892
Si Si2 0.464381 0.736900 0.629582
Si Si3 0.595383 0.219172 0.157551
Si Si4 0.162041 0.788070 0.874858
Si Si5 0.000000 0.500000 0.000000
O O1 0.188525 0.876386 0.500000
O O2 0.265947 0.730736 0.371010
O O3 0.187821 0.859780 0.248450
O O4 0.500000 0.500000 0.682070
O O5 0.449959 0.655026 0.500000
O O6 0.413418 0.786087 0.705896
O O7 0.500000 0.000000 0.625665
O O8 0.610599 0.517929 0.122401
O O9 0.541483 0.116952 0.098949
O O10 0.642284 0.016035 0.127376
O O11 0.190360 0.833424 0.000000
#
# Coordination Sequence:
#
# PCOD9427966 Si02
#       5
#     8   8   8   8   2
#     4  10  23  45  73 100 129 168 209 255 328 413
#     4  10  21  37  56  80 111 155 212 265 316 370
#     4  12  25  39  63  88 128 173 223 269 320 368
#     4  12  25  42  62 100 132 163 215 272 321 380
#     4  12  24  42  62  86 124 190 224 268 304 390
#
# _framework density 23.359286999999998
#
# number of rings (size 3 to 8) (size 9 to 14) (size 15 to 20)
#    0.000    0.941    3.529    2.824    0.000    3.765 
#    0.000    0.000    0.000    0.000    0.000    0.000 
#    0.000    0.000    0.000    0.000    0.000    0.000 
#
# Total GULP energy -189325.778521 kJ/mol
# GULP energy per Si atom -5568.405251 kJ/mol
# Density = 2.330612 g / cm^3
# Si number density = 23.359287 Si / 1000 Ang^3
#
#
#
# Elastic Constant Matrix: (Units=GPa)
#
#
# Indices 1 2 3 4 5 6 
#
# 1 24.1154 -4.8920 45.7155 0.0000 0.0000 0.0000
# 2 -4.8920 66.3785 -11.8739 0.0000 0.0000 0.0000
# 3 45.7155 -11.8739 218.5176 0.0000 0.0000 0.0000
# 4 0.0000 0.0000 0.0000 47.5713 0.0000 0.0000
# 5 0.0000 0.0000 0.0000 0.0000 -28.3561 0.0000
# 6 0.0000 0.0000 0.0000 0.0000 0.0000 22.9783
#
#
#
# Elastic Compliance Matrix: (Units=1/GPa)
#
#
# Indices 1 2 3 4 5 6 
#
# 1 0.069141 0.002533 -0.014327 0.000000 0.000000 0.000000
# 2 0.002533 0.015306 0.000302 0.000000 0.000000 0.000000
# 3 -0.014327 0.000302 0.007590 0.000000 0.000000 0.000000
# 4 0.000000 0.000000 0.000000 0.021021 0.000000 0.000000
# 5 0.000000 0.000000 0.000000 0.000000 -0.035266 0.000000
# 6 0.000000 0.000000 0.000000 0.000000 0.000000 0.043519
#
#
# Mechanical properties :
#
#
# Convention : Reuss Voigt Hill
#
# Bulk Modulus (GPa) = 14.48196 40.76787 27.62491
# Shear Modulus (GPa) = 29.88397 27.10949 28.49673
#
# Velocity S-wave (km/s) = 3.58064 3.41037 3.49654
# Velocity P-wave (km/s) = 4.82781 5.74438 5.30592
#
# Compressibility (1/GPa) = 0.06905144
#
# Stress axis : x y z
#
# Youngs Moduli (GPa) = 14.46322 65.33482 131.75159
#
# Poissons Ratio (x) = -0.16547 1.88763
# Poissons Ratio (y) = -0.03663 -0.03977
# Poissons Ratio (z) = 0.20722 -0.01972
#
# Static dielectric constant tensor:
#      x y z
#    x 1.892540 0.000000 0.000000 
#    y 0.000000 1.825310 0.000000 
#    z 0.000000 0.000000 1.999940 
# 
# From -- ./inp_files/15525.got.cif
#   From: 2010.05.17/outbox.cif.g08.bks.cpg/sg55_8_cif.got.tgz:15525.got - 2010.06.03 13:27:54.
