data_PCOD9427128
_publ_section_title
;
Structure prediction by ZEFSAII (Michael W. Deem and Ramdas Pophale) SiO2 
 PCOD9427128
Probable space group: P B A M
;
_chemical_formula_sum "Si O2"
_cell_formula_units_Z 64
_cell_length_a 29.297400
_cell_length_b 14.610480
_cell_length_c 8.379744
_cell_angle_alpha 90.000000
_cell_angle_beta 90.000000
_cell_angle_gamma 90.000000
_cell_volume 3586.941683
_symmetry_space_group_name_H-M "P B A M"
_symmetry_group_IT_number 55
_symmetry_cell_setting 'orthorhombic'
loop_
_space_group_symop_operation_xyz
x,y,z
-x,-y,z
1/2+x,1/2-y,-z
1/2-x,1/2+y,-z
-x,-y,-z
x,y,-z
1/2-x,1/2+y,z
1/2+x,1/2-y,z
loop_
_atom_site_type_symbol
_atom_site_label
_atom_site_fract_x
_atom_site_fract_y
_atom_site_fract_z
Si Si1 0.697991 0.998477 0.307038
Si Si2 0.947986 0.498249 0.307074
Si Si3 0.876676 0.855652 0.693368
Si Si4 0.624968 0.146723 0.694530
Si Si5 0.624321 0.648969 0.691150
Si Si6 0.802014 0.001280 0.305550
Si Si7 0.552462 0.502953 0.808683
Si Si8 0.624997 0.855747 0.189162
O O1 0.698679 0.998851 0.500000
O O2 0.669065 0.087677 0.255455
O O3 0.750010 0.999525 0.249126
O O4 0.668975 0.910406 0.254818
O O5 0.948455 0.497777 0.500000
O O6 0.919063 0.587439 0.256117
O O7 0.919177 0.410480 0.252750
O O8 0.000000 0.500000 0.249996
O O9 0.878105 0.856028 0.500000
O O10 0.875738 0.751112 0.749505
O O11 0.831673 0.912758 0.741961
O O12 0.919806 0.913333 0.753774
O O13 0.625268 0.148628 0.500000
O O14 0.625128 0.653338 0.500000
O O15 0.668517 0.589730 0.744254
O O16 0.580411 0.589808 0.742749
O O17 0.624439 0.750804 0.757902
O O18 0.800940 0.002160 0.500000
O O19 0.500000 0.500000 0.754281
O O20 0.553092 0.507492 0.000000
O O21 0.625392 0.861425 0.000000
#
# Coordination Sequence:
#
# PCOD9427128 Si02
#       8
#     8   8   8   8   8   8   8   8
#     4   9  17  33  54  75 101 134 173 216 258 300
#     4   9  18  34  54  75  99 132 177 222 260 302
#     4   9  17  31  50  74 101 130 169 213 256 302
#     4   8  15  28  48  72  97 125 160 207 253 293
#     4  10  20  36  57  79 102 134 178 222 262 304
#     4   8  16  30  52  78  99 125 168 219 260 297
#     4  10  21  36  52  74 105 137 168 207 258 312
#     4  11  22  35  51  76 110 143 173 209 259 316
#
# _framework density 17.842497999999999
#
# number of rings (size 3 to 8) (size 9 to 14) (size 15 to 20)
#    0.000    2.750    0.000    3.375    0.000    3.250 
#    0.000   10.625    0.000    0.000    0.000    0.000 
#    0.000    0.000    0.000    0.000    0.000    0.000 
#
# Total GULP energy -356887.873262 kJ/mol
# GULP energy per Si atom -5576.373020 kJ/mol
# Density = 1.780189 g / cm^3
# Si number density = 17.842498 Si / 1000 Ang^3
#
#
#
# Elastic Constant Matrix: (Units=GPa)
#
#
# Indices 1 2 3 4 5 6 
#
# 1 198.6109 98.6938 19.0774 0.0000 0.0000 0.0000
# 2 98.6938 179.8033 11.1528 0.0000 0.0000 0.0000
# 3 19.0774 11.1528 16.4517 0.0000 0.0000 0.0000
# 4 0.0000 0.0000 0.0000 5.1826 0.0000 0.0000
# 5 0.0000 0.0000 0.0000 0.0000 -23.0405 0.0000
# 6 0.0000 0.0000 0.0000 0.0000 0.0000 5.2200
#
#
#
# Elastic Compliance Matrix: (Units=1/GPa)
#
#
# Indices 1 2 3 4 5 6 
#
# 1 0.007475 -0.003722 -0.006145 0.000000 0.000000 0.000000
# 2 -0.003722 0.007659 -0.000876 0.000000 0.000000 0.000000
# 3 -0.006145 -0.000876 0.068503 0.000000 0.000000 0.000000
# 4 0.000000 0.000000 0.000000 0.192954 0.000000 0.000000
# 5 0.000000 0.000000 0.000000 0.000000 -0.043402 0.000000
# 6 0.000000 0.000000 0.000000 0.000000 0.000000 0.191572
#
#
# Mechanical properties :
#
#
# Convention : Reuss Voigt Hill
#
# Bulk Modulus (GPa) = 16.08969 72.52378 44.30674
# Shear Modulus (GPa) = 10.70749 15.20186 12.95467
#
# Velocity S-wave (km/s) = 2.45237 2.92208 2.69747
# Velocity P-wave (km/s) = 4.12990 7.21939 5.88114
#
# Compressibility (1/GPa) = 0.06215161
#
# Stress axis : x y z
#
# Youngs Moduli (GPa) = 133.78756 130.56883 14.59781
#
# Poissons Ratio (x) = 0.48593 0.08970
# Poissons Ratio (y) = 0.49791 0.01279
# Poissons Ratio (z) = 0.82206 0.11443
#
# Static dielectric constant tensor:
#      x y z
#    x 1.603190 0.000000 0.000000 
#    y 0.000000 1.587890 0.000000 
#    z 0.000000 0.000000 1.603200 
# 
# From -- ./inp_files/10922.got.cif
#   From: 2010.05.17/outbox.cif.g08.bks.cpg/sg55_6_cif.got.tgz:10922.got - 2010.06.03 13:27:54.
