data_PCOD9427793
_publ_section_title
;
Structure prediction by ZEFSAII (Michael W. Deem and Ramdas Pophale) SiO2 
 PCOD9427793
Probable space group: P B A M
;
_chemical_formula_sum "Si O2"
_cell_formula_units_Z 64
_cell_length_a 23.308228
_cell_length_b 15.988025
_cell_length_c 9.384400
_cell_angle_alpha 90.000000
_cell_angle_beta 90.000000
_cell_angle_gamma 90.000000
_cell_volume 3497.120421
_symmetry_space_group_name_H-M "P B A M"
_symmetry_group_IT_number 55
_symmetry_cell_setting 'orthorhombic'
loop_
_space_group_symop_operation_xyz
x,y,z
-x,-y,z
1/2+x,1/2-y,-z
1/2-x,1/2+y,-z
-x,-y,-z
x,y,-z
1/2-x,1/2+y,z
1/2+x,1/2-y,z
loop_
_atom_site_type_symbol
_atom_site_label
_atom_site_fract_x
_atom_site_fract_y
_atom_site_fract_z
Si Si1 0.935641 0.760710 0.171414
Si Si2 0.645090 0.965460 0.334318
Si Si3 0.992201 0.096347 0.669812
Si Si4 0.948423 0.567201 0.831843
Si Si5 0.756467 0.587406 0.337326
Si Si6 0.318314 0.191065 0.169629
Si Si7 0.137861 0.850027 0.334598
Si Si8 0.302820 0.754876 0.829216
O O1 0.958431 0.665664 0.202446
O O2 0.868072 0.764951 0.213917
O O3 0.970486 0.833987 0.249020
O O4 0.939449 0.771544 0.000000
O O5 0.631403 0.951405 0.500000
O O6 0.646127 0.881769 0.243867
O O7 0.602385 0.032571 0.265914
O O8 0.708924 0.002772 0.322273
O O9 0.005029 0.100758 0.500000
O O10 0.925409 0.117633 0.690663
O O11 0.000000 0.000000 0.715971
O O12 0.000000 0.500000 0.813441
O O13 0.932343 0.565100 0.000000
O O14 0.766116 0.617137 0.500000
O O15 0.688404 0.581975 0.316715
O O16 0.783533 0.656535 0.234944
O O17 0.344856 0.276534 0.228609
O O18 0.250225 0.193406 0.209050
O O19 0.322701 0.185170 0.000000
O O20 0.140895 0.820552 0.500000
O O21 0.303247 0.761014 0.000000
#
# Coordination Sequence:
#
# PCOD9427793 Si02
#       8
#     8   8   8   8   8   8   8   8
#     4  10  21  38  61  86 118 155 195 244 291 340
#     4  11  22  35  55  87 120 150 188 233 284 343
#     4  10  23  41  60  84 114 152 196 240 291 345
#     4  10  22  39  59  85 118 159 198 239 291 348
#     4   9  18  33  55  80 109 144 182 228 280 334
#     4  10  21  35  55  83 114 149 187 230 286 348
#     4   9  19  38  59  80 111 148 189 236 285 339
#     4   9  18  35  56  80 108 143 186 231 282 336
#
# _framework density 18.300771000000001
#
# number of rings (size 3 to 8) (size 9 to 14) (size 15 to 20)
#    0.000    2.250    1.250    0.750    1.750    4.000 
#    0.000    1.250    0.000    0.000    0.000    0.000 
#    0.000    0.000    0.000    0.000    0.000    0.000 
#
# Total GULP energy -356708.774725 kJ/mol
# GULP energy per Si atom -5573.574605 kJ/mol
# Density = 1.825912 g / cm^3
# Si number density = 18.300771 Si / 1000 Ang^3
#
#
#
# Elastic Constant Matrix: (Units=GPa)
#
#
# Indices 1 2 3 4 5 6 
#
# 1 72.3161 45.2671 39.9145 0.0000 0.0000 0.0000
# 2 45.2671 102.9488 47.6212 0.0000 0.0000 0.0000
# 3 39.9145 47.6212 44.9542 0.0000 0.0000 0.0000
# 4 0.0000 0.0000 0.0000 -58.8220 0.0000 0.0000
# 5 0.0000 0.0000 0.0000 0.0000 26.8000 0.0000
# 6 0.0000 0.0000 0.0000 0.0000 0.0000 19.4725
#
#
#
# Elastic Compliance Matrix: (Units=1/GPa)
#
#
# Indices 1 2 3 4 5 6 
#
# 1 0.027243 -0.001549 -0.022548 0.000000 0.000000 0.000000
# 2 -0.001549 0.019135 -0.018895 0.000000 0.000000 0.000000
# 3 -0.022548 -0.018895 0.062281 0.000000 0.000000 0.000000
# 4 0.000000 0.000000 0.000000 -0.017000 0.000000 0.000000
# 5 0.000000 0.000000 0.000000 0.000000 0.037313 0.000000
# 6 0.000000 0.000000 0.000000 0.000000 0.000000 0.051355
#
#
# Mechanical properties :
#
#
# Convention : Reuss Voigt Hill
#
# Bulk Modulus (GPa) = 44.10107 53.98052 49.04079
# Shear Modulus (GPa) = 18.25689 3.31785 10.78737
#
# Velocity S-wave (km/s) = 3.16191 1.34792 2.43049
# Velocity P-wave (km/s) = 6.12213 5.65534 5.89336
#
# Compressibility (1/GPa) = 0.02267519
#
# Stress axis : x y z
#
# Youngs Moduli (GPa) = 36.70658 52.26084 16.05617
#
# Poissons Ratio (x) = 0.08093 0.36204
# Poissons Ratio (y) = 0.05685 0.30338
# Poissons Ratio (z) = 0.82767 0.98747
#
# Static dielectric constant tensor:
#      x y z
#    x 1.650250 0.000000 0.000000 
#    y 0.000000 1.627160 0.000000 
#    z 0.000000 0.000000 1.616230 
# 
# From -- ./inp_files/9799.got.cif
#   From: 2010.05.17/outbox.cif.g08.bks.cpg/sg55_5_cif.got.tgz:9799.got - 2010.06.03 13:27:54.
