data_PCOD9427979
_publ_section_title
;
Structure prediction by ZEFSAII (Michael W. Deem and Ramdas Pophale) SiO2 
 PCOD9427979
Probable space group: P B A M
;
_chemical_formula_sum "Si O2"
_cell_formula_units_Z 40
_cell_length_a 19.436765
_cell_length_b 5.220007
_cell_length_c 18.066084
_cell_angle_alpha 90.000000
_cell_angle_beta 90.000000
_cell_angle_gamma 90.000000
_cell_volume 1832.985774
_symmetry_space_group_name_H-M "P B A M"
_symmetry_group_IT_number 55
_symmetry_cell_setting 'orthorhombic'
loop_
_space_group_symop_operation_xyz
x,y,z
-x,-y,z
1/2+x,1/2-y,-z
1/2-x,1/2+y,-z
-x,-y,-z
x,y,-z
1/2-x,1/2+y,z
1/2+x,1/2-y,z
loop_
_atom_site_type_symbol
_atom_site_label
_atom_site_fract_x
_atom_site_fract_y
_atom_site_fract_z
Si Si1 0.424725 0.980521 0.586541
Si Si2 0.417949 0.488296 0.176093
Si Si3 0.787720 0.918623 0.733594
Si Si4 0.082911 0.488567 0.916911
Si Si5 0.339832 0.465558 0.585451
O O1 0.432084 0.056106 0.500000
O O2 0.396641 0.692896 0.587293
O O3 0.500000 0.000000 0.622206
O O4 0.372177 0.197469 0.613491
O O5 0.500000 0.500000 0.193516
O O6 0.366873 0.543868 0.243428
O O7 0.402215 0.711117 0.116642
O O8 0.399567 0.216555 0.139277
O O9 0.742097 0.153105 0.761803
O O10 0.785082 0.937141 0.644524
O O11 0.000000 0.500000 0.922265
O O12 0.110722 0.523886 0.000000
O O13 0.315581 0.442286 0.500000
#
# Coordination Sequence:
#
# PCOD9427979 Si02
#       5
#     8   8   8   8   8
#     4   9  17  31  53  82 114 143 177 236 309 364
#     4  10  21  38  62  92 123 159 202 242 288 354
#     4  12  26  43  61  84 121 164 200 248 311 361
#     4   9  17  33  62  97 126 153 194 247 291 334
#     4  10  21  37  57  82 110 150 207 257 299 355
#
# _framework density 21.822320000000001
#
# number of rings (size 3 to 8) (size 9 to 14) (size 15 to 20)
#    0.000    2.000    0.000    3.600    0.000    7.200 
#    0.000    2.000    0.000   12.000    0.000    0.000 
#    0.000    0.000    0.000    0.000    0.000    0.000 
#
# Total GULP energy -223343.791883 kJ/mol
# GULP energy per Si atom -5583.594797 kJ/mol
# Density = 2.177265 g / cm^3
# Si number density = 21.822320 Si / 1000 Ang^3
#
#
#
# Elastic Constant Matrix: (Units=GPa)
#
#
# Indices 1 2 3 4 5 6 
#
# 1 69.1973 17.1743 16.5501 0.0000 0.0000 0.0000
# 2 17.1743 71.9331 -3.2230 0.0000 0.0000 0.0000
# 3 16.5501 -3.2230 52.7140 0.0000 0.0000 0.0000
# 4 0.0000 0.0000 0.0000 10.1261 0.0000 0.0000
# 5 0.0000 0.0000 0.0000 0.0000 5.4939 0.0000
# 6 0.0000 0.0000 0.0000 0.0000 0.0000 26.6120
#
#
#
# Elastic Compliance Matrix: (Units=1/GPa)
#
#
# Indices 1 2 3 4 5 6 
#
# 1 0.016838 -0.004269 -0.005547 0.000000 0.000000 0.000000
# 2 -0.004269 0.015022 0.002259 0.000000 0.000000 0.000000
# 3 -0.005547 0.002259 0.020850 0.000000 0.000000 0.000000
# 4 0.000000 0.000000 0.000000 0.098755 0.000000 0.000000
# 5 0.000000 0.000000 0.000000 0.000000 0.182019 0.000000
# 6 0.000000 0.000000 0.000000 0.000000 0.000000 0.037577
#
#
# Mechanical properties :
#
#
# Convention : Reuss Voigt Hill
#
# Bulk Modulus (GPa) = 26.59912 28.31635 27.45773
# Shear Modulus (GPa) = 12.54053 19.33592 15.93822
#
# Velocity S-wave (km/s) = 2.39982 2.97991 2.70546
# Velocity P-wave (km/s) = 4.46030 4.98436 4.72959
#
# Compressibility (1/GPa) = 0.03759523
#
# Stress axis : x y z
#
# Youngs Moduli (GPa) = 59.39074 66.56833 47.96156
#
# Poissons Ratio (x) = 0.28415 0.26606
# Poissons Ratio (y) = 0.25352 -0.10833
# Poissons Ratio (z) = 0.32946 -0.15035
#
# Static dielectric constant tensor:
#      x y z
#    x 1.820510 0.000000 0.000000 
#    y 0.000000 1.811740 0.000000 
#    z 0.000000 0.000000 1.830420 
# 
# From -- ./inp_files/21702.got.cif
#   From: 2010.05.17/outbox.cif.g08.bks.cpg/sg55_11_cif.got.tgz:21702.got - 2010.06.03 13:27:54.
