data_PCOD9427693
_publ_section_title
;
Structure prediction by ZEFSAII (Michael W. Deem and Ramdas Pophale) SiO2 
 PCOD9427693
Probable space group: P B A M
;
_chemical_formula_sum "Si O2"
_cell_formula_units_Z 40
_cell_length_a 8.880169
_cell_length_b 19.370607
_cell_length_c 8.472595
_cell_angle_alpha 90.000000
_cell_angle_beta 90.000000
_cell_angle_gamma 90.000000
_cell_volume 1457.407191
_symmetry_space_group_name_H-M "P B A M"
_symmetry_group_IT_number 55
_symmetry_cell_setting 'orthorhombic'
loop_
_space_group_symop_operation_xyz
x,y,z
-x,-y,z
1/2+x,1/2-y,-z
1/2-x,1/2+y,-z
-x,-y,-z
x,y,-z
1/2-x,1/2+y,z
1/2+x,1/2-y,z
loop_
_atom_site_type_symbol
_atom_site_label
_atom_site_fract_x
_atom_site_fract_y
_atom_site_fract_z
Si Si1 0.964295 0.817373 0.813774
Si Si2 0.246184 0.967253 0.000000
Si Si3 0.059908 0.608762 0.000000
Si Si4 0.700425 0.189897 0.679549
Si Si5 0.313971 0.114395 0.675259
Si Si6 0.237479 0.959948 0.332103
O O1 0.883076 0.743672 0.789916
O O2 0.860809 0.869654 0.713515
O O3 0.127642 0.812686 0.736906
O O4 0.970354 0.833947 0.000000
O O5 0.157394 0.959590 0.162507
O O6 0.384819 0.912309 0.000000
O O7 0.335378 0.039691 0.000000
O O8 0.108639 0.642954 0.165110
O O9 0.688389 0.215722 0.500000
O O10 0.659264 0.108493 0.671994
O O11 0.353007 0.141852 0.500000
O O12 0.328720 0.031452 0.668331
O O13 0.154451 0.956557 0.500000
#
# Coordination Sequence:
#
# PCOD9427693 Si02
#       6
#     8   4   4   8   8   8
#     4  12  26  45  69 102 137 180 230 279 338 408
#     4   9  18  32  58  83 136 171 215 267 334 387
#     4   9  18  34  52  93 126 177 217 267 324 405
#     4  11  25  47  70  98 135 181 228 280 342 405
#     4  10  20  40  65  95 133 172 219 280 337 399
#     4   9  21  39  65  97 129 170 223 277 339 403
#
# _framework density 27.446002
#
# number of rings (size 3 to 8) (size 9 to 14) (size 15 to 20)
#    0.000    1.800    1.000    2.400    2.800    3.200 
#    0.000   10.000    0.000    0.000    0.000    0.000 
#    0.000    0.000    0.000    0.000    0.000    0.000 
#
# Total GULP energy -223857.817908 kJ/mol
# GULP energy per Si atom -5596.445448 kJ/mol
# Density = 2.738353 g / cm^3
# Si number density = 27.446002 Si / 1000 Ang^3
#
#
#
# Elastic Constant Matrix: (Units=GPa)
#
#
# Indices 1 2 3 4 5 6 
#
# 1 116.6290 23.7545 35.7797 0.0000 0.0000 0.0000
# 2 23.7545 122.6424 -3.1905 0.0000 0.0000 0.0000
# 3 35.7797 -3.1905 324.4612 0.0000 0.0000 0.0000
# 4 0.0000 0.0000 0.0000 24.6761 0.0000 0.0000
# 5 0.0000 0.0000 0.0000 0.0000 26.6260 0.0000
# 6 0.0000 0.0000 0.0000 0.0000 0.0000 34.6566
#
#
#
# Elastic Compliance Matrix: (Units=1/GPa)
#
#
# Indices 1 2 3 4 5 6 
#
# 1 0.009264 -0.001821 -0.001039 0.000000 0.000000 0.000000
# 2 -0.001821 0.008514 0.000285 0.000000 0.000000 0.000000
# 3 -0.001039 0.000285 0.003199 0.000000 0.000000 0.000000
# 4 0.000000 0.000000 0.000000 0.040525 0.000000 0.000000
# 5 0.000000 0.000000 0.000000 0.000000 0.037557 0.000000
# 6 0.000000 0.000000 0.000000 0.000000 0.000000 0.028855
#
#
# Mechanical properties :
#
#
# Convention : Reuss Voigt Hill
#
# Bulk Modulus (GPa) = 63.19168 75.15778 69.17473
# Shear Modulus (GPa) = 36.14232 51.01766 43.57999
#
# Velocity S-wave (km/s) = 3.63278 4.31610 3.98910
# Velocity P-wave (km/s) = 6.37731 7.23060 6.81732
#
# Compressibility (1/GPa) = 0.01582487
#
# Stress axis : x y z
#
# Youngs Moduli (GPa) = 107.94395 117.45394 312.55261
#
# Poissons Ratio (x) = 0.21393 0.32490
# Poissons Ratio (y) = 0.19661 -0.08894
# Poissons Ratio (z) = 0.11221 -0.03342
#
# Static dielectric constant tensor:
#      x y z
#    x 2.098590 0.000000 0.000000 
#    y 0.000000 2.163750 0.000000 
#    z 0.000000 0.000000 2.150950 
# 
# From -- ./inp_files/2405.got.cif
#   From: 2010.05.17/outbox.cif.g08.bks.cpg/sg55_2_cif.got.tgz:2405.got - 2010.06.03 13:27:54.
