data_PCOD9427995
_publ_section_title
;
Structure prediction by ZEFSAII (Michael W. Deem and Ramdas Pophale) SiO2 
 PCOD9427995
Probable space group: P B A M
;
_chemical_formula_sum "Si O2"
_cell_formula_units_Z 56
_cell_length_a 20.700726
_cell_length_b 16.551980
_cell_length_c 8.715341
_cell_angle_alpha 90.000000
_cell_angle_beta 90.000000
_cell_angle_gamma 90.000000
_cell_volume 2986.207033
_symmetry_space_group_name_H-M "P B A M"
_symmetry_group_IT_number 55
_symmetry_cell_setting 'orthorhombic'
loop_
_space_group_symop_operation_xyz
x,y,z
-x,-y,z
1/2+x,1/2-y,-z
1/2-x,1/2+y,-z
-x,-y,-z
x,y,-z
1/2-x,1/2+y,z
1/2+x,1/2-y,z
loop_
_atom_site_type_symbol
_atom_site_label
_atom_site_fract_x
_atom_site_fract_y
_atom_site_fract_z
Si Si1 0.032502 0.251993 0.314774
Si Si2 0.815861 0.997136 0.816422
Si Si3 0.604420 0.819252 0.684959
Si Si4 0.655639 0.156883 0.816045
Si Si5 0.698961 0.684737 0.184034
Si Si6 0.323591 0.019729 0.315717
Si Si7 0.948147 0.932599 0.314923
O O1 0.035874 0.257140 0.500000
O O2 0.096506 0.291605 0.246546
O O3 0.029157 0.157392 0.273515
O O4 0.967795 0.297771 0.262350
O O5 0.820915 0.092659 0.776800
O O6 0.749504 0.966180 0.741896
O O7 0.878753 0.951683 0.756767
O O8 0.810538 0.990803 0.000000
O O9 0.603645 0.819018 0.500000
O O10 0.653220 0.749978 0.739376
O O11 0.631072 0.906321 0.734588
O O12 0.725734 0.192863 0.770676
O O13 0.653947 0.065788 0.752082
O O14 0.654134 0.153822 0.000000
O O15 0.694837 0.693028 0.000000
O O16 0.323921 0.015040 0.500000
O O17 0.942648 0.936764 0.500000
O O18 0.000000 0.000000 0.265856
#
# Coordination Sequence:
#
# PCOD9427995 Si02
#       7
#     8   8   8   8   8   8   8
#     4  10  22  39  58  84 117 154 194 240 293 348
#     4  10  21  37  57  84 117 152 192 238 290 350
#     4  10  22  38  59  86 114 148 194 241 291 346
#     4  10  22  40  59  85 117 153 195 239 293 351
#     4   9  20  37  57  82 114 150 189 234 286 344
#     4  10  21  38  60  86 113 148 194 243 294 345
#     4  10  21  37  59  86 118 155 197 242 292 351
#
# _framework density 18.752886
#
# number of rings (size 3 to 8) (size 9 to 14) (size 15 to 20)
#    0.000    2.143    0.000    3.000    2.000    7.714 
#    0.000    2.857    0.000    0.000    0.000    0.000 
#    0.000    0.000    0.000    0.000    0.000    0.000 
#
# Total GULP energy -312805.476223 kJ/mol
# GULP energy per Si atom -5585.812075 kJ/mol
# Density = 1.871020 g / cm^3
# Si number density = 18.752886 Si / 1000 Ang^3
#
#
#
# Elastic Constant Matrix: (Units=GPa)
#
#
# Indices 1 2 3 4 5 6 
#
# 1 83.4186 30.5772 13.8242 0.0000 0.0000 0.0000
# 2 30.5772 32.7373 12.5548 0.0000 0.0000 0.0000
# 3 13.8242 12.5548 13.0924 0.0000 0.0000 0.0000
# 4 0.0000 0.0000 0.0000 22.0536 0.0000 0.0000
# 5 0.0000 0.0000 0.0000 0.0000 -0.6100 0.0000
# 6 0.0000 0.0000 0.0000 0.0000 0.0000 35.1499
#
#
#
# Elastic Compliance Matrix: (Units=1/GPa)
#
#
# Indices 1 2 3 4 5 6 
#
# 1 0.018407 -0.015403 -0.004665 0.000000 0.000000 0.000000
# 2 -0.015403 0.061204 -0.042427 0.000000 0.000000 0.000000
# 3 -0.004665 -0.042427 0.121991 0.000000 0.000000 0.000000
# 4 0.000000 0.000000 0.000000 0.045344 0.000000 0.000000
# 5 0.000000 0.000000 0.000000 0.000000 -1.639221 0.000000
# 6 0.000000 0.000000 0.000000 0.000000 0.000000 0.028450
#
#
# Mechanical properties :
#
#
# Convention : Reuss Voigt Hill
#
# Bulk Modulus (GPa) = 13.05283 27.01786 20.03534
# Shear Modulus (GPa) = -4.12100 16.13815 6.00858
#
# Velocity S-wave (km/s) = -1.48401 2.93673 1.79194
# Velocity P-wave (km/s) = 2.00976 5.09291 3.87149
#
# Compressibility (1/GPa) = 0.07661174
#
# Stress axis : x y z
#
# Youngs Moduli (GPa) = 54.32737 16.33883 8.19734
#
# Poissons Ratio (x) = 0.25167 0.03824
# Poissons Ratio (y) = 0.83683 0.34779
# Poissons Ratio (z) = 0.25343 0.69320
#
# Static dielectric constant tensor:
#      x y z
#    x 1.624290 0.000000 0.000000 
#    y 0.000000 1.634920 0.000000 
#    z 0.000000 0.000000 1.629920 
# 
# From -- ./inp_files/8718.got.cif
#   From: 2010.05.17/outbox.cif.g08.bks.cpg/sg55_5_cif.got.tgz:8718.got - 2010.06.03 13:27:54.
