data_PCOD9427685
_publ_section_title
;
Structure prediction by ZEFSAII (Michael W. Deem and Ramdas Pophale) SiO2 
 PCOD9427685
Probable space group: P B A M
;
_chemical_formula_sum "Si O2"
_cell_formula_units_Z 56
_cell_length_a 10.688378
_cell_length_b 14.933081
_cell_length_c 17.734838
_cell_angle_alpha 90.000000
_cell_angle_beta 90.000000
_cell_angle_gamma 90.000000
_cell_volume 2830.664843
_symmetry_space_group_name_H-M "P B A M"
_symmetry_group_IT_number 55
_symmetry_cell_setting 'orthorhombic'
loop_
_space_group_symop_operation_xyz
x,y,z
-x,-y,z
1/2+x,1/2-y,-z
1/2-x,1/2+y,-z
-x,-y,-z
x,y,-z
1/2-x,1/2+y,z
1/2+x,1/2-y,z
loop_
_atom_site_type_symbol
_atom_site_label
_atom_site_fract_x
_atom_site_fract_y
_atom_site_fract_z
Si Si1 0.203418 0.327354 0.350093
Si Si2 0.532714 0.604212 0.917387
Si Si3 0.733729 0.692959 0.176584
Si Si4 0.351079 0.015777 0.585790
Si Si5 0.874215 0.547198 0.910784
Si Si6 0.577431 0.793244 0.409825
Si Si7 0.251711 0.637765 0.915698
O O1 0.228212 0.307311 0.262842
O O2 0.201807 0.434041 0.366211
O O3 0.323285 0.284964 0.392831
O O4 0.063978 0.291932 0.375211
O O5 0.500000 0.500000 0.914457
O O6 0.612373 0.635966 0.847074
O O7 0.399817 0.652263 0.917970
O O8 0.595838 0.620637 0.000000
O O9 0.839779 0.638035 0.130848
O O10 0.704948 0.791407 0.144550
O O11 0.300359 0.011894 0.500000
O O12 0.348002 0.116751 0.616202
O O13 0.500000 0.000000 0.580816
O O14 0.774696 0.466640 0.899959
O O15 0.000000 0.500000 0.882858
O O16 0.886474 0.564264 0.000000
O O17 0.559289 0.801397 0.500000
O O18 0.199293 0.654894 0.000000
#
# Coordination Sequence:
#
# PCOD9427685 Si02
#       7
#     8   8   8   8   8   8   8
#     4  11  24  37  63  96 128 162 199 255 319 375
#     4  10  20  40  64  81 110 163 219 254 295 359
#     4  12  25  37  58  88 129 157 195 255 321 368
#     4   8  16  36  64  88 113 156 206 242 288 367
#     4  10  22  40  60  85 117 160 214 265 304 353
#     4  10  21  43  69  92 122 163 210 252 296 373
#     4  10  22  38  60  84 113 165 216 253 296 360
#
# _framework density 19.783339000000002
#
# number of rings (size 3 to 8) (size 9 to 14) (size 15 to 20)
#    0.000    1.857    1.429    3.429    4.000    2.857 
#    0.000    0.714    0.000    2.571    0.000    0.000 
#    0.000    0.000    0.000    0.000    0.000    0.000 
#
# Total GULP energy -312141.253901 kJ/mol
# GULP energy per Si atom -5573.950963 kJ/mol
# Density = 1.973831 g / cm^3
# Si number density = 19.783339 Si / 1000 Ang^3
#
#
#
# Elastic Constant Matrix: (Units=GPa)
#
#
# Indices 1 2 3 4 5 6 
#
# 1 83.6431 9.9360 25.0189 0.0000 0.0000 0.0000
# 2 9.9360 61.4752 36.4581 0.0000 0.0000 0.0000
# 3 25.0189 36.4581 91.2978 0.0000 0.0000 0.0000
# 4 0.0000 0.0000 0.0000 -23.0347 0.0000 0.0000
# 5 0.0000 0.0000 0.0000 0.0000 36.4727 0.0000
# 6 0.0000 0.0000 0.0000 0.0000 0.0000 28.3044
#
#
#
# Elastic Compliance Matrix: (Units=1/GPa)
#
#
# Indices 1 2 3 4 5 6 
#
# 1 0.013023 0.000015 -0.003575 0.000000 0.000000 0.000000
# 2 0.000015 0.021315 -0.008516 0.000000 0.000000 0.000000
# 3 -0.003575 -0.008516 0.015333 0.000000 0.000000 0.000000
# 4 0.000000 0.000000 0.000000 -0.043413 0.000000 0.000000
# 5 0.000000 0.000000 0.000000 0.000000 0.027418 0.000000
# 6 0.000000 0.000000 0.000000 0.000000 0.000000 0.035330
#
#
# Mechanical properties :
#
#
# Convention : Reuss Voigt Hill
#
# Bulk Modulus (GPa) = 39.18458 42.13801 40.66129
# Shear Modulus (GPa) = 49.18177 19.34869 34.26523
#
# Velocity S-wave (km/s) = 4.99141 3.13074 4.16627
# Velocity P-wave (km/s) = 7.28483 5.86640 6.61375
#
# Compressibility (1/GPa) = 0.02552025
#
# Stress axis : x y z
#
# Youngs Moduli (GPa) = 76.78692 46.91627 65.21701
#
# Poissons Ratio (x) = -0.00071 0.23314
# Poissons Ratio (y) = -0.00117 0.55537
# Poissons Ratio (z) = 0.27450 0.39953
#
# Static dielectric constant tensor:
#      x y z
#    x 1.754200 0.000000 0.000000 
#    y 0.000000 1.743330 0.000000 
#    z 0.000000 0.000000 1.689860 
# 
# From -- ./inp_files/18421.got.cif
#   From: 2010.05.17/outbox.cif.g08.bks.cpg/sg55_10_cif.got.tgz:18421.got - 2010.06.03 13:27:54.
