data_PCOD9427268
_publ_section_title
;
Structure prediction by ZEFSAII (Michael W. Deem and Ramdas Pophale) SiO2 
 PCOD9427268
Probable space group: P B A M
;
_chemical_formula_sum "Si O2"
_cell_formula_units_Z 56
_cell_length_a 16.578016
_cell_length_b 19.726676
_cell_length_c 9.070346
_cell_angle_alpha 90.000000
_cell_angle_beta 90.000000
_cell_angle_gamma 90.000000
_cell_volume 2966.267546
_symmetry_space_group_name_H-M "P B A M"
_symmetry_group_IT_number 55
_symmetry_cell_setting 'orthorhombic'
loop_
_space_group_symop_operation_xyz
x,y,z
-x,-y,z
1/2+x,1/2-y,-z
1/2-x,1/2+y,-z
-x,-y,-z
x,y,-z
1/2-x,1/2+y,z
1/2+x,1/2-y,z
loop_
_atom_site_type_symbol
_atom_site_label
_atom_site_fract_x
_atom_site_fract_y
_atom_site_fract_z
Si Si1 0.339340 0.653360 0.826000
Si Si2 0.924027 0.451295 0.175367
Si Si3 0.991728 0.167752 0.675240
Si Si4 0.242319 0.535431 0.674722
Si Si5 0.824309 0.686679 0.174526
Si Si6 0.994879 0.672766 0.325110
Si Si7 0.820334 0.106530 0.675858
O O1 0.429695 0.644721 0.763730
O O2 0.279799 0.603307 0.741884
O O3 0.317262 0.732319 0.802508
O O4 0.336706 0.639738 0.000000
O O5 0.843042 0.478998 0.248853
O O6 0.945267 0.378605 0.244963
O O7 0.000000 0.500000 0.205160
O O8 0.913631 0.445885 0.000000
O O9 0.006099 0.157669 0.500000
O O10 0.981830 0.248596 0.699030
O O11 0.910210 0.129201 0.717590
O O12 0.230792 0.542497 0.500000
O O13 0.302030 0.472414 0.701624
O O14 0.746803 0.649269 0.238614
O O15 0.905541 0.663694 0.257684
O O16 0.833358 0.673930 0.000000
O O17 0.993889 0.659868 0.500000
O O18 0.811418 0.119288 0.500000
#
# Coordination Sequence:
#
# PCOD9427268 Si02
#       7
#     8   8   8   8   8   8   8
#     4  10  22  40  60  87 120 156 198 245 298 355
#     4  11  24  40  59  85 122 160 195 244 300 358
#     4   9  20  39  61  87 116 151 195 244 297 350
#     4  11  24  40  60  86 118 159 201 246 296 353
#     4  10  21  37  59  87 119 156 194 242 300 352
#     4  10  20  36  60  88 115 151 196 242 292 354
#     4  10  22  39  60  87 118 153 198 247 296 354
#
# _framework density 18.878944000000001
#
# number of rings (size 3 to 8) (size 9 to 14) (size 15 to 20)
#    0.000    1.857    0.000    3.000    2.000    8.000 
#    0.000    2.857    0.000    0.000    0.000    0.000 
#    0.000    0.000    0.000    0.000    0.000    0.000 
#
# Total GULP energy -313025.626695 kJ/mol
# GULP energy per Si atom -5589.743334 kJ/mol
# Density = 1.883598 g / cm^3
# Si number density = 18.878944 Si / 1000 Ang^3
#
#
#
# Elastic Constant Matrix: (Units=GPa)
#
#
# Indices 1 2 3 4 5 6 
#
# 1 29.4169 13.5299 16.3122 0.0000 0.0000 0.0000
# 2 13.5299 35.2861 33.4507 0.0000 0.0000 0.0000
# 3 16.3122 33.4507 48.8856 0.0000 0.0000 0.0000
# 4 0.0000 0.0000 0.0000 16.4051 0.0000 0.0000
# 5 0.0000 0.0000 0.0000 0.0000 66.0170 0.0000
# 6 0.0000 0.0000 0.0000 0.0000 0.0000 29.7795
#
#
#
# Elastic Compliance Matrix: (Units=1/GPa)
#
#
# Indices 1 2 3 4 5 6 
#
# 1 0.042514 -0.008121 -0.008629 0.000000 0.000000 0.000000
# 2 -0.008121 0.082216 -0.053548 0.000000 0.000000 0.000000
# 3 -0.008629 -0.053548 0.059976 0.000000 0.000000 0.000000
# 4 0.000000 0.000000 0.000000 0.060957 0.000000 0.000000
# 5 0.000000 0.000000 0.000000 0.000000 0.015148 0.000000
# 6 0.000000 0.000000 0.000000 0.000000 0.000000 0.033580
#
#
# Mechanical properties :
#
#
# Convention : Reuss Voigt Hill
#
# Bulk Modulus (GPa) = 22.67036 26.68605 24.67820
# Shear Modulus (GPa) = 11.11873 25.79338 18.45605
#
# Velocity S-wave (km/s) = 2.42946 3.70029 3.13005
# Velocity P-wave (km/s) = 4.46140 5.69405 5.11499
#
# Compressibility (1/GPa) = 0.04411045
#
# Stress axis : x y z
#
# Youngs Moduli (GPa) = 23.52150 12.16304 16.67320
#
# Poissons Ratio (x) = 0.09878 0.14388
# Poissons Ratio (y) = 0.19102 0.89282
# Poissons Ratio (z) = 0.20298 0.65131
#
# Static dielectric constant tensor:
#      x y z
#    x 1.621850 0.000000 0.000000 
#    y 0.000000 1.646420 0.000000 
#    z 0.000000 0.000000 1.626650 
# 
# From -- ./inp_files/6000.got.cif
#   From: 2010.05.17/outbox.cif.g08.bks.cpg/sg55_3_cif.got.tgz:6000.got - 2010.06.03 13:27:54.
