data_PCOD9427817
_publ_section_title
;
Structure prediction by ZEFSAII (Michael W. Deem and Ramdas Pophale) SiO2 
 PCOD9427817
Probable space group: P B A M
;
_chemical_formula_sum "Si O2"
_cell_formula_units_Z 48
_cell_length_a 23.489126
_cell_length_b 12.279449
_cell_length_c 7.874458
_cell_angle_alpha 90.000000
_cell_angle_beta 90.000000
_cell_angle_gamma 90.000000
_cell_volume 2271.257677
_symmetry_space_group_name_H-M "P B A M"
_symmetry_group_IT_number 55
_symmetry_cell_setting 'orthorhombic'
loop_
_space_group_symop_operation_xyz
x,y,z
-x,-y,z
1/2+x,1/2-y,-z
1/2-x,1/2+y,-z
-x,-y,-z
x,y,-z
1/2-x,1/2+y,z
1/2+x,1/2-y,z
loop_
_atom_site_type_symbol
_atom_site_label
_atom_site_fract_x
_atom_site_fract_y
_atom_site_fract_z
Si Si1 0.147330 0.181357 0.793587
Si Si2 0.935542 0.010757 0.702214
Si Si3 0.273696 0.118673 0.203276
Si Si4 0.622132 0.728489 0.302477
Si Si5 0.841501 0.577519 0.805113
Si Si6 0.451435 0.075822 0.194857
O O1 0.210646 0.146186 0.738387
O O2 0.142296 0.305937 0.732522
O O3 0.099684 0.099290 0.729077
O O4 0.143890 0.178113 0.000000
O O5 0.940822 0.030902 0.500000
O O6 0.899151 0.113537 0.772286
O O7 0.000000 0.000000 0.770448
O O8 0.321304 0.212087 0.232033
O O9 0.295078 0.002695 0.276099
O O10 0.271098 0.106394 0.000000
O O11 0.634284 0.712994 0.500000
O O12 0.570067 0.814095 0.280811
O O13 0.896662 0.501730 0.812292
O O14 0.822729 0.600518 0.000000
O O15 0.500000 0.000000 0.273764
O O16 0.468772 0.102881 0.000000
#
# Coordination Sequence:
#
# PCOD9427817 Si02
#       6
#     8   8   8   8   8   8
#     4  10  21  35  60  88 110 143 188 235 280 339
#     4  10  24  43  57  77 117 160 194 234 287 337
#     4   9  19  36  59  85 115 145 177 233 295 338
#     4  10  21  37  57  81 111 148 191 234 276 336
#     4   8  16  32  50  79 113 136 173 225 278 332
#     4   9  18  33  56  81 111 146 178 227 285 329
#
# _framework density 21.133664
#
# number of rings (size 3 to 8) (size 9 to 14) (size 15 to 20)
#    0.000    2.667    0.000    1.500    4.667    2.667 
#    0.000    3.333    0.000    0.000    0.000    0.000 
#    0.000    0.000    0.000    0.000    0.000    0.000 
#
# Total GULP energy -267566.176059 kJ/mol
# GULP energy per Si atom -5574.295335 kJ/mol
# Density = 2.108556 g / cm^3
# Si number density = 21.133664 Si / 1000 Ang^3
#
#
#
# Elastic Constant Matrix: (Units=GPa)
#
#
# Indices 1 2 3 4 5 6 
#
# 1 71.8440 41.8726 4.3271 0.0000 0.0000 0.0000
# 2 41.8726 154.1524 -3.7152 0.0000 0.0000 0.0000
# 3 4.3271 -3.7152 13.7765 0.0000 0.0000 0.0000
# 4 0.0000 0.0000 0.0000 95.0280 0.0000 0.0000
# 5 0.0000 0.0000 0.0000 0.0000 14.5164 0.0000
# 6 0.0000 0.0000 0.0000 0.0000 0.0000 10.6203
#
#
#
# Elastic Compliance Matrix: (Units=1/GPa)
#
#
# Indices 1 2 3 4 5 6 
#
# 1 0.017126 -0.004813 -0.006677 0.000000 0.000000 0.000000
# 2 -0.004813 0.007882 0.003637 0.000000 0.000000 0.000000
# 3 -0.006677 0.003637 0.075666 0.000000 0.000000 0.000000
# 4 0.000000 0.000000 0.000000 0.010523 0.000000 0.000000
# 5 0.000000 0.000000 0.000000 0.000000 0.068887 0.000000
# 6 0.000000 0.000000 0.000000 0.000000 0.000000 0.094159
#
#
# Mechanical properties :
#
#
# Convention : Reuss Voigt Hill
#
# Bulk Modulus (GPa) = 11.76909 36.08244 23.92577
# Shear Modulus (GPa) = 15.70982 37.18551 26.44767
#
# Velocity S-wave (km/s) = 2.72941 4.19924 3.54142
# Velocity P-wave (km/s) = 3.93877 6.37354 5.29792
#
# Compressibility (1/GPa) = 0.08496831
#
# Stress axis : x y z
#
# Youngs Moduli (GPa) = 58.38953 126.86966 13.21605
#
# Poissons Ratio (x) = 0.61062 0.08825
# Poissons Ratio (y) = 0.28103 -0.04807
# Poissons Ratio (z) = 0.38988 -0.46147
#
# Static dielectric constant tensor:
#      x y z
#    x 1.762250 0.000000 0.000000 
#    y 0.000000 1.779190 0.000000 
#    z 0.000000 0.000000 1.798220 
# 
# From -- ./inp_files/4067.got.cif
#   From: 2010.05.17/outbox.cif.g08.bks.cpg/sg55_3_cif.got.tgz:4067.got - 2010.06.03 13:27:54.
