data_PCOD9427913
_publ_section_title
;
Structure prediction by ZEFSAII (Michael W. Deem and Ramdas Pophale) SiO2 
 PCOD9427913
Probable space group: P B A M
;
_chemical_formula_sum "Si O2"
_cell_formula_units_Z 64
_cell_length_a 9.659277
_cell_length_b 20.575723
_cell_length_c 18.401151
_cell_angle_alpha 90.000000
_cell_angle_beta 90.000000
_cell_angle_gamma 90.000000
_cell_volume 3657.166343
_symmetry_space_group_name_H-M "P B A M"
_symmetry_group_IT_number 55
_symmetry_cell_setting 'orthorhombic'
loop_
_space_group_symop_operation_xyz
x,y,z
-x,-y,z
1/2+x,1/2-y,-z
1/2-x,1/2+y,-z
-x,-y,-z
x,y,-z
1/2-x,1/2+y,z
1/2+x,1/2-y,z
loop_
_atom_site_type_symbol
_atom_site_label
_atom_site_fract_x
_atom_site_fract_y
_atom_site_fract_z
Si Si1 0.560005 0.803209 0.413714
Si Si2 0.699701 0.240864 0.318605
Si Si3 0.687131 0.806531 0.083410
Si Si4 0.133639 0.545598 0.581399
Si Si5 0.697061 0.626456 0.788271
Si Si6 0.136712 0.325810 0.916702
Si Si7 0.842673 0.991827 0.705844
Si Si8 0.374927 0.641402 0.208670
O O1 0.548928 0.788275 0.500000
O O2 0.424781 0.784513 0.368302
O O3 0.683260 0.765299 0.373864
O O4 0.589818 0.879935 0.406525
O O5 0.754464 0.183300 0.266621
O O6 0.653711 0.300827 0.266729
O O7 0.522518 0.805617 0.100015
O O8 0.760821 0.736237 0.086854
O O9 0.773785 0.847923 0.140787
O O10 0.701549 0.829487 0.000000
O O11 0.192257 0.541084 0.500000
O O12 0.241627 0.521772 0.639983
O O13 0.000000 0.500000 0.585274
O O14 0.800723 0.626737 0.856542
O O15 0.697294 0.557175 0.748409
O O16 0.538060 0.641526 0.810820
O O17 0.139277 0.349994 0.000000
O O18 0.842451 0.928210 0.756309
O O19 0.000000 0.000000 0.679461
#
# Coordination Sequence:
#
# PCOD9427913 Si02
#       8
#     8   8   8   8   8   8   8   8
#     4  11  24  40  60  86 120 157 195 250 305 353
#     4  12  22  38  60  89 116 153 199 246 297 355
#     4  10  21  36  58  88 122 157 194 242 294 352
#     4  10  21  39  60  85 118 156 198 246 303 360
#     4  11  23  38  61  88 118 156 195 246 297 348
#     4  10  21  36  57  89 122 155 196 241 297 357
#     4  10  23  41  59  86 117 155 203 245 291 355
#     4  11  22  38  60  87 120 153 201 244 292 352
#
# _framework density 17.499887999999999
#
# number of rings (size 3 to 8) (size 9 to 14) (size 15 to 20)
#    0.000    1.375    3.750    1.875    1.750    2.750 
#    0.000    1.250    0.000    3.750    0.000    0.000 
#    0.000    0.000    0.000    0.000    0.000    0.000 
#
# Total GULP energy -357320.274745 kJ/mol
# GULP energy per Si atom -5583.129293 kJ/mol
# Density = 1.746006 g / cm^3
# Si number density = 17.499888 Si / 1000 Ang^3
#
#
#
# Elastic Constant Matrix: (Units=GPa)
#
#
# Indices 1 2 3 4 5 6 
#
# 1 147.4814 52.4138 93.5116 0.0000 0.0000 0.0000
# 2 52.4138 96.0160 52.0973 0.0000 0.0000 0.0000
# 3 93.5116 52.0973 109.5406 0.0000 0.0000 0.0000
# 4 0.0000 0.0000 0.0000 168.9661 0.0000 0.0000
# 5 0.0000 0.0000 0.0000 0.0000 36.9945 0.0000
# 6 0.0000 0.0000 0.0000 0.0000 0.0000 22.3559
#
#
#
# Elastic Compliance Matrix: (Units=1/GPa)
#
#
# Indices 1 2 3 4 5 6 
#
# 1 0.014977 -0.001669 -0.011992 0.000000 0.000000 0.000000
# 2 -0.001669 0.014223 -0.005340 0.000000 0.000000 0.000000
# 3 -0.011992 -0.005340 0.021905 0.000000 0.000000 0.000000
# 4 0.000000 0.000000 0.000000 0.005918 0.000000 0.000000
# 5 0.000000 0.000000 0.000000 0.000000 0.027031 0.000000
# 6 0.000000 0.000000 0.000000 0.000000 0.000000 0.044731
#
#
# Mechanical properties :
#
#
# Convention : Reuss Voigt Hill
#
# Bulk Modulus (GPa) = 76.30711 83.23148 79.76930
# Shear Modulus (GPa) = 29.21318 55.99765 42.60542
#
# Velocity S-wave (km/s) = 4.09018 5.66289 4.93953
# Velocity P-wave (km/s) = 8.12435 9.50906 8.84385
#
# Compressibility (1/GPa) = 0.01310494
#
# Stress axis : x y z
#
# Youngs Moduli (GPa) = 66.76838 70.30682 45.65078
#
# Poissons Ratio (x) = 0.11736 0.54743
# Poissons Ratio (y) = 0.11146 0.24376
# Poissons Ratio (z) = 0.80066 0.37541
#
# Static dielectric constant tensor:
#      x y z
#    x 1.589520 0.000000 0.000000 
#    y 0.000000 1.577620 0.000000 
#    z 0.000000 0.000000 1.590740 
# 
# From -- ./inp_files/21087.got.cif
#   From: 2010.05.17/outbox.cif.g08.bks.cpg/sg55_11_cif.got.tgz:21087.got - 2010.06.03 13:27:54.
