data_PCOD9427106
_publ_section_title
;
Structure prediction by ZEFSAII (Michael W. Deem and Ramdas Pophale) SiO2 
 PCOD9427106
Probable space group: P B A M
;
_chemical_formula_sum "Si O2"
_cell_formula_units_Z 48
_cell_length_a 29.436375
_cell_length_b 5.167350
_cell_length_c 14.628961
_cell_angle_alpha 90.000000
_cell_angle_beta 90.000000
_cell_angle_gamma 90.000000
_cell_volume 2225.182766
_symmetry_space_group_name_H-M "P B A M"
_symmetry_group_IT_number 55
_symmetry_cell_setting 'orthorhombic'
loop_
_space_group_symop_operation_xyz
x,y,z
-x,-y,z
1/2+x,1/2-y,-z
1/2-x,1/2+y,-z
-x,-y,-z
x,y,-z
1/2-x,1/2+y,z
1/2+x,1/2-y,z
loop_
_atom_site_type_symbol
_atom_site_label
_atom_site_fract_x
_atom_site_fract_y
_atom_site_fract_z
Si Si1 0.373170 0.637206 0.195399
Si Si2 0.370455 0.138333 0.315552
Si Si3 0.275225 0.326108 0.609972
Si Si4 0.969967 0.760061 0.801818
Si Si5 0.223622 0.053784 0.109839
Si Si6 0.951856 0.639690 0.598475
O O1 0.383271 0.360898 0.243182
O O2 0.420476 0.736429 0.151291
O O3 0.328530 0.596714 0.135478
O O4 0.360692 0.865470 0.266377
O O5 0.325574 0.244549 0.363197
O O6 0.411995 0.067951 0.382471
O O7 0.273045 0.332034 0.500000
O O8 0.259808 0.606846 0.643000
O O9 0.956841 0.794522 0.693468
O O10 0.000000 0.500000 0.809912
O O11 0.000000 0.000000 0.831850
O O12 0.256137 0.283495 0.144043
O O13 0.226553 0.051691 0.000000
O O14 0.943154 0.772672 0.500000
O O15 0.000000 0.500000 0.591744
#
# Coordination Sequence:
#
# PCOD9427106 Si02
#       6
#     8   8   8   8   8   8
#     4  11  22  36  58  83 109 144 181 222 275 330
#     4  11  22  35  53  80 108 139 184 230 273 323
#     4  10  21  36  51  69 100 142 182 223 272 320
#     4  10  20  36  55  79 111 146 189 236 281 326
#     4  10  22  40  62  89 119 147 176 217 272 333
#     4   9  18  33  52  74 104 142 185 233 280 323
#
# _framework density 21.571262000000001
#
# number of rings (size 3 to 8) (size 9 to 14) (size 15 to 20)
#    0.000    1.833    0.000    5.500    0.000    4.333 
#    0.000   12.500    0.000    1.000    0.000    0.000 
#    0.000    0.667    0.000    0.000    0.000    0.000 
#
# Total GULP energy -268031.781506 kJ/mol
# GULP energy per Si atom -5583.995448 kJ/mol
# Density = 2.152216 g / cm^3
# Si number density = 21.571262 Si / 1000 Ang^3
#
#
#
# Elastic Constant Matrix: (Units=GPa)
#
#
# Indices 1 2 3 4 5 6 
#
# 1 140.8224 19.2853 12.7229 0.0000 0.0000 0.0000
# 2 19.2853 83.4666 14.5279 0.0000 0.0000 0.0000
# 3 12.7229 14.5279 15.3810 0.0000 0.0000 0.0000
# 4 0.0000 0.0000 0.0000 9.3775 0.0000 0.0000
# 5 0.0000 0.0000 0.0000 0.0000 38.1566 0.0000
# 6 0.0000 0.0000 0.0000 0.0000 0.0000 31.1320
#
#
#
# Elastic Compliance Matrix: (Units=1/GPa)
#
#
# Indices 1 2 3 4 5 6 
#
# 1 0.007720 -0.000804 -0.005626 0.000000 0.000000 0.000000
# 2 -0.000804 0.014422 -0.012956 0.000000 0.000000 0.000000
# 3 -0.005626 -0.012956 0.081906 0.000000 0.000000 0.000000
# 4 0.000000 0.000000 0.000000 0.106638 0.000000 0.000000
# 5 0.000000 0.000000 0.000000 0.000000 0.026208 0.000000
# 6 0.000000 0.000000 0.000000 0.000000 0.000000 0.032121
#
#
# Mechanical properties :
#
#
# Convention : Reuss Voigt Hill
#
# Bulk Modulus (GPa) = 15.31987 36.97134 26.14560
# Shear Modulus (GPa) = 15.17237 28.60881 21.89059
#
# Velocity S-wave (km/s) = 2.65497 3.64572 3.18905
# Velocity P-wave (km/s) = 4.06398 5.90746 5.07020
#
# Compressibility (1/GPa) = 0.06527472
#
# Stress axis : x y z
#
# Youngs Moduli (GPa) = 129.54083 69.33918 12.20905
#
# Poissons Ratio (x) = 0.05578 0.06868
# Poissons Ratio (y) = 0.10421 0.15819
# Poissons Ratio (z) = 0.72875 0.89839
#
# Static dielectric constant tensor:
#      x y z
#    x 1.788340 0.000000 0.000000 
#    y 0.000000 1.758060 0.000000 
#    z 0.000000 0.000000 1.816590 
# 
# From -- ./inp_files/20043.got.cif
#   From: 2010.05.17/outbox.cif.g08.bks.cpg/sg55_11_cif.got.tgz:20043.got - 2010.06.03 13:27:54.
