data_PCOD9427453
_publ_section_title
;
Structure prediction by ZEFSAII (Michael W. Deem and Ramdas Pophale) SiO2 
 PCOD9427453
Probable space group: P B A M
;
_chemical_formula_sum "Si O2"
_cell_formula_units_Z 60
_cell_length_a 18.791970
_cell_length_b 13.282883
_cell_length_c 12.556145
_cell_angle_alpha 90.000000
_cell_angle_beta 90.000000
_cell_angle_gamma 90.000000
_cell_volume 3134.158675
_symmetry_space_group_name_H-M "P B A M"
_symmetry_group_IT_number 55
_symmetry_cell_setting 'orthorhombic'
loop_
_space_group_symop_operation_xyz
x,y,z
-x,-y,z
1/2+x,1/2-y,-z
1/2-x,1/2+y,-z
-x,-y,-z
x,y,-z
1/2-x,1/2+y,z
1/2+x,1/2-y,z
loop_
_atom_site_type_symbol
_atom_site_label
_atom_site_fract_x
_atom_site_fract_y
_atom_site_fract_z
Si Si1 0.300289 0.619568 0.000000
Si Si2 0.792348 0.315724 0.382114
Si Si3 0.179409 0.893087 0.722962
Si Si4 0.318002 0.882701 0.875220
Si Si5 0.861569 0.898440 0.380229
Si Si6 0.589622 0.312685 0.829929
Si Si7 0.335623 0.105779 0.158492
Si Si8 0.074060 0.802908 0.116656
O O1 0.362119 0.618472 0.093426
O O2 0.237142 0.625416 0.092932
O O3 0.817370 0.345770 0.500000
O O4 0.811673 0.201367 0.355181
O O5 0.707323 0.326424 0.380742
O O6 0.821508 0.381518 0.284288
O O7 0.246822 0.891389 0.804092
O O8 0.110650 0.871368 0.794818
O O9 0.169257 0.994522 0.657955
O O10 0.368363 0.793663 0.835613
O O11 0.355131 0.991354 0.868988
O O12 0.299778 0.859743 0.000000
O O13 0.890788 0.904162 0.500000
O O14 0.912345 0.856815 0.288701
O O15 0.510219 0.299756 0.871609
O O16 0.391934 0.191522 0.128304
O O17 0.094051 0.842001 0.000000
#
# Coordination Sequence:
#
# PCOD9427453 Si02
#       8
#     4   8   8   8   8   8   8   8
#     4  12  18  38  60  85 126 155 206 253 319 359
#     4  10  20  37  61  92 122 152 202 262 306 356
#     4  11  22  39  64  95 119 158 212 254 314 367
#     4  12  21  36  61  94 123 162 202 251 321 367
#     4  11  23  42  64  91 124 160 211 265 309 365
#     4  12  24  40  61  91 128 170 203 254 310 383
#     4  11  22  38  64  91 124 163 206 264 308 367
#     4  11  23  41  60  93 131 167 208 251 310 376
#
# _framework density 19.143894
#
# number of rings (size 3 to 8) (size 9 to 14) (size 15 to 20)
#    0.000    0.800    6.667    1.600    0.000    1.067 
#    1.200    6.667    0.000    0.000    0.000    4.667 
#    0.000    0.000    0.000    0.000    0.000    0.000 
#
# Total GULP energy -334180.768860 kJ/mol
# GULP energy per Si atom -5569.679481 kJ/mol
# Density = 1.910032 g / cm^3
# Si number density = 19.143894 Si / 1000 Ang^3
#
#
#
# Elastic Constant Matrix: (Units=GPa)
#
#
# Indices 1 2 3 4 5 6 
#
# 1 31.3572 1.1483 27.9061 0.0000 0.0000 0.0000
# 2 1.1483 36.7441 26.5991 0.0000 0.0000 0.0000
# 3 27.9061 26.5991 157.5325 0.0000 0.0000 0.0000
# 4 0.0000 0.0000 0.0000 6.6254 0.0000 0.0000
# 5 0.0000 0.0000 0.0000 0.0000 14.9670 0.0000
# 6 0.0000 0.0000 0.0000 0.0000 0.0000 2.6475
#
#
#
# Elastic Compliance Matrix: (Units=1/GPa)
#
#
# Indices 1 2 3 4 5 6 
#
# 1 0.038432 0.004246 -0.007525 0.000000 0.000000 0.000000
# 2 0.004246 0.031474 -0.006067 0.000000 0.000000 0.000000
# 3 -0.007525 -0.006067 0.008705 0.000000 0.000000 0.000000
# 4 0.000000 0.000000 0.000000 0.150935 0.000000 0.000000
# 5 0.000000 0.000000 0.000000 0.000000 0.066814 0.000000
# 6 0.000000 0.000000 0.000000 0.000000 0.000000 0.377711
#
#
# Mechanical properties :
#
#
# Convention : Reuss Voigt Hill
#
# Bulk Modulus (GPa) = 16.68871 37.43789 27.06330
# Shear Modulus (GPa) = 7.01522 16.17999 11.59761
#
# Velocity S-wave (km/s) = 1.91636 2.91035 2.46400
# Velocity P-wave (km/s) = 3.69229 5.55806 4.71832
#
# Compressibility (1/GPa) = 0.05992074
#
# Stress axis : x y z
#
# Youngs Moduli (GPa) = 26.02006 31.77205 114.87318
#
# Poissons Ratio (x) = -0.13491 0.86442
# Poissons Ratio (y) = -0.11049 0.69689
# Poissons Ratio (z) = 0.19580 0.19275
#
# Static dielectric constant tensor:
#      x y z
#    x 1.631030 0.000000 0.000000 
#    y 0.000000 1.717420 0.000000 
#    z 0.000000 0.000000 1.683910 
# 
# From -- ./inp_files/14918.got.cif
#   From: 2010.05.17/outbox.cif.g08.bks.cpg/sg55_8_cif.got.tgz:14918.got - 2010.06.03 13:27:54.
