data_PCOD9427272
_publ_section_title
;
Structure prediction by ZEFSAII (Michael W. Deem and Ramdas Pophale) SiO2 
 PCOD9427272
Probable space group: P B A M
;
_chemical_formula_sum "Si O2"
_cell_formula_units_Z 64
_cell_length_a 29.226422
_cell_length_b 12.684333
_cell_length_c 8.908508
_cell_angle_alpha 90.000000
_cell_angle_beta 90.000000
_cell_angle_gamma 90.000000
_cell_volume 3302.541320
_symmetry_space_group_name_H-M "P B A M"
_symmetry_group_IT_number 55
_symmetry_cell_setting 'orthorhombic'
loop_
_space_group_symop_operation_xyz
x,y,z
-x,-y,z
1/2+x,1/2-y,-z
1/2-x,1/2+y,-z
-x,-y,-z
x,y,-z
1/2-x,1/2+y,z
1/2+x,1/2-y,z
loop_
_atom_site_type_symbol
_atom_site_label
_atom_site_fract_x
_atom_site_fract_y
_atom_site_fract_z
Si Si1 0.937800 0.248281 0.177038
Si Si2 0.881245 0.850180 0.821469
Si Si3 0.342278 0.280413 0.320082
Si Si4 0.052800 0.530940 0.673370
Si Si5 0.866145 0.626285 0.320746
Si Si6 0.980640 0.881692 0.676725
Si Si7 0.695777 0.495855 0.319708
Si Si8 0.702431 0.940084 0.682597
O O1 0.891123 0.200820 0.243676
O O2 0.936699 0.371433 0.220336
O O3 0.982035 0.196645 0.253487
O O4 0.939894 0.232921 0.000000
O O5 0.864956 0.735241 0.766224
O O6 0.931610 0.870389 0.754394
O O7 0.845432 0.934624 0.757938
O O8 0.883181 0.854972 0.000000
O O9 0.349367 0.274129 0.500000
O O10 0.309555 0.379535 0.290777
O O11 0.320559 0.169599 0.268710
O O12 0.062312 0.563853 0.500000
O O13 0.085346 0.431913 0.703789
O O14 0.000000 0.500000 0.685240
O O15 0.861353 0.646145 0.500000
O O16 0.827918 0.541057 0.274304
O O17 0.975526 0.858934 0.500000
O O18 0.000000 0.000000 0.694064
O O19 0.692136 0.480599 0.500000
O O20 0.745193 0.453643 0.269697
O O21 0.702219 0.938313 0.500000
#
# Coordination Sequence:
#
# PCOD9427272 Si02
#       8
#     8   8   8   8   8   8   8   8
#     4  12  24  37  59  91 127 164 199 249 313 381
#     4  12  26  42  61  92 134 171 204 252 317 387
#     4  10  20  39  64  92 124 160 211 265 311 367
#     4  10  20  36  60  88 118 158 205 253 306 363
#     4  10  20  38  64  90 122 163 211 264 312 363
#     4  11  24  43  67  91 119 162 217 267 308 362
#     4  10  22  39  66  95 121 160 214 268 314 367
#     4   9  19  37  65  96 119 155 211 270 317 359
#
# _framework density 19.379014999999999
#
# number of rings (size 3 to 8) (size 9 to 14) (size 15 to 20)
#    0.000    1.500    1.250    4.125    1.750    6.250 
#    0.000    1.250    0.000    0.000    0.000    0.000 
#    0.000    0.000    0.000    0.000    0.000    0.000 
#
# Total GULP energy -357836.901800 kJ/mol
# GULP energy per Si atom -5591.201591 kJ/mol
# Density = 1.933491 g / cm^3
# Si number density = 19.379015 Si / 1000 Ang^3
#
#
#
# Elastic Constant Matrix: (Units=GPa)
#
#
# Indices 1 2 3 4 5 6 
#
# 1 134.1167 50.5970 41.5547 0.0000 0.0000 0.0000
# 2 50.5970 97.3453 52.4203 0.0000 0.0000 0.0000
# 3 41.5547 52.4203 67.9735 0.0000 0.0000 0.0000
# 4 0.0000 0.0000 0.0000 -0.4924 0.0000 0.0000
# 5 0.0000 0.0000 0.0000 0.0000 -3.3177 0.0000
# 6 0.0000 0.0000 0.0000 0.0000 0.0000 29.0227
#
#
#
# Elastic Compliance Matrix: (Units=1/GPa)
#
#
# Indices 1 2 3 4 5 6 
#
# 1 0.009740 -0.003174 -0.003506 0.000000 0.000000 0.000000
# 2 -0.003174 0.018603 -0.012406 0.000000 0.000000 0.000000
# 3 -0.003506 -0.012406 0.026423 0.000000 0.000000 0.000000
# 4 0.000000 0.000000 0.000000 -2.030806 0.000000 0.000000
# 5 0.000000 0.000000 0.000000 0.000000 -0.301409 0.000000
# 6 0.000000 0.000000 0.000000 0.000000 0.000000 0.034456
#
#
# Mechanical properties :
#
#
# Convention : Reuss Voigt Hill
#
# Bulk Modulus (GPa) = 60.26879 65.39773 62.83326
# Shear Modulus (GPa) = -2.27346 15.36674 6.54664
#
# Velocity S-wave (km/s) = -1.08430 2.81901 1.83998
# Velocity P-wave (km/s) = 5.44058 6.66451 6.08340
#
# Compressibility (1/GPa) = 0.01659233
#
# Stress axis : x y z
#
# Youngs Moduli (GPa) = 102.66705 53.75395 37.84639
#
# Poissons Ratio (x) = 0.17064 0.13271
# Poissons Ratio (y) = 0.32591 0.46952
# Poissons Ratio (z) = 0.36000 0.66687
#
# Static dielectric constant tensor:
#      x y z
#    x 1.656210 0.000000 0.000000 
#    y 0.000000 1.674840 0.000000 
#    z 0.000000 0.000000 1.648610 
# 
# From -- ./inp_files/10794.got.cif
#   From: 2010.05.17/outbox.cif.g08.bks.cpg/sg55_6_cif.got.tgz:10794.got - 2010.06.03 13:27:54.
