data_PCOD9427358
_publ_section_title
;
Structure prediction by ZEFSAII (Michael W. Deem and Ramdas Pophale) SiO2 
 PCOD9427358
Probable space group: P B A M
;
_chemical_formula_sum "Si O2"
_cell_formula_units_Z 64
_cell_length_a 12.801411
_cell_length_b 28.000733
_cell_length_c 9.516685
_cell_angle_alpha 90.000000
_cell_angle_beta 90.000000
_cell_angle_gamma 90.000000
_cell_volume 3411.245188
_symmetry_space_group_name_H-M "P B A M"
_symmetry_group_IT_number 55
_symmetry_cell_setting 'orthorhombic'
loop_
_space_group_symop_operation_xyz
x,y,z
-x,-y,z
1/2+x,1/2-y,-z
1/2-x,1/2+y,-z
-x,-y,-z
x,y,-z
1/2-x,1/2+y,z
1/2+x,1/2-y,z
loop_
_atom_site_type_symbol
_atom_site_label
_atom_site_fract_x
_atom_site_fract_y
_atom_site_fract_z
Si Si1 0.831162 0.704870 0.665690
Si Si2 0.024268 0.657552 0.830995
Si Si3 0.247729 0.953239 0.335167
Si Si4 0.542011 0.052322 0.168595
Si Si5 0.253366 0.205617 0.837532
Si Si6 0.595728 0.464452 0.666178
Si Si7 0.374425 0.359332 0.338844
Si Si8 0.565464 0.368765 0.161240
O O1 0.854944 0.711133 0.500000
O O2 0.788834 0.753014 0.737068
O O3 0.733422 0.668769 0.677252
O O4 0.930430 0.683169 0.747551
O O5 0.134213 0.683279 0.798739
O O6 0.023426 0.600494 0.797426
O O7 0.007142 0.661697 0.000000
O O8 0.276742 0.949866 0.500000
O O9 0.345598 0.941618 0.239525
O O10 0.156403 0.914441 0.313668
O O11 0.200465 0.005247 0.306919
O O12 0.500000 0.000000 0.213960
O O13 0.551650 0.050807 0.000000
O O14 0.166718 0.164316 0.833901
O O15 0.260470 0.222984 0.000000
O O16 0.500000 0.500000 0.697325
O O17 0.590474 0.453314 0.500000
O O18 0.588586 0.417116 0.755755
O O19 0.409915 0.354104 0.500000
O O20 0.466025 0.344310 0.235303
O O21 0.539732 0.379118 0.000000
#
# Coordination Sequence:
#
# PCOD9427358 Si02
#       8
#     8   8   8   8   8   8   8   8
#     4  11  24  42  67  94 119 153 204 261 308 359
#     4  10  22  43  66  90 126 166 203 249 308 370
#     4  10  20  37  59  84 118 161 202 243 298 359
#     4  10  22  38  61  90 122 161 202 250 304 358
#     4  10  25  45  63  88 125 165 202 248 311 372
#     4  10  20  37  58  82 120 165 198 237 298 355
#     4  10  21  40  62  87 123 158 195 251 307 362
#     4  11  24  39  61  91 122 160 206 254 301 360
#
# _framework density 18.761478
#
# number of rings (size 3 to 8) (size 9 to 14) (size 15 to 20)
#    0.000    1.750    2.500    0.750    3.500    4.000 
#    0.000    0.000    0.000    0.000    0.000    0.000 
#    0.000    0.000    0.000    0.000    0.000    0.000 
#
# Total GULP energy -357297.928289 kJ/mol
# GULP energy per Si atom -5582.780130 kJ/mol
# Density = 1.871878 g / cm^3
# Si number density = 18.761478 Si / 1000 Ang^3
#
#
#
# Elastic Constant Matrix: (Units=GPa)
#
#
# Indices 1 2 3 4 5 6 
#
# 1 88.7007 40.7383 45.8239 0.0000 0.0000 0.0000
# 2 40.7383 97.8124 55.3421 0.0000 0.0000 0.0000
# 3 45.8239 55.3421 58.6346 0.0000 0.0000 0.0000
# 4 0.0000 0.0000 0.0000 0.7849 0.0000 0.0000
# 5 0.0000 0.0000 0.0000 0.0000 55.1891 0.0000
# 6 0.0000 0.0000 0.0000 0.0000 0.0000 22.8082
#
#
#
# Elastic Compliance Matrix: (Units=1/GPa)
#
#
# Indices 1 2 3 4 5 6 
#
# 1 0.018957 0.001045 -0.015802 0.000000 0.000000 0.000000
# 2 0.001045 0.021998 -0.021579 0.000000 0.000000 0.000000
# 3 -0.015802 -0.021579 0.049772 0.000000 0.000000 0.000000
# 4 0.000000 0.000000 0.000000 1.274015 0.000000 0.000000
# 5 0.000000 0.000000 0.000000 0.000000 0.018120 0.000000
# 6 0.000000 0.000000 0.000000 0.000000 0.000000 0.043844
#
#
# Mechanical properties :
#
#
# Convention : Reuss Voigt Hill
#
# Bulk Modulus (GPa) = 55.38721 58.77292 57.08007
# Shear Modulus (GPa) = 3.32139 22.63934 12.98036
#
# Velocity S-wave (km/s) = 1.33198 3.47752 2.63318
# Velocity P-wave (km/s) = 5.65256 6.89337 6.30357
#
# Compressibility (1/GPa) = 0.01805471
#
# Stress axis : x y z
#
# Youngs Moduli (GPa) = 52.75015 45.45866 20.09175
#
# Poissons Ratio (x) = -0.04750 0.31748
# Poissons Ratio (y) = -0.05512 0.43357
# Poissons Ratio (z) = 0.83354 0.98097
#
# Static dielectric constant tensor:
#      x y z
#    x 1.634140 0.000000 0.000000 
#    y 0.000000 1.677520 0.000000 
#    z 0.000000 0.000000 1.628440 
# 
# From -- ./inp_files/4486.got.cif
#   From: 2010.05.17/outbox.cif.g08.bks.cpg/sg55_3_cif.got.tgz:4486.got - 2010.06.03 13:27:54.
