data_PCOD9427907
_publ_section_title
;
Structure prediction by ZEFSAII (Michael W. Deem and Ramdas Pophale) SiO2 
 PCOD9427907
Probable space group: P B A M
;
_chemical_formula_sum "Si O2"
_cell_formula_units_Z 40
_cell_length_a 17.729889
_cell_length_b 8.759412
_cell_length_c 9.638179
_cell_angle_alpha 90.000000
_cell_angle_beta 90.000000
_cell_angle_gamma 90.000000
_cell_volume 1496.841992
_symmetry_space_group_name_H-M "P B A M"
_symmetry_group_IT_number 55
_symmetry_cell_setting 'orthorhombic'
loop_
_space_group_symop_operation_xyz
x,y,z
-x,-y,z
1/2+x,1/2-y,-z
1/2-x,1/2+y,-z
-x,-y,-z
x,y,-z
1/2-x,1/2+y,z
1/2+x,1/2-y,z
loop_
_atom_site_type_symbol
_atom_site_label
_atom_site_fract_x
_atom_site_fract_y
_atom_site_fract_z
Si Si1 0.244957 0.973564 0.500000
Si Si2 0.858411 0.964827 0.000000
Si Si3 0.331883 0.128542 0.751467
Si Si4 0.558460 0.123566 0.248248
Si Si5 0.855916 0.781445 0.500000
Si Si6 0.051613 0.873330 0.245060
Si Si7 0.756816 0.715691 0.000000
O O1 0.283009 0.042945 0.637557
O O2 0.160652 0.039212 0.500000
O O3 0.273548 0.800801 0.500000
O O4 0.902915 0.029664 0.868585
O O5 0.775495 0.044937 0.000000
O O6 0.840678 0.785508 0.000000
O O7 0.387445 0.258540 0.687829
O O8 0.381882 0.992403 0.820158
O O9 0.281036 0.215696 0.861349
O O10 0.601161 0.218306 0.366632
O O11 0.505827 0.249219 0.175614
O O12 0.500000 0.000000 0.313075
O O13 0.000000 0.000000 0.321208
#
# Coordination Sequence:
#
# PCOD9427907 Si02
#       7
#     4   4   8   8   4   8   4
#     4  10  22  38  57  89 124 155 198 246 294 350
#     4  10  23  39  57  87 122 156 195 246 298 352
#     4   9  21  40  60  85 118 158 197 238 291 361
#     4   9  19  37  58  81 115 158 197 235 293 358
#     4  10  21  36  59  83 114 159 199 242 294 352
#     4  10  21  36  57  86 117 149 195 249 292 337
#     4  10  22  39  61  85 115 154 197 238 292 354
#
# _framework density 26.722926999999999
#
# number of rings (size 3 to 8) (size 9 to 14) (size 15 to 20)
#    0.000    2.400    0.000    0.600    0.000   14.400 
#    0.000    5.000    0.000    1.200    0.000    0.000 
#    0.000    0.000    0.000    0.000    0.000    0.000 
#
# Total GULP energy -223477.539042 kJ/mol
# GULP energy per Si atom -5586.938476 kJ/mol
# Density = 2.666210 g / cm^3
# Si number density = 26.722927 Si / 1000 Ang^3
#
#
#
# Elastic Constant Matrix: (Units=GPa)
#
#
# Indices 1 2 3 4 5 6 
#
# 1 98.2932 41.6823 6.4695 0.0000 0.0000 0.0000
# 2 41.6823 160.1703 10.9213 0.0000 0.0000 0.0000
# 3 6.4695 10.9213 41.8613 0.0000 0.0000 0.0000
# 4 0.0000 0.0000 0.0000 44.8404 0.0000 0.0000
# 5 0.0000 0.0000 0.0000 0.0000 9.4823 0.0000
# 6 0.0000 0.0000 0.0000 0.0000 0.0000 74.0206
#
#
#
# Elastic Compliance Matrix: (Units=1/GPa)
#
#
# Indices 1 2 3 4 5 6 
#
# 1 0.011478 -0.002918 -0.001013 0.000000 0.000000 0.000000
# 2 -0.002918 0.007098 -0.001401 0.000000 0.000000 0.000000
# 3 -0.001013 -0.001401 0.024410 0.000000 0.000000 0.000000
# 4 0.000000 0.000000 0.000000 0.022301 0.000000 0.000000
# 5 0.000000 0.000000 0.000000 0.000000 0.105460 0.000000
# 6 0.000000 0.000000 0.000000 0.000000 0.000000 0.013510
#
#
# Mechanical properties :
#
#
# Convention : Reuss Voigt Hill
#
# Bulk Modulus (GPa) = 30.93727 46.49681 38.71704
# Shear Modulus (GPa) = 24.30790 41.75209 33.02999
#
# Velocity S-wave (km/s) = 3.01927 3.95702 3.51952
# Velocity P-wave (km/s) = 4.87410 6.18989 5.57098
#
# Compressibility (1/GPa) = 0.03232348
#
# Stress axis : x y z
#
# Youngs Moduli (GPa) = 87.12589 140.88040 40.96618
#
# Poissons Ratio (x) = 0.41107 0.04148
# Poissons Ratio (y) = 0.25422 0.05739
# Poissons Ratio (z) = 0.08822 0.19736
#
# Static dielectric constant tensor:
#      x y z
#    x 2.175150 0.000000 0.000000 
#    y 0.000000 2.068870 0.000000 
#    z 0.000000 0.000000 1.479030 
# 
# From -- ./inp_files/14698.got.cif
#   From: 2010.05.17/outbox.cif.g08.bks.cpg/sg55_8_cif.got.tgz:14698.got - 2010.06.03 13:27:54.
