data_PCOD9427875
_publ_section_title
;
Structure prediction by ZEFSAII (Michael W. Deem and Ramdas Pophale) SiO2 
 PCOD9427875
Probable space group: P B A M
;
_chemical_formula_sum "Si O2"
_cell_formula_units_Z 64
_cell_length_a 8.065867
_cell_length_b 24.404992
_cell_length_c 12.776796
_cell_angle_alpha 90.000000
_cell_angle_beta 90.000000
_cell_angle_gamma 90.000000
_cell_volume 2515.079323
_symmetry_space_group_name_H-M "P B A M"
_symmetry_group_IT_number 55
_symmetry_cell_setting 'orthorhombic'
loop_
_space_group_symop_operation_xyz
x,y,z
-x,-y,z
1/2+x,1/2-y,-z
1/2-x,1/2+y,-z
-x,-y,-z
x,y,-z
1/2-x,1/2+y,z
1/2+x,1/2-y,z
loop_
_atom_site_type_symbol
_atom_site_label
_atom_site_fract_x
_atom_site_fract_y
_atom_site_fract_z
Si Si1 0.446795 0.165370 0.374256
Si Si2 0.332046 0.536350 0.279293
Si Si3 0.059274 0.822018 0.882220
Si Si4 0.127269 0.436471 0.684255
Si Si5 0.930312 0.415213 0.125440
Si Si6 0.866546 0.768433 0.378785
Si Si7 0.558357 0.628163 0.669939
Si Si8 0.330205 0.205147 0.120079
O O1 0.441411 0.169151 0.500000
O O2 0.474418 0.101753 0.351062
O O3 0.281102 0.195236 0.331615
O O4 0.586584 0.208924 0.336434
O O5 0.500000 0.500000 0.257653
O O6 0.195593 0.497346 0.335930
O O7 0.237292 0.559264 0.176392
O O8 0.405244 0.586839 0.346405
O O9 0.143026 0.766478 0.840514
O O10 0.082971 0.867686 0.795324
O O11 0.863444 0.809291 0.882888
O O12 0.114250 0.835974 0.000000
O O13 0.274231 0.399892 0.634694
O O14 0.086510 0.438204 0.809286
O O15 0.925960 0.349994 0.150905
O O16 0.936503 0.422723 0.000000
O O17 0.827435 0.759910 0.500000
O O18 0.018534 0.811600 0.371779
O O19 0.389123 0.212993 0.000000
#
# Coordination Sequence:
#
# PCOD9427875 Si02
#       8
#     8   8   8   8   8   8   8   8
#     4  10  22  42  66  96 130 166 208 260 324 391
#     4  10  23  44  63  88 123 169 224 274 317 373
#     4  10  21  36  55  84 123 165 205 250 306 375
#     4  11  25  40  63  92 124 167 217 268 321 381
#     4  11  23  41  62  90 127 169 215 271 323 372
#     4  10  22  40  66  98 133 167 208 262 321 393
#     4  11  23  39  64  90 124 168 214 264 322 381
#     4   9  20  35  54  81 118 158 200 250 305 366
#
# _framework density 25.446512999999999
#
# number of rings (size 3 to 8) (size 9 to 14) (size 15 to 20)
#    0.000    1.750    1.250    1.875    3.500    3.250 
#    0.000    3.125    0.000    5.250    0.000    0.000 
#    0.000    0.000    0.000    0.000    0.000    0.000 
#
# Total GULP energy -357431.650125 kJ/mol
# GULP energy per Si atom -5584.869533 kJ/mol
# Density = 2.538860 g / cm^3
# Si number density = 25.446513 Si / 1000 Ang^3
#
#
#
# Elastic Constant Matrix: (Units=GPa)
#
#
# Indices 1 2 3 4 5 6 
#
# 1 77.6418 37.6925 3.0965 0.0000 0.0000 0.0000
# 2 37.6925 157.0906 9.5917 0.0000 0.0000 0.0000
# 3 3.0965 9.5917 56.4106 0.0000 0.0000 0.0000
# 4 0.0000 0.0000 0.0000 21.1140 0.0000 0.0000
# 5 0.0000 0.0000 0.0000 0.0000 18.8000 0.0000
# 6 0.0000 0.0000 0.0000 0.0000 0.0000 53.3375
#
#
#
# Elastic Compliance Matrix: (Units=1/GPa)
#
#
# Indices 1 2 3 4 5 6 
#
# 1 0.014580 -0.003486 -0.000208 0.000000 0.000000 0.000000
# 2 -0.003486 0.007266 -0.001044 0.000000 0.000000 0.000000
# 3 -0.000208 -0.001044 0.017916 0.000000 0.000000 0.000000
# 4 0.000000 0.000000 0.000000 0.047362 0.000000 0.000000
# 5 0.000000 0.000000 0.000000 0.000000 0.053191 0.000000
# 6 0.000000 0.000000 0.000000 0.000000 0.000000 0.018749
#
#
# Mechanical properties :
#
#
# Convention : Reuss Voigt Hill
#
# Bulk Modulus (GPa) = 33.01723 43.54493 38.28108
# Shear Modulus (GPa) = 27.99010 34.70112 31.34561
#
# Velocity S-wave (km/s) = 3.32016 3.69682 3.51354
# Velocity P-wave (km/s) = 5.26320 5.94739 5.61573
#
# Compressibility (1/GPa) = 0.03028721
#
# Stress axis : x y z
#
# Youngs Moduli (GPa) = 68.58648 137.62981 55.81570
#
# Poissons Ratio (x) = 0.47974 0.01159
# Poissons Ratio (y) = 0.23907 0.05828
# Poissons Ratio (z) = 0.01424 0.14370
#
# Static dielectric constant tensor:
#      x y z
#    x 2.079180 0.000000 0.000000 
#    y 0.000000 2.004640 0.000000 
#    z 0.000000 0.000000 2.082450 
# 
# From -- ./inp_files/17842.got.cif
#   From: 2010.05.17/outbox.cif.g08.bks.cpg/sg55_9_cif.got.tgz:17842.got - 2010.06.03 13:27:54.
