data_PCOD9427096
_publ_section_title
;
Structure prediction by ZEFSAII (Michael W. Deem and Ramdas Pophale) SiO2 
 PCOD9427096
Probable space group: P B A M
;
_chemical_formula_sum "Si O2"
_cell_formula_units_Z 48
_cell_length_a 10.773153
_cell_length_b 13.136759
_cell_length_c 14.430702
_cell_angle_alpha 90.000000
_cell_angle_beta 90.000000
_cell_angle_gamma 90.000000
_cell_volume 2042.295210
_symmetry_space_group_name_H-M "P B A M"
_symmetry_group_IT_number 55
_symmetry_cell_setting 'orthorhombic'
loop_
_space_group_symop_operation_xyz
x,y,z
-x,-y,z
1/2+x,1/2-y,-z
1/2-x,1/2+y,-z
-x,-y,-z
x,y,-z
1/2-x,1/2+y,z
1/2+x,1/2-y,z
loop_
_atom_site_type_symbol
_atom_site_label
_atom_site_fract_x
_atom_site_fract_y
_atom_site_fract_z
Si Si1 0.865110 0.364330 0.330343
Si Si2 0.838398 0.126564 0.330455
Si Si3 0.399512 0.865037 0.199355
Si Si4 0.876541 0.633582 0.000000
Si Si5 0.727067 0.997966 0.500000
Si Si6 0.854328 0.280781 0.000000
Si Si7 0.000000 0.000000 0.803090
Si Si8 0.807026 0.857183 0.837686
O O1 0.863080 0.244345 0.356566
O O2 0.850362 0.435217 0.418648
O O3 0.747828 0.379593 0.263155
O O4 0.983594 0.383636 0.265020
O O5 0.720315 0.119387 0.262592
O O6 0.948998 0.085475 0.266806
O O7 0.806535 0.059275 0.419086
O O8 0.391662 0.920349 0.099744
O O9 0.386452 0.746063 0.171005
O O10 0.996718 0.712376 0.000000
O O11 0.736406 0.681195 0.000000
O O12 0.804102 0.336464 0.908211
O O13 0.893942 0.949950 0.864396
#
# Coordination Sequence:
#
# PCOD9427096 Si02
#       8
#     8   8   8   4   4   4   4   8
#     4  11  22  44  69  99 141 182 235 293 355 421
#     4  11  26  44  70 107 138 188 236 297 369 418
#     4  10  22  41  70 101 143 185 232 289 350 432
#     4  10  20  38  71 110 146 189 245 277 360 430
#     4  12  26  46  70 101 134 184 243 296 358 430
#     4  10  20  35  67 109 142 190 233 290 345 442
#     4  12  22  46  68  98 140 186 232 300 354 442
#     4  10  21  39  66  99 141 180 227 286 354 414
#
# _framework density 23.502967000000002
#
# number of rings (size 3 to 8) (size 9 to 14) (size 15 to 20)
#    0.000    1.333    5.000    0.500    0.000    2.667 
#    0.000    3.333    0.000    2.000    0.000    0.000 
#    0.000    0.000    0.000    0.000    0.000    0.000 
#
# Total GULP energy -267272.753610 kJ/mol
# GULP energy per Si atom -5568.182367 kJ/mol
# Density = 2.344947 g / cm^3
# Si number density = 23.502967 Si / 1000 Ang^3
#
#
#
# Elastic Constant Matrix: (Units=GPa)
#
#
# Indices 1 2 3 4 5 6 
#
# 1 74.8164 0.1343 5.0763 0.0000 0.0000 0.0000
# 2 0.1343 58.3060 -8.9470 0.0000 0.0000 0.0000
# 3 5.0763 -8.9470 153.9580 0.0000 0.0000 0.0000
# 4 0.0000 0.0000 0.0000 -12.3884 0.0000 0.0000
# 5 0.0000 0.0000 0.0000 0.0000 9.0714 0.0000
# 6 0.0000 0.0000 0.0000 0.0000 0.0000 31.8442
#
#
#
# Elastic Compliance Matrix: (Units=1/GPa)
#
#
# Indices 1 2 3 4 5 6 
#
# 1 0.013397 -0.000100 -0.000447 0.000000 0.000000 0.000000
# 2 -0.000100 0.017306 0.001009 0.000000 0.000000 0.000000
# 3 -0.000447 0.001009 0.006569 0.000000 0.000000 0.000000
# 4 0.000000 0.000000 0.000000 -0.080720 0.000000 0.000000
# 5 0.000000 0.000000 0.000000 0.000000 0.110237 0.000000
# 6 0.000000 0.000000 0.000000 0.000000 0.000000 0.031403
#
#
# Mechanical properties :
#
#
# Convention : Reuss Voigt Hill
#
# Bulk Modulus (GPa) = 26.18136 31.06754 28.62445
# Shear Modulus (GPa) = 45.45537 25.09322 35.27430
#
# Velocity S-wave (km/s) = 4.40253 3.27105 3.87828
# Velocity P-wave (km/s) = 6.08332 5.24535 5.67981
#
# Compressibility (1/GPa) = 0.03819512
#
# Stress axis : x y z
#
# Youngs Moduli (GPa) = 74.64583 57.78357 152.23791
#
# Poissons Ratio (x) = 0.00575 0.06813
# Poissons Ratio (y) = 0.00743 -0.15361
# Poissons Ratio (z) = 0.03340 -0.05830
#
# Static dielectric constant tensor:
#      x y z
#    x 1.899310 0.000000 0.000000 
#    y 0.000000 1.974290 0.000000 
#    z 0.000000 0.000000 1.778910 
# 
# From -- ./inp_files/18334.got.cif
#   From: 2010.05.17/outbox.cif.g08.bks.cpg/sg55_10_cif.got.tgz:18334.got - 2010.06.03 13:27:54.
