data_PCOD9427291
_publ_section_title
;
Structure prediction by ZEFSAII (Michael W. Deem and Ramdas Pophale) SiO2 
 PCOD9427291
Probable space group: P B A M
;
_chemical_formula_sum "Si O2"
_cell_formula_units_Z 56
_cell_length_a 14.544985
_cell_length_b 21.621923
_cell_length_c 9.571574
_cell_angle_alpha 90.000000
_cell_angle_beta 90.000000
_cell_angle_gamma 90.000000
_cell_volume 3010.169531
_symmetry_space_group_name_H-M "P B A M"
_symmetry_group_IT_number 55
_symmetry_cell_setting 'orthorhombic'
loop_
_space_group_symop_operation_xyz
x,y,z
-x,-y,z
1/2+x,1/2-y,-z
1/2-x,1/2+y,-z
-x,-y,-z
x,y,-z
1/2-x,1/2+y,z
1/2+x,1/2-y,z
loop_
_atom_site_type_symbol
_atom_site_label
_atom_site_fract_x
_atom_site_fract_y
_atom_site_fract_z
Si Si1 0.806025 0.119137 0.330697
Si Si2 0.990252 0.651152 0.342579
Si Si3 0.642965 0.032436 0.338628
Si Si4 0.668731 0.361090 0.162612
Si Si5 0.684451 0.235952 0.666538
Si Si6 0.007291 0.073976 0.666495
Si Si7 0.128090 0.587115 0.839931
O O1 0.801970 0.118528 0.500000
O O2 0.738164 0.063430 0.287317
O O3 0.759857 0.184264 0.289749
O O4 0.910566 0.105727 0.291384
O O5 0.027116 0.658543 0.500000
O O6 0.070994 0.641805 0.233321
O O7 0.929821 0.588267 0.338670
O O8 0.916158 0.704697 0.316492
O O9 0.653629 0.011706 0.500000
O O10 0.612962 0.975725 0.245008
O O11 0.687211 0.296890 0.241961
O O12 0.589592 0.397619 0.244601
O O13 0.764027 0.398447 0.166560
O O14 0.644102 0.351263 0.000000
O O15 0.696309 0.248253 0.500000
O O16 0.021832 0.085106 0.500000
O O17 0.000000 0.000000 0.685471
O O18 0.099239 0.580614 0.000000
#
# Coordination Sequence:
#
# PCOD9427291 Si02
#       7
#     8   8   8   8   8   8   8
#     4   8  16  33  58  85 109 135 174 225 274 323
#     4   9  19  35  57  83 107 135 174 220 268 318
#     4   9  17  33  57  83 110 137 169 214 266 317
#     4  11  25  40  52  74 111 148 183 225 270 320
#     4   9  19  38  60  80 104 137 180 226 272 324
#     4  10  20  36  61  89 112 141 185 232 279 331
#     4  11  23  35  49  75 111 147 179 212 257 315
#
# _framework density 18.603604000000001
#
# number of rings (size 3 to 8) (size 9 to 14) (size 15 to 20)
#    0.000    2.429    0.000    3.857    0.000    7.714 
#    0.000    7.857    0.000    0.000    0.000    0.000 
#    0.000    0.000    0.000    0.000    0.000    0.000 
#
# Total GULP energy -312548.296892 kJ/mol
# GULP energy per Si atom -5581.219587 kJ/mol
# Density = 1.856126 g / cm^3
# Si number density = 18.603604 Si / 1000 Ang^3
#
#
#
# Elastic Constant Matrix: (Units=GPa)
#
#
# Indices 1 2 3 4 5 6 
#
# 1 75.4758 2.6807 31.5819 0.0000 0.0000 0.0000
# 2 2.6807 57.1120 28.6073 0.0000 0.0000 0.0000
# 3 31.5819 28.6073 69.5690 0.0000 0.0000 0.0000
# 4 0.0000 0.0000 0.0000 288.4751 0.0000 0.0000
# 5 0.0000 0.0000 0.0000 0.0000 13.5516 0.0000
# 6 0.0000 0.0000 0.0000 0.0000 0.0000 11.1001
#
#
#
# Elastic Compliance Matrix: (Units=1/GPa)
#
#
# Indices 1 2 3 4 5 6 
#
# 1 0.017008 0.003865 -0.009310 0.000000 0.000000 0.000000
# 2 0.003865 0.022930 -0.011184 0.000000 0.000000 0.000000
# 3 -0.009310 -0.011184 0.023200 0.000000 0.000000 0.000000
# 4 0.000000 0.000000 0.000000 0.003467 0.000000 0.000000
# 5 0.000000 0.000000 0.000000 0.000000 0.073792 0.000000
# 6 0.000000 0.000000 0.000000 0.000000 0.000000 0.090089
#
#
# Mechanical properties :
#
#
# Convention : Reuss Voigt Hill
#
# Bulk Modulus (GPa) = 33.46743 36.43292 34.95018
# Shear Modulus (GPa) = 18.26799 71.91116 45.08957
#
# Velocity S-wave (km/s) = 3.13702 6.22401 4.92845
# Velocity P-wave (km/s) = 5.58122 8.44260 7.15638
#
# Compressibility (1/GPa) = 0.02987980
#
# Stress axis : x y z
#
# Youngs Moduli (GPa) = 58.79655 43.61124 43.10424
#
# Poissons Ratio (x) = -0.16857 0.40132
# Poissons Ratio (y) = -0.22726 0.48206
# Poissons Ratio (z) = 0.54742 0.48773
#
# Static dielectric constant tensor:
#      x y z
#    x 1.666890 0.000000 0.000000 
#    y 0.000000 1.632270 0.000000 
#    z 0.000000 0.000000 1.621900 
# 
# From -- ./inp_files/6170.got.cif
#   From: 2010.05.17/outbox.cif.g08.bks.cpg/sg55_4_cif.got.tgz:6170.got - 2010.06.03 13:27:54.
