data_PCOD9427576
_publ_section_title
;
Structure prediction by ZEFSAII (Michael W. Deem and Ramdas Pophale) SiO2 
 PCOD9427576
Probable space group: P B A M
;
_chemical_formula_sum "Si O2"
_cell_formula_units_Z 56
_cell_length_a 18.827433
_cell_length_b 8.214065
_cell_length_c 14.819551
_cell_angle_alpha 90.000000
_cell_angle_beta 90.000000
_cell_angle_gamma 90.000000
_cell_volume 2291.839982
_symmetry_space_group_name_H-M "P B A M"
_symmetry_group_IT_number 55
_symmetry_cell_setting 'orthorhombic'
loop_
_space_group_symop_operation_xyz
x,y,z
-x,-y,z
1/2+x,1/2-y,-z
1/2-x,1/2+y,-z
-x,-y,-z
x,y,-z
1/2-x,1/2+y,z
1/2+x,1/2-y,z
loop_
_atom_site_type_symbol
_atom_site_label
_atom_site_fract_x
_atom_site_fract_y
_atom_site_fract_z
Si Si1 0.962235 0.741661 0.337493
Si Si2 0.271805 0.188640 0.290738
Si Si3 0.928608 0.127208 0.903224
Si Si4 0.817986 0.428944 0.099467
Si Si5 0.553188 0.147335 0.131906
Si Si6 0.598472 0.581675 0.299578
Si Si7 0.667751 0.110393 0.600871
O O1 0.947143 0.669000 0.238762
O O2 0.917380 0.624466 0.400379
O O3 0.045846 0.776944 0.335981
O O4 0.926561 0.920017 0.349651
O O5 0.272493 0.111020 0.189462
O O6 0.323023 0.346895 0.298680
O O7 0.198291 0.252932 0.330412
O O8 0.306026 0.057282 0.357164
O O9 0.875092 0.281916 0.898981
O O10 0.917675 0.046981 0.806157
O O11 0.008977 0.198179 0.903974
O O12 0.912114 0.049850 0.000000
O O13 0.867270 0.591447 0.106327
O O14 0.782540 0.429694 0.000000
O O15 0.500000 0.000000 0.107128
O O16 0.696000 0.135287 0.500000
#
# Coordination Sequence:
#
# PCOD9427576 Si02
#       7
#     8   8   8   8   8   8   8
#     4  10  20  38  62  92 127 163 205 254 321 373
#     4  11  23  43  66  90 125 163 205 264 314 376
#     4   8  14  25  48  83 124 165 208 248 289 356
#     4   9  16  30  55  88 121 163 206 247 302 367
#     4   9  15  27  53  87 126 164 206 248 298 361
#     4   9  20  37  62  89 129 170 201 254 321 371
#     4  12  26  44  67  91 117 158 214 266 324 384
#
# _framework density 24.434515999999999
#
# number of rings (size 3 to 8) (size 9 to 14) (size 15 to 20)
#    0.000    2.286    1.429    2.571    0.000    1.714 
#    0.000   11.429    0.000    1.714    0.000    0.000 
#    0.000    0.000    0.000    0.000    0.000    0.000 
#
# Total GULP energy -312525.183422 kJ/mol
# GULP energy per Si atom -5580.806847 kJ/mol
# Density = 2.437890 g / cm^3
# Si number density = 24.434516 Si / 1000 Ang^3
#
#
#
# Elastic Constant Matrix: (Units=GPa)
#
#
# Indices 1 2 3 4 5 6 
#
# 1 84.3560 12.1373 25.2605 0.0000 0.0000 0.0000
# 2 12.1373 21.4670 -7.3190 0.0000 0.0000 0.0000
# 3 25.2605 -7.3190 101.3415 0.0000 0.0000 0.0000
# 4 0.0000 0.0000 0.0000 -9.8783 0.0000 0.0000
# 5 0.0000 0.0000 0.0000 0.0000 -12.7900 0.0000
# 6 0.0000 0.0000 0.0000 0.0000 0.0000 31.8598
#
#
#
# Elastic Compliance Matrix: (Units=1/GPa)
#
#
# Indices 1 2 3 4 5 6 
#
# 1 0.014545 -0.009699 -0.004326 0.000000 0.000000 0.000000
# 2 -0.009699 0.054226 0.006334 0.000000 0.000000 0.000000
# 3 -0.004326 0.006334 0.011403 0.000000 0.000000 0.000000
# 4 0.000000 0.000000 0.000000 -0.101232 0.000000 0.000000
# 5 0.000000 0.000000 0.000000 0.000000 -0.078186 0.000000
# 6 0.000000 0.000000 0.000000 0.000000 0.000000 0.031388
#
#
# Mechanical properties :
#
#
# Convention : Reuss Voigt Hill
#
# Bulk Modulus (GPa) = 15.43381 29.70246 22.56814
# Shear Modulus (GPa) = -161.94080 13.64401 -74.14840
#
# Velocity S-wave (km/s) = -8.14980 2.36559 -5.51467
# Velocity P-wave (km/s) = 9.06802 4.43212 5.59398
#
# Compressibility (1/GPa) = 0.06479280
#
# Stress axis : x y z
#
# Youngs Moduli (GPa) = 68.74998 18.44130 87.69325
#
# Poissons Ratio (x) = 0.17886 0.37937
# Poissons Ratio (y) = 0.66679 -0.55543
# Poissons Ratio (z) = 0.29742 -0.11680
#
# Static dielectric constant tensor:
#      x y z
#    x 1.943440 0.000000 0.000000 
#    y 0.000000 2.015500 0.000000 
#    z 0.000000 0.000000 1.949190 
# 
# From -- ./inp_files/19766.got.cif
#   From: 2010.05.17/outbox.cif.g08.bks.cpg/sg55_10_cif.got.tgz:19766.got - 2010.06.03 13:27:54.
