data_PCOD9427734
_publ_section_title
;
Structure prediction by ZEFSAII (Michael W. Deem and Ramdas Pophale) SiO2 
 PCOD9427734
Probable space group: P B A M
;
_chemical_formula_sum "Si O2"
_cell_formula_units_Z 58
_cell_length_a 25.672223
_cell_length_b 14.560404
_cell_length_c 7.596578
_cell_angle_alpha 90.000000
_cell_angle_beta 90.000000
_cell_angle_gamma 90.000000
_cell_volume 2839.585196
_symmetry_space_group_name_H-M "P B A M"
_symmetry_group_IT_number 55
_symmetry_cell_setting 'orthorhombic'
loop_
_space_group_symop_operation_xyz
x,y,z
-x,-y,z
1/2+x,1/2-y,-z
1/2-x,1/2+y,-z
-x,-y,-z
x,y,-z
1/2-x,1/2+y,z
1/2+x,1/2-y,z
loop_
_atom_site_type_symbol
_atom_site_label
_atom_site_fract_x
_atom_site_fract_y
_atom_site_fract_z
Si Si1 0.295819 0.294176 0.204641
Si Si2 0.000000 0.000000 0.500000
Si Si3 0.727742 0.912207 0.710288
Si Si4 0.097904 0.269924 0.796971
Si Si5 0.347442 0.579075 0.285638
Si Si6 0.810255 0.609717 0.789907
Si Si7 0.009382 0.149234 0.796700
Si Si8 0.398210 0.393013 0.299502
O O1 0.291100 0.184763 0.216379
O O2 0.242455 0.339957 0.276368
O O3 0.346916 0.331020 0.301379
O O4 0.301481 0.321147 0.000000
O O5 0.978207 0.929974 0.657551
O O6 0.728164 0.903815 0.500000
O O7 0.787289 0.928891 0.769145
O O8 0.694868 0.001754 0.758816
O O9 0.129292 0.173906 0.782243
O O10 0.136991 0.344728 0.716214
O O11 0.040502 0.240154 0.735252
O O12 0.090665 0.296721 0.000000
O O13 0.348660 0.579317 0.500000
O O14 0.378655 0.489575 0.223997
O O15 0.810154 0.626918 0.000000
O O16 0.946750 0.154552 0.792224
O O17 0.024561 0.129063 0.000000
O O18 0.418658 0.412653 0.500000
#
# Coordination Sequence:
#
# PCOD9427734 Si02
#       8
#     8   2   8   8   8   8   8   8
#     4  11  22  37  59  85 116 156 197 243 300 358
#     4  12  22  40  60  90 124 166 206 252 304 360
#     4  11  22  37  55  85 118 153 195 243 298 353
#     4  10  22  38  58  83 116 157 200 245 294 355
#     4  10  21  32  52  81 119 156 191 237 291 351
#     4  10  21  38  58  84 116 154 198 243 299 360
#     4  11  24  40  58  86 124 164 207 252 303 361
#     4  11  22  39  59  85 120 160 204 248 297 358
#
# _framework density 20.425519000000001
#
# number of rings (size 3 to 8) (size 9 to 14) (size 15 to 20)
#    0.000    1.379    3.448    2.276    2.897    3.862 
#    0.000    0.000    0.000    0.828    0.000    5.793 
#    0.000    0.000    0.000    0.000    0.000    0.000 
#
# Total GULP energy -323565.739647 kJ/mol
# GULP energy per Si atom -5578.719649 kJ/mol
# Density = 2.037903 g / cm^3
# Si number density = 20.425519 Si / 1000 Ang^3
#
#
#
# Elastic Constant Matrix: (Units=GPa)
#
#
# Indices 1 2 3 4 5 6 
#
# 1 61.5769 9.7560 7.1593 0.0000 0.0000 0.0000
# 2 9.7560 74.8230 -10.4069 0.0000 0.0000 0.0000
# 3 7.1593 -10.4069 75.5650 0.0000 0.0000 0.0000
# 4 0.0000 0.0000 0.0000 20.5313 0.0000 0.0000
# 5 0.0000 0.0000 0.0000 0.0000 4.9646 0.0000
# 6 0.0000 0.0000 0.0000 0.0000 0.0000 33.7335
#
#
#
# Elastic Compliance Matrix: (Units=1/GPa)
#
#
# Indices 1 2 3 4 5 6 
#
# 1 0.016856 -0.002467 -0.001937 0.000000 0.000000 0.000000
# 2 -0.002467 0.013987 0.002160 0.000000 0.000000 0.000000
# 3 -0.001937 0.002160 0.013715 0.000000 0.000000 0.000000
# 4 0.000000 0.000000 0.000000 0.048706 0.000000 0.000000
# 5 0.000000 0.000000 0.000000 0.000000 0.201427 0.000000
# 6 0.000000 0.000000 0.000000 0.000000 0.000000 0.029644
#
#
# Mechanical properties :
#
#
# Convention : Reuss Voigt Hill
#
# Bulk Modulus (GPa) = 24.95650 24.99798 24.97724
# Shear Modulus (GPa) = 14.61221 25.54298 20.07759
#
# Velocity S-wave (km/s) = 2.67758 3.54014 3.13863
# Velocity P-wave (km/s) = 4.66948 5.38287 5.03882
#
# Compressibility (1/GPa) = 0.04006972
#
# Stress axis : x y z
#
# Youngs Moduli (GPa) = 59.32633 71.49492 72.91486
#
# Poissons Ratio (x) = 0.17639 0.14122
# Poissons Ratio (y) = 0.14637 -0.15750
# Poissons Ratio (z) = 0.11490 -0.15443
#
# Static dielectric constant tensor:
#      x y z
#    x 1.653170 0.000000 0.000000 
#    y 0.000000 1.646110 0.000000 
#    z 0.000000 0.000000 1.790240 
# 
# From -- ./inp_files/9566.got.cif
#   From: 2010.05.17/outbox.cif.g08.bks.cpg/sg55_5_cif.got.tgz:9566.got - 2010.06.03 13:27:54.
