data_PCOD9427922
_publ_section_title
;
Structure prediction by ZEFSAII (Michael W. Deem and Ramdas Pophale) SiO2 
 PCOD9427922
Probable space group: P B A M
;
_chemical_formula_sum "Si O2"
_cell_formula_units_Z 64
_cell_length_a 11.145394
_cell_length_b 32.953518
_cell_length_c 9.165961
_cell_angle_alpha 90.000000
_cell_angle_beta 90.000000
_cell_angle_gamma 90.000000
_cell_volume 3366.473623
_symmetry_space_group_name_H-M "P B A M"
_symmetry_group_IT_number 55
_symmetry_cell_setting 'orthorhombic'
loop_
_space_group_symop_operation_xyz
x,y,z
-x,-y,z
1/2+x,1/2-y,-z
1/2-x,1/2+y,-z
-x,-y,-z
x,y,-z
1/2-x,1/2+y,z
1/2+x,1/2-y,z
loop_
_atom_site_type_symbol
_atom_site_label
_atom_site_fract_x
_atom_site_fract_y
_atom_site_fract_z
Si Si1 0.382474 0.974336 0.323016
Si Si2 0.511125 0.671055 0.667713
Si Si3 0.710674 0.266870 0.665632
Si Si4 0.107162 0.380269 0.671450
Si Si5 0.748075 0.688863 0.827703
Si Si6 0.841503 0.344386 0.670747
Si Si7 0.632456 0.481277 0.675414
Si Si8 0.637250 0.394435 0.826148
O O1 0.387118 0.975260 0.500000
O O2 0.393000 0.927155 0.280179
O O3 0.500000 0.000000 0.272503
O O4 0.251135 0.992354 0.283722
O O5 0.543483 0.662416 0.500000
O O6 0.400130 0.702095 0.667528
O O7 0.618155 0.691125 0.754797
O O8 0.470060 0.630464 0.750016
O O9 0.726571 0.251329 0.500000
O O10 0.688224 0.229608 0.771344
O O11 0.822473 0.296602 0.702595
O O12 0.142164 0.379195 0.500000
O O13 0.192368 0.351624 0.764411
O O14 0.975144 0.360828 0.682522
O O15 0.743101 0.687584 0.000000
O O16 0.803132 0.349793 0.500000
O O17 0.756088 0.370558 0.773965
O O18 0.500000 0.500000 0.704586
O O19 0.639210 0.474457 0.500000
O O20 0.641397 0.439229 0.760863
O O21 0.626227 0.394260 0.000000
#
# Coordination Sequence:
#
# PCOD9427922 Si02
#       8
#     8   8   8   8   8   8   8   8
#     4   9  18  35  61  91 119 150 200 260 307 354
#     4  10  22  42  66  86 113 156 208 254 292 352
#     4   9  20  39  62  87 112 152 205 253 294 349
#     4  10  21  38  63  91 120 158 205 253 299 356
#     4  12  26  39  56  88 128 163 194 245 311 367
#     4   9  19  38  64  90 115 154 206 251 291 351
#     4  10  21  36  58  87 117 158 209 253 300 365
#     4  11  22  37  60  90 123 156 192 243 314 371
#
# _framework density 19.01099
#
# number of rings (size 3 to 8) (size 9 to 14) (size 15 to 20)
#    0.000    2.000    0.000    4.125    3.500    5.250 
#    0.000    0.625    0.000    1.500    0.000    0.000 
#    0.000    0.000    0.000    0.000    0.000    0.000 
#
# Total GULP energy -357233.042276 kJ/mol
# GULP energy per Si atom -5581.766286 kJ/mol
# Density = 1.896772 g / cm^3
# Si number density = 19.010990 Si / 1000 Ang^3
#
#
#
# Elastic Constant Matrix: (Units=GPa)
#
#
# Indices 1 2 3 4 5 6 
#
# 1 73.4127 38.0380 31.8497 0.0000 0.0000 0.0000
# 2 38.0380 112.3699 49.4264 0.0000 0.0000 0.0000
# 3 31.8497 49.4264 87.2984 0.0000 0.0000 0.0000
# 4 0.0000 0.0000 0.0000 -1.6792 0.0000 0.0000
# 5 0.0000 0.0000 0.0000 0.0000 15.4574 0.0000
# 6 0.0000 0.0000 0.0000 0.0000 0.0000 18.6058
#
#
#
# Elastic Compliance Matrix: (Units=1/GPa)
#
#
# Indices 1 2 3 4 5 6 
#
# 1 0.017528 -0.004155 -0.004042 0.000000 0.000000 0.000000
# 2 -0.004155 0.012835 -0.005751 0.000000 0.000000 0.000000
# 3 -0.004042 -0.005751 0.016186 0.000000 0.000000 0.000000
# 4 0.000000 0.000000 0.000000 -0.595524 0.000000 0.000000
# 5 0.000000 0.000000 0.000000 0.000000 0.064694 0.000000
# 6 0.000000 0.000000 0.000000 0.000000 0.000000 0.053747
#
#
# Mechanical properties :
#
#
# Convention : Reuss Voigt Hill
#
# Bulk Modulus (GPa) = 53.61326 56.85656 55.23491
# Shear Modulus (GPa) = -12.61294 16.72794 2.05750
#
# Velocity S-wave (km/s) = -2.57856 2.96954 1.04145
# Velocity P-wave (km/s) = 4.40422 6.45985 5.52842
#
# Compressibility (1/GPa) = 0.01865210
#
# Stress axis : x y z
#
# Youngs Moduli (GPa) = 57.05005 77.90911 61.78231
#
# Poissons Ratio (x) = 0.32375 0.24974
# Poissons Ratio (y) = 0.23707 0.35531
# Poissons Ratio (z) = 0.23061 0.44806
#
# Static dielectric constant tensor:
#      x y z
#    x 1.700640 0.000000 0.000000 
#    y 0.000000 1.663530 0.000000 
#    z 0.000000 0.000000 1.628270 
# 
# From -- ./inp_files/4505.got.cif
#   From: 2010.05.17/outbox.cif.g08.bks.cpg/sg55_3_cif.got.tgz:4505.got - 2010.06.03 13:27:54.
