data_PCOD9427077
_publ_section_title
;
Structure prediction by ZEFSAII (Michael W. Deem and Ramdas Pophale) SiO2 
 PCOD9427077
Probable space group: P B A M
;
_chemical_formula_sum "Si O2"
_cell_formula_units_Z 48
_cell_length_a 28.830612
_cell_length_b 5.005989
_cell_length_c 14.103169
_cell_angle_alpha 90.000000
_cell_angle_beta 90.000000
_cell_angle_gamma 90.000000
_cell_volume 2035.450112
_symmetry_space_group_name_H-M "P B A M"
_symmetry_group_IT_number 55
_symmetry_cell_setting 'orthorhombic'
loop_
_space_group_symop_operation_xyz
x,y,z
-x,-y,z
1/2+x,1/2-y,-z
1/2-x,1/2+y,-z
-x,-y,-z
x,y,-z
1/2-x,1/2+y,z
1/2+x,1/2-y,z
loop_
_atom_site_type_symbol
_atom_site_label
_atom_site_fract_x
_atom_site_fract_y
_atom_site_fract_z
Si Si1 0.723327 0.887254 0.637390
Si Si2 0.385527 0.986547 0.109021
Si Si3 0.094248 0.998282 0.237133
Si Si4 0.721708 0.944853 0.135572
Si Si5 0.954845 0.324440 0.609481
Si Si6 0.366176 0.785221 0.398325
O O1 0.764670 0.088662 0.608518
O O2 0.720729 0.918630 0.750650
O O3 0.676439 0.014478 0.601407
O O4 0.410474 0.750059 0.167318
O O5 0.329435 0.958442 0.107434
O O6 0.394197 0.252814 0.169387
O O7 0.401326 0.002414 0.000000
O O8 0.055026 0.902061 0.311925
O O9 0.135191 0.085684 0.309631
O O10 0.760975 0.154418 0.104985
O O11 0.958322 0.225637 0.500000
O O12 0.911438 0.528525 0.614098
O O13 0.000000 0.500000 0.629953
O O14 0.369431 0.644551 0.500000
#
# Coordination Sequence:
#
# PCOD9427077 Si02
#       6
#     8   8   8   8   8   8
#     4  10  22  37  60  91 134 186 233 277 328 397
#     4  12  26  43  69  98 132 185 241 289 352 421
#     4  12  23  46  69  99 141 178 227 283 355 409
#     4  10  20  35  60  89 127 171 227 295 357 401
#     4  10  23  45  77 115 146 178 226 285 358 432
#     4  11  24  42  69 103 142 187 232 279 343 421
#
# _framework density 23.582006
#
# number of rings (size 3 to 8) (size 9 to 14) (size 15 to 20)
#    0.000    1.167    3.333    2.000    7.000    2.000 
#    0.000    2.500    0.000    3.000    0.000    0.000 
#    0.000    0.000    0.000    0.000    0.000    0.000 
#
# Total GULP energy -268688.240923 kJ/mol
# GULP energy per Si atom -5597.671686 kJ/mol
# Density = 2.352833 g / cm^3
# Si number density = 23.582006 Si / 1000 Ang^3
#
#
#
# Elastic Constant Matrix: (Units=GPa)
#
#
# Indices 1 2 3 4 5 6 
#
# 1 81.7271 9.1987 7.3831 0.0000 0.0000 0.0000
# 2 9.1987 119.8955 55.9604 0.0000 0.0000 0.0000
# 3 7.3831 55.9604 212.8234 0.0000 0.0000 0.0000
# 4 0.0000 0.0000 0.0000 -11.5390 0.0000 0.0000
# 5 0.0000 0.0000 0.0000 0.0000 12.5340 0.0000
# 6 0.0000 0.0000 0.0000 0.0000 0.0000 34.7935
#
#
#
# Elastic Compliance Matrix: (Units=1/GPa)
#
#
# Indices 1 2 3 4 5 6 
#
# 1 0.012350 -0.000852 -0.000204 0.000000 0.000000 0.000000
# 2 -0.000852 0.009566 -0.002486 0.000000 0.000000 0.000000
# 3 -0.000204 -0.002486 0.005359 0.000000 0.000000 0.000000
# 4 0.000000 0.000000 0.000000 -0.086663 0.000000 0.000000
# 5 0.000000 0.000000 0.000000 0.000000 0.079783 0.000000
# 6 0.000000 0.000000 0.000000 0.000000 0.000000 0.028741
#
#
# Mechanical properties :
#
#
# Convention : Reuss Voigt Hill
#
# Bulk Modulus (GPa) = 49.52653 62.17007 55.84830
# Shear Modulus (GPa) = 79.42525 29.95128 54.68827
#
# Velocity S-wave (km/s) = 5.80978 3.56770 4.82089
# Velocity P-wave (km/s) = 8.12725 6.58725 7.39743
#
# Compressibility (1/GPa) = 0.02019120
#
# Stress axis : x y z
#
# Youngs Moduli (GPa) = 80.97024 104.53464 186.58646
#
# Poissons Ratio (x) = 0.08908 0.03813
# Poissons Ratio (y) = 0.06900 0.46382
# Poissons Ratio (z) = 0.01655 0.25985
#
# Static dielectric constant tensor:
#      x y z
#    x 1.880310 0.000000 0.000000 
#    y 0.000000 1.893840 0.000000 
#    z 0.000000 0.000000 1.977160 
# 
# From -- ./inp_files/20051.got.cif
#   From: 2010.05.17/outbox.cif.g08.bks.cpg/sg55_11_cif.got.tgz:20051.got - 2010.06.03 13:27:54.
