data_PCOD9427458
_publ_section_title
;
Structure prediction by ZEFSAII (Michael W. Deem and Ramdas Pophale) SiO2 
 PCOD9427458
Probable space group: P B A M
;
_chemical_formula_sum "Si O2"
_cell_formula_units_Z 48
_cell_length_a 30.994794
_cell_length_b 10.849432
_cell_length_c 7.590413
_cell_angle_alpha 90.000000
_cell_angle_beta 90.000000
_cell_angle_gamma 90.000000
_cell_volume 2552.473038
_symmetry_space_group_name_H-M "P B A M"
_symmetry_group_IT_number 55
_symmetry_cell_setting 'orthorhombic'
loop_
_space_group_symop_operation_xyz
x,y,z
-x,-y,z
1/2+x,1/2-y,-z
1/2-x,1/2+y,-z
-x,-y,-z
x,y,-z
1/2-x,1/2+y,z
1/2+x,1/2-y,z
loop_
_atom_site_type_symbol
_atom_site_label
_atom_site_fract_x
_atom_site_fract_y
_atom_site_fract_z
Si Si1 0.381066 0.541288 0.212097
Si Si2 0.281604 0.516307 0.291578
Si Si3 0.482332 0.195758 0.500000
Si Si4 0.464435 0.392614 0.206644
Si Si5 0.377655 0.821474 0.794847
Si Si6 0.722188 0.206218 0.285152
Si Si7 0.928728 0.545244 0.500000
O O1 0.332972 0.503926 0.266543
O O2 0.418865 0.450116 0.268302
O O3 0.389320 0.682480 0.268575
O O4 0.381845 0.544314 0.000000
O O5 0.273003 0.519093 0.500000
O O6 0.269101 0.653060 0.223500
O O7 0.255390 0.398537 0.222908
O O8 0.477948 0.280641 0.328638
O O9 0.528042 0.127347 0.500000
O O10 0.444690 0.094324 0.500000
O O11 0.500000 0.500000 0.220829
O O12 0.461289 0.358561 0.000000
O O13 0.325994 0.828035 0.774832
O O14 0.400965 0.918509 0.670592
O O15 0.389410 0.834621 0.000000
O O16 0.722133 0.208955 0.500000
#
# Coordination Sequence:
#
# PCOD9427458 Si02
#       7
#     8   8   4   8   8   8   4
#     4   9  19  34  56  85 114 145 189 240 290 343
#     4   9  18  31  52  78 111 153 189 236 290 340
#     4  11  25  40  60  85 116 157 185 236 296 341
#     4  10  21  39  61  89 119 147 191 244 291 347
#     4  10  20  37  62  85 112 153 193 237 284 338
#     4   9  17  34  53  80 114 148 196 240 284 345
#     4  11  24  42  58  83 117 150 199 234 275 354
#
# _framework density 18.805292000000001
#
# number of rings (size 3 to 8) (size 9 to 14) (size 15 to 20)
#    0.000    2.333    0.833    1.250    2.333    3.333 
#    3.000    1.667    0.000    0.000    0.000    0.000 
#    0.000    0.000    0.000    0.000    0.000    0.000 
#
# Total GULP energy -267939.528783 kJ/mol
# GULP energy per Si atom -5582.073516 kJ/mol
# Density = 1.876249 g / cm^3
# Si number density = 18.805292 Si / 1000 Ang^3
#
#
#
# Elastic Constant Matrix: (Units=GPa)
#
#
# Indices 1 2 3 4 5 6 
#
# 1 60.2809 50.4913 16.7501 0.0000 0.0000 0.0000
# 2 50.4913 96.9880 39.6241 0.0000 0.0000 0.0000
# 3 16.7501 39.6241 74.9551 0.0000 0.0000 0.0000
# 4 0.0000 0.0000 0.0000 -46.1646 0.0000 0.0000
# 5 0.0000 0.0000 0.0000 0.0000 37.3023 0.0000
# 6 0.0000 0.0000 0.0000 0.0000 0.0000 36.0124
#
#
#
# Elastic Compliance Matrix: (Units=1/GPa)
#
#
# Indices 1 2 3 4 5 6 
#
# 1 0.029639 -0.016229 0.001956 0.000000 0.000000 0.000000
# 2 -0.016229 0.022037 -0.008023 0.000000 0.000000 0.000000
# 3 0.001956 -0.008023 0.017145 0.000000 0.000000 0.000000
# 4 0.000000 0.000000 0.000000 -0.021662 0.000000 0.000000
# 5 0.000000 0.000000 0.000000 0.000000 0.026808 0.000000
# 6 0.000000 0.000000 0.000000 0.000000 0.000000 0.027768
#
#
# Mechanical properties :
#
#
# Convention : Reuss Voigt Hill
#
# Bulk Modulus (GPa) = 41.27218 49.55054 45.41136
# Shear Modulus (GPa) = 32.38262 13.78727 23.08495
#
# Velocity S-wave (km/s) = 4.15419 2.71063 3.50748
# Velocity P-wave (km/s) = 6.70854 6.01690 6.37211
#
# Compressibility (1/GPa) = 0.02422939
#
# Stress axis : x y z
#
# Youngs Moduli (GPa) = 33.73959 45.37850 58.32446
#
# Poissons Ratio (x) = 0.73644 -0.11407
# Poissons Ratio (y) = 0.54755 0.46793
# Poissons Ratio (z) = -0.06599 0.36407
#
# Static dielectric constant tensor:
#      x y z
#    x 1.631670 0.000000 0.000000 
#    y 0.000000 1.646630 0.000000 
#    z 0.000000 0.000000 1.667410 
# 
# From -- ./inp_files/2946.got.cif
#   From: 2010.05.17/outbox.cif.g08.bks.cpg/sg55_2_cif.got.tgz:2946.got - 2010.06.03 13:27:54.
