data_PCOD9427708
_publ_section_title
;
Structure prediction by ZEFSAII (Michael W. Deem and Ramdas Pophale) SiO2 
 PCOD9427708
Probable space group: P B A M
;
_chemical_formula_sum "Si O2"
_cell_formula_units_Z 38
_cell_length_a 7.661121
_cell_length_b 12.501969
_cell_length_c 15.942266
_cell_angle_alpha 90.000000
_cell_angle_beta 90.000000
_cell_angle_gamma 90.000000
_cell_volume 1526.935846
_symmetry_space_group_name_H-M "P B A M"
_symmetry_group_IT_number 55
_symmetry_cell_setting 'orthorhombic'
loop_
_space_group_symop_operation_xyz
x,y,z
-x,-y,z
1/2+x,1/2-y,-z
1/2-x,1/2+y,-z
-x,-y,-z
x,y,-z
1/2-x,1/2+y,z
1/2+x,1/2-y,z
loop_
_atom_site_type_symbol
_atom_site_label
_atom_site_fract_x
_atom_site_fract_y
_atom_site_fract_z
Si Si1 0.512406 0.661737 0.097374
Si Si2 0.421688 0.892069 0.098775
Si Si3 0.000000 0.000000 0.500000
Si Si4 0.017210 0.379920 0.404100
Si Si5 0.092428 0.848049 0.362977
Si Si6 0.500000 0.500000 0.782085
O O1 0.499267 0.781134 0.131528
O O2 0.712895 0.623116 0.101017
O O3 0.403157 0.581275 0.154814
O O4 0.454459 0.657225 0.000000
O O5 0.500000 0.000000 0.136565
O O6 0.471560 0.892329 0.000000
O O7 0.038932 0.090607 0.425737
O O8 0.947274 0.379790 0.500000
O O9 0.944481 0.277610 0.354882
O O10 0.000000 0.500000 0.369334
O O11 0.223678 0.361714 0.408191
O O12 0.097412 0.916446 0.278085
#
# Coordination Sequence:
#
# PCOD9427708 Si02
#       6
#     8   8   2   8   8   4
#     4  10  22  43  70  97 134 185 236 283 342 406
#     4   9  20  39  68 101 129 168 231 290 338 403
#     4  10  20  40  70  92 132 178 214 270 338 402
#     4  11  24  43  75 106 132 180 234 273 342 417
#     4  11  25  43  69  99 142 174 225 283 341 405
#     4  11  27  43  65  98 138 186 227 283 347 397
#
# _framework density 24.886441999999999
#
# number of rings (size 3 to 8) (size 9 to 14) (size 15 to 20)
#    0.000    1.684    2.105    0.316    8.842    1.684 
#    0.000    2.105    0.000    0.000    0.000    0.000 
#    0.000    0.000    0.000    0.000    0.000    0.000 
#
# Total GULP energy -211794.238382 kJ/mol
# GULP energy per Si atom -5573.532589 kJ/mol
# Density = 2.482980 g / cm^3
# Si number density = 24.886442 Si / 1000 Ang^3
#
#
#
# Elastic Constant Matrix: (Units=GPa)
#
#
# Indices 1 2 3 4 5 6 
#
# 1 48.3437 36.5018 1.9626 0.0000 0.0000 0.0000
# 2 36.5018 288.1170 65.4506 0.0000 0.0000 0.0000
# 3 1.9626 65.4506 105.7097 0.0000 0.0000 0.0000
# 4 0.0000 0.0000 0.0000 3.3643 0.0000 0.0000
# 5 0.0000 0.0000 0.0000 0.0000 16.2638 0.0000
# 6 0.0000 0.0000 0.0000 0.0000 0.0000 30.4955
#
#
#
# Elastic Compliance Matrix: (Units=1/GPa)
#
#
# Indices 1 2 3 4 5 6 
#
# 1 0.023106 -0.003293 0.001610 0.000000 0.000000 0.000000
# 2 -0.003293 0.004508 -0.002730 0.000000 0.000000 0.000000
# 3 0.001610 -0.002730 0.011120 0.000000 0.000000 0.000000
# 4 0.000000 0.000000 0.000000 0.297240 0.000000 0.000000
# 5 0.000000 0.000000 0.000000 0.000000 0.061486 0.000000
# 6 0.000000 0.000000 0.000000 0.000000 0.000000 0.032792
#
#
# Mechanical properties :
#
#
# Convention : Reuss Voigt Hill
#
# Bulk Modulus (GPa) = 33.43552 72.22226 52.82889
# Shear Modulus (GPa) = 11.13465 32.57508 21.85486
#
# Velocity S-wave (km/s) = 2.11752 3.62186 2.96663
# Velocity P-wave (km/s) = 4.40941 6.82453 5.74531
#
# Compressibility (1/GPa) = 0.02990831
#
# Stress axis : x y z
#
# Youngs Moduli (GPa) = 43.27823 221.81732 89.92512
#
# Poissons Ratio (x) = 0.73046 -0.14477
# Poissons Ratio (y) = 0.14252 0.24551
# Poissons Ratio (z) = -0.06968 0.60559
#
# Static dielectric constant tensor:
#      x y z
#    x 2.058590 0.000000 0.000000 
#    y 0.000000 2.053430 0.000000 
#    z 0.000000 0.000000 2.025320 
# 
# From -- ./inp_files/20645.got.cif
#   From: 2010.05.17/outbox.cif.g08.bks.cpg/sg55_11_cif.got.tgz:20645.got - 2010.06.03 13:27:54.
