data_PCOD9427346
_publ_section_title
;
Structure prediction by ZEFSAII (Michael W. Deem and Ramdas Pophale) SiO2 
 PCOD9427346
Probable space group: P B A M
;
_chemical_formula_sum "Si O2"
_cell_formula_units_Z 34
_cell_length_a 6.973694
_cell_length_b 23.742300
_cell_length_c 7.553908
_cell_angle_alpha 90.000000
_cell_angle_beta 90.000000
_cell_angle_gamma 90.000000
_cell_volume 1250.712143
_symmetry_space_group_name_H-M "P B A M"
_symmetry_group_IT_number 55
_symmetry_cell_setting 'orthorhombic'
loop_
_space_group_symop_operation_xyz
x,y,z
-x,-y,z
1/2+x,1/2-y,-z
1/2-x,1/2+y,-z
-x,-y,-z
x,y,-z
1/2-x,1/2+y,z
1/2+x,1/2-y,z
loop_
_atom_site_type_symbol
_atom_site_label
_atom_site_fract_x
_atom_site_fract_y
_atom_site_fract_z
Si Si1 0.526706 0.914212 0.700565
Si Si2 0.897032 0.056656 0.794881
Si Si3 0.000000 0.500000 0.000000
Si Si4 0.082411 0.293979 0.704824
Si Si5 0.525873 0.327407 0.704355
O O1 0.599482 0.920608 0.500000
O O2 0.296905 0.927940 0.693735
O O3 0.539961 0.848477 0.763405
O O4 0.591705 0.958463 0.844564
O O5 0.037381 0.110580 0.785799
O O6 0.828300 0.049039 0.000000
O O7 0.000000 0.000000 0.735574
O O8 0.021821 0.285024 0.500000
O O9 0.298403 0.315285 0.706476
O O10 0.095350 0.231669 0.786621
O O11 0.589821 0.331321 0.500000
#
# Coordination Sequence:
#
# PCOD9427346 Si02
#       5
#     8   8   2   8   8
#     4  10  21  39  62  84 118 162 194 240 303 352
#     4  10  20  37  57  83 118 155 200 246 296 355
#     4  12  22  40  58  86 120 152 200 242 282 364
#     4   8  16  33  55  80 109 147 192 235 290 351
#     4   9  17  33  56  80 110 149 193 243 294 352
#
# _framework density 27.184511000000001
#
# number of rings (size 3 to 8) (size 9 to 14) (size 15 to 20)
#    0.000    2.588    1.176    2.471    0.000    1.882 
#    6.353    0.000    0.000    0.000    0.000    0.000 
#    0.000    0.000    0.000    0.000    0.000    0.000 
#
# Total GULP energy -189643.652904 kJ/mol
# GULP energy per Si atom -5577.754497 kJ/mol
# Density = 2.712264 g / cm^3
# Si number density = 27.184511 Si / 1000 Ang^3
#
#
#
# Elastic Constant Matrix: (Units=GPa)
#
#
# Indices 1 2 3 4 5 6 
#
# 1 60.6508 34.3768 6.8172 0.0000 0.0000 0.0000
# 2 34.3768 291.2762 70.6239 0.0000 0.0000 0.0000
# 3 6.8172 70.6239 128.1522 0.0000 0.0000 0.0000
# 4 0.0000 0.0000 0.0000 51.6074 0.0000 0.0000
# 5 0.0000 0.0000 0.0000 0.0000 13.8684 0.0000
# 6 0.0000 0.0000 0.0000 0.0000 0.0000 57.2268
#
#
#
# Elastic Compliance Matrix: (Units=1/GPa)
#
#
# Indices 1 2 3 4 5 6 
#
# 1 0.017676 -0.002145 0.000242 0.000000 0.000000 0.000000
# 2 -0.002145 0.004223 -0.002213 0.000000 0.000000 0.000000
# 3 0.000242 -0.002213 0.009010 0.000000 0.000000 0.000000
# 4 0.000000 0.000000 0.000000 0.019377 0.000000 0.000000
# 5 0.000000 0.000000 0.000000 0.000000 0.072106 0.000000
# 6 0.000000 0.000000 0.000000 0.000000 0.000000 0.017474
#
#
# Mechanical properties :
#
#
# Convention : Reuss Voigt Hill
#
# Bulk Modulus (GPa) = 44.09805 78.19056 61.14431
# Shear Modulus (GPa) = 32.12162 49.09128 40.60645
#
# Velocity S-wave (km/s) = 3.44119 4.25415 3.86908
# Velocity P-wave (km/s) = 5.66092 7.27707 6.51927
#
# Compressibility (1/GPa) = 0.02267674
#
# Stress axis : x y z
#
# Youngs Moduli (GPa) = 56.57288 236.80425 110.98783
#
# Poissons Ratio (x) = 0.50789 -0.02682
# Poissons Ratio (y) = 0.12134 0.24563
# Poissons Ratio (z) = -0.01367 0.52408
#
# Static dielectric constant tensor:
#      x y z
#    x 0.387270 0.000000 0.000000 
#    y 0.000000 1.082750 0.000000 
#    z 0.000000 0.000000 2.021370 
# 
# From -- ./inp_files/2150.got.cif
#   From: 2010.05.17/outbox.cif.g08.bks.cpg/sg55_2_cif.got.tgz:2150.got - 2010.06.03 13:27:54.
