data_PCOD9427416
_publ_section_title
;
Structure prediction by ZEFSAII (Michael W. Deem and Ramdas Pophale) SiO2 
 PCOD9427416
Probable space group: P B A M
;
_chemical_formula_sum "Si O2"
_cell_formula_units_Z 56
_cell_length_a 19.145302
_cell_length_b 17.638986
_cell_length_c 7.704903
_cell_angle_alpha 90.000000
_cell_angle_beta 90.000000
_cell_angle_gamma 90.000000
_cell_volume 2601.974359
_symmetry_space_group_name_H-M "P B A M"
_symmetry_group_IT_number 55
_symmetry_cell_setting 'orthorhombic'
loop_
_space_group_symop_operation_xyz
x,y,z
-x,-y,z
1/2+x,1/2-y,-z
1/2-x,1/2+y,-z
-x,-y,-z
x,y,-z
1/2-x,1/2+y,z
1/2+x,1/2-y,z
loop_
_atom_site_type_symbol
_atom_site_label
_atom_site_fract_x
_atom_site_fract_y
_atom_site_fract_z
Si Si1 0.078989 0.516409 0.213144
Si Si2 0.371741 0.179865 0.796863
Si Si3 0.147343 0.940081 0.799045
Si Si4 0.036385 0.817969 0.301355
Si Si5 0.302422 0.900151 0.211767
Si Si6 0.104053 0.106725 0.295496
Si Si7 0.719932 0.270624 0.210849
O O1 0.104774 0.598841 0.274553
O O2 0.133610 0.452119 0.269751
O O3 0.000000 0.500000 0.268151
O O4 0.078749 0.516717 0.000000
O O5 0.431407 0.243041 0.781862
O O6 0.298672 0.212359 0.726267
O O7 0.358382 0.166742 0.000000
O O8 0.095099 0.883074 0.705296
O O9 0.226986 0.933392 0.735422
O O10 0.120855 0.025797 0.786863
O O11 0.147342 0.915083 0.000000
O O12 0.020968 0.797853 0.500000
O O13 0.965734 0.853127 0.223968
O O14 0.304770 0.812683 0.267689
O O15 0.303851 0.901248 0.000000
O O16 0.092906 0.092205 0.500000
O O17 0.168116 0.163795 0.270320
O O18 0.719948 0.269835 0.000000
#
# Coordination Sequence:
#
# PCOD9427416 Si02
#       7
#     8   8   8   8   8   8   8
#     4   9  18  31  53  86 119 149 183 238 296 342
#     4  10  20  37  60  87 116 150 202 248 293 353
#     4  11  21  39  64  88 115 151 197 248 300 353
#     4  11  24  40  58  84 123 159 190 240 301 360
#     4   9  18  34  56  86 119 146 187 244 296 341
#     4  11  25  40  56  85 122 157 195 239 295 362
#     4  10  20  37  61  88 116 152 198 251 294 342
#
# _framework density 21.522117999999999
#
# number of rings (size 3 to 8) (size 9 to 14) (size 15 to 20)
#    0.000    1.857    1.429    2.571    2.000    6.857 
#    0.000    0.000    0.000    1.286    0.000    0.000 
#    0.000    0.000    0.000    0.000    0.000    0.000 
#
# Total GULP energy -313009.032771 kJ/mol
# GULP energy per Si atom -5589.447014 kJ/mol
# Density = 2.147313 g / cm^3
# Si number density = 21.522118 Si / 1000 Ang^3
#
#
#
# Elastic Constant Matrix: (Units=GPa)
#
#
# Indices 1 2 3 4 5 6 
#
# 1 40.6054 19.5740 -2.2925 0.0000 0.0000 0.0000
# 2 19.5740 137.0783 -6.9575 0.0000 0.0000 0.0000
# 3 -2.2925 -6.9575 33.8397 0.0000 0.0000 0.0000
# 4 0.0000 0.0000 0.0000 -35.3587 0.0000 0.0000
# 5 0.0000 0.0000 0.0000 0.0000 15.6873 0.0000
# 6 0.0000 0.0000 0.0000 0.0000 0.0000 -41.6939
#
#
#
# Elastic Compliance Matrix: (Units=1/GPa)
#
#
# Indices 1 2 3 4 5 6 
#
# 1 0.026483 -0.003729 0.001027 0.000000 0.000000 0.000000
# 2 -0.003729 0.007897 0.001371 0.000000 0.000000 0.000000
# 3 0.001027 0.001371 0.029903 0.000000 0.000000 0.000000
# 4 0.000000 0.000000 0.000000 -0.028282 0.000000 0.000000
# 5 0.000000 0.000000 0.000000 0.000000 0.063746 0.000000
# 6 0.000000 0.000000 0.000000 0.000000 0.000000 -0.023984
#
#
# Mechanical properties :
#
#
# Convention : Reuss Voigt Hill
#
# Bulk Modulus (GPa) = 16.22834 25.79684 21.01259
# Shear Modulus (GPa) = 50.52266 1.14023 25.83145
#
# Velocity S-wave (km/s) = 4.85033 0.72866 3.46819
# Velocity P-wave (km/s) = 6.23893 3.56653 5.08156
#
# Compressibility (1/GPa) = 0.06162060
#
# Stress axis : x y z
#
# Youngs Moduli (GPa) = 37.75992 126.62656 33.44192
#
# Poissons Ratio (x) = 0.47225 -0.03435
# Poissons Ratio (y) = 0.14083 -0.04585
# Poissons Ratio (z) = -0.03879 -0.17361
#
# Static dielectric constant tensor:
#      x y z
#    x 1.756400 0.000000 0.000000 
#    y 0.000000 1.727260 0.000000 
#    z 0.000000 0.000000 1.833270 
# 
# From -- ./inp_files/8760.got.cif
#   From: 2010.05.17/outbox.cif.g08.bks.cpg/sg55_5_cif.got.tgz:8760.got - 2010.06.03 13:27:54.
