data_PCOD9427815
_publ_section_title
;
Structure prediction by ZEFSAII (Michael W. Deem and Ramdas Pophale) SiO2 
 PCOD9427815
Probable space group: P B A M
;
_chemical_formula_sum "Si O2"
_cell_formula_units_Z 64
_cell_length_a 11.142189
_cell_length_b 33.363820
_cell_length_c 9.291969
_cell_angle_alpha 90.000000
_cell_angle_beta 90.000000
_cell_angle_gamma 90.000000
_cell_volume 3454.252198
_symmetry_space_group_name_H-M "P B A M"
_symmetry_group_IT_number 55
_symmetry_cell_setting 'orthorhombic'
loop_
_space_group_symop_operation_xyz
x,y,z
-x,-y,z
1/2+x,1/2-y,-z
1/2-x,1/2+y,-z
-x,-y,-z
x,y,-z
1/2-x,1/2+y,z
1/2+x,1/2-y,z
loop_
_atom_site_type_symbol
_atom_site_label
_atom_site_fract_x
_atom_site_fract_y
_atom_site_fract_z
Si Si1 0.618433 0.974564 0.324980
Si Si2 0.010565 0.828507 0.335169
Si Si3 0.075555 0.616505 0.672796
Si Si4 0.266892 0.191943 0.664900
Si Si5 0.885088 0.102230 0.165981
Si Si6 0.697520 0.726747 0.172132
Si Si7 0.142680 0.344883 0.164527
Si Si8 0.867678 0.018700 0.327039
O O1 0.616690 0.974742 0.500000
O O2 0.604237 0.928484 0.276067
O O3 0.500000 0.000000 0.278935
O O4 0.748916 0.992899 0.285167
O O5 0.054184 0.831989 0.500000
O O6 0.021934 0.871189 0.256555
O O7 0.089947 0.796971 0.247712
O O8 0.874947 0.814026 0.336421
O O9 0.193374 0.700815 0.500000
O O10 0.174061 0.649974 0.709913
O O11 0.952804 0.633979 0.735066
O O12 0.931696 0.385537 0.500000
O O13 0.297883 0.228752 0.767147
O O14 0.763424 0.128564 0.166899
O O15 0.862318 0.060414 0.243244
O O16 0.921759 0.097072 0.000000
O O17 0.816259 0.700037 0.206726
O O18 0.683841 0.725838 0.000000
O O19 0.097945 0.343713 0.000000
O O20 0.860825 0.024934 0.500000
O O21 0.000000 0.000000 0.298001
#
# Coordination Sequence:
#
# PCOD9427815 Si02
#       8
#     8   8   8   8   8   8   8   8
#     4   9  18  34  57  86 117 148 188 238 294 353
#     4  10  21  38  61  85 114 149 194 243 290 344
#     4  10  21  36  58  85 116 149 187 239 293 344
#     4  10  23  38  56  84 116 151 192 243 294 340
#     4  10  21  38  59  84 117 153 193 237 290 349
#     4  10  22  39  59  83 115 153 193 238 290 346
#     4   9  20  38  57  82 112 148 191 234 280 342
#     4  10  21  35  59  88 114 151 198 244 293 351
#
# _framework density 18.527889999999999
#
# number of rings (size 3 to 8) (size 9 to 14) (size 15 to 20)
#    0.000    2.250    0.000    2.625    3.500    5.750 
#    0.000    0.625    0.000    2.250    0.000    0.000 
#    0.000    0.000    0.000    0.000    0.000    0.000 
#
# Total GULP energy -356992.338955 kJ/mol
# GULP energy per Si atom -5578.005296 kJ/mol
# Density = 1.848572 g / cm^3
# Si number density = 18.527890 Si / 1000 Ang^3
#
#
#
# Elastic Constant Matrix: (Units=GPa)
#
#
# Indices 1 2 3 4 5 6 
#
# 1 75.2851 52.4036 30.5706 0.0000 0.0000 0.0000
# 2 52.4036 159.2790 59.0537 0.0000 0.0000 0.0000
# 3 30.5706 59.0537 53.3721 0.0000 0.0000 0.0000
# 4 0.0000 0.0000 0.0000 17.2920 0.0000 0.0000
# 5 0.0000 0.0000 0.0000 0.0000 925.7996 0.0000
# 6 0.0000 0.0000 0.0000 0.0000 0.0000 20.5611
#
#
#
# Elastic Compliance Matrix: (Units=1/GPa)
#
#
# Indices 1 2 3 4 5 6 
#
# 1 0.018484 -0.003656 -0.006543 0.000000 0.000000 0.000000
# 2 -0.003656 0.011368 -0.010485 0.000000 0.000000 0.000000
# 3 -0.006543 -0.010485 0.034084 0.000000 0.000000 0.000000
# 4 0.000000 0.000000 0.000000 0.057830 0.000000 0.000000
# 5 0.000000 0.000000 0.000000 0.000000 0.001080 0.000000
# 6 0.000000 0.000000 0.000000 0.000000 0.000000 0.048635
#
#
# Mechanical properties :
#
#
# Convention : Reuss Voigt Hill
#
# Bulk Modulus (GPa) = 44.30396 63.55468 53.92932
# Shear Modulus (GPa) = 22.68889 202.45775 112.57332
#
# Velocity S-wave (km/s) = 3.50320 10.46466 7.80325
# Velocity P-wave (km/s) = 6.35036 13.43089 10.50514
#
# Compressibility (1/GPa) = 0.02257135
#
# Stress axis : x y z
#
# Youngs Moduli (GPa) = 54.10036 87.96443 29.33887
#
# Poissons Ratio (x) = 0.32157 0.19195
# Poissons Ratio (y) = 0.19777 0.30760
# Poissons Ratio (z) = 0.35396 0.92226
#
# Static dielectric constant tensor:
#      x y z
#    x 1.703800 0.000000 0.000000 
#    y 0.000000 1.630740 0.000000 
#    z 0.000000 0.000000 1.626590 
# 
# From -- ./inp_files/4633.got.cif
#   From: 2010.05.17/outbox.cif.g08.bks.cpg/sg55_3_cif.got.tgz:4633.got - 2010.06.03 13:27:54.
