data_PCOD9427956
_publ_section_title
;
Structure prediction by ZEFSAII (Michael W. Deem and Ramdas Pophale) SiO2 
 PCOD9427956
Probable space group: P B A M
;
_chemical_formula_sum "Si O2"
_cell_formula_units_Z 40
_cell_length_a 22.283327
_cell_length_b 13.595704
_cell_length_c 7.742755
_cell_angle_alpha 90.000000
_cell_angle_beta 90.000000
_cell_angle_gamma 90.000000
_cell_volume 2345.725837
_symmetry_space_group_name_H-M "P B A M"
_symmetry_group_IT_number 55
_symmetry_cell_setting 'orthorhombic'
loop_
_space_group_symop_operation_xyz
x,y,z
-x,-y,z
1/2+x,1/2-y,-z
1/2-x,1/2+y,-z
-x,-y,-z
x,y,-z
1/2-x,1/2+y,z
1/2+x,1/2-y,z
loop_
_atom_site_type_symbol
_atom_site_label
_atom_site_fract_x
_atom_site_fract_y
_atom_site_fract_z
Si Si1 0.280482 0.619248 0.298538
Si Si2 0.068679 0.379281 0.500000
Si Si3 0.653649 0.190031 0.199998
Si Si4 0.846191 0.300061 0.200434
Si Si5 0.781833 0.100360 0.792294
Si Si6 0.572262 0.885093 0.500000
O O1 0.275288 0.644648 0.500000
O O2 0.326415 0.696097 0.214796
O O3 0.215208 0.636715 0.214718
O O4 0.297879 0.505884 0.279135
O O5 0.101077 0.335636 0.668865
O O6 0.077672 0.496875 0.500000
O O7 0.997890 0.359201 0.500000
O O8 0.713835 0.130719 0.256067
O O9 0.640315 0.166511 0.000000
O O10 0.825443 0.190212 0.255262
O O11 0.894433 0.342922 0.331426
O O12 0.865344 0.299291 0.000000
O O13 0.782505 0.095561 0.000000
#
# Coordination Sequence:
#
# PCOD9427956 Si02
#       6
#     8   4   8   8   8   4
#     4  11  19  30  56  87 114 141 172 215 270 327
#     4  11  24  39  55  81 103 141 189 222 268 309
#     4  10  21  37  55  79 115 145 175 220 266 320
#     4  10  21  37  55  80 113 145 176 217 269 320
#     4   9  19  32  53  85 113 140 174 211 267 332
#     4  11  24  39  57  77 107 139 185 232 258 313
#
# _framework density 17.052291
#
# number of rings (size 3 to 8) (size 9 to 14) (size 15 to 20)
#    0.000    1.800    2.000    4.200    2.800    3.200 
#    0.000    2.000    0.000    2.400    0.000    4.200 
#    0.000    0.000    0.000    0.000    0.000    0.000 
#
# Total GULP energy -223351.784139 kJ/mol
# GULP energy per Si atom -5583.794603 kJ/mol
# Density = 1.701348 g / cm^3
# Si number density = 17.052291 Si / 1000 Ang^3
#
#
#
# Elastic Constant Matrix: (Units=GPa)
#
#
# Indices 1 2 3 4 5 6 
#
# 1 118.4275 53.0982 68.2300 0.0000 0.0000 0.0000
# 2 53.0982 92.6820 33.8901 0.0000 0.0000 0.0000
# 3 68.2300 33.8901 102.1772 0.0000 0.0000 0.0000
# 4 0.0000 0.0000 0.0000 25.6720 0.0000 0.0000
# 5 0.0000 0.0000 0.0000 0.0000 0.6150 0.0000
# 6 0.0000 0.0000 0.0000 0.0000 0.0000 16.2038
#
#
#
# Elastic Compliance Matrix: (Units=1/GPa)
#
#
# Indices 1 2 3 4 5 6 
#
# 1 0.016269 -0.006086 -0.008845 0.000000 0.000000 0.000000
# 2 -0.006086 0.014556 -0.000764 0.000000 0.000000 0.000000
# 3 -0.008845 -0.000764 0.015947 0.000000 0.000000 0.000000
# 4 0.000000 0.000000 0.000000 0.038953 0.000000 0.000000
# 5 0.000000 0.000000 0.000000 0.000000 1.626118 0.000000
# 6 0.000000 0.000000 0.000000 0.000000 0.000000 0.061714
#
#
# Mechanical properties :
#
#
# Convention : Reuss Voigt Hill
#
# Bulk Modulus (GPa) = 65.01433 69.30259 67.15846
# Shear Modulus (GPa) = 2.76232 19.03604 10.89918
#
# Velocity S-wave (km/s) = 1.27414 3.34478 2.53091
# Velocity P-wave (km/s) = 6.35404 7.45964 6.92892
#
# Compressibility (1/GPa) = 0.01538122
#
# Stress axis : x y z
#
# Youngs Moduli (GPa) = 61.46795 68.70181 62.70963
#
# Poissons Ratio (x) = 0.41813 0.55466
# Poissons Ratio (y) = 0.37411 0.04789
# Poissons Ratio (z) = 0.54368 0.05247
#
# Static dielectric constant tensor:
#      x y z
#    x 1.536650 0.000000 0.000000 
#    y 0.000000 1.592240 0.000000 
#    z 0.000000 0.000000 1.589920 
# 
# From -- ./inp_files/3663.got.cif
#   From: 2010.05.17/outbox.cif.g08.bks.cpg/sg55_2_cif.got.tgz:3663.got - 2010.06.03 13:27:54.
