data_PCOD9427632
_publ_section_title
;
Structure prediction by ZEFSAII (Michael W. Deem and Ramdas Pophale) SiO2 
 PCOD9427632
Probable space group: P B A M
;
_chemical_formula_sum "Si O2"
_cell_formula_units_Z 56
_cell_length_a 9.591609
_cell_length_b 14.170479
_cell_length_c 20.903035
_cell_angle_alpha 90.000000
_cell_angle_beta 90.000000
_cell_angle_gamma 90.000000
_cell_volume 2841.092313
_symmetry_space_group_name_H-M "P B A M"
_symmetry_group_IT_number 55
_symmetry_cell_setting 'orthorhombic'
loop_
_space_group_symop_operation_xyz
x,y,z
-x,-y,z
1/2+x,1/2-y,-z
1/2-x,1/2+y,-z
-x,-y,-z
x,y,-z
1/2-x,1/2+y,z
1/2+x,1/2-y,z
loop_
_atom_site_type_symbol
_atom_site_label
_atom_site_fract_x
_atom_site_fract_y
_atom_site_fract_z
Si Si1 0.866252 0.775415 0.655849
Si Si2 0.083466 0.409746 0.573041
Si Si3 0.841054 0.985658 0.619185
Si Si4 0.846901 0.819508 0.923174
Si Si5 0.359642 0.357015 0.277848
Si Si6 0.658864 0.661167 0.871466
Si Si7 0.157081 0.503147 0.924469
O O1 0.918811 0.691584 0.608213
O O2 0.808982 0.873322 0.623781
O O3 0.754516 0.719524 0.698818
O O4 0.994309 0.815774 0.696921
O O5 0.035857 0.397079 0.500000
O O6 0.239073 0.452385 0.575719
O O7 0.000000 0.500000 0.602497
O O8 0.832394 0.042264 0.687260
O O9 0.000000 0.000000 0.597544
O O10 0.759611 0.749475 0.879308
O O11 0.008740 0.823531 0.904089
O O12 0.762627 0.913919 0.908212
O O13 0.836466 0.798629 0.000000
O O14 0.360594 0.366435 0.202064
O O15 0.751831 0.586146 0.908241
O O16 0.000000 0.500000 0.895857
O O17 0.138166 0.510822 0.000000
#
# Coordination Sequence:
#
# PCOD9427632 Si02
#       7
#     8   8   8   8   8   8   8
#     4  10  20  39  59  82 119 156 190 240 300 344
#     4  10  21  37  59  88 118 153 198 240 286 350
#     4   9  20  38  58  81 114 152 190 238 292 344
#     4  11  23  38  59  85 116 153 192 245 306 362
#     4  10  22  37  58  84 112 152 195 239 291 353
#     4  12  23  38  60  88 117 153 202 248 297 363
#     4  10  22  40  59  81 113 151 192 244 306 365
#
# _framework density 19.710730000000002
#
# number of rings (size 3 to 8) (size 9 to 14) (size 15 to 20)
#    0.000    1.714    0.000    4.286    0.000    7.714 
#    0.000   11.429    0.000    0.000    0.000    0.000 
#    0.000    0.000    0.000    0.000    0.000    0.000 
#
# Total GULP energy -312048.231382 kJ/mol
# GULP energy per Si atom -5572.289846 kJ/mol
# Density = 1.966587 g / cm^3
# Si number density = 19.710730 Si / 1000 Ang^3
#
#
#
# Elastic Constant Matrix: (Units=GPa)
#
#
# Indices 1 2 3 4 5 6 
#
# 1 107.3927 17.2490 2.2365 0.0000 0.0000 0.0000
# 2 17.2490 126.8788 22.6743 0.0000 0.0000 0.0000
# 3 2.2365 22.6743 79.0527 0.0000 0.0000 0.0000
# 4 0.0000 0.0000 0.0000 14.7465 0.0000 0.0000
# 5 0.0000 0.0000 0.0000 0.0000 40.9897 0.0000
# 6 0.0000 0.0000 0.0000 0.0000 0.0000 33.2549
#
#
#
# Elastic Compliance Matrix: (Units=1/GPa)
#
#
# Indices 1 2 3 4 5 6 
#
# 1 0.009520 -0.001313 0.000107 0.000000 0.000000 0.000000
# 2 -0.001313 0.008489 -0.002398 0.000000 0.000000 0.000000
# 3 0.000107 -0.002398 0.013334 0.000000 0.000000 0.000000
# 4 0.000000 0.000000 0.000000 0.067813 0.000000 0.000000
# 5 0.000000 0.000000 0.000000 0.000000 0.024396 0.000000
# 6 0.000000 0.000000 0.000000 0.000000 0.000000 0.030071
#
#
# Mechanical properties :
#
#
# Convention : Reuss Voigt Hill
#
# Bulk Modulus (GPa) = 41.43180 44.18264 42.80722
# Shear Modulus (GPa) = 29.60754 35.87584 32.74169
#
# Velocity S-wave (km/s) = 3.87990 4.27091 4.08009
# Velocity P-wave (km/s) = 6.41382 6.83996 6.63032
#
# Compressibility (1/GPa) = 0.02413605
#
# Stress axis : x y z
#
# Youngs Moduli (GPa) = 105.03818 117.80552 74.99381
#
# Poissons Ratio (x) = 0.15473 -0.00805
# Poissons Ratio (y) = 0.13796 0.17980
# Poissons Ratio (z) = -0.01128 0.28245
#
# Static dielectric constant tensor:
#      x y z
#    x 1.709710 0.000000 0.000000 
#    y 0.000000 1.645530 0.000000 
#    z 0.000000 0.000000 1.679910 
# 
# From -- ./inp_files/22611.got.cif
#   From: 2010.05.17/outbox.cif.g08.bks.cpg/sg55_12_cif.got.tgz:22611.got - 2010.06.03 13:27:54.
