data_PCOD9427539
_publ_section_title
;
Structure prediction by ZEFSAII (Michael W. Deem and Ramdas Pophale) SiO2 
 PCOD9427539
Probable space group: P B A M
;
_chemical_formula_sum "Si O2"
_cell_formula_units_Z 48
_cell_length_a 8.335823
_cell_length_b 29.275143
_cell_length_c 7.707147
_cell_angle_alpha 90.000000
_cell_angle_beta 90.000000
_cell_angle_gamma 90.000000
_cell_volume 1880.793659
_symmetry_space_group_name_H-M "P B A M"
_symmetry_group_IT_number 55
_symmetry_cell_setting 'orthorhombic'
loop_
_space_group_symop_operation_xyz
x,y,z
-x,-y,z
1/2+x,1/2-y,-z
1/2-x,1/2+y,-z
-x,-y,-z
x,y,-z
1/2-x,1/2+y,z
1/2+x,1/2-y,z
loop_
_atom_site_type_symbol
_atom_site_label
_atom_site_fract_x
_atom_site_fract_y
_atom_site_fract_z
Si Si1 0.553025 0.569321 0.199709
Si Si2 0.255221 0.182305 0.788509
Si Si3 0.443353 0.266262 0.201407
Si Si4 0.240985 0.347726 0.702389
Si Si5 0.754578 0.486807 0.299905
Si Si6 0.560379 0.903340 0.705091
O O1 0.612997 0.616590 0.276966
O O2 0.700671 0.533221 0.209045
O O3 0.405656 0.544712 0.293514
O O4 0.506873 0.576219 0.000000
O O5 0.394642 0.217120 0.726905
O O6 0.292306 0.131689 0.726921
O O7 0.092069 0.205764 0.723670
O O8 0.252290 0.181087 0.000000
O O9 0.291161 0.300226 0.212517
O O10 0.480625 0.258782 0.000000
O O11 0.212679 0.338826 0.500000
O O12 0.089816 0.375288 0.779307
O O13 0.790337 0.498154 0.500000
O O14 0.891735 0.453279 0.227006
O O15 0.530173 0.909660 0.500000
#
# Coordination Sequence:
#
# PCOD9427539 Si02
#       6
#     8   8   8   8   8   8
#     4  11  22  37  58  86 115 146 186 233 281 337
#     4  10  21  37  60  85 114 147 184 229 280 333
#     4  10  21  38  59  86 114 147 187 230 279 334
#     4  11  23  39  57  81 113 151 189 231 279 331
#     4  10  20  38  61  84 112 149 189 233 281 334
#     4  10  23  39  57  82 113 148 190 232 277 331
#
# _framework density 25.521139999999999
#
# number of rings (size 3 to 8) (size 9 to 14) (size 15 to 20)
#    0.000    1.667    0.000    5.500    0.000    8.667 
#    0.000    3.333    0.000    0.000    0.000    0.000 
#    0.000    0.000    0.000    0.000    0.000    0.000 
#
# Total GULP energy -268705.615524 kJ/mol
# GULP energy per Si atom -5598.033657 kJ/mol
# Density = 2.546305 g / cm^3
# Si number density = 25.521140 Si / 1000 Ang^3
#
#
#
# Elastic Constant Matrix: (Units=GPa)
#
#
# Indices 1 2 3 4 5 6 
#
# 1 71.2805 14.5970 -1.3567 0.0000 0.0000 0.0000
# 2 14.5970 139.1204 -8.7317 0.0000 0.0000 0.0000
# 3 -1.3567 -8.7317 63.5225 0.0000 0.0000 0.0000
# 4 0.0000 0.0000 0.0000 19.4543 0.0000 0.0000
# 5 0.0000 0.0000 0.0000 0.0000 6.6940 0.0000
# 6 0.0000 0.0000 0.0000 0.0000 0.0000 48.4774
#
#
#
# Elastic Compliance Matrix: (Units=1/GPa)
#
#
# Indices 1 2 3 4 5 6 
#
# 1 0.014338 -0.001498 0.000100 0.000000 0.000000 0.000000
# 2 -0.001498 0.007407 0.000986 0.000000 0.000000 0.000000
# 3 0.000100 0.000986 0.015880 0.000000 0.000000 0.000000
# 4 0.000000 0.000000 0.000000 0.051403 0.000000 0.000000
# 5 0.000000 0.000000 0.000000 0.000000 0.149387 0.000000
# 6 0.000000 0.000000 0.000000 0.000000 0.000000 0.020628
#
#
# Mechanical properties :
#
#
# Convention : Reuss Voigt Hill
#
# Bulk Modulus (GPa) = 27.17257 31.43784 29.30520
# Shear Modulus (GPa) = 18.37337 32.88613 25.62975
#
# Velocity S-wave (km/s) = 2.68606 3.59358 3.17244
# Velocity P-wave (km/s) = 4.50445 5.43723 4.99267
#
# Compressibility (1/GPa) = 0.03680182
#
# Stress axis : x y z
#
# Youngs Moduli (GPa) = 69.74588 135.00564 62.97172
#
# Poissons Ratio (x) = 0.20225 -0.00632
# Poissons Ratio (y) = 0.10448 -0.06210
# Poissons Ratio (z) = -0.00700 -0.13314
#
# Static dielectric constant tensor:
#      x y z
#    x 2.125180 0.000000 0.000000 
#    y 0.000000 1.944690 0.000000 
#    z 0.000000 0.000000 1.908840 
# 
# From -- ./inp_files/2812.got.cif
#   From: 2010.05.17/outbox.cif.g08.bks.cpg/sg55_2_cif.got.tgz:2812.got - 2010.06.03 13:27:54.
