data_PCOD9427630
_publ_section_title
;
Structure prediction by ZEFSAII (Michael W. Deem and Ramdas Pophale) SiO2 
 PCOD9427630
Probable space group: P B A M
;
_chemical_formula_sum "Si O2"
_cell_formula_units_Z 32
_cell_length_a 11.922237
_cell_length_b 11.062386
_cell_length_c 11.908071
_cell_angle_alpha 90.000000
_cell_angle_beta 90.000000
_cell_angle_gamma 90.000000
_cell_volume 1570.536285
_symmetry_space_group_name_H-M "P B A M"
_symmetry_group_IT_number 55
_symmetry_cell_setting 'orthorhombic'
loop_
_space_group_symop_operation_xyz
x,y,z
-x,-y,z
1/2+x,1/2-y,-z
1/2-x,1/2+y,-z
-x,-y,-z
x,y,-z
1/2-x,1/2+y,z
1/2+x,1/2-y,z
loop_
_atom_site_type_symbol
_atom_site_label
_atom_site_fract_x
_atom_site_fract_y
_atom_site_fract_z
Si Si1 0.915110 0.392072 0.225766
Si Si2 0.159765 0.022037 0.249216
Si Si3 0.525910 0.677529 0.367486
Si Si4 0.151164 0.707243 0.000000
Si Si5 0.314978 0.477509 0.000000
O O1 0.790116 0.442335 0.247746
O O2 0.954489 0.314238 0.331295
O O3 0.914962 0.303871 0.116764
O O4 0.000000 0.500000 0.202397
O O5 0.083591 0.125226 0.304882
O O6 0.129111 0.902652 0.319799
O O7 0.126706 0.999654 0.119317
O O8 0.515426 0.661392 0.500000
O O9 0.217533 0.834701 0.000000
O O10 0.220971 0.582124 0.000000
#
# Coordination Sequence:
#
# PCOD9427630 Si02
#       5
#     8   8   8   4   4
#     4  11  25  42  69 102 135 173 222 281 346 408
#     4  10  23  43  67  97 132 174 226 276 340 410
#     4  11  25  44  67  93 132 182 229 280 336 398
#     4  10  21  41  68 104 142 175 218 282 344 418
#     4  10  20  38  71 101 134 182 220 280 354 407
#
# _framework density 20.375207
#
# number of rings (size 3 to 8) (size 9 to 14) (size 15 to 20)
#    0.000    1.500    2.500    1.875    3.500    7.500 
#    0.000    0.000    0.000    0.000    0.000    0.000 
#    0.000    0.000    0.000    0.000    0.000    0.000 
#
# Total GULP energy -178566.873641 kJ/mol
# GULP energy per Si atom -5580.214801 kJ/mol
# Density = 2.032883 g / cm^3
# Si number density = 20.375207 Si / 1000 Ang^3
#
#
#
# Elastic Constant Matrix: (Units=GPa)
#
#
# Indices 1 2 3 4 5 6 
#
# 1 59.2240 32.3882 39.8221 0.0000 0.0000 0.0000
# 2 32.3882 94.1552 45.9185 0.0000 0.0000 0.0000
# 3 39.8221 45.9185 158.2214 0.0000 0.0000 0.0000
# 4 0.0000 0.0000 0.0000 30.1045 0.0000 0.0000
# 5 0.0000 0.0000 0.0000 0.0000 16.8260 0.0000
# 6 0.0000 0.0000 0.0000 0.0000 0.0000 10.5985
#
#
#
# Elastic Compliance Matrix: (Units=1/GPa)
#
#
# Indices 1 2 3 4 5 6 
#
# 1 0.022814 -0.005880 -0.004036 0.000000 0.000000 0.000000
# 2 -0.005880 0.013887 -0.002550 0.000000 0.000000 0.000000
# 3 -0.004036 -0.002550 0.008076 0.000000 0.000000 0.000000
# 4 0.000000 0.000000 0.000000 0.033218 0.000000 0.000000
# 5 0.000000 0.000000 0.000000 0.000000 0.059432 0.000000
# 6 0.000000 0.000000 0.000000 0.000000 0.000000 0.094353
#
#
# Mechanical properties :
#
#
# Convention : Reuss Voigt Hill
#
# Bulk Modulus (GPa) = 50.38820 60.87314 55.63067
# Shear Modulus (GPa) = 18.98789 24.40394 21.69591
#
# Velocity S-wave (km/s) = 3.05603 3.46457 3.26670
# Velocity P-wave (km/s) = 6.10216 6.77830 6.44909
#
# Compressibility (1/GPa) = 0.01984592
#
# Stress axis : x y z
#
# Youngs Moduli (GPa) = 43.83277 72.00929 123.82144
#
# Poissons Ratio (x) = 0.42339 0.49969
# Poissons Ratio (y) = 0.25772 0.31580
# Poissons Ratio (z) = 0.17689 0.18366
#
# Static dielectric constant tensor:
#      x y z
#    x 1.722320 0.000000 0.000000 
#    y 0.000000 1.748460 0.000000 
#    z 0.000000 0.000000 1.729020 
# 
# From -- ./inp_files/13874.got.cif
#   From: 2010.05.17/outbox.cif.g08.bks.cpg/sg55_7_cif.got.tgz:13874.got - 2010.06.03 13:27:54.
