data_PCOD9427925
_publ_section_title
;
Structure prediction by ZEFSAII (Michael W. Deem and Ramdas Pophale) SiO2 
 PCOD9427925
Probable space group: P B A M
;
_chemical_formula_sum "Si O2"
_cell_formula_units_Z 56
_cell_length_a 29.796589
_cell_length_b 5.640834
_cell_length_c 14.300297
_cell_angle_alpha 90.000000
_cell_angle_beta 90.000000
_cell_angle_gamma 90.000000
_cell_volume 2403.559775
_symmetry_space_group_name_H-M "P B A M"
_symmetry_group_IT_number 55
_symmetry_cell_setting 'orthorhombic'
loop_
_space_group_symop_operation_xyz
x,y,z
-x,-y,z
1/2+x,1/2-y,-z
1/2-x,1/2+y,-z
-x,-y,-z
x,y,-z
1/2-x,1/2+y,z
1/2+x,1/2-y,z
loop_
_atom_site_type_symbol
_atom_site_label
_atom_site_fract_x
_atom_site_fract_y
_atom_site_fract_z
Si Si1 0.886294 0.673632 0.726380
Si Si2 0.727733 0.720914 0.865581
Si Si3 0.770130 0.273431 0.357746
Si Si4 0.437544 0.201286 0.606105
Si Si5 0.453073 0.430605 0.204225
Si Si6 0.149846 0.995003 0.598337
Si Si7 0.628085 0.836445 0.894268
O O1 0.909203 0.523087 0.643120
O O2 0.925668 0.837182 0.766414
O O3 0.846085 0.829476 0.684099
O O4 0.867029 0.526328 0.811854
O O5 0.753551 0.480866 0.897155
O O6 0.731850 0.748416 0.753723
O O7 0.674955 0.693713 0.890247
O O8 0.751699 0.524503 0.391094
O O9 0.821366 0.239011 0.387699
O O10 0.456446 0.169379 0.500000
O O11 0.464556 0.280857 0.699718
O O12 0.401404 0.412364 0.597923
O O13 0.500000 0.500000 0.158914
O O14 0.417393 0.295349 0.138983
O O15 0.161129 0.109508 0.500000
O O16 0.622775 0.926393 0.000000
#
# Coordination Sequence:
#
# PCOD9427925 Si02
#       7
#     8   8   8   8   8   8   8
#     4  10  21  40  65  89 126 169 222 276 344 409
#     4  10  23  42  70 101 136 179 225 285 355 421
#     4  10  22  36  57  87 127 175 225 279 338 403
#     4   9  19  36  61  93 125 164 216 269 329 404
#     4  10  23  43  66  94 135 178 223 280 347 417
#     4  10  21  36  58  87 125 174 221 270 330 403
#     4  11  26  44  67  99 131 173 230 291 356 426
#
# _framework density 23.298777000000001
#
# number of rings (size 3 to 8) (size 9 to 14) (size 15 to 20)
#    0.000    2.000    0.000    3.000   10.000    5.143 
#    0.000    1.429    0.000    0.000    0.000    0.000 
#    0.000    0.000    0.000    0.000    0.000    0.000 
#
# Total GULP energy -312476.919323 kJ/mol
# GULP energy per Si atom -5579.944988 kJ/mol
# Density = 2.324575 g / cm^3
# Si number density = 23.298777 Si / 1000 Ang^3
#
#
#
# Elastic Constant Matrix: (Units=GPa)
#
#
# Indices 1 2 3 4 5 6 
#
# 1 79.0331 21.8402 22.2869 0.0000 0.0000 0.0000
# 2 21.8402 88.6454 30.1057 0.0000 0.0000 0.0000
# 3 22.2869 30.1057 114.9583 0.0000 0.0000 0.0000
# 4 0.0000 0.0000 0.0000 10.0426 0.0000 0.0000
# 5 0.0000 0.0000 0.0000 0.0000 -11.8281 0.0000
# 6 0.0000 0.0000 0.0000 0.0000 0.0000 28.3704
#
#
#
# Elastic Compliance Matrix: (Units=1/GPa)
#
#
# Indices 1 2 3 4 5 6 
#
# 1 0.013978 -0.002770 -0.001985 0.000000 0.000000 0.000000
# 2 -0.002770 0.012931 -0.002849 0.000000 0.000000 0.000000
# 3 -0.001985 -0.002849 0.009830 0.000000 0.000000 0.000000
# 4 0.000000 0.000000 0.000000 0.099576 0.000000 0.000000
# 5 0.000000 0.000000 0.000000 0.000000 -0.084545 0.000000
# 6 0.000000 0.000000 0.000000 0.000000 0.000000 0.035248
#
#
# Mechanical properties :
#
#
# Convention : Reuss Voigt Hill
#
# Bulk Modulus (GPa) = 46.44435 47.90026 47.17230
# Shear Modulus (GPa) = 45.70285 19.21060 32.45672
#
# Velocity S-wave (km/s) = 4.43380 2.87458 3.73643
# Velocity P-wave (km/s) = 6.79624 5.62329 6.23740
#
# Compressibility (1/GPa) = 0.02153115
#
# Stress axis : x y z
#
# Youngs Moduli (GPa) = 71.54111 77.33315 101.73179
#
# Poissons Ratio (x) = 0.21420 0.20189
# Poissons Ratio (y) = 0.19816 0.28988
# Poissons Ratio (z) = 0.14197 0.22036
#
# Static dielectric constant tensor:
#      x y z
#    x 1.901340 0.000000 0.000000 
#    y 0.000000 1.923740 0.000000 
#    z 0.000000 0.000000 1.818160 
# 
# From -- ./inp_files/20139.got.cif
#   From: 2010.05.17/outbox.cif.g08.bks.cpg/sg55_11_cif.got.tgz:20139.got - 2010.06.03 13:27:54.
