data_PCOD9427588
_publ_section_title
;
Structure prediction by ZEFSAII (Michael W. Deem and Ramdas Pophale) SiO2 
 PCOD9427588
Probable space group: P B A M
;
_chemical_formula_sum "Si O2"
_cell_formula_units_Z 56
_cell_length_a 19.366856
_cell_length_b 9.849499
_cell_length_c 16.053511
_cell_angle_alpha 90.000000
_cell_angle_beta 90.000000
_cell_angle_gamma 90.000000
_cell_volume 3062.268689
_symmetry_space_group_name_H-M "P B A M"
_symmetry_group_IT_number 55
_symmetry_cell_setting 'orthorhombic'
loop_
_space_group_symop_operation_xyz
x,y,z
-x,-y,z
1/2+x,1/2-y,-z
1/2-x,1/2+y,-z
-x,-y,-z
x,y,-z
1/2-x,1/2+y,z
1/2+x,1/2-y,z
loop_
_atom_site_type_symbol
_atom_site_label
_atom_site_fract_x
_atom_site_fract_y
_atom_site_fract_z
Si Si1 0.586866 0.723535 0.347227
Si Si2 0.327283 0.654024 0.500000
Si Si3 0.673108 0.084020 0.903470
Si Si4 0.081886 0.505260 0.748495
Si Si5 0.071481 0.253616 0.356079
Si Si6 0.424931 0.526580 0.222177
Si Si7 0.308782 0.597727 0.095451
Si Si8 0.812093 0.168919 0.500000
O O1 0.509087 0.748252 0.383113
O O2 0.585225 0.586450 0.293221
O O3 0.642880 0.710716 0.419435
O O4 0.601799 0.846058 0.283640
O O5 0.376309 0.687959 0.578717
O O6 0.260547 0.751802 0.500000
O O7 0.305789 0.495501 0.500000
O O8 0.619943 0.042234 0.831722
O O9 0.696300 0.240336 0.889477
O O10 0.737036 0.981021 0.895542
O O11 0.647767 0.075297 0.000000
O O12 0.094094 0.403616 0.670811
O O13 0.000000 0.500000 0.763824
O O14 0.072888 0.168565 0.270704
O O15 0.500000 0.500000 0.182994
O O16 0.364179 0.532414 0.156693
O O17 0.331702 0.580767 0.000000
#
# Coordination Sequence:
#
# PCOD9427588 Si02
#       8
#     8   4   8   8   8   8   8   4
#     4  10  23  40  65  88 117 155 197 242 294 355
#     4  12  27  41  62  88 122 157 196 245 293 347
#     4  10  22  40  60  85 121 161 199 242 295 352
#     4  10  22  40  63  92 119 152 198 247 297 350
#     4  10  21  42  64  87 115 155 198 244 294 346
#     4  10  20  38  63  89 115 151 201 246 294 348
#     4  10  22  39  59  86 121 160 199 243 295 351
#     4  12  27  43  58  90 122 155 198 241 295 353
#
# _framework density 18.287096999999999
#
# number of rings (size 3 to 8) (size 9 to 14) (size 15 to 20)
#    0.000    1.714    2.857    0.429    4.000    3.429 
#    0.000    2.143    0.000    0.000    0.000    0.000 
#    0.000    0.000    0.000    0.000    0.000    0.000 
#
# Total GULP energy -312520.780358 kJ/mol
# GULP energy per Si atom -5580.728221 kJ/mol
# Density = 1.824547 g / cm^3
# Si number density = 18.287097 Si / 1000 Ang^3
#
#
#
# Elastic Constant Matrix: (Units=GPa)
#
#
# Indices 1 2 3 4 5 6 
#
# 1 87.8505 35.9437 61.9516 0.0000 0.0000 0.0000
# 2 35.9437 63.4590 20.4450 0.0000 0.0000 0.0000
# 3 61.9516 20.4450 73.3559 0.0000 0.0000 0.0000
# 4 0.0000 0.0000 0.0000 22.6470 0.0000 0.0000
# 5 0.0000 0.0000 0.0000 0.0000 34.2619 0.0000
# 6 0.0000 0.0000 0.0000 0.0000 0.0000 27.3930
#
#
#
# Elastic Compliance Matrix: (Units=1/GPa)
#
#
# Indices 1 2 3 4 5 6 
#
# 1 0.033909 -0.010965 -0.025581 0.000000 0.000000 0.000000
# 2 -0.010965 0.020858 0.003447 0.000000 0.000000 0.000000
# 3 -0.025581 0.003447 0.034276 0.000000 0.000000 0.000000
# 4 0.000000 0.000000 0.000000 0.044156 0.000000 0.000000
# 5 0.000000 0.000000 0.000000 0.000000 0.029187 0.000000
# 6 0.000000 0.000000 0.000000 0.000000 0.000000 0.036506
#
#
# Mechanical properties :
#
#
# Convention : Reuss Voigt Hill
#
# Bulk Modulus (GPa) = 43.77441 51.26067 47.51754
# Shear Modulus (GPa) = 18.33483 23.94873 21.14178
#
# Velocity S-wave (km/s) = 3.16984 3.62276 3.40384
# Velocity P-wave (km/s) = 6.11445 6.75212 6.44118
#
# Compressibility (1/GPa) = 0.02284440
#
# Stress axis : x y z
#
# Youngs Moduli (GPa) = 29.49078 47.94269 29.17501
#
# Poissons Ratio (x) = 0.52567 0.74634
# Poissons Ratio (y) = 0.32335 -0.10055
# Poissons Ratio (z) = 0.75441 -0.16524
#
# Static dielectric constant tensor:
#      x y z
#    x 1.612830 0.000000 0.000000 
#    y 0.000000 1.628680 0.000000 
#    z 0.000000 0.000000 1.600810 
# 
# From -- ./inp_files/19779.got.cif
#   From: 2010.05.17/outbox.cif.g08.bks.cpg/sg55_10_cif.got.tgz:19779.got - 2010.06.03 13:27:54.
