data_PCOD9427996
_publ_section_title
;
Structure prediction by ZEFSAII (Michael W. Deem and Ramdas Pophale) SiO2 
 PCOD9427996
Probable space group: P B A M
;
_chemical_formula_sum "Si O2"
_cell_formula_units_Z 36
_cell_length_a 4.838265
_cell_length_b 14.999231
_cell_length_c 22.370218
_cell_angle_alpha 90.000000
_cell_angle_beta 90.000000
_cell_angle_gamma 90.000000
_cell_volume 1623.412411
_symmetry_space_group_name_H-M "P B A M"
_symmetry_group_IT_number 55
_symmetry_cell_setting 'orthorhombic'
loop_
_space_group_symop_operation_xyz
x,y,z
-x,-y,z
1/2+x,1/2-y,-z
1/2-x,1/2+y,-z
-x,-y,-z
x,y,-z
1/2-x,1/2+y,z
1/2+x,1/2-y,z
loop_
_atom_site_type_symbol
_atom_site_label
_atom_site_fract_x
_atom_site_fract_y
_atom_site_fract_z
Si Si1 0.255685 0.435117 0.066700
Si Si2 0.925106 0.685218 0.694453
Si Si3 0.449321 0.689370 0.500000
Si Si4 0.215986 0.308582 0.824107
Si Si5 0.261261 0.060085 0.602740
O O1 0.500000 0.500000 0.087882
O O2 0.177478 0.362373 0.115522
O O3 0.000000 0.500000 0.060419
O O4 0.327649 0.399326 0.000000
O O5 0.123975 0.771578 0.684986
O O6 0.061287 0.610789 0.653293
O O7 0.893434 0.649070 0.762437
O O8 0.764660 0.720966 0.500000
O O9 0.368245 0.631377 0.442661
O O10 0.537713 0.282449 0.823460
O O11 0.500000 0.000000 0.572261
O O12 0.000000 0.000000 0.623632
#
# Coordination Sequence:
#
# PCOD9427996 Si02
#       5
#     8   8   4   8   8
#     4  10  21  37  57  84 120 158 196 245 308 370
#     4  10  21  40  60  83 118 159 199 242 301 366
#     4  12  24  42  66  90 122 168 204 240 306 372
#     4  10  21  37  59  85 114 152 200 249 292 350
#     4  12  24  40  62  93 125 155 202 258 303 356
#
# _framework density 22.175512000000001
#
# number of rings (size 3 to 8) (size 9 to 14) (size 15 to 20)
#    0.000    1.333    0.000    6.000    0.000    1.778 
#    0.000    2.222    0.000    0.000    0.000    0.000 
#    0.000    0.000    0.000    0.000    0.000    0.000 
#
# Total GULP energy -200967.444983 kJ/mol
# GULP energy per Si atom -5582.429027 kJ/mol
# Density = 2.212504 g / cm^3
# Si number density = 22.175512 Si / 1000 Ang^3
#
#
#
# Elastic Constant Matrix: (Units=GPa)
#
#
# Indices 1 2 3 4 5 6 
#
# 1 100.7233 9.2604 0.7883 0.0000 0.0000 0.0000
# 2 9.2604 55.5921 48.5903 0.0000 0.0000 0.0000
# 3 0.7883 48.5903 131.6177 0.0000 0.0000 0.0000
# 4 0.0000 0.0000 0.0000 361.5315 0.0000 0.0000
# 5 0.0000 0.0000 0.0000 0.0000 23.4330 0.0000
# 6 0.0000 0.0000 0.0000 0.0000 0.0000 38.2288
#
#
#
# Elastic Compliance Matrix: (Units=1/GPa)
#
#
# Indices 1 2 3 4 5 6 
#
# 1 0.010144 -0.002416 0.000831 0.000000 0.000000 0.000000
# 2 -0.002416 0.027133 -0.010003 0.000000 0.000000 0.000000
# 3 0.000831 -0.010003 0.011286 0.000000 0.000000 0.000000
# 4 0.000000 0.000000 0.000000 0.002766 0.000000 0.000000
# 5 0.000000 0.000000 0.000000 0.000000 0.042675 0.000000
# 6 0.000000 0.000000 0.000000 0.000000 0.000000 0.026158
#
#
# Mechanical properties :
#
#
# Convention : Reuss Voigt Hill
#
# Bulk Modulus (GPa) = 39.38939 45.02345 42.20642
# Shear Modulus (GPa) = 32.93815 99.92494 66.43154
#
# Velocity S-wave (km/s) = 3.85819 6.72003 5.47925
# Velocity P-wave (km/s) = 6.13585 8.97547 7.68790
#
# Compressibility (1/GPa) = 0.02538754
#
# Stress axis : x y z
#
# Youngs Moduli (GPa) = 98.58198 36.85494 88.60924
#
# Poissons Ratio (x) = 0.08905 -0.07366
# Poissons Ratio (y) = 0.23821 0.88632
# Poissons Ratio (z) = -0.08195 0.36864
#
# Static dielectric constant tensor:
#      x y z
#    x 1.777200 0.000000 0.000000 
#    y 0.000000 1.820320 0.000000 
#    z 0.000000 0.000000 1.886280 
# 
# From -- ./inp_files/23239.got.cif
#   From: 2010.05.17/outbox.cif.g08.bks.cpg/sg55_12_cif.got.tgz:23239.got - 2010.06.03 13:27:54.
