data_PCOD9427327
_publ_section_title
;
Structure prediction by ZEFSAII (Michael W. Deem and Ramdas Pophale) SiO2 
 PCOD9427327
Probable space group: P B A M
;
_chemical_formula_sum "Si O2"
_cell_formula_units_Z 64
_cell_length_a 23.989934
_cell_length_b 15.572075
_cell_length_c 9.005768
_cell_angle_alpha 90.000000
_cell_angle_beta 90.000000
_cell_angle_gamma 90.000000
_cell_volume 3364.312233
_symmetry_space_group_name_H-M "P B A M"
_symmetry_group_IT_number 55
_symmetry_cell_setting 'orthorhombic'
loop_
_space_group_symop_operation_xyz
x,y,z
-x,-y,z
1/2+x,1/2-y,-z
1/2-x,1/2+y,-z
-x,-y,-z
x,y,-z
1/2-x,1/2+y,z
1/2+x,1/2-y,z
loop_
_atom_site_type_symbol
_atom_site_label
_atom_site_fract_x
_atom_site_fract_y
_atom_site_fract_z
Si Si1 0.752797 0.145466 0.173755
Si Si2 0.945181 0.753740 0.176250
Si Si3 0.626361 0.087320 0.822625
Si Si4 0.862865 0.091319 0.675663
Si Si5 0.247708 0.149547 0.824838
Si Si6 0.630005 0.395318 0.676702
Si Si7 0.140718 0.589672 0.676768
Si Si8 0.922580 0.251491 0.824333
O O1 0.689658 0.118112 0.207238
O O2 0.798580 0.099469 0.273870
O O3 0.757706 0.248218 0.192743
O O4 0.763682 0.125890 0.000000
O O5 0.915004 0.664616 0.217791
O O6 0.916969 0.831237 0.264340
O O7 0.011123 0.748608 0.198949
O O8 0.934462 0.766688 0.000000
O O9 0.616130 0.999686 0.736017
O O10 0.621557 0.072135 0.000000
O O11 0.867299 0.107500 0.500000
O O12 0.896417 0.163459 0.764243
O O13 0.883217 0.994987 0.707236
O O14 0.187803 0.127679 0.757552
O O15 0.297034 0.099834 0.742607
O O16 0.248890 0.129668 0.000000
O O17 0.637203 0.385601 0.500000
O O18 0.142319 0.591972 0.500000
O O19 0.105780 0.669354 0.740284
O O20 0.910986 0.259715 0.000000
#
# Coordination Sequence:
#
# PCOD9427327 Si02
#       8
#     8   8   8   8   8   8   8   8
#     4  10  20  36  63  92 121 159 201 247 301 361
#     4  10  23  44  67  90 118 159 213 260 302 356
#     4  10  21  41  65  91 122 158 201 251 303 360
#     4  11  24  40  60  90 128 164 200 248 305 370
#     4  11  21  38  64  93 125 161 204 249 300 362
#     4  11  24  40  62  94 129 163 199 246 310 368
#     4  12  25  40  61  93 128 162 200 247 308 372
#     4  11  24  43  66  89 117 160 212 262 305 355
#
# _framework density 19.023204
#
# number of rings (size 3 to 8) (size 9 to 14) (size 15 to 20)
#    0.000    1.250    2.500    3.375    0.000    7.500 
#    0.000    5.000    0.000    0.000    0.000    0.000 
#    0.000    0.000    0.000    0.000    0.000    0.000 
#
# Total GULP energy -358010.015366 kJ/mol
# GULP energy per Si atom -5593.906490 kJ/mol
# Density = 1.897991 g / cm^3
# Si number density = 19.023204 Si / 1000 Ang^3
#
#
#
# Elastic Constant Matrix: (Units=GPa)
#
#
# Indices 1 2 3 4 5 6 
#
# 1 63.4185 28.4058 41.3526 0.0000 0.0000 0.0000
# 2 28.4058 89.6864 52.4572 0.0000 0.0000 0.0000
# 3 41.3526 52.4572 78.6981 0.0000 0.0000 0.0000
# 4 0.0000 0.0000 0.0000 28.4509 0.0000 0.0000
# 5 0.0000 0.0000 0.0000 0.0000 -1.5923 0.0000
# 6 0.0000 0.0000 0.0000 0.0000 0.0000 -1.1274
#
#
#
# Elastic Compliance Matrix: (Units=1/GPa)
#
#
# Indices 1 2 3 4 5 6 
#
# 1 0.023994 -0.000369 -0.012362 0.000000 0.000000 0.000000
# 2 -0.000369 0.018280 -0.011991 0.000000 0.000000 0.000000
# 3 -0.012362 -0.011991 0.027195 0.000000 0.000000 0.000000
# 4 0.000000 0.000000 0.000000 0.035148 0.000000 0.000000
# 5 0.000000 0.000000 0.000000 0.000000 -0.628009 0.000000
# 6 0.000000 0.000000 0.000000 0.000000 0.000000 -0.887027
#
#
# Mechanical properties :
#
#
# Convention : Reuss Voigt Hill
#
# Bulk Modulus (GPa) = 49.93586 52.91490 51.42538
# Shear Modulus (GPa) = -3.69195 12.45207 4.38006
#
# Velocity S-wave (km/s) = -1.39462 2.56124 1.51904
# Velocity P-wave (km/s) = 4.86967 6.05169 5.49257
#
# Compressibility (1/GPa) = 0.02002569
#
# Stress axis : x y z
#
# Youngs Moduli (GPa) = 41.67653 54.70345 36.77111
#
# Poissons Ratio (x) = 0.02019 0.45456
# Poissons Ratio (y) = 0.01538 0.44092
# Poissons Ratio (z) = 0.51520 0.65595
#
# Static dielectric constant tensor:
#      x y z
#    x 1.633060 0.000000 0.000000 
#    y 0.000000 1.652900 0.000000 
#    z 0.000000 0.000000 1.640240 
# 
# From -- ./inp_files/9670.got.cif
#   From: 2010.05.17/outbox.cif.g08.bks.cpg/sg55_5_cif.got.tgz:9670.got - 2010.06.03 13:27:54.
