data_PCOD9427334
_publ_section_title
;
Structure prediction by ZEFSAII (Michael W. Deem and Ramdas Pophale) SiO2 
 PCOD9427334
Probable space group: P B A M
;
_chemical_formula_sum "Si O2"
_cell_formula_units_Z 56
_cell_length_a 22.355081
_cell_length_b 8.961160
_cell_length_c 14.632715
_cell_angle_alpha 90.000000
_cell_angle_beta 90.000000
_cell_angle_gamma 90.000000
_cell_volume 2931.334595
_symmetry_space_group_name_H-M "P B A M"
_symmetry_group_IT_number 55
_symmetry_cell_setting 'orthorhombic'
loop_
_space_group_symop_operation_xyz
x,y,z
-x,-y,z
1/2+x,1/2-y,-z
1/2-x,1/2+y,-z
-x,-y,-z
x,y,-z
1/2-x,1/2+y,z
1/2+x,1/2-y,z
loop_
_atom_site_type_symbol
_atom_site_label
_atom_site_fract_x
_atom_site_fract_y
_atom_site_fract_z
Si Si1 0.935885 0.917746 0.099481
Si Si2 0.062383 0.407641 0.389902
Si Si3 0.246412 0.219953 0.704696
Si Si4 0.935434 0.924657 0.695296
Si Si5 0.938682 0.561279 0.103570
Si Si6 0.338358 0.975088 0.752532
Si Si7 0.678862 0.530907 0.395860
O O1 0.909908 0.945636 0.200905
O O2 0.943670 0.739552 0.099820
O O3 0.906945 0.956541 0.000000
O O4 0.000000 0.000000 0.099219
O O5 0.071754 0.390425 0.500000
O O6 0.058549 0.246859 0.338493
O O7 0.120121 0.482251 0.339357
O O8 0.000000 0.500000 0.378127
O O9 0.287873 0.101639 0.756427
O O10 0.195653 0.315936 0.755372
O O11 0.212006 0.123577 0.628545
O O12 0.290639 0.341413 0.663030
O O13 0.889854 0.007284 0.628908
O O14 0.000000 0.000000 0.692859
O O15 0.883544 0.513833 0.164222
O O16 0.000000 0.500000 0.144555
O O17 0.933270 0.503715 0.000000
O O18 0.687005 0.569099 0.500000
#
# Coordination Sequence:
#
# PCOD9427334 Si02
#       7
#     8   8   8   8   8   8   8
#     4   9  18  33  55  84 118 152 188 227 285 354
#     4  11  24  39  58  86 121 161 198 241 305 374
#     4  10  24  39  60  83 112 161 208 250 291 347
#     4  11  23  37  58  87 122 155 190 243 305 360
#     4  10  20  36  64  96 122 152 194 247 306 363
#     4  11  22  42  61  84 121 158 203 253 300 352
#     4  11  22  39  59  84 115 153 200 250 297 351
#
# _framework density 19.103926999999999
#
# number of rings (size 3 to 8) (size 9 to 14) (size 15 to 20)
#    0.000    1.571    2.857    1.286    2.000    5.143 
#    0.000    0.714    0.000    3.429    0.000    0.000 
#    0.000    0.000    0.000    0.000    0.000    0.000 
#
# Total GULP energy -312274.294822 kJ/mol
# GULP energy per Si atom -5576.326693 kJ/mol
# Density = 1.906045 g / cm^3
# Si number density = 19.103927 Si / 1000 Ang^3
#
#
#
# Elastic Constant Matrix: (Units=GPa)
#
#
# Indices 1 2 3 4 5 6 
#
# 1 108.8257 25.9250 31.9361 0.0000 0.0000 0.0000
# 2 25.9250 40.3756 13.3003 0.0000 0.0000 0.0000
# 3 31.9361 13.3003 84.0579 0.0000 0.0000 0.0000
# 4 0.0000 0.0000 0.0000 13.0460 0.0000 0.0000
# 5 0.0000 0.0000 0.0000 0.0000 26.3800 0.0000
# 6 0.0000 0.0000 0.0000 0.0000 0.0000 35.0067
#
#
#
# Elastic Compliance Matrix: (Units=1/GPa)
#
#
# Indices 1 2 3 4 5 6 
#
# 1 0.011722 -0.006393 -0.003442 0.000000 0.000000 0.000000
# 2 -0.006393 0.029616 -0.002257 0.000000 0.000000 0.000000
# 3 -0.003442 -0.002257 0.013561 0.000000 0.000000 0.000000
# 4 0.000000 0.000000 0.000000 0.076652 0.000000 0.000000
# 5 0.000000 0.000000 0.000000 0.000000 0.037908 0.000000
# 6 0.000000 0.000000 0.000000 0.000000 0.000000 0.028566
#
#
# Mechanical properties :
#
#
# Convention : Reuss Voigt Hill
#
# Bulk Modulus (GPa) = 32.55724 41.73132 37.14428
# Shear Modulus (GPa) = 21.51026 25.69306 23.60166
#
# Velocity S-wave (km/s) = 3.35917 3.67128 3.51869
# Velocity P-wave (km/s) = 5.66785 6.31370 5.99948
#
# Compressibility (1/GPa) = 0.03071514
#
# Stress axis : x y z
#
# Youngs Moduli (GPa) = 85.30939 33.76580 73.73844
#
# Poissons Ratio (x) = 0.21586 0.25381
# Poissons Ratio (y) = 0.54537 0.16644
# Poissons Ratio (z) = 0.29364 0.07622
#
# Static dielectric constant tensor:
#      x y z
#    x 1.805340 0.000000 0.000000 
#    y 0.000000 1.645420 0.000000 
#    z 0.000000 0.000000 1.697120 
# 
# From -- ./inp_files/19733.got.cif
#   From: 2010.05.17/outbox.cif.g08.bks.cpg/sg55_10_cif.got.tgz:19733.got - 2010.06.03 13:27:54.
