data_PCOD9427965
_publ_section_title
;
Structure prediction by ZEFSAII (Michael W. Deem and Ramdas Pophale) SiO2 
 PCOD9427965
Probable space group: P B A M
;
_chemical_formula_sum "Si O2"
_cell_formula_units_Z 48
_cell_length_a 23.662309
_cell_length_b 12.309300
_cell_length_c 7.544472
_cell_angle_alpha 90.000000
_cell_angle_beta 90.000000
_cell_angle_gamma 90.000000
_cell_volume 2197.451653
_symmetry_space_group_name_H-M "P B A M"
_symmetry_group_IT_number 55
_symmetry_cell_setting 'orthorhombic'
loop_
_space_group_symop_operation_xyz
x,y,z
-x,-y,z
1/2+x,1/2-y,-z
1/2-x,1/2+y,-z
-x,-y,-z
x,y,-z
1/2-x,1/2+y,z
1/2+x,1/2-y,z
loop_
_atom_site_type_symbol
_atom_site_label
_atom_site_fract_x
_atom_site_fract_y
_atom_site_fract_z
Si Si1 0.610991 0.219224 0.709200
Si Si2 0.279380 0.634628 0.785732
Si Si3 0.347940 0.188694 0.782709
Si Si4 0.337713 0.428472 0.200254
Si Si5 0.936504 0.487936 0.794172
Si Si6 0.055676 0.065337 0.714928
O O1 0.605298 0.204592 0.500000
O O2 0.672312 0.276325 0.739531
O O3 0.597251 0.102140 0.788745
O O4 0.564566 0.309335 0.767760
O O5 0.216033 0.660294 0.730229
O O6 0.294671 0.514199 0.715357
O O7 0.280604 0.629370 0.000000
O O8 0.354199 0.312937 0.721850
O O9 0.395880 0.105928 0.717684
O O10 0.350095 0.184496 0.000000
O O11 0.393573 0.500196 0.198698
O O12 0.316978 0.405588 0.000000
O O13 0.000000 0.500000 0.716915
O O14 0.945115 0.458123 0.000000
O O15 0.061683 0.061637 0.500000
O O16 0.000000 0.000000 0.762725
#
# Coordination Sequence:
#
# PCOD9427965 Si02
#       6
#     8   8   8   8   8   8
#     4  10  21  37  56  80 111 144 182 229 277 333
#     4   9  18  34  58  82 105 140 179 224 280 331
#     4   9  19  34  56  83 110 140 179 228 277 329
#     4   9  18  32  52  81 107 131 173 224 269 320
#     4  10  22  38  57  83 115 153 193 232 278 334
#     4   9  19  35  54  75 103 141 178 217 268 322
#
# _framework density 21.843482000000002
#
# number of rings (size 3 to 8) (size 9 to 14) (size 15 to 20)
#    0.000    2.667    0.000    0.500    4.667    1.333 
#    0.000    2.500    0.000    0.000    0.000    0.000 
#    0.000    0.000    0.000    0.000    0.000    0.000 
#
# Total GULP energy -267569.557826 kJ/mol
# GULP energy per Si atom -5574.365788 kJ/mol
# Density = 2.179377 g / cm^3
# Si number density = 21.843482 Si / 1000 Ang^3
#
#
#
# Elastic Constant Matrix: (Units=GPa)
#
#
# Indices 1 2 3 4 5 6 
#
# 1 61.1251 32.9621 -6.7969 0.0000 0.0000 0.0000
# 2 32.9621 151.8186 -7.4255 0.0000 0.0000 0.0000
# 3 -6.7969 -7.4255 47.7662 0.0000 0.0000 0.0000
# 4 0.0000 0.0000 0.0000 -23.4193 0.0000 0.0000
# 5 0.0000 0.0000 0.0000 0.0000 30.6624 0.0000
# 6 0.0000 0.0000 0.0000 0.0000 0.0000 8.7059
#
#
#
# Elastic Compliance Matrix: (Units=1/GPa)
#
#
# Indices 1 2 3 4 5 6 
#
# 1 0.018726 -0.003966 0.002048 0.000000 0.000000 0.000000
# 2 -0.003966 0.007477 0.000598 0.000000 0.000000 0.000000
# 3 0.002048 0.000598 0.021320 0.000000 0.000000 0.000000
# 4 0.000000 0.000000 0.000000 -0.042700 0.000000 0.000000
# 5 0.000000 0.000000 0.000000 0.000000 0.032613 0.000000
# 6 0.000000 0.000000 0.000000 0.000000 0.000000 0.114865
#
#
# Mechanical properties :
#
#
# Convention : Reuss Voigt Hill
#
# Bulk Modulus (GPa) = 22.27953 33.13214 27.70583
# Shear Modulus (GPa) = 29.42887 19.32115 24.37501
#
# Velocity S-wave (km/s) = 3.67449 2.97733 3.34412
# Velocity P-wave (km/s) = 5.31265 5.19810 5.25568
#
# Compressibility (1/GPa) = 0.04488425
#
# Stress axis : x y z
#
# Youngs Moduli (GPa) = 53.40147 133.74280 46.90492
#
# Poissons Ratio (x) = 0.53036 -0.09607
# Poissons Ratio (y) = 0.21177 -0.02805
# Poissons Ratio (z) = -0.10938 -0.07999
#
# Static dielectric constant tensor:
#      x y z
#    x 1.821260 0.000000 0.000000 
#    y 0.000000 1.855390 0.000000 
#    z 0.000000 0.000000 1.826480 
# 
# From -- ./inp_files/4041.got.cif
#   From: 2010.05.17/outbox.cif.g08.bks.cpg/sg55_3_cif.got.tgz:4041.got - 2010.06.03 13:27:54.
