data_PCOD9427613
_publ_section_title
;
Structure prediction by ZEFSAII (Michael W. Deem and Ramdas Pophale) SiO2 
 PCOD9427613
Probable space group: P B A M
;
_chemical_formula_sum "Si O2"
_cell_formula_units_Z 56
_cell_length_a 22.382632
_cell_length_b 9.274534
_cell_length_c 13.073649
_cell_angle_alpha 90.000000
_cell_angle_beta 90.000000
_cell_angle_gamma 90.000000
_cell_volume 2713.938943
_symmetry_space_group_name_H-M "P B A M"
_symmetry_group_IT_number 55
_symmetry_cell_setting 'orthorhombic'
loop_
_space_group_symop_operation_xyz
x,y,z
-x,-y,z
1/2+x,1/2-y,-z
1/2-x,1/2+y,-z
-x,-y,-z
x,y,-z
1/2-x,1/2+y,z
1/2+x,1/2-y,z
loop_
_atom_site_type_symbol
_atom_site_label
_atom_site_fract_x
_atom_site_fract_y
_atom_site_fract_z
Si Si1 0.660420 0.815711 0.883183
Si Si2 0.993780 0.828479 0.311991
Si Si3 0.016311 0.663815 0.116877
Si Si4 0.634558 0.320543 0.380630
Si Si5 0.187049 0.888403 0.307927
Si Si6 0.609261 0.844363 0.612137
Si Si7 0.818334 0.560262 0.735760
O O1 0.588083 0.818420 0.880701
O O2 0.680126 0.690467 0.803178
O O3 0.683165 0.972736 0.842799
O O4 0.679386 0.789848 0.000000
O O5 0.986990 0.773998 0.195602
O O6 0.052892 0.747255 0.350986
O O7 0.935588 0.786566 0.375576
O O8 0.000000 0.000000 0.317072
O O9 0.000000 0.500000 0.146392
O O10 0.996120 0.685432 0.000000
O O11 0.655096 0.304675 0.500000
O O12 0.643603 0.482708 0.339919
O O13 0.666842 0.224276 0.293438
O O14 0.167437 0.758852 0.381960
O O15 0.252955 0.954102 0.313944
O O16 0.597969 0.898500 0.500000
O O17 0.627496 0.976121 0.682091
#
# Coordination Sequence:
#
# PCOD9427613 Si02
#       7
#     8   8   8   8   8   8   8
#     4  10  21  43  68  92 126 169 213 267 328 386
#     4  12  23  40  62  92 130 164 211 272 322 388
#     4  10  20  38  66  93 123 168 212 261 330 389
#     4  12  25  39  63  96 131 171 216 265 320 381
#     4  11  23  42  64  92 129 170 213 270 314 384
#     4  11  23  41  63  88 124 175 216 261 327 380
#     4  11  24  42  63  94 129 167 217 270 315 382
#
# _framework density 20.634215999999999
#
# number of rings (size 3 to 8) (size 9 to 14) (size 15 to 20)
#    0.000    1.000    4.286    3.857    0.000    4.857 
#    0.000    2.857    0.000    0.000    0.000    0.000 
#    0.000    0.000    0.000    0.000    0.000    0.000 
#
# Total GULP energy -312194.004866 kJ/mol
# GULP energy per Si atom -5574.892944 kJ/mol
# Density = 2.058725 g / cm^3
# Si number density = 20.634216 Si / 1000 Ang^3
#
#
#
# Elastic Constant Matrix: (Units=GPa)
#
#
# Indices 1 2 3 4 5 6 
#
# 1 61.0877 -4.1387 0.1699 0.0000 0.0000 0.0000
# 2 -4.1387 46.1043 0.5477 0.0000 0.0000 0.0000
# 3 0.1699 0.5477 87.1249 0.0000 0.0000 0.0000
# 4 0.0000 0.0000 0.0000 -6.3225 0.0000 0.0000
# 5 0.0000 0.0000 0.0000 0.0000 12.0675 0.0000
# 6 0.0000 0.0000 0.0000 0.0000 0.0000 29.6935
#
#
#
# Elastic Compliance Matrix: (Units=1/GPa)
#
#
# Indices 1 2 3 4 5 6 
#
# 1 0.016470 0.001479 -0.000041 0.000000 0.000000 0.000000
# 2 0.001479 0.021824 -0.000140 0.000000 0.000000 0.000000
# 3 -0.000041 -0.000140 0.011479 0.000000 0.000000 0.000000
# 4 0.000000 0.000000 0.000000 -0.158165 0.000000 0.000000
# 5 0.000000 0.000000 0.000000 0.000000 0.082867 0.000000
# 6 0.000000 0.000000 0.000000 0.000000 0.000000 0.033677
#
#
# Mechanical properties :
#
#
# Convention : Reuss Voigt Hill
#
# Bulk Modulus (GPa) = 19.09552 20.83054 19.96303
# Shear Modulus (GPa) = 217.26006 20.27022 118.76514
#
# Velocity S-wave (km/s) = 10.27228 3.13766 7.59489
# Velocity P-wave (km/s) = 12.24612 4.82116 9.30621
#
# Compressibility (1/GPa) = 0.05236830
#
# Stress axis : x y z
#
# Youngs Moduli (GPa) = 60.71559 45.82032 87.11760
#
# Poissons Ratio (x) = -0.06777 0.00361
# Poissons Ratio (y) = -0.08980 0.01220
# Poissons Ratio (z) = 0.00252 0.00642
#
# Static dielectric constant tensor:
#      x y z
#    x 1.764740 0.000000 0.000000 
#    y 0.000000 1.762290 0.000000 
#    z 0.000000 0.000000 1.766690 
# 
# From -- ./inp_files/19728.got.cif
#   From: 2010.05.17/outbox.cif.g08.bks.cpg/sg55_10_cif.got.tgz:19728.got - 2010.06.03 13:27:54.
