data_PCOD9427332
_publ_section_title
;
Structure prediction by ZEFSAII (Michael W. Deem and Ramdas Pophale) SiO2 
 PCOD9427332
Probable space group: P B A M
;
_chemical_formula_sum "Si O2"
_cell_formula_units_Z 40
_cell_length_a 13.388909
_cell_length_b 7.668287
_cell_length_c 15.605534
_cell_angle_alpha 90.000000
_cell_angle_beta 90.000000
_cell_angle_gamma 90.000000
_cell_volume 1602.220126
_symmetry_space_group_name_H-M "P B A M"
_symmetry_group_IT_number 55
_symmetry_cell_setting 'orthorhombic'
loop_
_space_group_symop_operation_xyz
x,y,z
-x,-y,z
1/2+x,1/2-y,-z
1/2-x,1/2+y,-z
-x,-y,-z
x,y,-z
1/2-x,1/2+y,z
1/2+x,1/2-y,z
loop_
_atom_site_type_symbol
_atom_site_label
_atom_site_fract_x
_atom_site_fract_y
_atom_site_fract_z
Si Si1 0.224808 0.509478 0.216496
Si Si2 0.492544 0.298301 0.622774
Si Si3 0.926672 0.668599 0.906382
Si Si4 0.586855 0.658880 0.811394
Si Si5 0.336553 0.988055 0.406608
O O1 0.153211 0.374458 0.166876
O O2 0.167330 0.686398 0.196658
O O3 0.337520 0.500644 0.184173
O O4 0.227358 0.484326 0.319705
O O5 0.500000 0.500000 0.591694
O O6 0.475804 0.319113 0.724252
O O7 0.401757 0.168064 0.595284
O O8 0.588736 0.178563 0.601582
O O9 0.000000 0.500000 0.908022
O O10 0.008526 0.814170 0.885683
O O11 0.879214 0.690230 0.000000
O O12 0.285933 0.978831 0.500000
#
# Coordination Sequence:
#
# PCOD9427332 Si02
#       5
#     8   8   8   8   8
#     4  10  21  38  59  87 125 165 207 264 326 379
#     4  10  20  36  64  88 120 164 215 266 315 374
#     4   9  18  37  63  89 121 163 210 261 324 391
#     4  10  21  36  61  90 122 165 211 254 325 389
#     4  10  21  39  60  88 127 167 212 267 320 375
#
# _framework density 24.965358999999999
#
# number of rings (size 3 to 8) (size 9 to 14) (size 15 to 20)
#    0.000    2.200    2.000    1.200    2.800    2.400 
#    0.000    5.000    0.000    4.200    0.000    0.000 
#    0.000    0.000    0.000    0.000    0.000    0.000 
#
# Total GULP energy -223448.627310 kJ/mol
# GULP energy per Si atom -5586.215683 kJ/mol
# Density = 2.490854 g / cm^3
# Si number density = 24.965359 Si / 1000 Ang^3
#
#
#
# Elastic Constant Matrix: (Units=GPa)
#
#
# Indices 1 2 3 4 5 6 
#
# 1 92.7151 37.5308 37.1945 0.0000 0.0000 0.0000
# 2 37.5308 185.6146 23.7966 0.0000 0.0000 0.0000
# 3 37.1945 23.7966 85.2634 0.0000 0.0000 0.0000
# 4 0.0000 0.0000 0.0000 -28.3624 0.0000 0.0000
# 5 0.0000 0.0000 0.0000 0.0000 -13.4581 0.0000
# 6 0.0000 0.0000 0.0000 0.0000 0.0000 43.4524
#
#
#
# Elastic Compliance Matrix: (Units=1/GPa)
#
#
# Indices 1 2 3 4 5 6 
#
# 1 0.013818 -0.002096 -0.005443 0.000000 0.000000 0.000000
# 2 -0.002096 0.005905 -0.000734 0.000000 0.000000 0.000000
# 3 -0.005443 -0.000734 0.014307 0.000000 0.000000 0.000000
# 4 0.000000 0.000000 0.000000 -0.035258 0.000000 0.000000
# 5 0.000000 0.000000 0.000000 0.000000 -0.074305 0.000000
# 6 0.000000 0.000000 0.000000 0.000000 0.000000 0.023014
#
#
# Mechanical properties :
#
#
# Convention : Reuss Voigt Hill
#
# Bulk Modulus (GPa) = 57.19075 62.29300 59.74188
# Shear Modulus (GPa) = -165.86505 17.99781 -73.93362
#
# Velocity S-wave (km/s) = -8.15980 2.68789 -5.44782
# Velocity P-wave (km/s) = 8.11287 5.88549 3.94840
#
# Compressibility (1/GPa) = 0.01748534
#
# Stress axis : x y z
#
# Youngs Moduli (GPa) = 72.37108 169.33616 69.89384
#
# Poissons Ratio (x) = 0.35495 0.38041
# Poissons Ratio (y) = 0.15170 0.05129
# Poissons Ratio (z) = 0.39389 0.12425
#
# Static dielectric constant tensor:
#      x y z
#    x 1.902950 0.000000 0.000000 
#    y 0.000000 2.124190 0.000000 
#    z 0.000000 0.000000 1.959780 
# 
# From -- ./inp_files/21176.got.cif
#   From: 2010.05.17/outbox.cif.g08.bks.cpg/sg55_11_cif.got.tgz:21176.got - 2010.06.03 13:27:54.
