data_PCOD9427657
_publ_section_title
;
Structure prediction by ZEFSAII (Michael W. Deem and Ramdas Pophale) SiO2 
 PCOD9427657
Probable space group: P B A M
;
_chemical_formula_sum "Si O2"
_cell_formula_units_Z 48
_cell_length_a 9.629435
_cell_length_b 18.423389
_cell_length_c 14.671718
_cell_angle_alpha 90.000000
_cell_angle_beta 90.000000
_cell_angle_gamma 90.000000
_cell_volume 2602.862935
_symmetry_space_group_name_H-M "P B A M"
_symmetry_group_IT_number 55
_symmetry_cell_setting 'orthorhombic'
loop_
_space_group_symop_operation_xyz
x,y,z
-x,-y,z
1/2+x,1/2-y,-z
1/2-x,1/2+y,-z
-x,-y,-z
x,y,-z
1/2-x,1/2+y,z
1/2+x,1/2-y,z
loop_
_atom_site_type_symbol
_atom_site_label
_atom_site_fract_x
_atom_site_fract_y
_atom_site_fract_z
Si Si1 0.095376 0.930577 0.106064
Si Si2 0.152530 0.967496 0.604114
Si Si3 0.962477 0.683349 0.263340
Si Si4 0.396326 0.067480 0.396522
Si Si5 0.636021 0.672102 0.732705
Si Si6 0.573118 0.073105 0.106766
O O1 0.077065 0.864297 0.174781
O O2 0.261734 0.942370 0.113953
O O3 0.065023 0.913923 0.000000
O O4 0.000000 0.000000 0.131034
O O5 0.200008 0.952277 0.500000
O O6 0.141965 0.893859 0.660684
O O7 0.256094 0.029754 0.641606
O O8 0.000000 0.000000 0.601162
O O9 0.797057 0.695908 0.266015
O O10 0.976376 0.641175 0.166528
O O11 0.027183 0.627359 0.336390
O O12 0.041623 0.758016 0.281324
O O13 0.368583 0.094364 0.500000
O O14 0.500000 0.000000 0.401739
O O15 0.500000 0.000000 0.140269
O O16 0.540811 0.084056 0.000000
#
# Coordination Sequence:
#
# PCOD9427657 Si02
#       6
#     8   8   8   8   8   8
#     4   9  19  37  60  85 112 147 192 239 284 335
#     4  10  22  40  63  88 113 146 193 243 287 342
#     4  11  24  37  56  84 119 154 192 235 293 346
#     4  10  20  39  64  84 108 150 195 237 287 343
#     4  11  24  38  55  86 120 155 189 237 290 348
#     4   9  19  36  59  85 112 147 192 237 282 338
#
# _framework density 18.441231999999999
#
# number of rings (size 3 to 8) (size 9 to 14) (size 15 to 20)
#    0.000    2.000    1.667    1.000    4.667    2.667 
#    0.000    0.000    0.000    0.000    0.000    0.000 
#    0.000    0.000    0.000    0.000    0.000    0.000 
#
# Total GULP energy -267484.720952 kJ/mol
# GULP energy per Si atom -5572.598353 kJ/mol
# Density = 1.839926 g / cm^3
# Si number density = 18.441232 Si / 1000 Ang^3
#
#
#
# Elastic Constant Matrix: (Units=GPa)
#
#
# Indices 1 2 3 4 5 6 
#
# 1 73.9950 48.0155 28.1544 0.0000 0.0000 0.0000
# 2 48.0155 102.7674 49.1535 0.0000 0.0000 0.0000
# 3 28.1544 49.1535 64.3414 0.0000 0.0000 0.0000
# 4 0.0000 0.0000 0.0000 -5.5504 0.0000 0.0000
# 5 0.0000 0.0000 0.0000 0.0000 22.5728 0.0000
# 6 0.0000 0.0000 0.0000 0.0000 0.0000 41.8477
#
#
#
# Elastic Compliance Matrix: (Units=1/GPa)
#
#
# Indices 1 2 3 4 5 6 
#
# 1 0.019646 -0.007985 -0.002496 0.000000 0.000000 0.000000
# 2 -0.007985 0.018579 -0.010699 0.000000 0.000000 0.000000
# 3 -0.002496 -0.010699 0.024808 0.000000 0.000000 0.000000
# 4 0.000000 0.000000 0.000000 -0.180167 0.000000 0.000000
# 5 0.000000 0.000000 0.000000 0.000000 0.044301 0.000000
# 6 0.000000 0.000000 0.000000 0.000000 0.000000 0.023896
#
#
# Mechanical properties :
#
#
# Convention : Reuss Voigt Hill
#
# Bulk Modulus (GPa) = 48.37588 54.63895 51.50741
# Shear Modulus (GPa) = 15875.13436 19.49272 7947.31354
#
# Velocity S-wave (km/s) = 92.88266 3.25471 65.71827
# Velocity P-wave (km/s) = 107.37414 6.61945 76.06913
#
# Compressibility (1/GPa) = 0.02067146
#
# Stress axis : x y z
#
# Youngs Moduli (GPa) = 50.90165 53.82437 40.30917
#
# Poissons Ratio (x) = 0.42978 0.10063
# Poissons Ratio (y) = 0.40645 0.43128
# Poissons Ratio (z) = 0.12708 0.57588
#
# Static dielectric constant tensor:
#      x y z
#    x 1.644480 0.000000 0.000000 
#    y 0.000000 1.655400 0.000000 
#    z 0.000000 0.000000 1.687060 
# 
# From -- ./inp_files/17320.got.cif
#   From: 2010.05.17/outbox.cif.g08.bks.cpg/sg55_9_cif.got.tgz:17320.got - 2010.06.03 13:27:54.
