data_PCOD9427217
_publ_section_title
;
Structure prediction by ZEFSAII (Michael W. Deem and Ramdas Pophale) SiO2 
 PCOD9427217
Probable space group: P B A M
;
_chemical_formula_sum "Si O2"
_cell_formula_units_Z 64
_cell_length_a 12.449683
_cell_length_b 28.833952
_cell_length_c 9.456136
_cell_angle_alpha 90.000000
_cell_angle_beta 90.000000
_cell_angle_gamma 90.000000
_cell_volume 3394.502823
_symmetry_space_group_name_H-M "P B A M"
_symmetry_group_IT_number 55
_symmetry_cell_setting 'orthorhombic'
loop_
_space_group_symop_operation_xyz
x,y,z
-x,-y,z
1/2+x,1/2-y,-z
1/2-x,1/2+y,-z
-x,-y,-z
x,y,-z
1/2-x,1/2+y,z
1/2+x,1/2-y,z
loop_
_atom_site_type_symbol
_atom_site_label
_atom_site_fract_x
_atom_site_fract_y
_atom_site_fract_z
Si Si1 0.027069 0.927102 0.836878
Si Si2 0.640615 0.942248 0.332111
Si Si3 0.936965 0.591101 0.167350
Si Si4 0.240056 0.976135 0.831736
Si Si5 0.562954 0.284343 0.668197
Si Si6 0.621553 0.676264 0.158138
Si Si7 0.374323 0.806816 0.835354
Si Si8 0.660344 0.382476 0.332311
O O1 0.117582 0.963832 0.790288
O O2 0.089249 0.877670 0.834079
O O3 0.920936 0.917410 0.746788
O O4 0.998140 0.937126 0.000000
O O5 0.628920 0.949586 0.500000
O O6 0.526571 0.935021 0.257827
O O7 0.717483 0.897639 0.308196
O O8 0.705615 0.983901 0.259509
O O9 0.819952 0.567858 0.185533
O O10 0.932328 0.645294 0.206405
O O11 0.962631 0.587319 0.000000
O O12 0.239823 0.987280 0.000000
O O13 0.566606 0.280089 0.500000
O O14 0.444590 0.296754 0.723995
O O15 0.599066 0.237293 0.741606
O O16 0.633558 0.329665 0.710928
O O17 0.747632 0.682884 0.172812
O O18 0.589339 0.692399 0.000000
O O19 0.400304 0.797456 0.000000
O O20 0.638968 0.385976 0.500000
#
# Coordination Sequence:
#
# PCOD9427217 Si02
#       8
#     8   8   8   8   8   8   8   8
#     4   9  17  33  60  86 107 137 184 236 280 329
#     4  11  24  39  55  80 117 157 192 230 275 331
#     4  10  21  39  60  82 112 147 185 232 287 338
#     4  10  20  37  60  86 113 145 184 234 290 338
#     4  10  21  36  55  81 112 148 186 226 280 339
#     4   9  17  34  57  80 107 140 181 232 282 329
#     4  10  20  36  59  85 110 141 184 233 284 337
#     4   9  21  40  55  74 113 156 187 226 282 334
#
# _framework density 18.854015
#
# number of rings (size 3 to 8) (size 9 to 14) (size 15 to 20)
#    0.000    2.250    1.250    1.125    0.000    6.500 
#    0.000    5.000    0.000    0.000    0.000    0.000 
#    0.000    0.000    0.000    0.000    0.000    0.000 
#
# Total GULP energy -357208.954409 kJ/mol
# GULP energy per Si atom -5581.389913 kJ/mol
# Density = 1.881110 g / cm^3
# Si number density = 18.854015 Si / 1000 Ang^3
#
#
#
# Elastic Constant Matrix: (Units=GPa)
#
#
# Indices 1 2 3 4 5 6 
#
# 1 46.3849 1.8027 15.2265 0.0000 0.0000 0.0000
# 2 1.8027 69.6639 28.7835 0.0000 0.0000 0.0000
# 3 15.2265 28.7835 37.0747 0.0000 0.0000 0.0000
# 4 0.0000 0.0000 0.0000 24.3402 0.0000 0.0000
# 5 0.0000 0.0000 0.0000 0.0000 11.7491 0.0000
# 6 0.0000 0.0000 0.0000 0.0000 0.0000 26.3881
#
#
#
# Elastic Compliance Matrix: (Units=1/GPa)
#
#
# Indices 1 2 3 4 5 6 
#
# 1 0.026309 0.005570 -0.015130 0.000000 0.000000 0.000000
# 2 0.005570 0.022313 -0.019611 0.000000 0.000000 0.000000
# 3 -0.015130 -0.019611 0.048411 0.000000 0.000000 0.000000
# 4 0.000000 0.000000 0.000000 0.041084 0.000000 0.000000
# 5 0.000000 0.000000 0.000000 0.000000 0.085113 0.000000
# 6 0.000000 0.000000 0.000000 0.000000 0.000000 0.037896
#
#
# Mechanical properties :
#
#
# Convention : Reuss Voigt Hill
#
# Bulk Modulus (GPa) = 25.84434 27.19431 26.51933
# Shear Modulus (GPa) = 15.04372 19.64953 17.34663
#
# Velocity S-wave (km/s) = 2.82779 3.23180 3.03652
# Velocity P-wave (km/s) = 4.93955 5.32738 5.13713
#
# Compressibility (1/GPa) = 0.03869319
#
# Stress axis : x y z
#
# Youngs Moduli (GPa) = 38.01021 44.81639 20.65628
#
# Poissons Ratio (x) = -0.24964 0.31252
# Poissons Ratio (y) = -0.21173 0.40509
# Poissons Ratio (z) = 0.57508 0.87889
#
# Static dielectric constant tensor:
#      x y z
#    x 1.632690 0.000000 0.000000 
#    y 0.000000 1.670630 0.000000 
#    z 0.000000 0.000000 1.629020 
# 
# From -- ./inp_files/4568.got.cif
#   From: 2010.05.17/outbox.cif.g08.bks.cpg/sg55_3_cif.got.tgz:4568.got - 2010.06.03 13:27:54.
