data_PCOD9427787
_publ_section_title
;
Structure prediction by ZEFSAII (Michael W. Deem and Ramdas Pophale) SiO2 
 PCOD9427787
Probable space group: P B A M
;
_chemical_formula_sum "Si O2"
_cell_formula_units_Z 48
_cell_length_a 12.383416
_cell_length_b 23.491629
_cell_length_c 8.022407
_cell_angle_alpha 90.000000
_cell_angle_beta 90.000000
_cell_angle_gamma 90.000000
_cell_volume 2333.771260
_symmetry_space_group_name_H-M "P B A M"
_symmetry_group_IT_number 55
_symmetry_cell_setting 'orthorhombic'
loop_
_space_group_symop_operation_xyz
x,y,z
-x,-y,z
1/2+x,1/2-y,-z
1/2-x,1/2+y,-z
-x,-y,-z
x,y,-z
1/2-x,1/2+y,z
1/2+x,1/2-y,z
loop_
_atom_site_type_symbol
_atom_site_label
_atom_site_fract_x
_atom_site_fract_y
_atom_site_fract_z
Si Si1 0.980897 0.129751 0.697278
Si Si2 0.139648 0.229714 0.301625
Si Si3 0.334653 0.547513 0.798262
Si Si4 0.325746 0.149139 0.201450
Si Si5 0.233318 0.923570 0.198412
Si Si6 0.430174 0.852917 0.197717
O O1 0.968563 0.135960 0.500000
O O2 0.050448 0.183672 0.760018
O O3 0.054105 0.074277 0.733811
O O4 0.863794 0.120639 0.773917
O O5 0.127741 0.235267 0.500000
O O6 0.256040 0.202398 0.264538
O O7 0.119767 0.290578 0.222026
O O8 0.241337 0.592616 0.752332
O O9 0.304435 0.484913 0.735529
O O10 0.342947 0.545999 0.000000
O O11 0.448020 0.146777 0.265312
O O12 0.326987 0.152326 0.000000
O O13 0.345159 0.898680 0.267540
O O14 0.247116 0.930756 0.000000
O O15 0.439649 0.863957 0.000000
#
# Coordination Sequence:
#
# PCOD9427787 Si02
#       6
#     8   8   8   8   8   8
#     4  10  21  36  55  81 110 145 185 227 273 318
#     4  10  22  38  56  78 108 144 184 228 274 323
#     4   9  18  35  58  82 110 144 180 222 273 325
#     4   9  19  37  59  81 107 142 182 223 272 327
#     4  10  21  35  54  83 114 143 179 223 272 326
#     4  10  22  37  55  82 111 143 182 225 273 325
#
# _framework density 20.567568000000001
#
# number of rings (size 3 to 8) (size 9 to 14) (size 15 to 20)
#    0.000    2.333    0.000    1.500    2.333    6.667 
#    0.000    3.333    0.000    0.000    0.000    7.000 
#    0.000    0.000    0.000    0.000    0.000    0.000 
#
# Total GULP energy -268047.100187 kJ/mol
# GULP energy per Si atom -5584.314587 kJ/mol
# Density = 2.052076 g / cm^3
# Si number density = 20.567568 Si / 1000 Ang^3
#
#
#
# Elastic Constant Matrix: (Units=GPa)
#
#
# Indices 1 2 3 4 5 6 
#
# 1 99.0039 -4.8988 -3.5820 0.0000 0.0000 0.0000
# 2 -4.8988 27.4350 -6.0299 0.0000 0.0000 0.0000
# 3 -3.5820 -6.0299 11.9281 0.0000 0.0000 0.0000
# 4 0.0000 0.0000 0.0000 -4.7130 0.0000 0.0000
# 5 0.0000 0.0000 0.0000 0.0000 -22.5208 0.0000
# 6 0.0000 0.0000 0.0000 0.0000 0.0000 11.2134
#
#
#
# Elastic Compliance Matrix: (Units=1/GPa)
#
#
# Indices 1 2 3 4 5 6 
#
# 1 0.010408 0.002864 0.004573 0.000000 0.000000 0.000000
# 2 0.002864 0.041794 0.021988 0.000000 0.000000 0.000000
# 3 0.004573 0.021988 0.096324 0.000000 0.000000 0.000000
# 4 0.000000 0.000000 0.000000 -0.212181 0.000000 0.000000
# 5 0.000000 0.000000 0.000000 0.000000 -0.044403 0.000000
# 6 0.000000 0.000000 0.000000 0.000000 0.000000 0.089179
#
#
# Mechanical properties :
#
#
# Convention : Reuss Voigt Hill
#
# Bulk Modulus (GPa) = 4.82220 12.14950 8.48585
# Shear Modulus (GPa) = -581.24050 6.98775 -287.12637
#
# Velocity S-wave (km/s) = -16.82896 1.84522 -11.82813
# Velocity P-wave (km/s) = 19.37186 3.23415 13.50573
#
# Compressibility (1/GPa) = 0.20737406
#
# Stress axis : x y z
#
# Youngs Moduli (GPa) = 96.08219 23.92702 10.38160
#
# Poissons Ratio (x) = -0.06852 -0.04747
# Poissons Ratio (y) = -0.27513 -0.22827
# Poissons Ratio (z) = -0.43938 -0.52610
#
# Static dielectric constant tensor:
#      x y z
#    x 1.734220 0.000000 0.000000 
#    y 0.000000 1.725230 0.000000 
#    z 0.000000 0.000000 1.730440 
# 
# From -- ./inp_files/4028.got.cif
#   From: 2010.05.17/outbox.cif.g08.bks.cpg/sg55_3_cif.got.tgz:4028.got - 2010.06.03 13:27:54.
