data_PCOD9427897
_publ_section_title
;
Structure prediction by ZEFSAII (Michael W. Deem and Ramdas Pophale) SiO2 
 PCOD9427897
Probable space group: P B A M
;
_chemical_formula_sum "Si O2"
_cell_formula_units_Z 48
_cell_length_a 23.705111
_cell_length_b 11.990558
_cell_length_c 8.598479
_cell_angle_alpha 90.000000
_cell_angle_beta 90.000000
_cell_angle_gamma 90.000000
_cell_volume 2444.010246
_symmetry_space_group_name_H-M "P B A M"
_symmetry_group_IT_number 55
_symmetry_cell_setting 'orthorhombic'
loop_
_space_group_symop_operation_xyz
x,y,z
-x,-y,z
1/2+x,1/2-y,-z
1/2-x,1/2+y,-z
-x,-y,-z
x,y,-z
1/2-x,1/2+y,z
1/2+x,1/2-y,z
loop_
_atom_site_type_symbol
_atom_site_label
_atom_site_fract_x
_atom_site_fract_y
_atom_site_fract_z
Si Si1 0.050132 0.924322 0.180158
Si Si2 0.649636 0.175943 0.316129
Si Si3 0.225779 0.866420 0.314651
Si Si4 0.434757 0.999621 0.814367
Si Si5 0.354186 0.559564 0.679745
Si Si6 0.883269 0.274508 0.314485
O O1 0.067212 0.811761 0.267266
O O2 0.103777 0.003911 0.199652
O O3 0.038104 0.898451 0.000000
O O4 0.000000 0.000000 0.246148
O O5 0.647408 0.146685 0.500000
O O6 0.711505 0.145381 0.250562
O O7 0.646390 0.309078 0.303641
O O8 0.598920 0.110777 0.235719
O O9 0.230219 0.843185 0.500000
O O10 0.175904 0.782706 0.258297
O O11 0.204050 0.993102 0.298194
O O12 0.399608 0.105650 0.751959
O O13 0.500000 0.000000 0.757625
O O14 0.436293 0.006746 0.000000
O O15 0.371735 0.532685 0.500000
O O16 0.879970 0.281698 0.500000
#
# Coordination Sequence:
#
# PCOD9427897 Si02
#       6
#     8   8   8   8   8   8
#     4  10  21  36  57  83 116 157 191 231 293 351
#     4  10  21  37  63  91 117 153 198 245 292 353
#     4   8  17  35  61  91 119 147 185 242 305 349
#     4  11  26  44  59  82 123 166 202 244 301 361
#     4   9  19  35  56  87 118 148 194 245 287 340
#     4  10  21  39  65  90 115 150 197 249 294 348
#
# _framework density 19.639852000000001
#
# number of rings (size 3 to 8) (size 9 to 14) (size 15 to 20)
#    0.000    2.333    0.000    2.500    4.667    3.333 
#    0.000    4.167    0.000    0.000    0.000    0.000 
#    0.000    0.000    0.000    0.000    0.000    0.000 
#
# Total GULP energy -267647.338644 kJ/mol
# GULP energy per Si atom -5575.986222 kJ/mol
# Density = 1.959515 g / cm^3
# Si number density = 19.639852 Si / 1000 Ang^3
#
#
#
# Elastic Constant Matrix: (Units=GPa)
#
#
# Indices 1 2 3 4 5 6 
#
# 1 68.0466 24.8623 11.1782 0.0000 0.0000 0.0000
# 2 24.8623 79.7853 23.1870 0.0000 0.0000 0.0000
# 3 11.1782 23.1870 27.8690 0.0000 0.0000 0.0000
# 4 0.0000 0.0000 0.0000 20.3389 0.0000 0.0000
# 5 0.0000 0.0000 0.0000 0.0000 27.4864 0.0000
# 6 0.0000 0.0000 0.0000 0.0000 0.0000 8.6257
#
#
#
# Elastic Compliance Matrix: (Units=1/GPa)
#
#
# Indices 1 2 3 4 5 6 
#
# 1 0.016790 -0.004319 -0.003141 0.000000 0.000000 0.000000
# 2 -0.004319 0.017642 -0.012945 0.000000 0.000000 0.000000
# 3 -0.003141 -0.012945 0.047913 0.000000 0.000000 0.000000
# 4 0.000000 0.000000 0.000000 0.049167 0.000000 0.000000
# 5 0.000000 0.000000 0.000000 0.000000 0.036382 0.000000
# 6 0.000000 0.000000 0.000000 0.000000 0.000000 0.115933
#
#
# Mechanical properties :
#
#
# Convention : Reuss Voigt Hill
#
# Bulk Modulus (GPa) = 24.07711 32.68398 28.38054
# Shear Modulus (GPa) = 14.77186 19.05509 16.91348
#
# Velocity S-wave (km/s) = 2.74549 3.11822 2.93777
# Velocity P-wave (km/s) = 4.72612 5.44447 5.09796
#
# Compressibility (1/GPa) = 0.04153323
#
# Stress axis : x y z
#
# Youngs Moduli (GPa) = 59.55970 56.68375 20.87132
#
# Poissons Ratio (x) = 0.24483 0.06555
# Poissons Ratio (y) = 0.25725 0.27019
# Poissons Ratio (z) = 0.18707 0.73380
#
# Static dielectric constant tensor:
#      x y z
#    x 1.729960 0.000000 0.000000 
#    y 0.000000 1.685450 0.000000 
#    z 0.000000 0.000000 1.686350 
# 
# From -- ./inp_files/4090.got.cif
#   From: 2010.05.17/outbox.cif.g08.bks.cpg/sg55_3_cif.got.tgz:4090.got - 2010.06.03 13:27:54.
