data_PCOD9427419
_publ_section_title
;
Structure prediction by ZEFSAII (Michael W. Deem and Ramdas Pophale) SiO2 
 PCOD9427419
Probable space group: P B A M
;
_chemical_formula_sum "Si O2"
_cell_formula_units_Z 56
_cell_length_a 15.633745
_cell_length_b 15.557257
_cell_length_c 11.738342
_cell_angle_alpha 90.000000
_cell_angle_beta 90.000000
_cell_angle_gamma 90.000000
_cell_volume 2854.978281
_symmetry_space_group_name_H-M "P B A M"
_symmetry_group_IT_number 55
_symmetry_cell_setting 'orthorhombic'
loop_
_space_group_symop_operation_xyz
x,y,z
-x,-y,z
1/2+x,1/2-y,-z
1/2-x,1/2+y,-z
-x,-y,-z
x,y,-z
1/2-x,1/2+y,z
1/2+x,1/2-y,z
loop_
_atom_site_type_symbol
_atom_site_label
_atom_site_fract_x
_atom_site_fract_y
_atom_site_fract_z
Si Si1 0.060328 0.879607 0.633748
Si Si2 0.935610 0.580790 0.370511
Si Si3 0.362318 0.221845 0.231789
Si Si4 0.814357 0.805958 0.126852
Si Si5 0.969739 0.672942 0.873464
Si Si6 0.123413 0.062726 0.301710
Si Si7 0.688210 0.938329 0.624045
O O1 0.077937 0.890855 0.500000
O O2 0.103376 0.793767 0.681494
O O3 0.957638 0.883804 0.651495
O O4 0.095582 0.963538 0.699499
O O5 0.939443 0.621873 0.500000
O O6 0.955391 0.627975 0.250952
O O7 0.842904 0.535558 0.357675
O O8 0.000000 0.500000 0.374818
O O9 0.265885 0.238161 0.189889
O O10 0.435861 0.213818 0.137247
O O11 0.352350 0.127797 0.288056
O O12 0.895296 0.743506 0.125089
O O13 0.846535 0.893313 0.185258
O O14 0.784639 0.824698 0.000000
O O15 0.964625 0.628205 0.000000
O O16 0.210042 0.068511 0.373617
O O17 0.656099 0.911870 0.500000
#
# Coordination Sequence:
#
# PCOD9427419 Si02
#       7
#     8   8   8   8   8   8   8
#     4  11  22  38  62  94 129 163 206 259 317 383
#     4  10  21  38  59  89 124 159 201 254 310 372
#     4  11  22  39  63  91 123 164 212 257 315 373
#     4  10  23  44  63  86 120 161 214 266 310 370
#     4  11  23  42  63  89 122 162 211 263 316 375
#     4  10  21  40  61  88 124 162 209 253 315 373
#     4  10  20  37  60  87 127 167 204 253 312 373
#
# _framework density 19.61486
#
# number of rings (size 3 to 8) (size 9 to 14) (size 15 to 20)
#    0.000    1.571    2.857    2.571    2.000    0.857 
#    0.000    4.286    0.000    0.000    0.000    0.000 
#    0.000    0.000    0.000    0.000    0.000    0.000 
#
# Total GULP energy -311829.778055 kJ/mol
# GULP energy per Si atom -5568.388894 kJ/mol
# Density = 1.957022 g / cm^3
# Si number density = 19.614860 Si / 1000 Ang^3
#
#
#
# Elastic Constant Matrix: (Units=GPa)
#
#
# Indices 1 2 3 4 5 6 
#
# 1 132.0715 27.8194 28.0714 0.0000 0.0000 0.0000
# 2 27.8194 37.9232 25.0093 0.0000 0.0000 0.0000
# 3 28.0714 25.0093 89.5769 0.0000 0.0000 0.0000
# 4 0.0000 0.0000 0.0000 19.4476 0.0000 0.0000
# 5 0.0000 0.0000 0.0000 0.0000 18.0759 0.0000
# 6 0.0000 0.0000 0.0000 0.0000 0.0000 28.3637
#
#
#
# Elastic Compliance Matrix: (Units=1/GPa)
#
#
# Indices 1 2 3 4 5 6 
#
# 1 0.009060 -0.005851 -0.001206 0.000000 0.000000 0.000000
# 2 -0.005851 0.036099 -0.008245 0.000000 0.000000 0.000000
# 3 -0.001206 -0.008245 0.013843 0.000000 0.000000 0.000000
# 4 0.000000 0.000000 0.000000 0.051420 0.000000 0.000000
# 5 0.000000 0.000000 0.000000 0.000000 0.055322 0.000000
# 6 0.000000 0.000000 0.000000 0.000000 0.000000 0.035256
#
#
# Mechanical properties :
#
#
# Convention : Reuss Voigt Hill
#
# Bulk Modulus (GPa) = 35.21286 46.81909 41.01598
# Shear Modulus (GPa) = 20.74076 25.08888 22.91482
#
# Velocity S-wave (km/s) = 3.25530 3.58030 3.42166
# Velocity P-wave (km/s) = 5.66748 6.40409 6.04701
#
# Compressibility (1/GPa) = 0.02839871
#
# Stress axis : x y z
#
# Youngs Moduli (GPa) = 110.36977 27.70179 72.23699
#
# Poissons Ratio (x) = 0.16209 0.08709
# Poissons Ratio (y) = 0.64582 0.59558
# Poissons Ratio (z) = 0.13307 0.22840
#
# Static dielectric constant tensor:
#      x y z
#    x 1.732790 0.000000 0.000000 
#    y 0.000000 1.679980 0.000000 
#    z 0.000000 0.000000 1.731600 
# 
# From -- ./inp_files/14237.got.cif
#   From: 2010.05.17/outbox.cif.g08.bks.cpg/sg55_8_cif.got.tgz:14237.got - 2010.06.03 13:27:54.
