data_PCOD9427526
_publ_section_title
;
Structure prediction by ZEFSAII (Michael W. Deem and Ramdas Pophale) SiO2 
 PCOD9427526
Probable space group: P B A M
;
_chemical_formula_sum "Si O2"
_cell_formula_units_Z 56
_cell_length_a 23.295703
_cell_length_b 10.253441
_cell_length_c 14.424948
_cell_angle_alpha 90.000000
_cell_angle_beta 90.000000
_cell_angle_gamma 90.000000
_cell_volume 3445.559181
_symmetry_space_group_name_H-M "P B A M"
_symmetry_group_IT_number 55
_symmetry_cell_setting 'orthorhombic'
loop_
_space_group_symop_operation_xyz
x,y,z
-x,-y,z
1/2+x,1/2-y,-z
1/2-x,1/2+y,-z
-x,-y,-z
x,y,-z
1/2-x,1/2+y,z
1/2+x,1/2-y,z
loop_
_atom_site_type_symbol
_atom_site_label
_atom_site_fract_x
_atom_site_fract_y
_atom_site_fract_z
Si Si1 0.799887 0.499454 0.889393
Si Si2 0.181832 0.668650 0.606731
Si Si3 0.622483 0.780284 0.205172
Si Si4 0.621628 0.251852 0.110285
Si Si5 0.006118 0.655987 0.892447
Si Si6 0.226237 0.950946 0.606103
Si Si7 0.175178 0.000138 0.205606
O O1 0.836627 0.378118 0.852136
O O2 0.837059 0.629033 0.869961
O O3 0.738637 0.505047 0.839309
O O4 0.791886 0.488772 0.000000
O O5 0.161201 0.673943 0.500000
O O6 0.135045 0.688571 0.686682
O O7 0.225366 0.793347 0.618172
O O8 0.215108 0.531951 0.619825
O O9 0.557575 0.800659 0.173199
O O10 0.642487 0.633711 0.184700
O O11 0.555784 0.215749 0.130532
O O12 0.642713 0.376148 0.165934
O O13 0.625929 0.277296 0.000000
O O14 0.000000 0.500000 0.887935
O O15 0.020138 0.689078 0.000000
O O16 0.208518 0.976241 0.500000
O O17 0.183734 0.005057 0.683793
#
# Coordination Sequence:
#
# PCOD9427526 Si02
#       7
#     8   8   8   8   8   8   8
#     4  11  21  34  52  76 110 145 174 209 264 326
#     4   9  18  33  53  79 108 139 175 218 267 317
#     4  11  21  34  56  79 103 143 182 219 264 316
#     4  10  22  37  54  77 108 143 180 222 259 311
#     4  10  20  38  58  75  99 142 193 225 255 312
#     4   9  18  32  51  76 109 142 173 211 260 325
#     4  11  22  33  51  83 114 135 170 221 278 319
#
# _framework density 16.252804000000001
#
# number of rings (size 3 to 8) (size 9 to 14) (size 15 to 20)
#    0.000    1.857    2.857    1.714    2.000    4.000 
#    0.000    1.429    0.000    1.286    0.000    4.000 
#    0.000    0.000    0.000    0.000    0.000    0.000 
#
# Total GULP energy -312350.286406 kJ/mol
# GULP energy per Si atom -5577.683686 kJ/mol
# Density = 1.621581 g / cm^3
# Si number density = 16.252804 Si / 1000 Ang^3
#
#
#
# Elastic Constant Matrix: (Units=GPa)
#
#
# Indices 1 2 3 4 5 6 
#
# 1 96.9143 37.2467 57.2557 0.0000 0.0000 0.0000
# 2 37.2467 70.1443 51.4104 0.0000 0.0000 0.0000
# 3 57.2557 51.4104 80.9575 0.0000 0.0000 0.0000
# 4 0.0000 0.0000 0.0000 7.2349 0.0000 0.0000
# 5 0.0000 0.0000 0.0000 0.0000 21.9450 0.0000
# 6 0.0000 0.0000 0.0000 0.0000 0.0000 -30.5242
#
#
#
# Elastic Compliance Matrix: (Units=1/GPa)
#
#
# Indices 1 2 3 4 5 6 
#
# 1 0.017730 -0.000420 -0.012273 0.000000 0.000000 0.000000
# 2 -0.000420 0.026679 -0.016645 0.000000 0.000000 0.000000
# 3 -0.012273 -0.016645 0.031602 0.000000 0.000000 0.000000
# 4 0.000000 0.000000 0.000000 0.138219 0.000000 0.000000
# 5 0.000000 0.000000 0.000000 0.000000 0.045568 0.000000
# 6 0.000000 0.000000 0.000000 0.000000 0.000000 -0.032761
#
#
# Mechanical properties :
#
#
# Convention : Reuss Voigt Hill
#
# Bulk Modulus (GPa) = 57.68382 59.98240 58.83311
# Shear Modulus (GPa) = 17.15316 6.53803 11.84559
#
# Velocity S-wave (km/s) = 3.25221 2.00784 2.70262
# Velocity P-wave (km/s) = 7.04778 6.50855 6.78352
#
# Compressibility (1/GPa) = 0.01733588
#
# Stress axis : x y z
#
# Youngs Moduli (GPa) = 56.40026 37.48322 31.64360
#
# Poissons Ratio (x) = 0.01573 0.38836
# Poissons Ratio (y) = 0.02367 0.52670
# Poissons Ratio (z) = 0.69220 0.62390
#
# Static dielectric constant tensor:
#      x y z
#    x 1.514790 0.000000 0.000000 
#    y 0.000000 1.548500 0.000000 
#    z 0.000000 0.000000 1.557510 
# 
# From -- ./inp_files/17650.got.cif
#   From: 2010.05.17/outbox.cif.g08.bks.cpg/sg55_9_cif.got.tgz:17650.got - 2010.06.03 13:27:54.
