data_PCOD9427633
_publ_section_title
;
Structure prediction by ZEFSAII (Michael W. Deem and Ramdas Pophale) SiO2 
 PCOD9427633
Probable space group: P B A M
;
_chemical_formula_sum "Si O2"
_cell_formula_units_Z 48
_cell_length_a 21.332051
_cell_length_b 9.022043
_cell_length_c 13.936820
_cell_angle_alpha 90.000000
_cell_angle_beta 90.000000
_cell_angle_gamma 90.000000
_cell_volume 2682.262000
_symmetry_space_group_name_H-M "P B A M"
_symmetry_group_IT_number 55
_symmetry_cell_setting 'orthorhombic'
loop_
_space_group_symop_operation_xyz
x,y,z
-x,-y,z
1/2+x,1/2-y,-z
1/2-x,1/2+y,-z
-x,-y,-z
x,y,-z
1/2-x,1/2+y,z
1/2+x,1/2-y,z
loop_
_atom_site_type_symbol
_atom_site_label
_atom_site_fract_x
_atom_site_fract_y
_atom_site_fract_z
Si Si1 0.056895 0.887382 0.112873
Si Si2 0.664045 0.977235 0.391682
Si Si3 0.163714 0.983583 0.763188
Si Si4 0.448852 0.124843 0.734322
Si Si5 0.760828 0.746432 0.312668
Si Si6 0.059407 0.893502 0.392112
O O1 0.055929 0.735679 0.174833
O O2 0.121784 0.966485 0.142414
O O3 0.052554 0.858393 0.000000
O O4 0.000000 0.000000 0.139828
O O5 0.637979 0.970535 0.500000
O O6 0.614635 0.949474 0.305890
O O7 0.716133 0.849321 0.377612
O O8 0.697328 0.134332 0.374319
O O9 0.196108 0.141099 0.747339
O O10 0.216397 0.856811 0.752931
O O11 0.114273 0.951486 0.677008
O O12 0.464579 0.236813 0.647533
O O13 0.500000 0.000000 0.750885
O O14 0.083519 0.881663 0.500000
O O15 0.000000 0.000000 0.389740
#
# Coordination Sequence:
#
# PCOD9427633 Si02
#       6
#     8   8   8   8   8   8
#     4  10  22  43  70  89 107 144 193 245 302 360
#     4  11  22  36  55  85 120 161 200 234 273 330
#     4  10  20  39  59  83 118 149 194 241 289 341
#     4  11  23  37  58  85 120 150 184 246 297 344
#     4  10  22  36  58  81 117 163 197 230 276 336
#     4  10  21  36  55  80 113 160 203 242 289 340
#
# _framework density 17.895344000000001
#
# number of rings (size 3 to 8) (size 9 to 14) (size 15 to 20)
#    0.000    1.667    3.333    3.000    4.667    5.000 
#    0.000    0.833    0.000    0.000    0.000    0.000 
#    0.000    0.000    0.000    0.000    0.000    0.000 
#
# Total GULP energy -267750.643229 kJ/mol
# GULP energy per Si atom -5578.138401 kJ/mol
# Density = 1.785461 g / cm^3
# Si number density = 17.895344 Si / 1000 Ang^3
#
#
#
# Elastic Constant Matrix: (Units=GPa)
#
#
# Indices 1 2 3 4 5 6 
#
# 1 84.9405 61.4128 47.3379 0.0000 0.0000 0.0000
# 2 61.4128 116.5047 30.6381 0.0000 0.0000 0.0000
# 3 47.3379 30.6381 84.2234 0.0000 0.0000 0.0000
# 4 0.0000 0.0000 0.0000 11.4166 0.0000 0.0000
# 5 0.0000 0.0000 0.0000 0.0000 67.7446 0.0000
# 6 0.0000 0.0000 0.0000 0.0000 0.0000 37.6382
#
#
#
# Elastic Compliance Matrix: (Units=1/GPa)
#
#
# Indices 1 2 3 4 5 6 
#
# 1 0.025127 -0.010539 -0.010289 0.000000 0.000000 0.000000
# 2 -0.010539 0.013912 0.000863 0.000000 0.000000 0.000000
# 3 -0.010289 0.000863 0.017342 0.000000 0.000000 0.000000
# 4 0.000000 0.000000 0.000000 0.087592 0.000000 0.000000
# 5 0.000000 0.000000 0.000000 0.000000 0.014761 0.000000
# 6 0.000000 0.000000 0.000000 0.000000 0.000000 0.026569
#
#
# Mechanical properties :
#
#
# Convention : Reuss Voigt Hill
#
# Bulk Modulus (GPa) = 60.78803 62.71625 61.75214
# Shear Modulus (GPa) = 21.67158 33.11186 27.39172
#
# Velocity S-wave (km/s) = 3.48374 4.30618 3.91661
# Velocity P-wave (km/s) = 7.08691 7.73605 7.41859
#
# Compressibility (1/GPa) = 0.01645061
#
# Stress axis : x y z
#
# Youngs Moduli (GPa) = 39.79778 71.88012 57.66321
#
# Poissons Ratio (x) = 0.75758 0.59328
# Poissons Ratio (y) = 0.41945 -0.04976
# Poissons Ratio (z) = 0.40947 -0.06202
#
# Static dielectric constant tensor:
#      x y z
#    x 1.635360 0.000000 0.000000 
#    y 0.000000 1.616330 0.000000 
#    z 0.000000 0.000000 1.600250 
# 
# From -- ./inp_files/19650.got.cif
#   From: 2010.05.17/outbox.cif.g08.bks.cpg/sg55_10_cif.got.tgz:19650.got - 2010.06.03 13:27:54.
