data_PCOD9427252
_publ_section_title
;
Structure prediction by ZEFSAII (Michael W. Deem and Ramdas Pophale) SiO2 
 PCOD9427252
Probable space group: P B A M
;
_chemical_formula_sum "Si O2"
_cell_formula_units_Z 48
_cell_length_a 28.689993
_cell_length_b 10.476621
_cell_length_c 8.720919
_cell_angle_alpha 90.000000
_cell_angle_beta 90.000000
_cell_angle_gamma 90.000000
_cell_volume 2621.283105
_symmetry_space_group_name_H-M "P B A M"
_symmetry_group_IT_number 55
_symmetry_cell_setting 'orthorhombic'
loop_
_space_group_symop_operation_xyz
x,y,z
-x,-y,z
1/2+x,1/2-y,-z
1/2-x,1/2+y,-z
-x,-y,-z
x,y,-z
1/2-x,1/2+y,z
1/2+x,1/2-y,z
loop_
_atom_site_type_symbol
_atom_site_label
_atom_site_fract_x
_atom_site_fract_y
_atom_site_fract_z
Si Si1 0.449922 0.646234 0.183267
Si Si2 0.451194 0.361211 0.316445
Si Si3 0.352132 0.246746 0.683495
Si Si4 0.308678 0.990404 0.817145
Si Si5 0.698400 0.504459 0.183541
Si Si6 0.144202 0.239101 0.682749
O O1 0.442842 0.501576 0.245154
O O2 0.500276 0.687541 0.247115
O O3 0.407401 0.729042 0.246310
O O4 0.450237 0.644574 0.000000
O O5 0.455605 0.375007 0.500000
O O6 0.406515 0.274355 0.283218
O O7 0.346508 0.239915 0.500000
O O8 0.323557 0.367404 0.747300
O O9 0.333629 0.118225 0.759606
O O10 0.253511 0.999665 0.784496
O O11 0.330448 0.867585 0.735563
O O12 0.314194 0.976847 0.000000
O O13 0.673004 0.382096 0.254780
O O14 0.691588 0.503468 0.000000
O O15 0.141319 0.232151 0.500000
#
# Coordination Sequence:
#
# PCOD9427252 Si02
#       6
#     8   8   8   8   8   8
#     4  11  21  35  60  90 119 154 198 245 298 355
#     4  10  20  36  59  89 122 153 195 247 298 352
#     4  11  23  39  62  91 122 159 199 245 299 355
#     4  11  25  42  60  86 123 162 200 248 301 356
#     4  11  23  40  63  89 119 158 204 250 297 352
#     4  12  24  40  62  89 122 159 201 250 300 355
#
# _framework density 18.311643
#
# number of rings (size 3 to 8) (size 9 to 14) (size 15 to 20)
#    0.000    1.000    1.667    7.000    0.000    8.667 
#    0.000    0.833    0.000    5.000    0.000    0.000 
#    0.000    0.000    0.000    0.000    0.000    0.000 
#
# Total GULP energy -268507.913275 kJ/mol
# GULP energy per Si atom -5593.914860 kJ/mol
# Density = 1.826997 g / cm^3
# Si number density = 18.311643 Si / 1000 Ang^3
#
#
#
# Elastic Constant Matrix: (Units=GPa)
#
#
# Indices 1 2 3 4 5 6 
#
# 1 138.5651 46.5140 75.2924 0.0000 0.0000 0.0000
# 2 46.5140 94.0309 30.1751 0.0000 0.0000 0.0000
# 3 75.2924 30.1751 108.0383 0.0000 0.0000 0.0000
# 4 0.0000 0.0000 0.0000 34.5774 0.0000 0.0000
# 5 0.0000 0.0000 0.0000 0.0000 36.1202 0.0000
# 6 0.0000 0.0000 0.0000 0.0000 0.0000 -657.6153
#
#
#
# Elastic Compliance Matrix: (Units=1/GPa)
#
#
# Indices 1 2 3 4 5 6 
#
# 1 0.012738 -0.003792 -0.007818 0.000000 0.000000 0.000000
# 2 -0.003792 0.012811 -0.000935 0.000000 0.000000 0.000000
# 3 -0.007818 -0.000935 0.014966 0.000000 0.000000 0.000000
# 4 0.000000 0.000000 0.000000 0.028921 0.000000 0.000000
# 5 0.000000 0.000000 0.000000 0.000000 0.027685 0.000000
# 6 0.000000 0.000000 0.000000 0.000000 0.000000 -0.001521
#
#
# Mechanical properties :
#
#
# Convention : Reuss Voigt Hill
#
# Bulk Modulus (GPa) = 64.83629 71.62195 68.22912
# Shear Modulus (GPa) = 39.73574 -104.80668 -32.53547
#
# Velocity S-wave (km/s) = 4.66335 -7.57359 -4.21974
# Velocity P-wave (km/s) = 8.02993 6.10584 3.68771
#
# Compressibility (1/GPa) = 0.01542346
#
# Stress axis : x y z
#
# Youngs Moduli (GPa) = 78.50639 78.05914 66.82022
#
# Poissons Ratio (x) = 0.29601 0.52239
# Poissons Ratio (y) = 0.29771 0.06250
# Poissons Ratio (z) = 0.61375 0.07301
#
# Static dielectric constant tensor:
#      x y z
#    x 1.631620 0.000000 0.000000 
#    y 0.000000 1.582220 0.000000 
#    z 0.000000 0.000000 1.610320 
# 
# From -- ./inp_files/2754.got.cif
#   From: 2010.05.17/outbox.cif.g08.bks.cpg/sg55_2_cif.got.tgz:2754.got - 2010.06.03 13:27:54.
