data_PCOD9427204
_publ_section_title
;
Structure prediction by ZEFSAII (Michael W. Deem and Ramdas Pophale) SiO2 
 PCOD9427204
Probable space group: P B A M
;
_chemical_formula_sum "Si O2"
_cell_formula_units_Z 54
_cell_length_a 12.715104
_cell_length_b 14.970415
_cell_length_c 14.116885
_cell_angle_alpha 90.000000
_cell_angle_beta 90.000000
_cell_angle_gamma 90.000000
_cell_volume 2687.154476
_symmetry_space_group_name_H-M "P B A M"
_symmetry_group_IT_number 55
_symmetry_cell_setting 'orthorhombic'
loop_
_space_group_symop_operation_xyz
x,y,z
-x,-y,z
1/2+x,1/2-y,-z
1/2-x,1/2+y,-z
-x,-y,-z
x,y,-z
1/2-x,1/2+y,z
1/2+x,1/2-y,z
loop_
_atom_site_type_symbol
_atom_site_label
_atom_site_fract_x
_atom_site_fract_y
_atom_site_fract_z
Si Si1 0.248781 0.708611 0.390364
Si Si2 0.564745 0.310641 0.733704
Si Si3 0.000000 0.500000 0.500000
Si Si4 0.768975 0.805617 0.110137
Si Si5 0.667689 0.659508 0.763713
Si Si6 0.275518 0.983174 0.894744
Si Si7 0.028554 0.628473 0.660759
Si Si8 0.000000 0.500000 0.169512
O O1 0.273129 0.724780 0.500000
O O2 0.342135 0.656935 0.335458
O O3 0.221011 0.799120 0.331084
O O4 0.142867 0.649775 0.382392
O O5 0.622204 0.291985 0.833140
O O6 0.455098 0.361494 0.747413
O O7 0.528808 0.219696 0.683816
O O8 0.032486 0.429060 0.583833
O O9 0.684304 0.742809 0.163206
O O10 0.744472 0.911067 0.117183
O O11 0.775764 0.781885 0.000000
O O12 0.724298 0.575941 0.812297
O O13 0.400386 0.968693 0.889298
O O14 0.236115 0.957711 0.000000
O O15 0.038338 0.576754 0.759119
#
# Coordination Sequence:
#
# PCOD9427204 Si02
#       8
#     8   8   2   8   8   8   8   4
#     4  10  20  37  61  86 120 157 205 255 309 366
#     4  10  21  37  59  85 121 162 208 247 306 366
#     4  10  20  36  58  92 126 152 202 256 306 374
#     4  10  22  40  61  88 123 162 205 260 315 365
#     4  10  22  39  59  89 124 162 206 258 309 374
#     4  11  23  39  61  91 126 163 209 259 312 377
#     4  10  21  36  59  92 122 156 201 256 311 372
#     4  11  19  35  61  90 126 154 196 256 324 366
#
# _framework density 20.095609
#
# number of rings (size 3 to 8) (size 9 to 14) (size 15 to 20)
#    0.000    1.778    0.741    5.111    1.037    2.370 
#    0.000    3.704    0.000    0.000    0.000    9.333 
#    0.000    0.000    0.000    0.000    0.000    0.000 
#
# Total GULP energy -300777.735344 kJ/mol
# GULP energy per Si atom -5569.958062 kJ/mol
# Density = 2.004987 g / cm^3
# Si number density = 20.095609 Si / 1000 Ang^3
#
#
#
# Elastic Constant Matrix: (Units=GPa)
#
#
# Indices 1 2 3 4 5 6 
#
# 1 100.8257 -9.3772 24.7568 0.0000 0.0000 0.0000
# 2 -9.3772 41.0131 8.2231 0.0000 0.0000 0.0000
# 3 24.7568 8.2231 118.5505 0.0000 0.0000 0.0000
# 4 0.0000 0.0000 0.0000 13.0959 0.0000 0.0000
# 5 0.0000 0.0000 0.0000 0.0000 -253.3329 0.0000
# 6 0.0000 0.0000 0.0000 0.0000 0.0000 10.7917
#
#
#
# Elastic Compliance Matrix: (Units=1/GPa)
#
#
# Indices 1 2 3 4 5 6 
#
# 1 0.010798 0.002962 -0.002460 0.000000 0.000000 0.000000
# 2 0.002962 0.025539 -0.002390 0.000000 0.000000 0.000000
# 3 -0.002460 -0.002390 0.009115 0.000000 0.000000 0.000000
# 4 0.000000 0.000000 0.000000 0.076360 0.000000 0.000000
# 5 0.000000 0.000000 0.000000 0.000000 -0.003947 0.000000
# 6 0.000000 0.000000 0.000000 0.000000 0.000000 0.092664
#
#
# Mechanical properties :
#
#
# Convention : Reuss Voigt Hill
#
# Bulk Modulus (GPa) = 23.99533 34.17722 29.08627
# Shear Modulus (GPa) = 21.91099 -30.10331 -4.09616
#
# Velocity S-wave (km/s) = 3.30561 -3.87460 -1.42925
# Velocity P-wave (km/s) = 5.15130 1.72410 3.43245
#
# Compressibility (1/GPa) = 0.04167478
#
# Stress axis : x y z
#
# Youngs Moduli (GPa) = 92.61227 39.15594 109.71173
#
# Poissons Ratio (x) = -0.11598 0.26993
# Poissons Ratio (y) = -0.27432 0.26222
# Poissons Ratio (z) = 0.22786 0.09358
#
# Static dielectric constant tensor:
#      x y z
#    x 1.766850 0.000000 0.000000 
#    y 0.000000 1.739640 0.000000 
#    z 0.000000 0.000000 1.703750 
# 
# From -- ./inp_files/18435.got.cif
#   From: 2010.05.17/outbox.cif.g08.bks.cpg/sg55_10_cif.got.tgz:18435.got - 2010.06.03 13:27:54.
