data_PCOD9427928
_publ_section_title
;
Structure prediction by ZEFSAII (Michael W. Deem and Ramdas Pophale) SiO2 
 PCOD9427928
Probable space group: P B A M
;
_chemical_formula_sum "Si O2"
_cell_formula_units_Z 64
_cell_length_a 24.776522
_cell_length_b 14.393026
_cell_length_c 8.816686
_cell_angle_alpha 90.000000
_cell_angle_beta 90.000000
_cell_angle_gamma 90.000000
_cell_volume 3144.110683
_symmetry_space_group_name_H-M "P B A M"
_symmetry_group_IT_number 55
_symmetry_cell_setting 'orthorhombic'
loop_
_space_group_symop_operation_xyz
x,y,z
-x,-y,z
1/2+x,1/2-y,-z
1/2-x,1/2+y,-z
-x,-y,-z
x,y,-z
1/2-x,1/2+y,z
1/2+x,1/2-y,z
loop_
_atom_site_type_symbol
_atom_site_label
_atom_site_fract_x
_atom_site_fract_y
_atom_site_fract_z
Si Si1 0.306705 0.789783 0.680101
Si Si2 0.561099 0.531728 0.680755
Si Si3 0.060320 0.472041 0.677746
Si Si4 0.589917 0.730501 0.818581
Si Si5 0.610863 0.357516 0.824929
Si Si6 0.526189 0.202708 0.825273
Si Si7 0.327910 0.992319 0.820266
Si Si8 0.696743 0.819897 0.679197
O O1 0.317577 0.793921 0.500000
O O2 0.346529 0.715513 0.758106
O O3 0.312500 0.893098 0.748096
O O4 0.246852 0.748856 0.703796
O O5 0.500000 0.500000 0.722184
O O6 0.562312 0.545223 0.500000
O O7 0.577963 0.626718 0.761497
O O8 0.601997 0.450353 0.729850
O O9 0.066879 0.492518 0.500000
O O10 0.059049 0.362393 0.712171
O O11 0.110008 0.511810 0.771176
O O12 0.000000 0.500000 0.726782
O O13 0.536052 0.789271 0.780825
O O14 0.642789 0.772989 0.743571
O O15 0.595417 0.731306 0.000000
O O16 0.553752 0.303022 0.822849
O O17 0.624041 0.378651 0.000000
O O18 0.531052 0.168005 0.000000
O O19 0.294878 0.080128 0.757838
O O20 0.323940 0.986223 0.000000
O O21 0.690748 0.835755 0.500000
#
# Coordination Sequence:
#
# PCOD9427928 Si02
#       8
#     8   8   8   8   8   8   8   8
#     4  11  25  46  71  96 128 170 217 270 323 380
#     4  11  23  38  61  93 131 176 221 266 321 387
#     4  11  23  37  59  92 129 170 213 260 318 384
#     4  11  23  41  65  94 132 173 216 268 326 388
#     4  11  22  39  64  94 128 165 212 266 320 381
#     4  10  21  36  58  90 126 165 207 260 321 380
#     4  12  25  43  69  98 130 168 214 266 320 383
#     4  11  26  47  69  96 131 170 216 269 324 382
#
# _framework density 20.355518
#
# number of rings (size 3 to 8) (size 9 to 14) (size 15 to 20)
#    0.000    1.000    2.500    4.125    0.000    8.000 
#    0.000    1.250    0.000    0.000    0.000    0.000 
#    0.000    0.000    0.000    0.000    0.000    0.000 
#
# Total GULP energy -357919.871772 kJ/mol
# GULP energy per Si atom -5592.497996 kJ/mol
# Density = 2.030919 g / cm^3
# Si number density = 20.355518 Si / 1000 Ang^3
#
#
#
# Elastic Constant Matrix: (Units=GPa)
#
#
# Indices 1 2 3 4 5 6 
#
# 1 84.5850 29.6254 48.2539 0.0000 0.0000 0.0000
# 2 29.6254 95.6325 27.7842 0.0000 0.0000 0.0000
# 3 48.2539 27.7842 75.9425 0.0000 0.0000 0.0000
# 4 0.0000 0.0000 0.0000 36.1758 0.0000 0.0000
# 5 0.0000 0.0000 0.0000 0.0000 23.2673 0.0000
# 6 0.0000 0.0000 0.0000 0.0000 0.0000 26.7970
#
#
#
# Elastic Compliance Matrix: (Units=1/GPa)
#
#
# Indices 1 2 3 4 5 6 
#
# 1 0.019140 -0.002681 -0.011181 0.000000 0.000000 0.000000
# 2 -0.002681 0.012076 -0.002715 0.000000 0.000000 0.000000
# 3 -0.011181 -0.002715 0.021265 0.000000 0.000000 0.000000
# 4 0.000000 0.000000 0.000000 0.027643 0.000000 0.000000
# 5 0.000000 0.000000 0.000000 0.000000 0.042979 0.000000
# 6 0.000000 0.000000 0.000000 0.000000 0.000000 0.037318
#
#
# Mechanical properties :
#
#
# Convention : Reuss Voigt Hill
#
# Bulk Modulus (GPa) = 51.73677 51.94298 51.83988
# Shear Modulus (GPa) = 24.99817 27.28114 26.13965
#
# Velocity S-wave (km/s) = 3.50820 3.66489 3.58740
# Velocity P-wave (km/s) = 6.47161 6.59408 6.53313
#
# Compressibility (1/GPa) = 0.01932861
#
# Stress axis : x y z
#
# Youngs Moduli (GPa) = 52.24761 82.80983 47.02528
#
# Poissons Ratio (x) = 0.22200 0.52577
# Poissons Ratio (y) = 0.14007 0.12766
# Poissons Ratio (z) = 0.58416 0.22480
#
# Static dielectric constant tensor:
#      x y z
#    x 1.733540 0.000000 0.000000 
#    y 0.000000 1.730840 0.000000 
#    z 0.000000 0.000000 1.686070 
# 
# From -- ./inp_files/9725.got.cif
#   From: 2010.05.17/outbox.cif.g08.bks.cpg/sg55_5_cif.got.tgz:9725.got - 2010.06.03 13:27:54.
