data_PCOD9427449
_publ_section_title
;
Structure prediction by ZEFSAII (Michael W. Deem and Ramdas Pophale) SiO2 
 PCOD9427449
Probable space group: P B A M
;
_chemical_formula_sum "Si O2"
_cell_formula_units_Z 48
_cell_length_a 20.642341
_cell_length_b 14.318363
_cell_length_c 8.782370
_cell_angle_alpha 90.000000
_cell_angle_beta 90.000000
_cell_angle_gamma 90.000000
_cell_volume 2595.757075
_symmetry_space_group_name_H-M "P B A M"
_symmetry_group_IT_number 55
_symmetry_cell_setting 'orthorhombic'
loop_
_space_group_symop_operation_xyz
x,y,z
-x,-y,z
1/2+x,1/2-y,-z
1/2-x,1/2+y,-z
-x,-y,-z
x,y,-z
1/2-x,1/2+y,z
1/2+x,1/2-y,z
loop_
_atom_site_type_symbol
_atom_site_label
_atom_site_fract_x
_atom_site_fract_y
_atom_site_fract_z
Si Si1 0.890867 0.755191 0.316806
Si Si2 0.186555 0.934182 0.677037
Si Si3 0.068152 0.048944 0.182342
Si Si4 0.810173 0.429557 0.677572
Si Si5 0.934279 0.550084 0.314562
Si Si6 0.246657 0.751698 0.820638
O O1 0.892251 0.760785 0.500000
O O2 0.924499 0.846837 0.248516
O O3 0.924151 0.657634 0.267722
O O4 0.815971 0.752587 0.264187
O O5 0.173931 0.912099 0.500000
O O6 0.207329 0.841812 0.765716
O O7 0.125783 0.986718 0.749176
O O8 0.247876 0.003508 0.683049
O O9 0.074522 0.053182 0.000000
O O10 0.000000 0.000000 0.219988
O O11 0.820008 0.402342 0.500000
O O12 0.872262 0.488359 0.730046
O O13 0.794120 0.339337 0.775476
O O14 0.934889 0.551322 0.500000
O O15 0.000000 0.500000 0.262901
O O16 0.258592 0.754884 0.000000
#
# Coordination Sequence:
#
# PCOD9427449 Si02
#       6
#     8   8   8   8   8   8
#     4  11  21  38  63  91 122 161 212 256 308 373
#     4  11  22  39  64  91 120 159 210 259 304 363
#     4  11  25  43  62  90 129 165 203 256 319 383
#     4  10  20  37  61  90 121 155 204 256 301 359
#     4   9  19  37  62  91 122 155 196 251 304 357
#     4  12  24  37  60  92 127 164 207 256 316 369
#
# _framework density 18.491716
#
# number of rings (size 3 to 8) (size 9 to 14) (size 15 to 20)
#    0.000    1.333    3.333    3.000    0.000    3.333 
#    0.000    1.667    0.000    3.500    0.000    0.000 
#    0.000    0.000    0.000    0.000    0.000    0.000 
#
# Total GULP energy -268257.894170 kJ/mol
# GULP energy per Si atom -5588.706129 kJ/mol
# Density = 1.844963 g / cm^3
# Si number density = 18.491716 Si / 1000 Ang^3
#
#
#
# Elastic Constant Matrix: (Units=GPa)
#
#
# Indices 1 2 3 4 5 6 
#
# 1 142.1383 63.4919 35.5745 0.0000 0.0000 0.0000
# 2 63.4919 135.7219 35.3161 0.0000 0.0000 0.0000
# 3 35.5745 35.3161 61.4922 0.0000 0.0000 0.0000
# 4 0.0000 0.0000 0.0000 -8.0388 0.0000 0.0000
# 5 0.0000 0.0000 0.0000 0.0000 18.7508 0.0000
# 6 0.0000 0.0000 0.0000 0.0000 0.0000 27.6855
#
#
#
# Elastic Compliance Matrix: (Units=1/GPa)
#
#
# Indices 1 2 3 4 5 6 
#
# 1 0.009479 -0.003536 -0.003453 0.000000 0.000000 0.000000
# 2 -0.003536 0.009982 -0.003687 0.000000 0.000000 0.000000
# 3 -0.003453 -0.003687 0.020377 0.000000 0.000000 0.000000
# 4 0.000000 0.000000 0.000000 -0.124397 0.000000 0.000000
# 5 0.000000 0.000000 0.000000 0.000000 0.053331 0.000000
# 6 0.000000 0.000000 0.000000 0.000000 0.000000 0.036120
#
#
# Mechanical properties :
#
#
# Convention : Reuss Voigt Hill
#
# Bulk Modulus (GPa) = 54.09484 67.56860 60.83172
# Shear Modulus (GPa) = 154.29247 21.34418 87.81832
#
# Velocity S-wave (km/s) = 9.14439 3.40112 6.89882
# Velocity P-wave (km/s) = 11.86635 7.21407 9.81970
#
# Compressibility (1/GPa) = 0.01848605
#
# Stress axis : x y z
#
# Youngs Moduli (GPa) = 105.49538 100.18531 49.07389
#
# Poissons Ratio (x) = 0.35424 0.16946
# Poissons Ratio (y) = 0.37302 0.18094
# Poissons Ratio (z) = 0.36429 0.36938
#
# Static dielectric constant tensor:
#      x y z
#    x 1.607960 0.000000 0.000000 
#    y 0.000000 1.641330 0.000000 
#    z 0.000000 0.000000 1.627530 
# 
# From -- ./inp_files/7438.got.cif
#   From: 2010.05.17/outbox.cif.g08.bks.cpg/sg55_4_cif.got.tgz:7438.got - 2010.06.03 13:27:54.
