data_PCOD9427778
_publ_section_title
;
Structure prediction by ZEFSAII (Michael W. Deem and Ramdas Pophale) SiO2 
 PCOD9427778
Probable space group: P B A M
;
_chemical_formula_sum "Si O2"
_cell_formula_units_Z 48
_cell_length_a 17.630898
_cell_length_b 7.954516
_cell_length_c 15.585558
_cell_angle_alpha 90.000000
_cell_angle_beta 90.000000
_cell_angle_gamma 90.000000
_cell_volume 2185.800638
_symmetry_space_group_name_H-M "P B A M"
_symmetry_group_IT_number 55
_symmetry_cell_setting 'orthorhombic'
loop_
_space_group_symop_operation_xyz
x,y,z
-x,-y,z
1/2+x,1/2-y,-z
1/2-x,1/2+y,-z
-x,-y,-z
x,y,-z
1/2-x,1/2+y,z
1/2+x,1/2-y,z
loop_
_atom_site_type_symbol
_atom_site_label
_atom_site_fract_x
_atom_site_fract_y
_atom_site_fract_z
Si Si1 0.965320 0.772391 0.749890
Si Si2 0.369383 0.603457 0.402357
Si Si3 0.216541 0.461232 0.598195
Si Si4 0.118168 0.589071 0.748603
Si Si5 0.868471 0.891851 0.098310
Si Si6 0.208486 0.742417 0.901120
O O1 0.933534 0.870782 0.667719
O O2 0.924504 0.589779 0.752894
O O3 0.935463 0.863877 0.834958
O O4 0.053750 0.731697 0.743309
O O5 0.396941 0.580125 0.500000
O O6 0.305840 0.464946 0.381008
O O7 0.320548 0.777189 0.399651
O O8 0.209245 0.523834 0.500000
O O9 0.171708 0.573410 0.666082
O O10 0.167332 0.626205 0.832416
O O11 0.798595 0.763913 0.115496
O O12 0.828578 0.073782 0.106367
O O13 0.894131 0.871057 0.000000
O O14 0.198453 0.684693 0.000000
#
# Coordination Sequence:
#
# PCOD9427778 Si02
#       6
#     8   8   8   8   8   8
#     4  10  21  35  52  77 108 141 175 212 257 307
#     4   9  18  33  53  76 102 134 173 215 257 303
#     4   9  18  33  53  76 102 134 173 215 257 303
#     4  10  21  35  52  77 108 141 175 212 257 307
#     4  10  21  37  57  79 103 134 173 216 261 309
#     4  10  21  37  57  79 103 134 173 216 261 309
#
# _framework density 21.959916
#
# number of rings (size 3 to 8) (size 9 to 14) (size 15 to 20)
#    0.000    2.333    0.000    2.000    0.000    8.000 
#    0.000    6.667    0.000    0.000    0.000    7.000 
#    0.000    0.000    0.000    0.000    0.000    0.000 
#
# Total GULP energy -268450.877640 kJ/mol
# GULP energy per Si atom -5592.726617 kJ/mol
# Density = 2.190993 g / cm^3
# Si number density = 21.959916 Si / 1000 Ang^3
#
#
#
# Elastic Constant Matrix: (Units=GPa)
#
#
# Indices 1 2 3 4 5 6 
#
# 1 61.1914 21.2979 52.5426 0.0000 0.0000 0.0000
# 2 21.2979 69.0759 35.7870 0.0000 0.0000 0.0000
# 3 52.5426 35.7870 75.3090 0.0000 0.0000 0.0000
# 4 0.0000 0.0000 0.0000 11.3424 0.0000 0.0000
# 5 0.0000 0.0000 0.0000 0.0000 -29.3382 0.0000
# 6 0.0000 0.0000 0.0000 0.0000 0.0000 40.1865
#
#
#
# Elastic Compliance Matrix: (Units=1/GPa)
#
#
# Indices 1 2 3 4 5 6 
#
# 1 0.041196 0.002904 -0.030122 0.000000 0.000000 0.000000
# 2 0.002904 0.019410 -0.011250 0.000000 0.000000 0.000000
# 3 -0.030122 -0.011250 0.039640 0.000000 0.000000 0.000000
# 4 0.000000 0.000000 0.000000 0.088164 0.000000 0.000000
# 5 0.000000 0.000000 0.000000 0.000000 -0.034085 0.000000
# 6 0.000000 0.000000 0.000000 0.000000 0.000000 0.024884
#
#
# Mechanical properties :
#
#
# Convention : Reuss Voigt Hill
#
# Bulk Modulus (GPa) = 42.89892 47.20348 45.05120
# Shear Modulus (GPa) = 18.94546 10.83473 14.89010
#
# Velocity S-wave (km/s) = 2.94041 2.22364 2.60678
# Velocity P-wave (km/s) = 5.57723 5.30422 5.44244
#
# Compressibility (1/GPa) = 0.02331061
#
# Stress axis : x y z
#
# Youngs Moduli (GPa) = 24.27411 51.52070 25.22675
#
# Poissons Ratio (x) = -0.14961 0.75989
# Poissons Ratio (y) = -0.07049 0.28379
# Poissons Ratio (z) = 0.73119 0.57958
#
# Static dielectric constant tensor:
#      x y z
#    x 1.757670 0.000000 0.000000 
#    y 0.000000 1.857260 0.000000 
#    z 0.000000 0.000000 1.760790 
# 
# From -- ./inp_files/17321.got.cif
#   From: 2010.05.17/outbox.cif.g08.bks.cpg/sg55_9_cif.got.tgz:17321.got - 2010.06.03 13:27:54.
