data_PCOD9427382
_publ_section_title
;
Structure prediction by ZEFSAII (Michael W. Deem and Ramdas Pophale) SiO2 
 PCOD9427382
Probable space group: P B A M
;
_chemical_formula_sum "Si O2"
_cell_formula_units_Z 64
_cell_length_a 14.870627
_cell_length_b 25.742818
_cell_length_c 8.620254
_cell_angle_alpha 90.000000
_cell_angle_beta 90.000000
_cell_angle_gamma 90.000000
_cell_volume 3299.935333
_symmetry_space_group_name_H-M "P B A M"
_symmetry_group_IT_number 55
_symmetry_cell_setting 'orthorhombic'
loop_
_space_group_symop_operation_xyz
x,y,z
-x,-y,z
1/2+x,1/2-y,-z
1/2-x,1/2+y,-z
-x,-y,-z
x,y,-z
1/2-x,1/2+y,z
1/2+x,1/2-y,z
loop_
_atom_site_type_symbol
_atom_site_label
_atom_site_fract_x
_atom_site_fract_y
_atom_site_fract_z
Si Si1 0.749924 0.930395 0.814730
Si Si2 0.947750 0.447627 0.686831
Si Si3 0.046698 0.252703 0.313102
Si Si4 0.149566 0.768184 0.185318
Si Si5 0.601041 0.513903 0.810513
Si Si6 0.794011 0.116082 0.187094
Si Si7 0.100836 0.368478 0.686914
Si Si8 0.713057 0.316661 0.685154
O O1 0.651326 0.945500 0.755402
O O2 0.771035 0.872397 0.759258
O O3 0.826807 0.970485 0.760609
O O4 0.749403 0.931769 0.000000
O O5 0.939822 0.446133 0.500000
O O6 0.000000 0.500000 0.730070
O O7 0.011813 0.399886 0.734961
O O8 0.034486 0.253573 0.500000
O O9 0.089397 0.308257 0.268402
O O10 0.116430 0.207405 0.273096
O O11 0.952012 0.244105 0.232675
O O12 0.175196 0.826482 0.238584
O O13 0.213637 0.725197 0.260398
O O14 0.159839 0.766063 0.000000
O O15 0.500000 0.500000 0.758815
O O16 0.639219 0.570134 0.761099
O O17 0.599467 0.514104 0.000000
O O18 0.692177 0.108180 0.244481
O O19 0.793633 0.115647 0.000000
O O20 0.106986 0.371353 0.500000
O O21 0.718508 0.321426 0.500000
#
# Coordination Sequence:
#
# PCOD9427382 Si02
#       8
#     8   8   8   8   8   8   8   8
#     4  11  23  38  62  91 119 157 205 256 308 358
#     4  10  21  37  60  89 122 160 197 241 302 365
#     4  10  22  38  58  83 115 161 204 241 299 365
#     4  11  23  37  60  93 123 154 200 253 303 356
#     4   9  20  39  61  85 119 160 198 240 299 363
#     4  10  21  37  60  89 118 154 195 243 297 352
#     4  10  20  37  59  84 115 156 197 237 292 358
#     4  11  23  41  62  85 122 164 202 245 303 367
#
# _framework density 19.394318999999999
#
# number of rings (size 3 to 8) (size 9 to 14) (size 15 to 20)
#    0.000    1.750    1.250    2.625    1.750    3.750 
#    0.000    0.625    0.000    1.875    0.000    0.000 
#    0.000    0.000    0.000    0.000    0.000    0.000 
#
# Total GULP energy -357652.114033 kJ/mol
# GULP energy per Si atom -5588.314282 kJ/mol
# Density = 1.935018 g / cm^3
# Si number density = 19.394319 Si / 1000 Ang^3
#
#
#
# Elastic Constant Matrix: (Units=GPa)
#
#
# Indices 1 2 3 4 5 6 
#
# 1 69.3946 9.2631 -12.0516 0.0000 0.0000 0.0000
# 2 9.2631 97.7956 -4.3741 0.0000 0.0000 0.0000
# 3 -12.0516 -4.3741 -7.5932 0.0000 0.0000 0.0000
# 4 0.0000 0.0000 0.0000 1.6213 0.0000 0.0000
# 5 0.0000 0.0000 0.0000 0.0000 0.0032 0.0000
# 6 0.0000 0.0000 0.0000 0.0000 0.0000 37.4018
#
#
#
# Elastic Compliance Matrix: (Units=1/GPa)
#
#
# Indices 1 2 3 4 5 6 
#
# 1 0.011641 -0.001881 -0.017392 0.000000 0.000000 0.000000
# 2 -0.001881 0.010272 -0.002933 0.000000 0.000000 0.000000
# 3 -0.017392 -0.002933 -0.102403 0.000000 0.000000 0.000000
# 4 0.000000 0.000000 0.000000 0.616776 0.000000 0.000000
# 5 0.000000 0.000000 0.000000 0.000000308.762394 0.000000
# 6 0.000000 0.000000 0.000000 0.000000 0.000000 0.026737
#
#
# Mechanical properties :
#
#
# Convention : Reuss Voigt Hill
#
# Bulk Modulus (GPa) = -8.00636 16.14133 4.06749
# Shear Modulus (GPa) = 0.01616 18.92257 9.46937
#
# Velocity S-wave (km/s) = 0.09139 3.12697 2.21205
# Velocity P-wave (km/s) = 2.03126 4.62364 2.93701
#
# Compressibility (1/GPa) = -0.12490075
#
# Stress axis : x y z
#
# Youngs Moduli (GPa) = 85.90436 97.34865 -9.76539
#
# Poissons Ratio (x) = 0.18307 -0.16984
# Poissons Ratio (y) = 0.16154 -0.02864
# Poissons Ratio (z) = 1.49409 0.28550
#
# Static dielectric constant tensor:
#      x y z
#    x 1.630240 0.000000 0.000000 
#    y 0.000000 1.677140 0.000000 
#    z 0.000000 0.000000 1.665150 
# 
# From -- ./inp_files/6651.got.cif
#   From: 2010.05.17/outbox.cif.g08.bks.cpg/sg55_4_cif.got.tgz:6651.got - 2010.06.03 13:27:54.
