data_PCOD9427104
_publ_section_title
;
Structure prediction by ZEFSAII (Michael W. Deem and Ramdas Pophale) SiO2 
 PCOD9427104
Probable space group: P B A M
;
_chemical_formula_sum "Si O2"
_cell_formula_units_Z 64
_cell_length_a 26.865407
_cell_length_b 9.687523
_cell_length_c 13.537294
_cell_angle_alpha 90.000000
_cell_angle_beta 90.000000
_cell_angle_gamma 90.000000
_cell_volume 3523.205959
_symmetry_space_group_name_H-M "P B A M"
_symmetry_group_IT_number 55
_symmetry_cell_setting 'orthorhombic'
loop_
_space_group_symop_operation_xyz
x,y,z
-x,-y,z
1/2+x,1/2-y,-z
1/2-x,1/2+y,-z
-x,-y,-z
x,y,-z
1/2-x,1/2+y,z
1/2+x,1/2-y,z
loop_
_atom_site_type_symbol
_atom_site_label
_atom_site_fract_x
_atom_site_fract_y
_atom_site_fract_z
Si Si1 0.449884 0.589967 0.385581
Si Si2 0.515724 0.842036 0.613652
Si Si3 0.352717 0.478792 0.299038
Si Si4 0.808346 0.517872 0.381957
Si Si5 0.119271 0.669880 0.706680
Si Si6 0.189437 0.630326 0.113749
Si Si7 0.724068 0.316854 0.384444
Si Si8 0.216465 0.943239 0.114369
O O1 0.500000 0.500000 0.377445
O O2 0.432070 0.576999 0.500000
O O3 0.468330 0.745059 0.367893
O O4 0.407887 0.538951 0.311105
O O5 0.532456 0.810124 0.500000
O O6 0.560789 0.813680 0.688457
O O7 0.500000 0.000000 0.618384
O O8 0.356458 0.316670 0.325374
O O9 0.319170 0.571169 0.370895
O O10 0.325311 0.490436 0.192996
O O11 0.804029 0.524066 0.500000
O O12 0.862555 0.461876 0.356176
O O13 0.772324 0.395436 0.343825
O O14 0.791637 0.667715 0.342773
O O15 0.141963 0.638273 0.814479
O O16 0.217472 0.777574 0.122442
O O17 0.230107 0.512102 0.134691
O O18 0.173525 0.615024 0.000000
O O19 0.733601 0.294448 0.500000
O O20 0.203709 0.977732 0.000000
#
# Coordination Sequence:
#
# PCOD9427104 Si02
#       8
#     8   8   8   8   8   8   8   8
#     4  10  20  36  55  77 106 141 180 220 265 318
#     4  10  22  38  55  77 107 142 181 224 269 317
#     4  11  21  33  55  80 104 137 179 222 266 319
#     4  10  21  34  48  71 106 141 173 210 258 317
#     4  11  21  34  55  79 104 138 179 222 269 315
#     4   9  19  36  57  81 109 140 174 216 268 324
#     4  10  21  34  48  72 106 141 173 210 258 317
#     4   9  19  36  56  80 110 140 174 218 267 322
#
# _framework density 18.165274
#
# number of rings (size 3 to 8) (size 9 to 14) (size 15 to 20)
#    0.000    2.000    1.250    2.250    1.750    5.500 
#    0.000    0.000    0.000    1.500    0.000    0.000 
#    0.000    0.000    0.000    0.000    0.000    0.000 
#
# Total GULP energy -356907.625866 kJ/mol
# GULP energy per Si atom -5576.681654 kJ/mol
# Density = 1.812393 g / cm^3
# Si number density = 18.165274 Si / 1000 Ang^3
#
#
#
# Elastic Constant Matrix: (Units=GPa)
#
#
# Indices 1 2 3 4 5 6 
#
# 1 56.6625 7.8297 17.2961 0.0000 0.0000 0.0000
# 2 7.8297 74.8155 17.2217 0.0000 0.0000 0.0000
# 3 17.2961 17.2217 62.0570 0.0000 0.0000 0.0000
# 4 0.0000 0.0000 0.0000 18.6357 0.0000 0.0000
# 5 0.0000 0.0000 0.0000 0.0000 25.8700 0.0000
# 6 0.0000 0.0000 0.0000 0.0000 0.0000 24.7094
#
#
#
# Elastic Compliance Matrix: (Units=1/GPa)
#
#
# Indices 1 2 3 4 5 6 
#
# 1 0.019338 -0.000837 -0.005158 0.000000 0.000000 0.000000
# 2 -0.000837 0.014315 -0.003739 0.000000 0.000000 0.000000
# 3 -0.005158 -0.003739 0.018589 0.000000 0.000000 0.000000
# 4 0.000000 0.000000 0.000000 0.053660 0.000000 0.000000
# 5 0.000000 0.000000 0.000000 0.000000 0.038655 0.000000
# 6 0.000000 0.000000 0.000000 0.000000 0.000000 0.040470
#
#
# Mechanical properties :
#
#
# Convention : Reuss Voigt Hill
#
# Bulk Modulus (GPa) = 30.51092 30.91443 30.71268
# Shear Modulus (GPa) = 23.21045 23.92218 23.56632
#
# Velocity S-wave (km/s) = 3.57842 3.63287 3.60575
# Velocity P-wave (km/s) = 5.82291 5.88663 5.85485
#
# Compressibility (1/GPa) = 0.03277515
#
# Stress axis : x y z
#
# Youngs Moduli (GPa) = 51.71079 69.85918 53.79402
#
# Poissons Ratio (x) = 0.05844 0.27745
# Poissons Ratio (y) = 0.04326 0.20115
# Poissons Ratio (z) = 0.26671 0.26122
#
# Static dielectric constant tensor:
#      x y z
#    x 1.645550 0.000000 0.000000 
#    y 0.000000 1.657130 0.000000 
#    z 0.000000 0.000000 1.648940 
# 
# From -- ./inp_files/19980.got.cif
#   From: 2010.05.17/outbox.cif.g08.bks.cpg/sg55_10_cif.got.tgz:19980.got - 2010.06.03 13:27:54.
