data_PCOD9427963
_publ_section_title
;
Structure prediction by ZEFSAII (Michael W. Deem and Ramdas Pophale) SiO2 
 PCOD9427963
Probable space group: P B A M
;
_chemical_formula_sum "Si O2"
_cell_formula_units_Z 58
_cell_length_a 12.152646
_cell_length_b 27.027054
_cell_length_c 9.333016
_cell_angle_alpha 90.000000
_cell_angle_beta 90.000000
_cell_angle_gamma 90.000000
_cell_volume 3065.431156
_symmetry_space_group_name_H-M "P B A M"
_symmetry_group_IT_number 55
_symmetry_cell_setting 'orthorhombic'
loop_
_space_group_symop_operation_xyz
x,y,z
-x,-y,z
1/2+x,1/2-y,-z
1/2-x,1/2+y,-z
-x,-y,-z
x,y,-z
1/2-x,1/2+y,z
1/2+x,1/2-y,z
loop_
_atom_site_type_symbol
_atom_site_label
_atom_site_fract_x
_atom_site_fract_y
_atom_site_fract_z
Si Si1 0.113971 0.069246 0.666501
Si Si2 0.598453 0.213945 0.339158
Si Si3 0.730894 0.995335 0.155749
Si Si4 0.602472 0.783694 0.831346
Si Si5 0.199494 0.178932 0.335667
Si Si6 0.398975 0.418010 0.831059
Si Si7 0.653171 0.682229 0.665907
Si Si8 0.000000 0.500000 0.000000
O O1 0.096140 0.057073 0.500000
O O2 0.222086 0.041965 0.726755
O O3 0.134602 0.128188 0.678298
O O4 0.006295 0.057485 0.759563
O O5 0.551731 0.209342 0.500000
O O6 0.514022 0.195640 0.221007
O O7 0.627219 0.271816 0.313590
O O8 0.714334 0.186138 0.335112
O O9 0.791196 0.047521 0.185513
O O10 0.600588 0.999282 0.123745
O O11 0.777110 0.978069 0.000000
O O12 0.700579 0.817875 0.774605
O O13 0.615772 0.731710 0.747682
O O14 0.607816 0.776586 0.000000
O O15 0.241457 0.182677 0.500000
O O16 0.381661 0.366468 0.749322
O O17 0.416652 0.409986 0.000000
O O18 0.614976 0.682047 0.500000
#
# Coordination Sequence:
#
# PCOD9427963 Si02
#       8
#     8   8   8   8   8   8   8   2
#     4  11  22  37  62  95 124 154 197 251 303 359
#     4   9  18  35  55  74 108 157 200 241 295 356
#     4   9  21  42  65  86 118 160 194 237 296 359
#     4  11  21  33  53  81 111 152 199 248 292 351
#     4   9  20  37  54  77 113 153 194 238 297 350
#     4  11  22  37  60  92 122 154 194 242 300 359
#     4  10  21  37  56  79 114 155 195 243 301 351
#     4   8  20  48  68  80 120 168 198 234 304 356
#
# _framework density 18.920666000000001
#
# number of rings (size 3 to 8) (size 9 to 14) (size 15 to 20)
#    0.414    1.655    0.000    4.552    0.000    7.724 
#    2.483    0.345    0.000    0.000    0.000    0.000 
#    0.000    0.000    0.000    0.000    0.000    0.000 
#
# Total GULP energy -323015.946217 kJ/mol
# GULP energy per Si atom -5569.240452 kJ/mol
# Density = 1.887760 g / cm^3
# Si number density = 18.920666 Si / 1000 Ang^3
#
#
#
# Elastic Constant Matrix: (Units=GPa)
#
#
# Indices 1 2 3 4 5 6 
#
# 1 125.9217 25.2011 60.8029 0.0000 0.0000 0.0000
# 2 25.2011 47.8023 30.1872 0.0000 0.0000 0.0000
# 3 60.8029 30.1872 124.1540 0.0000 0.0000 0.0000
# 4 0.0000 0.0000 0.0000 26.4118 0.0000 0.0000
# 5 0.0000 0.0000 0.0000 0.0000 29.2085 0.0000
# 6 0.0000 0.0000 0.0000 0.0000 0.0000 3.1615
#
#
#
# Elastic Compliance Matrix: (Units=1/GPa)
#
#
# Indices 1 2 3 4 5 6 
#
# 1 0.010700 -0.002755 -0.004570 0.000000 0.000000 0.000000
# 2 -0.002755 0.025423 -0.004832 0.000000 0.000000 0.000000
# 3 -0.004570 -0.004832 0.011468 0.000000 0.000000 0.000000
# 4 0.000000 0.000000 0.000000 0.037862 0.000000 0.000000
# 5 0.000000 0.000000 0.000000 0.000000 0.034237 0.000000
# 6 0.000000 0.000000 0.000000 0.000000 0.000000 0.316307
#
#
# Mechanical properties :
#
#
# Convention : Reuss Voigt Hill
#
# Bulk Modulus (GPa) = 42.96264 58.91780 50.94022
# Shear Modulus (GPa) = 10.68218 23.86881 17.27549
#
# Velocity S-wave (km/s) = 2.37866 3.55564 3.02495
# Velocity P-wave (km/s) = 5.50455 6.93280 6.25955
#
# Compressibility (1/GPa) = 0.02327604
#
# Stress axis : x y z
#
# Youngs Moduli (GPa) = 93.46229 39.33376 87.20156
#
# Poissons Ratio (x) = 0.10835 0.39853
# Poissons Ratio (y) = 0.25746 0.42140
# Poissons Ratio (z) = 0.42714 0.19008
#
# Static dielectric constant tensor:
#      x y z
#    x 1.686340 0.000000 0.000000 
#    y 0.000000 1.660700 0.000000 
#    z 0.000000 0.000000 1.643100 
# 
# From -- ./inp_files/4291.got.cif
#   From: 2010.05.17/outbox.cif.g08.bks.cpg/sg55_3_cif.got.tgz:4291.got - 2010.06.03 13:27:54.
