data_PCOD9427732
_publ_section_title
;
Structure prediction by ZEFSAII (Michael W. Deem and Ramdas Pophale) SiO2 
 PCOD9427732
Probable space group: P B A M
;
_chemical_formula_sum "Si O2"
_cell_formula_units_Z 34
_cell_length_a 7.055092
_cell_length_b 26.064317
_cell_length_c 7.819362
_cell_angle_alpha 90.000000
_cell_angle_beta 90.000000
_cell_angle_gamma 90.000000
_cell_volume 1437.872408
_symmetry_space_group_name_H-M "P B A M"
_symmetry_group_IT_number 55
_symmetry_cell_setting 'orthorhombic'
loop_
_space_group_symop_operation_xyz
x,y,z
-x,-y,z
1/2+x,1/2-y,-z
1/2-x,1/2+y,-z
-x,-y,-z
x,y,-z
1/2-x,1/2+y,z
1/2+x,1/2-y,z
loop_
_atom_site_type_symbol
_atom_site_label
_atom_site_fract_x
_atom_site_fract_y
_atom_site_fract_z
Si Si1 0.954833 0.798557 0.000000
Si Si2 0.512509 0.820814 0.000000
Si Si3 0.062262 0.608445 0.694927
Si Si4 0.006853 0.867901 0.309490
Si Si5 0.262534 0.971004 0.303697
Si Si6 0.500000 0.500000 0.000000
O O1 0.044108 0.825083 0.833429
O O2 0.946024 0.737448 0.000000
O O3 0.738783 0.815947 0.000000
O O4 0.469965 0.853499 0.168305
O O5 0.014247 0.623059 0.500000
O O6 0.289018 0.612766 0.710334
O O7 0.974163 0.552102 0.721245
O O8 0.025503 0.846075 0.500000
O O9 0.139268 0.917507 0.295845
O O10 0.241957 0.991113 0.500000
O O11 0.165525 0.001574 0.151056
#
# Coordination Sequence:
#
# PCOD9427732 Si02
#       6
#     4   4   8   8   8   2
#     4  10  21  32  49  78 108 138 178 224 266 308
#     4  10  21  32  49  78 108 138 178 224 266 308
#     4   9  19  37  56  75 103 142 182 216 257 314
#     4   9  19  37  56  75 103 142 182 216 257 314
#     4  10  21  37  59  80 105 143 178 213 269 324
#     4  12  22  36  58  86 116 130 166 232 270 314
#
# _framework density 23.646048
#
# number of rings (size 3 to 8) (size 9 to 14) (size 15 to 20)
#    0.000    2.353    0.000    1.765    3.294    0.941 
#    0.000    2.353    0.000    5.647    0.000    0.000 
#    0.000    0.000    0.000    0.000    0.000    0.000 
#
# Total GULP energy -189641.735040 kJ/mol
# GULP energy per Si atom -5577.698089 kJ/mol
# Density = 2.359223 g / cm^3
# Si number density = 23.646048 Si / 1000 Ang^3
#
#
#
# Elastic Constant Matrix: (Units=GPa)
#
#
# Indices 1 2 3 4 5 6 
#
# 1 76.3817 -13.1287 13.7901 0.0000 0.0000 0.0000
# 2 -13.1287 106.2389 94.2094 0.0000 0.0000 0.0000
# 3 13.7901 94.2094 196.6212 0.0000 0.0000 0.0000
# 4 0.0000 0.0000 0.0000 25.1661 0.0000 0.0000
# 5 0.0000 0.0000 0.0000 0.0000 13.2336 0.0000
# 6 0.0000 0.0000 0.0000 0.0000 0.0000 33.8441
#
#
#
# Elastic Compliance Matrix: (Units=1/GPa)
#
#
# Indices 1 2 3 4 5 6 
#
# 1 0.014484 0.004679 -0.003258 0.000000 0.000000 0.000000
# 2 0.004679 0.017878 -0.008894 0.000000 0.000000 0.000000
# 3 -0.003258 -0.008894 0.009576 0.000000 0.000000 0.000000
# 4 0.000000 0.000000 0.000000 0.039736 0.000000 0.000000
# 5 0.000000 0.000000 0.000000 0.000000 0.075565 0.000000
# 6 0.000000 0.000000 0.000000 0.000000 0.000000 0.029547
#
#
# Mechanical properties :
#
#
# Convention : Reuss Voigt Hill
#
# Bulk Modulus (GPa) = 37.04776 63.22039 50.13407
# Shear Modulus (GPa) = 23.72696 33.40684 28.56690
#
# Velocity S-wave (km/s) = 3.17112 3.76278 3.47955
# Velocity P-wave (km/s) = 5.39534 6.75812 6.11481
#
# Compressibility (1/GPa) = 0.02699219
#
# Stress axis : x y z
#
# Youngs Moduli (GPa) = 69.03946 55.93433 104.42752
#
# Poissons Ratio (x) = -0.26170 0.34019
# Poissons Ratio (y) = -0.32302 0.92881
# Poissons Ratio (z) = 0.22491 0.49750
#
# Static dielectric constant tensor:
#      x y z
#    x 1.994610 0.000000 0.000000 
#    y 0.000000 1.926370 0.000000 
#    z 0.000000 0.000000 1.864680 
# 
# From -- ./inp_files/2185.got.cif
#   From: 2010.05.17/outbox.cif.g08.bks.cpg/sg55_2_cif.got.tgz:2185.got - 2010.06.03 13:27:54.
