data_PCOD9427704
_publ_section_title
;
Structure prediction by ZEFSAII (Michael W. Deem and Ramdas Pophale) SiO2 
 PCOD9427704
Probable space group: P B A M
;
_chemical_formula_sum "Si O2"
_cell_formula_units_Z 48
_cell_length_a 8.589652
_cell_length_b 18.638585
_cell_length_c 15.749383
_cell_angle_alpha 90.000000
_cell_angle_beta 90.000000
_cell_angle_gamma 90.000000
_cell_volume 2521.459822
_symmetry_space_group_name_H-M "P B A M"
_symmetry_group_IT_number 55
_symmetry_cell_setting 'orthorhombic'
loop_
_space_group_symop_operation_xyz
x,y,z
-x,-y,z
1/2+x,1/2-y,-z
1/2-x,1/2+y,-z
-x,-y,-z
x,y,-z
1/2-x,1/2+y,z
1/2+x,1/2-y,z
loop_
_atom_site_type_symbol
_atom_site_label
_atom_site_fract_x
_atom_site_fract_y
_atom_site_fract_z
Si Si1 0.750201 0.360750 0.000000
Si Si2 0.095163 0.925196 0.599043
Si Si3 0.523960 0.337616 0.743357
Si Si4 0.819037 0.696978 0.189288
Si Si5 0.428355 0.775958 0.000000
Si Si6 0.863947 0.555278 0.734204
Si Si7 0.345570 0.536661 0.144716
O O1 0.746096 0.413255 0.920146
O O2 0.897086 0.307269 0.000000
O O3 0.596614 0.310186 0.000000
O O4 0.121675 0.911484 0.500000
O O5 0.007562 0.859266 0.645985
O O6 0.252229 0.934922 0.653508
O O7 0.000000 0.000000 0.606571
O O8 0.634124 0.271708 0.767083
O O9 0.359880 0.319640 0.788764
O O10 0.591107 0.410163 0.783274
O O11 0.917302 0.632890 0.232436
O O12 0.850522 0.699558 0.088639
O O13 0.762714 0.521797 0.811093
O O14 0.000000 0.500000 0.715480
O O15 0.500000 0.500000 0.105861
#
# Coordination Sequence:
#
# PCOD9427704 Si02
#       7
#     4   8   8   8   4   8   8
#     4  12  27  35  63  87 127 166 214 268 309 370
#     4  10  20  40  68  93 121 162 204 254 316 385
#     4  11  22  41  62  92 120 163 208 257 315 380
#     4  11  24  38  64  85 126 170 207 258 309 370
#     4  12  24  41  55  96 123 167 218 255 306 372
#     4  11  23  40  64  94 128 163 207 264 314 377
#     4  12  22  43  60  87 124 164 213 258 313 378
#
# _framework density 19.03659
#
# number of rings (size 3 to 8) (size 9 to 14) (size 15 to 20)
#    0.000    0.833    6.667    2.250    2.333    1.000 
#    0.000    5.000    0.000    0.000    0.000    0.000 
#    0.000    0.000    0.000    0.000    0.000    0.000 
#
# Total GULP energy -268111.934490 kJ/mol
# GULP energy per Si atom -5585.665302 kJ/mol
# Density = 1.899326 g / cm^3
# Si number density = 19.036590 Si / 1000 Ang^3
#
#
#
# Elastic Constant Matrix: (Units=GPa)
#
#
# Indices 1 2 3 4 5 6 
#
# 1 32.7957 7.1767 16.4938 0.0000 0.0000 0.0000
# 2 7.1767 88.8323 28.5595 0.0000 0.0000 0.0000
# 3 16.4938 28.5595 142.2128 0.0000 0.0000 0.0000
# 4 0.0000 0.0000 0.0000 45.8498 0.0000 0.0000
# 5 0.0000 0.0000 0.0000 0.0000 8.7772 0.0000
# 6 0.0000 0.0000 0.0000 0.0000 0.0000 34.1971
#
#
#
# Elastic Compliance Matrix: (Units=1/GPa)
#
#
# Indices 1 2 3 4 5 6 
#
# 1 0.032570 -0.001515 -0.003473 0.000000 0.000000 0.000000
# 2 -0.001515 0.012105 -0.002255 0.000000 0.000000 0.000000
# 3 -0.003473 -0.002255 0.007887 0.000000 0.000000 0.000000
# 4 0.000000 0.000000 0.000000 0.021810 0.000000 0.000000
# 5 0.000000 0.000000 0.000000 0.000000 0.113932 0.000000
# 6 0.000000 0.000000 0.000000 0.000000 0.000000 0.029242
#
#
# Mechanical properties :
#
#
# Convention : Reuss Voigt Hill
#
# Bulk Modulus (GPa) = 26.26342 40.92232 33.59287
# Shear Modulus (GPa) = 20.43110 31.87222 26.15166
#
# Velocity S-wave (km/s) = 3.27961 4.09621 3.71044
# Velocity P-wave (km/s) = 5.30729 6.62686 6.00344
#
# Compressibility (1/GPa) = 0.03807578
#
# Stress axis : x y z
#
# Youngs Moduli (GPa) = 30.70308 82.61339 126.78382
#
# Poissons Ratio (x) = 0.12513 0.44036
# Poissons Ratio (y) = 0.04650 0.28592
# Poissons Ratio (z) = 0.10664 0.18631
#
# Static dielectric constant tensor:
#      x y z
#    x 1.690310 0.000000 0.000000 
#    y 0.000000 1.670780 0.000000 
#    z 0.000000 0.000000 1.648470 
# 
# From -- ./inp_files/17406.got.cif
#   From: 2010.05.17/outbox.cif.g08.bks.cpg/sg55_9_cif.got.tgz:17406.got - 2010.06.03 13:27:54.
