data_PCOD9427604
_publ_section_title
;
Structure prediction by ZEFSAII (Michael W. Deem and Ramdas Pophale) SiO2 
 PCOD9427604
Probable space group: P B A M
;
_chemical_formula_sum "Si O2"
_cell_formula_units_Z 54
_cell_length_a 5.472356
_cell_length_b 28.146134
_cell_length_c 14.546382
_cell_angle_alpha 90.000000
_cell_angle_beta 90.000000
_cell_angle_gamma 90.000000
_cell_volume 2240.516165
_symmetry_space_group_name_H-M "P B A M"
_symmetry_group_IT_number 55
_symmetry_cell_setting 'orthorhombic'
loop_
_space_group_symop_operation_xyz
x,y,z
-x,-y,z
1/2+x,1/2-y,-z
1/2-x,1/2+y,-z
-x,-y,-z
x,y,-z
1/2-x,1/2+y,z
1/2+x,1/2-y,z
loop_
_atom_site_type_symbol
_atom_site_label
_atom_site_fract_x
_atom_site_fract_y
_atom_site_fract_z
Si Si1 0.151401 0.770035 0.891954
Si Si2 0.860061 0.061629 0.832030
Si Si3 0.109108 0.553693 0.601999
Si Si4 0.953790 0.640276 0.102765
Si Si5 0.500000 0.500000 0.000000
Si Si6 0.900414 0.778728 0.389424
Si Si7 0.500000 0.500000 0.681846
Si Si8 0.268553 0.631430 0.729991
O O1 0.392826 0.744998 0.851605
O O2 0.217926 0.825482 0.891865
O O3 0.134567 0.755523 0.000000
O O4 0.003406 0.040468 0.918418
O O5 0.024986 0.098783 0.776556
O O6 0.626711 0.086756 0.875877
O O7 0.808010 0.021315 0.755757
O O8 0.052178 0.570958 0.500000
O O9 0.394488 0.540616 0.617482
O O10 0.080971 0.596040 0.675133
O O11 0.000000 0.500000 0.608722
O O12 0.128495 0.654564 0.184660
O O13 0.056003 0.644700 0.000000
O O14 0.897294 0.786369 0.500000
O O15 0.658014 0.747226 0.367289
O O16 0.873814 0.828789 0.337259
#
# Coordination Sequence:
#
# PCOD9427604 Si02
#       8
#     8   8   8   8   2   8   4   8
#     4   9  20  38  59  85 119 165 210 267 331 391
#     4  10  22  40  61  91 128 180 229 297 355 427
#     4  10  20  38  64  95 131 169 215 281 361 443
#     4  11  24  39  60  90 130 174 236 286 347 422
#     4  10  20  44  68  84 134 186 250 304 368 448
#     4  10  24  49  79 113 153 198 249 307 383 467
#     4   9  19  37  61  86 126 162 214 268 346 426
#     4  11  25  40  67 101 139 182 240 306 370 445
#
# _framework density 24.101589000000001
#
# number of rings (size 3 to 8) (size 9 to 14) (size 15 to 20)
#    0.000    1.926    0.741    1.556    5.185    1.185 
#    0.000    0.741    0.000    0.000    0.000    0.000 
#    0.000    0.000    0.000    0.000    0.000    0.000 
#
# Total GULP energy -301002.452697 kJ/mol
# GULP energy per Si atom -5574.119494 kJ/mol
# Density = 2.404673 g / cm^3
# Si number density = 24.101589 Si / 1000 Ang^3
#
#
#
# Elastic Constant Matrix: (Units=GPa)
#
#
# Indices 1 2 3 4 5 6 
#
# 1 71.7379 19.8883 39.4094 0.0000 0.0000 0.0000
# 2 19.8883 73.2746 52.1349 0.0000 0.0000 0.0000
# 3 39.4094 52.1349 148.6726 0.0000 0.0000 0.0000
# 4 0.0000 0.0000 0.0000 47.2852 0.0000 0.0000
# 5 0.0000 0.0000 0.0000 0.0000 13.8967 0.0000
# 6 0.0000 0.0000 0.0000 0.0000 0.0000 27.8669
#
#
#
# Elastic Compliance Matrix: (Units=1/GPa)
#
#
# Indices 1 2 3 4 5 6 
#
# 1 0.016496 -0.001820 -0.003734 0.000000 0.000000 0.000000
# 2 -0.001820 0.018385 -0.005965 0.000000 0.000000 0.000000
# 3 -0.003734 -0.005965 0.009808 0.000000 0.000000 0.000000
# 4 0.000000 0.000000 0.000000 0.021148 0.000000 0.000000
# 5 0.000000 0.000000 0.000000 0.000000 0.071960 0.000000
# 6 0.000000 0.000000 0.000000 0.000000 0.000000 0.035885
#
#
# Mechanical properties :
#
#
# Convention : Reuss Voigt Hill
#
# Bulk Modulus (GPa) = 46.18909 57.39447 51.79178
# Shear Modulus (GPa) = 24.51743 29.95992 27.23867
#
# Velocity S-wave (km/s) = 3.19290 3.52954 3.36543
# Velocity P-wave (km/s) = 5.72702 6.36203 6.05286
#
# Compressibility (1/GPa) = 0.02165013
#
# Stress axis : x y z
#
# Youngs Moduli (GPa) = 60.62175 54.39162 101.96134
#
# Poissons Ratio (x) = 0.09901 0.38075
# Poissons Ratio (y) = 0.11035 0.60816
# Poissons Ratio (z) = 0.22638 0.32442
#
# Static dielectric constant tensor:
#      x y z
#    x 2.031090 0.000000 0.000000 
#    y 0.000000 1.941410 0.000000 
#    z 0.000000 0.000000 1.892890 
# 
# From -- ./inp_files/16788.got.cif
#   From: 2010.05.17/outbox.cif.g08.bks.cpg/sg55_9_cif.got.tgz:16788.got - 2010.06.03 13:27:54.
