data_PCOD9427886
_publ_section_title
;
Structure prediction by ZEFSAII (Michael W. Deem and Ramdas Pophale) SiO2 
 PCOD9427886
Probable space group: P B A M
;
_chemical_formula_sum "Si O2"
_cell_formula_units_Z 32
_cell_length_a 8.187311
_cell_length_b 14.556315
_cell_length_c 13.706384
_cell_angle_alpha 90.000000
_cell_angle_beta 90.000000
_cell_angle_gamma 90.000000
_cell_volume 1633.486794
_symmetry_space_group_name_H-M "P B A M"
_symmetry_group_IT_number 55
_symmetry_cell_setting 'orthorhombic'
loop_
_space_group_symop_operation_xyz
x,y,z
-x,-y,z
1/2+x,1/2-y,-z
1/2-x,1/2+y,-z
-x,-y,-z
x,y,-z
1/2-x,1/2+y,z
1/2+x,1/2-y,z
loop_
_atom_site_type_symbol
_atom_site_label
_atom_site_fract_x
_atom_site_fract_y
_atom_site_fract_z
Si Si1 0.325618 0.457864 0.241062
Si Si2 0.068871 0.395639 0.390178
Si Si3 0.797026 0.691568 0.113935
Si Si4 0.368494 0.143239 0.210862
O O1 0.500000 0.500000 0.265542
O O2 0.238391 0.406272 0.331441
O O3 0.328887 0.385124 0.153162
O O4 0.208672 0.542292 0.210779
O O5 0.083624 0.359827 0.500000
O O6 0.000000 0.500000 0.396020
O O7 0.944009 0.342339 0.319101
O O8 0.762234 0.782493 0.176584
O O9 0.976644 0.653688 0.139354
O O10 0.778878 0.709403 0.000000
#
# Coordination Sequence:
#
# PCOD9427886 Si02
#       4
#     8   8   8   8
#     4  10  21  36  56  84 116 149 191 241 286 341
#     4   8  16  34  58  81 109 145 181 225 282 337
#     4  11  22  36  56  80 112 154 194 238 292 344
#     4  10  21  37  56  82 113 146 192 242 289 344
#
# _framework density 19.589994999999998
#
# number of rings (size 3 to 8) (size 9 to 14) (size 15 to 20)
#    0.000    2.250    0.000    4.500    0.000    4.000 
#    0.000    5.000    0.000    6.000    0.000    0.000 
#    0.000    0.000    0.000    0.000    0.000    0.000 
#
# Total GULP energy -178538.913246 kJ/mol
# GULP energy per Si atom -5579.341039 kJ/mol
# Density = 1.954541 g / cm^3
# Si number density = 19.589995 Si / 1000 Ang^3
#
#
#
# Elastic Constant Matrix: (Units=GPa)
#
#
# Indices 1 2 3 4 5 6 
#
# 1 59.7329 3.5988 26.6900 0.0000 0.0000 0.0000
# 2 3.5988 63.5160 44.9463 0.0000 0.0000 0.0000
# 3 26.6900 44.9463 146.8999 0.0000 0.0000 0.0000
# 4 0.0000 0.0000 0.0000 24.4330 0.0000 0.0000
# 5 0.0000 0.0000 0.0000 0.0000 9.2041 0.0000
# 6 0.0000 0.0000 0.0000 0.0000 0.0000 26.9308
#
#
#
# Elastic Compliance Matrix: (Units=1/GPa)
#
#
# Indices 1 2 3 4 5 6 
#
# 1 0.018361 0.001685 -0.003852 0.000000 0.000000 0.000000
# 2 0.001685 0.020250 -0.006502 0.000000 0.000000 0.000000
# 3 -0.003852 -0.006502 0.009496 0.000000 0.000000 0.000000
# 4 0.000000 0.000000 0.000000 0.040928 0.000000 0.000000
# 5 0.000000 0.000000 0.000000 0.000000 0.108647 0.000000
# 6 0.000000 0.000000 0.000000 0.000000 0.000000 0.037132
#
#
# Mechanical properties :
#
#
# Convention : Reuss Voigt Hill
#
# Bulk Modulus (GPa) = 32.49890 46.73543 39.61716
# Shear Modulus (GPa) = 19.05437 25.10783 22.08110
#
# Velocity S-wave (km/s) = 3.12213 3.58392 3.36097
# Velocity P-wave (km/s) = 5.44265 6.40582 5.94378
#
# Compressibility (1/GPa) = 0.03077028
#
# Stress axis : x y z
#
# Youngs Moduli (GPa) = 54.46440 49.38385 105.30226
#
# Poissons Ratio (x) = -0.08322 0.40557
# Poissons Ratio (y) = -0.09178 0.68466
# Poissons Ratio (z) = 0.20977 0.32109
#
# Static dielectric constant tensor:
#      x y z
#    x 1.716730 0.000000 0.000000 
#    y 0.000000 1.698710 0.000000 
#    z 0.000000 0.000000 1.683260 
# 
# From -- ./inp_files/11618.got.cif
#   From: 2010.05.17/outbox.cif.g08.bks.cpg/sg55_6_cif.got.tgz:11618.got - 2010.06.03 13:27:54.
