data_PCOD9427158
_publ_section_title
;
Structure prediction by ZEFSAII (Michael W. Deem and Ramdas Pophale) SiO2 
 PCOD9427158
Probable space group: P B A M
;
_chemical_formula_sum "Si O2"
_cell_formula_units_Z 32
_cell_length_a 22.404714
_cell_length_b 8.592755
_cell_length_c 8.095669
_cell_angle_alpha 90.000000
_cell_angle_beta 90.000000
_cell_angle_gamma 90.000000
_cell_volume 1558.563771
_symmetry_space_group_name_H-M "P B A M"
_symmetry_group_IT_number 55
_symmetry_cell_setting 'orthorhombic'
loop_
_space_group_symop_operation_xyz
x,y,z
-x,-y,z
1/2+x,1/2-y,-z
1/2-x,1/2+y,-z
-x,-y,-z
x,y,-z
1/2-x,1/2+y,z
1/2+x,1/2-y,z
loop_
_atom_site_type_symbol
_atom_site_label
_atom_site_fract_x
_atom_site_fract_y
_atom_site_fract_z
Si Si1 0.585444 0.186988 0.814486
Si Si2 0.874914 0.370395 0.684230
Si Si3 0.770929 0.466739 0.500000
Si Si4 0.534051 0.651117 0.193937
Si Si5 0.340959 0.709279 0.500000
O O1 0.515049 0.212813 0.788651
O O2 0.620095 0.272541 0.665820
O O3 0.603607 0.006753 0.803146
O O4 0.598951 0.246499 0.000000
O O5 0.897909 0.413741 0.500000
O O6 0.803881 0.383138 0.656240
O O7 0.904448 0.207745 0.728633
O O8 0.701137 0.440889 0.500000
O O9 0.795049 0.642838 0.500000
O O10 0.500000 0.500000 0.262587
O O11 0.544671 0.623721 0.000000
#
# Coordination Sequence:
#
# PCOD9427158 Si02
#       5
#     8   8   4   8   4
#     4  10  20  36  58  80 107 147 181 219 269 321
#     4   9  19  35  55  80 106 141 184 219 264 325
#     4   8  20  35  54  77 103 136 178 228 267 306
#     4  10  21  34  50  81 117 142 178 225 270 326
#     4  10  20  39  56  77 109 138 182 232 259 326
#
# _framework density 20.531721999999998
#
# number of rings (size 3 to 8) (size 9 to 14) (size 15 to 20)
#    0.750    1.750    1.250    1.500    1.750    5.500 
#    0.000    6.250    0.000    0.000    0.000    0.000 
#    0.000    0.000    0.000    0.000    0.000    0.000 
#
# Total GULP energy -178224.757446 kJ/mol
# GULP energy per Si atom -5569.523670 kJ/mol
# Density = 2.048499 g / cm^3
# Si number density = 20.531722 Si / 1000 Ang^3
#
#
#
# Elastic Constant Matrix: (Units=GPa)
#
#
# Indices 1 2 3 4 5 6 
#
# 1 42.4111 3.6937 23.7306 0.0000 0.0000 0.0000
# 2 3.6937 24.3309 -1.2255 0.0000 0.0000 0.0000
# 3 23.7306 -1.2255 90.4874 0.0000 0.0000 0.0000
# 4 0.0000 0.0000 0.0000 13.6202 0.0000 0.0000
# 5 0.0000 0.0000 0.0000 0.0000 17.1627 0.0000
# 6 0.0000 0.0000 0.0000 0.0000 0.0000 38.4536
#
#
#
# Elastic Compliance Matrix: (Units=1/GPa)
#
#
# Indices 1 2 3 4 5 6 
#
# 1 0.028149 -0.004648 -0.007445 0.000000 0.000000 0.000000
# 2 -0.004648 0.041896 0.001786 0.000000 0.000000 0.000000
# 3 -0.007445 0.001786 0.013028 0.000000 0.000000 0.000000
# 4 0.000000 0.000000 0.000000 0.073421 0.000000 0.000000
# 5 0.000000 0.000000 0.000000 0.000000 0.058266 0.000000
# 6 0.000000 0.000000 0.000000 0.000000 0.000000 0.026005
#
#
# Mechanical properties :
#
#
# Convention : Reuss Voigt Hill
#
# Bulk Modulus (GPa) = 16.01054 23.29187 19.65121
# Shear Modulus (GPa) = 17.71800 22.58268 20.15034
#
# Velocity S-wave (km/s) = 2.94080 3.32006 3.13617
# Velocity P-wave (km/s) = 4.39840 5.10549 4.76508
#
# Compressibility (1/GPa) = 0.06245886
#
# Stress axis : x y z
#
# Youngs Moduli (GPa) = 35.52463 23.86877 76.75778
#
# Poissons Ratio (x) = 0.11095 0.57148
# Poissons Ratio (y) = 0.16513 -0.13713
# Poissons Ratio (z) = 0.26449 -0.04264
#
# Static dielectric constant tensor:
#      x y z
#    x 1.717940 0.000000 0.000000 
#    y 0.000000 1.804520 0.000000 
#    z 0.000000 0.000000 1.741950 
# 
# From -- ./inp_files/2249.got.cif
#   From: 2010.05.17/outbox.cif.g08.bks.cpg/sg55_2_cif.got.tgz:2249.got - 2010.06.03 13:27:54.
