data_PCOD9427339
_publ_section_title
;
Structure prediction by ZEFSAII (Michael W. Deem and Ramdas Pophale) SiO2 
 PCOD9427339
Probable space group: P B A M
;
_chemical_formula_sum "Si O2"
_cell_formula_units_Z 64
_cell_length_a 23.687461
_cell_length_b 9.123774
_cell_length_c 14.482746
_cell_angle_alpha 90.000000
_cell_angle_beta 90.000000
_cell_angle_gamma 90.000000
_cell_volume 3129.997174
_symmetry_space_group_name_H-M "P B A M"
_symmetry_group_IT_number 55
_symmetry_cell_setting 'orthorhombic'
loop_
_space_group_symop_operation_xyz
x,y,z
-x,-y,z
1/2+x,1/2-y,-z
1/2-x,1/2+y,-z
-x,-y,-z
x,y,-z
1/2-x,1/2+y,z
1/2+x,1/2-y,z
loop_
_atom_site_type_symbol
_atom_site_label
_atom_site_fract_x
_atom_site_fract_y
_atom_site_fract_z
Si Si1 0.334384 0.038904 0.608293
Si Si2 0.690633 0.504422 0.779954
Si Si3 0.250456 0.760806 0.891033
Si Si4 0.368772 0.871570 0.097545
Si Si5 0.737856 0.666749 0.608451
Si Si6 0.034379 0.784439 0.104431
Si Si7 0.564866 0.960254 0.751225
Si Si8 0.916164 0.918264 0.143661
O O1 0.348976 0.042772 0.500000
O O2 0.288604 0.171190 0.623307
O O3 0.390153 0.062841 0.669601
O O4 0.303196 0.881941 0.627038
O O5 0.728440 0.373286 0.825622
O O6 0.699382 0.647299 0.846387
O O7 0.707265 0.560373 0.679788
O O8 0.625745 0.453479 0.773279
O O9 0.302220 0.878473 0.887681
O O10 0.242212 0.721971 0.000000
O O11 0.379846 0.699178 0.089094
O O12 0.405670 0.919757 0.183191
O O13 0.384171 0.944985 0.000000
O O14 0.728909 0.632683 0.500000
O O15 0.060374 0.672798 0.176346
O O16 0.976756 0.843251 0.150733
O O17 0.072484 0.927621 0.096615
O O18 0.022284 0.728874 0.000000
O O19 0.500000 0.000000 0.724552
#
# Coordination Sequence:
#
# PCOD9427339 Si02
#       8
#     8   8   8   8   8   8   8   8
#     4  10  23  44  68  96 124 154 201 254 316 379
#     4  11  21  37  58  85 121 155 199 254 309 375
#     4  10  22  35  53  81 120 162 197 238 302 368
#     4  10  20  37  56  81 117 158 202 250 296 354
#     4  10  21  41  69  95 119 153 200 263 322 378
#     4  11  22  37  57  86 120 162 216 258 295 353
#     4  12  24  38  61  91 125 164 204 251 311 366
#     4  10  21  36  57  80 116 164 205 254 304 350
#
# _framework density 20.447303000000002
#
# number of rings (size 3 to 8) (size 9 to 14) (size 15 to 20)
#    0.000    1.500    1.250    4.500    0.000    5.250 
#    0.000    0.000    0.000    0.750    0.000    3.500 
#    0.000    0.000    0.000    0.000    0.000    0.000 
#
# Total GULP energy -356400.790358 kJ/mol
# GULP energy per Si atom -5568.762349 kJ/mol
# Density = 2.040076 g / cm^3
# Si number density = 20.447303 Si / 1000 Ang^3
#
#
#
# Elastic Constant Matrix: (Units=GPa)
#
#
# Indices 1 2 3 4 5 6 
#
# 1 107.1768 41.9250 55.4401 0.0000 0.0000 0.0000
# 2 41.9250 76.9457 36.7122 0.0000 0.0000 0.0000
# 3 55.4401 36.7122 98.9796 0.0000 0.0000 0.0000
# 4 0.0000 0.0000 0.0000 243.9577 0.0000 0.0000
# 5 0.0000 0.0000 0.0000 0.0000 52.8875 0.0000
# 6 0.0000 0.0000 0.0000 0.0000 0.0000 28.9592
#
#
#
# Elastic Compliance Matrix: (Units=1/GPa)
#
#
# Indices 1 2 3 4 5 6 
#
# 1 0.014510 -0.004894 -0.006312 0.000000 0.000000 0.000000
# 2 -0.004894 0.017442 -0.003728 0.000000 0.000000 0.000000
# 3 -0.006312 -0.003728 0.015021 0.000000 0.000000 0.000000
# 4 0.000000 0.000000 0.000000 0.004099 0.000000 0.000000
# 5 0.000000 0.000000 0.000000 0.000000 0.018908 0.000000
# 6 0.000000 0.000000 0.000000 0.000000 0.000000 0.034531
#
#
# Mechanical properties :
#
#
# Convention : Reuss Voigt Hill
#
# Bulk Modulus (GPa) = 58.46410 61.25075 59.85743
# Shear Modulus (GPa) = 35.69370 75.09586 55.39478
#
# Velocity S-wave (km/s) = 4.18262 6.06682 5.21059
# Velocity P-wave (km/s) = 7.20974 8.89356 8.09555
#
# Compressibility (1/GPa) = 0.01710451
#
# Stress axis : x y z
#
# Youngs Moduli (GPa) = 68.91820 57.33432 66.57295
#
# Poissons Ratio (x) = 0.28062 0.42020
# Poissons Ratio (y) = 0.33732 0.24817
# Poissons Ratio (z) = 0.43500 0.21373
#
# Static dielectric constant tensor:
#      x y z
#    x 1.820520 0.000000 0.000000 
#    y 0.000000 1.798240 0.000000 
#    z 0.000000 0.000000 1.676970 
# 
# From -- ./inp_files/19961.got.cif
#   From: 2010.05.17/outbox.cif.g08.bks.cpg/sg55_10_cif.got.tgz:19961.got - 2010.06.03 13:27:54.
