data_PCOD9427861
_publ_section_title
;
Structure prediction by ZEFSAII (Michael W. Deem and Ramdas Pophale) SiO2 
 PCOD9427861
Probable space group: P B A M
;
_chemical_formula_sum "Si O2"
_cell_formula_units_Z 58
_cell_length_a 14.786996
_cell_length_b 21.876350
_cell_length_c 10.076492
_cell_angle_alpha 90.000000
_cell_angle_beta 90.000000
_cell_angle_gamma 90.000000
_cell_volume 3259.599052
_symmetry_space_group_name_H-M "P B A M"
_symmetry_group_IT_number 55
_symmetry_cell_setting 'orthorhombic'
loop_
_space_group_symop_operation_xyz
x,y,z
-x,-y,z
1/2+x,1/2-y,-z
1/2-x,1/2+y,-z
-x,-y,-z
x,y,-z
1/2-x,1/2+y,z
1/2+x,1/2-y,z
loop_
_atom_site_type_symbol
_atom_site_label
_atom_site_fract_x
_atom_site_fract_y
_atom_site_fract_z
Si Si1 0.500000 0.500000 0.500000
Si Si2 0.659415 0.718241 0.344685
Si Si3 0.474932 0.347244 0.847901
Si Si4 0.874566 0.033886 0.753113
Si Si5 0.009930 0.429451 0.338813
Si Si6 0.324643 0.136959 0.656421
Si Si7 0.834384 0.901369 0.847860
Si Si8 0.207732 0.389837 0.340278
O O1 0.428483 0.478087 0.383012
O O2 0.637939 0.706418 0.500000
O O3 0.576876 0.696359 0.253724
O O4 0.676261 0.789868 0.329195
O O5 0.746133 0.675837 0.310885
O O6 0.426912 0.413085 0.831280
O O7 0.580112 0.358026 0.816167
O O8 0.466273 0.326707 0.000000
O O9 0.775215 0.059975 0.719929
O O10 0.867527 0.970835 0.831187
O O11 0.012116 0.429818 0.500000
O O12 0.921558 0.390637 0.302433
O O13 0.000000 0.500000 0.295635
O O14 0.105039 0.400276 0.294346
O O15 0.310574 0.122437 0.500000
O O16 0.245730 0.109454 0.745264
O O17 0.807001 0.890400 0.000000
O O18 0.208392 0.396498 0.500000
#
# Coordination Sequence:
#
# PCOD9427861 Si02
#       8
#     2   8   8   8   8   8   8   8
#     4  12  20  28  54  92 118 148 174 232 282 340
#     4   9  20  36  55  82 108 138 179 233 280 329
#     4  10  21  36  55  78 111 150 182 215 267 337
#     4  11  20  32  53  84 119 142 179 222 280 335
#     4   9  17  31  51  77 104 137 177 225 277 331
#     4  10  22  37  56  80 107 138 187 238 281 325
#     4  11  23  36  53  79 113 149 181 222 277 334
#     4   9  17  30  52  77 109 139 173 219 280 335
#
# _framework density 17.793599
#
# number of rings (size 3 to 8) (size 9 to 14) (size 15 to 20)
#    0.000    2.069    2.069    1.241    1.931    4.414 
#    0.000    2.759    0.000    7.034    0.000    0.000 
#    0.000    0.000    0.000    0.000    0.000    0.000 
#
# Total GULP energy -323030.693783 kJ/mol
# GULP energy per Si atom -5569.494720 kJ/mol
# Density = 1.775310 g / cm^3
# Si number density = 17.793599 Si / 1000 Ang^3
#
#
#
# Elastic Constant Matrix: (Units=GPa)
#
#
# Indices 1 2 3 4 5 6 
#
# 1 99.2503 12.9161 28.2042 0.0000 0.0000 0.0000
# 2 12.9161 44.6832 12.5128 0.0000 0.0000 0.0000
# 3 28.2042 12.5128 37.3562 0.0000 0.0000 0.0000
# 4 0.0000 0.0000 0.0000 1.8545 0.0000 0.0000
# 5 0.0000 0.0000 0.0000 0.0000 19.3098 0.0000
# 6 0.0000 0.0000 0.0000 0.0000 0.0000 10.1047
#
#
#
# Elastic Compliance Matrix: (Units=1/GPa)
#
#
# Indices 1 2 3 4 5 6 
#
# 1 0.012877 -0.001103 -0.009353 0.000000 0.000000 0.000000
# 2 -0.001103 0.024791 -0.007471 0.000000 0.000000 0.000000
# 3 -0.009353 -0.007471 0.036333 0.000000 0.000000 0.000000
# 4 0.000000 0.000000 0.000000 0.539242 0.000000 0.000000
# 5 0.000000 0.000000 0.000000 0.000000 0.051787 0.000000
# 6 0.000000 0.000000 0.000000 0.000000 0.000000 0.098964
#
#
# Mechanical properties :
#
#
# Convention : Reuss Voigt Hill
#
# Bulk Modulus (GPa) = 26.21422 32.06175 29.13798
# Shear Modulus (GPa) = 6.15337 14.76423 10.45880
#
# Velocity S-wave (km/s) = 1.86164 2.88366 2.42706
# Velocity P-wave (km/s) = 4.40287 5.39863 4.92598
#
# Compressibility (1/GPa) = 0.03814723
#
# Stress axis : x y z
#
# Youngs Moduli (GPa) = 77.65880 40.33754 27.52310
#
# Poissons Ratio (x) = 0.04450 0.25741
# Poissons Ratio (y) = 0.08567 0.20563
# Poissons Ratio (z) = 0.72631 0.30136
#
# Static dielectric constant tensor:
#      x y z
#    x 1.607120 0.000000 0.000000 
#    y 0.000000 1.608570 0.000000 
#    z 0.000000 0.000000 1.589570 
# 
# From -- ./inp_files/6451.got.cif
#   From: 2010.05.17/outbox.cif.g08.bks.cpg/sg55_4_cif.got.tgz:6451.got - 2010.06.03 13:27:54.
