data_PCOD9427361
_publ_section_title
;
Structure prediction by ZEFSAII (Michael W. Deem and Ramdas Pophale) SiO2 
 PCOD9427361
Probable space group: P B A M
;
_chemical_formula_sum "Si O2"
_cell_formula_units_Z 48
_cell_length_a 8.017023
_cell_length_b 28.665117
_cell_length_c 8.068290
_cell_angle_alpha 90.000000
_cell_angle_beta 90.000000
_cell_angle_gamma 90.000000
_cell_volume 1854.164868
_symmetry_space_group_name_H-M "P B A M"
_symmetry_group_IT_number 55
_symmetry_cell_setting 'orthorhombic'
loop_
_space_group_symop_operation_xyz
x,y,z
-x,-y,z
1/2+x,1/2-y,-z
1/2-x,1/2+y,-z
-x,-y,-z
x,y,-z
1/2-x,1/2+y,z
1/2+x,1/2-y,z
loop_
_atom_site_type_symbol
_atom_site_label
_atom_site_fract_x
_atom_site_fract_y
_atom_site_fract_z
Si Si1 0.267452 0.848684 0.808529
Si Si2 0.761617 0.988866 0.187942
Si Si3 0.543565 0.403866 0.690060
Si Si4 0.566675 0.737030 0.800503
Si Si5 0.539481 0.066772 0.686449
Si Si6 0.736183 0.824175 0.197009
O O1 0.203960 0.799761 0.734789
O O2 0.405299 0.880951 0.724603
O O3 0.098493 0.880170 0.801031
O O4 0.315396 0.841670 0.000000
O O5 0.905623 0.955594 0.257007
O O6 0.598421 0.954992 0.193904
O O7 0.701588 0.033453 0.291600
O O8 0.794366 0.003126 0.000000
O O9 0.488628 0.402175 0.500000
O O10 0.706558 0.370646 0.710979
O O11 0.391614 0.711601 0.778219
O O12 0.586837 0.790364 0.744930
O O13 0.592779 0.739193 0.000000
O O14 0.475992 0.061682 0.500000
O O15 0.722645 0.834927 0.000000
#
# Coordination Sequence:
#
# PCOD9427361 Si02
#       6
#     8   8   8   8   8   8
#     4  10  20  37  58  83 111 147 189 227 267 326
#     4  11  22  39  60  82 108 146 188 226 266 325
#     4  11  22  37  55  81 113 146 182 231 283 325
#     4   8  16  30  52  77 104 137 181 226 264 312
#     4  11  22  38  58  85 116 144 175 224 279 327
#     4   9  17  33  53  76 104 140 181 224 269 323
#
# _framework density 25.887668000000001
#
# number of rings (size 3 to 8) (size 9 to 14) (size 15 to 20)
#    0.000    2.000    0.000    7.000    0.000    2.000 
#    0.000   10.833    0.000    0.000    0.000    0.000 
#    0.000    0.000    0.000    0.000    0.000    0.000 
#
# Total GULP energy -268788.928927 kJ/mol
# GULP energy per Si atom -5599.769353 kJ/mol
# Density = 2.582875 g / cm^3
# Si number density = 25.887668 Si / 1000 Ang^3
#
#
#
# Elastic Constant Matrix: (Units=GPa)
#
#
# Indices 1 2 3 4 5 6 
#
# 1 73.5749 9.3114 -6.7208 0.0000 0.0000 0.0000
# 2 9.3114 168.0620 8.9668 0.0000 0.0000 0.0000
# 3 -6.7208 8.9668 86.4021 0.0000 0.0000 0.0000
# 4 0.0000 0.0000 0.0000 119.8061 0.0000 0.0000
# 5 0.0000 0.0000 0.0000 0.0000 15.7508 0.0000
# 6 0.0000 0.0000 0.0000 0.0000 0.0000 59.5736
#
#
#
# Elastic Compliance Matrix: (Units=1/GPa)
#
#
# Indices 1 2 3 4 5 6 
#
# 1 0.013802 -0.000827 0.001159 0.000000 0.000000 0.000000
# 2 -0.000827 0.006033 -0.000690 0.000000 0.000000 0.000000
# 3 0.001159 -0.000690 0.011736 0.000000 0.000000 0.000000
# 4 0.000000 0.000000 0.000000 0.008347 0.000000 0.000000
# 5 0.000000 0.000000 0.000000 0.000000 0.063489 0.000000
# 6 0.000000 0.000000 0.000000 0.000000 0.000000 0.016786
#
#
# Mechanical properties :
#
#
# Convention : Reuss Voigt Hill
#
# Bulk Modulus (GPa) = 32.40923 39.01709 35.71316
# Shear Modulus (GPa) = 38.11199 60.12489 49.11844
#
# Velocity S-wave (km/s) = 3.84110 4.82449 4.36060
# Velocity P-wave (km/s) = 5.67612 6.79255 6.25928
#
# Compressibility (1/GPa) = 0.03085541
#
# Stress axis : x y z
#
# Youngs Moduli (GPa) = 72.45275 165.76009 85.21069
#
# Poissons Ratio (x) = 0.13701 -0.09879
# Poissons Ratio (y) = 0.05989 0.05883
# Poissons Ratio (z) = -0.08400 0.11444
#
# Static dielectric constant tensor:
#      x y z
#    x 2.192730 0.000000 0.000000 
#    y 0.000000 2.040940 0.000000 
#    z 0.000000 0.000000 1.900630 
# 
# From -- ./inp_files/2791.got.cif
#   From: 2010.05.17/outbox.cif.g08.bks.cpg/sg55_2_cif.got.tgz:2791.got - 2010.06.03 13:27:54.
