data_PCOD9427316
_publ_section_title
;
Structure prediction by ZEFSAII (Michael W. Deem and Ramdas Pophale) SiO2 
 PCOD9427316
Probable space group: P B A M
;
_chemical_formula_sum "Si O2"
_cell_formula_units_Z 40
_cell_length_a 9.618620
_cell_length_b 15.706238
_cell_length_c 13.049682
_cell_angle_alpha 90.000000
_cell_angle_beta 90.000000
_cell_angle_gamma 90.000000
_cell_volume 1971.445930
_symmetry_space_group_name_H-M "P B A M"
_symmetry_group_IT_number 55
_symmetry_cell_setting 'orthorhombic'
loop_
_space_group_symop_operation_xyz
x,y,z
-x,-y,z
1/2+x,1/2-y,-z
1/2-x,1/2+y,-z
-x,-y,-z
x,y,-z
1/2-x,1/2+y,z
1/2+x,1/2-y,z
loop_
_atom_site_type_symbol
_atom_site_label
_atom_site_fract_x
_atom_site_fract_y
_atom_site_fract_z
Si Si1 0.894241 0.286277 0.381606
Si Si2 0.339838 0.018448 0.616649
Si Si3 0.332866 0.786103 0.757008
Si Si4 0.194170 0.945576 0.193836
Si Si5 0.604198 0.382017 0.119470
O O1 0.926049 0.264436 0.500000
O O2 0.824097 0.379767 0.382125
O O3 0.790873 0.222382 0.325362
O O4 0.029255 0.292574 0.310605
O O5 0.327329 0.987145 0.500000
O O6 0.500000 0.000000 0.649059
O O7 0.230190 0.975455 0.691225
O O8 0.302706 0.869434 0.825044
O O9 0.336653 0.701158 0.825282
O O10 0.041704 0.907309 0.173146
O O11 0.199649 0.033832 0.131196
O O12 0.578630 0.365920 0.000000
#
# Coordination Sequence:
#
# PCOD9427316 Si02
#       5
#     8   8   8   8   8
#     4  11  23  40  63  98 139 175 210 262 327 395
#     4  10  20  36  62  93 130 170 207 261 326 389
#     4  12  23  42  69  99 132 173 223 270 325 400
#     4  11  22  42  68  91 129 171 220 269 333 394
#     4  11  26  46  65  92 130 173 224 282 337 383
#
# _framework density 20.289676
#
# number of rings (size 3 to 8) (size 9 to 14) (size 15 to 20)
#    0.000    1.000    6.000    1.800    0.000    2.400 
#    0.000    2.000    0.000    3.600    0.000    0.000 
#    0.000    0.000    0.000    0.000    0.000    0.000 
#
# Total GULP energy -223327.172662 kJ/mol
# GULP energy per Si atom -5583.179317 kJ/mol
# Density = 2.024350 g / cm^3
# Si number density = 20.289676 Si / 1000 Ang^3
#
#
#
# Elastic Constant Matrix: (Units=GPa)
#
#
# Indices 1 2 3 4 5 6 
#
# 1 63.2178 21.6477 46.3432 0.0000 0.0000 0.0000
# 2 21.6477 119.0548 48.0841 0.0000 0.0000 0.0000
# 3 46.3432 48.0841 105.5761 0.0000 0.0000 0.0000
# 4 0.0000 0.0000 0.0000 8.8616 0.0000 0.0000
# 5 0.0000 0.0000 0.0000 0.0000 11.3052 0.0000
# 6 0.0000 0.0000 0.0000 0.0000 0.0000 16.8380
#
#
#
# Elastic Compliance Matrix: (Units=1/GPa)
#
#
# Indices 1 2 3 4 5 6 
#
# 1 0.023325 -0.000130 -0.010180 0.000000 0.000000 0.000000
# 2 -0.000130 0.010294 -0.004631 0.000000 0.000000 0.000000
# 3 -0.010180 -0.004631 0.016049 0.000000 0.000000 0.000000
# 4 0.000000 0.000000 0.000000 0.112847 0.000000 0.000000
# 5 0.000000 0.000000 0.000000 0.000000 0.088455 0.000000
# 6 0.000000 0.000000 0.000000 0.000000 0.000000 0.059389
#
#
# Mechanical properties :
#
#
# Convention : Reuss Voigt Hill
#
# Bulk Modulus (GPa) = 50.53818 57.77762 54.15790
# Shear Modulus (GPa) = 14.41602 18.85253 16.63428
#
# Velocity S-wave (km/s) = 2.66843 3.05153 2.86639
# Velocity P-wave (km/s) = 5.86996 6.39953 6.14046
#
# Compressibility (1/GPa) = 0.01978702
#
# Stress axis : x y z
#
# Youngs Moduli (GPa) = 42.87221 97.14829 62.30750
#
# Poissons Ratio (x) = 0.01262 0.63426
# Poissons Ratio (y) = 0.00557 0.28855
# Poissons Ratio (z) = 0.43642 0.44991
#
# Static dielectric constant tensor:
#      x y z
#    x 1.716630 0.000000 0.000000 
#    y 0.000000 1.771510 0.000000 
#    z 0.000000 0.000000 1.703520 
# 
# From -- ./inp_files/7170.got.cif
#   From: 2010.05.17/outbox.cif.g08.bks.cpg/sg55_4_cif.got.tgz:7170.got - 2010.06.03 13:27:54.
