data_PCOD9427186
_publ_section_title
;
Structure prediction by ZEFSAII (Michael W. Deem and Ramdas Pophale) SiO2 
 PCOD9427186
Probable space group: P B A M
;
_chemical_formula_sum "Si O2"
_cell_formula_units_Z 48
_cell_length_a 27.913678
_cell_length_b 9.809570
_cell_length_c 7.475306
_cell_angle_alpha 90.000000
_cell_angle_beta 90.000000
_cell_angle_gamma 90.000000
_cell_volume 2046.897097
_symmetry_space_group_name_H-M "P B A M"
_symmetry_group_IT_number 55
_symmetry_cell_setting 'orthorhombic'
loop_
_space_group_symop_operation_xyz
x,y,z
-x,-y,z
1/2+x,1/2-y,-z
1/2-x,1/2+y,-z
-x,-y,-z
x,y,-z
1/2-x,1/2+y,z
1/2+x,1/2-y,z
loop_
_atom_site_type_symbol
_atom_site_label
_atom_site_fract_x
_atom_site_fract_y
_atom_site_fract_z
Si Si1 0.601251 0.667584 0.712755
Si Si2 0.396734 0.832789 0.783240
Si Si3 0.208311 0.381175 0.781309
Si Si4 0.544857 0.417497 0.794637
Si Si5 0.703611 0.804118 0.785192
Si Si6 0.956506 0.415246 0.291871
O O1 0.595599 0.655836 0.500000
O O2 0.589831 0.520684 0.791805
O O3 0.652787 0.733479 0.746181
O O4 0.560768 0.772314 0.784338
O O5 0.341924 0.811217 0.729002
O O6 0.435400 0.723024 0.715046
O O7 0.412081 0.982120 0.721429
O O8 0.398252 0.829893 0.000000
O O9 0.253549 0.293167 0.720299
O O10 0.207878 0.539338 0.721532
O O11 0.209346 0.383536 0.000000
O O12 0.500000 0.500000 0.712700
O O13 0.531555 0.388257 0.000000
O O14 0.707392 0.811098 0.000000
O O15 0.968245 0.391220 0.500000
O O16 0.000000 0.500000 0.208277
#
# Coordination Sequence:
#
# PCOD9427186 Si02
#       6
#     8   8   8   8   8   8
#     4  11  23  38  57  84 117 153 193 235 286 347
#     4  10  20  36  58  85 113 143 190 240 285 339
#     4   9  19  34  58  87 109 141 185 234 288 341
#     4  10  22  38  58  86 119 155 195 242 291 341
#     4  10  20  37  60  84 112 146 187 235 288 343
#     4  10  21  37  57  81 112 151 190 231 283 343
#
# _framework density 23.450126999999998
#
# number of rings (size 3 to 8) (size 9 to 14) (size 15 to 20)
#    0.000    2.000    1.667    1.500    2.333    2.000 
#    0.000    1.667    0.000    0.000    0.000    0.000 
#    0.000    0.000    0.000    0.000    0.000    0.000 
#
# Total GULP energy -268275.249230 kJ/mol
# GULP energy per Si atom -5589.067692 kJ/mol
# Density = 2.339675 g / cm^3
# Si number density = 23.450127 Si / 1000 Ang^3
#
#
#
# Elastic Constant Matrix: (Units=GPa)
#
#
# Indices 1 2 3 4 5 6 
#
# 1 110.8962 20.3625 7.3322 0.0000 0.0000 0.0000
# 2 20.3625 104.2821 3.5148 0.0000 0.0000 0.0000
# 3 7.3322 3.5148 76.0666 0.0000 0.0000 0.0000
# 4 0.0000 0.0000 0.0000 -11.3674 0.0000 0.0000
# 5 0.0000 0.0000 0.0000 0.0000 24.6748 0.0000
# 6 0.0000 0.0000 0.0000 0.0000 0.0000 48.0053
#
#
#
# Elastic Compliance Matrix: (Units=1/GPa)
#
#
# Indices 1 2 3 4 5 6 
#
# 1 0.009404 -0.001809 -0.000823 0.000000 0.000000 0.000000
# 2 -0.001809 0.009952 -0.000286 0.000000 0.000000 0.000000
# 3 -0.000823 -0.000286 0.013239 0.000000 0.000000 0.000000
# 4 0.000000 0.000000 0.000000 -0.087971 0.000000 0.000000
# 5 0.000000 0.000000 0.000000 0.000000 0.040527 0.000000
# 6 0.000000 0.000000 0.000000 0.000000 0.000000 0.020831
#
#
# Mechanical properties :
#
#
# Convention : Reuss Voigt Hill
#
# Bulk Modulus (GPa) = 37.36773 39.29601 38.33187
# Shear Modulus (GPa) = 241.11904 29.59822 135.35863
#
# Velocity S-wave (km/s) = 10.15112 3.55657 7.60574
# Velocity P-wave (km/s) = 12.38399 5.80166 9.67012
#
# Compressibility (1/GPa) = 0.02676106
#
# Stress axis : x y z
#
# Youngs Moduli (GPa) = 106.33859 100.48091 75.53506
#
# Poissons Ratio (x) = 0.18172 0.06216
# Poissons Ratio (y) = 0.19231 0.02157
# Poissons Ratio (z) = 0.08751 0.02869
#
# Static dielectric constant tensor:
#      x y z
#    x 1.891980 0.000000 0.000000 
#    y 0.000000 1.849920 0.000000 
#    z 0.000000 0.000000 1.890600 
# 
# From -- ./inp_files/2815.got.cif
#   From: 2010.05.17/outbox.cif.g08.bks.cpg/sg55_2_cif.got.tgz:2815.got - 2010.06.03 13:27:54.
