data_PCOD9427713
_publ_section_title
;
Structure prediction by ZEFSAII (Michael W. Deem and Ramdas Pophale) SiO2 
 PCOD9427713
Probable space group: P B A M
;
_chemical_formula_sum "Si O2"
_cell_formula_units_Z 34
_cell_length_a 8.143593
_cell_length_b 18.560419
_cell_length_c 9.303109
_cell_angle_alpha 90.000000
_cell_angle_beta 90.000000
_cell_angle_gamma 90.000000
_cell_volume 1406.150954
_symmetry_space_group_name_H-M "P B A M"
_symmetry_group_IT_number 55
_symmetry_cell_setting 'orthorhombic'
loop_
_space_group_symop_operation_xyz
x,y,z
-x,-y,z
1/2+x,1/2-y,-z
1/2-x,1/2+y,-z
-x,-y,-z
x,y,-z
1/2-x,1/2+y,z
1/2+x,1/2-y,z
loop_
_atom_site_type_symbol
_atom_site_label
_atom_site_fract_x
_atom_site_fract_y
_atom_site_fract_z
Si Si1 0.000000 0.500000 0.000000
Si Si2 0.927962 0.845508 0.327220
Si Si3 0.741479 0.723678 0.828600
Si Si4 0.413535 0.882214 0.349067
Si Si5 0.276280 0.025340 0.276472
O O1 0.858169 0.488372 0.876793
O O2 0.936453 0.838532 0.500000
O O3 0.784537 0.796484 0.255482
O O4 0.886315 0.927667 0.285733
O O5 0.087245 0.814412 0.246638
O O6 0.889179 0.668250 0.788450
O O7 0.724010 0.732566 0.000000
O O8 0.395765 0.840793 0.500000
O O9 0.585557 0.923488 0.348936
O O10 0.280030 0.946445 0.345292
#
# Coordination Sequence:
#
# PCOD9427713 Si02
#       5
#     2   8   8   8   8
#     4   8  20  36  62  98 136 164 202 270 324 388
#     4  12  25  46  70  97 133 180 230 282 340 406
#     4  12  28  44  66  99 138 177 227 284 347 406
#     4  10  20  41  67  98 133 174 222 274 332 401
#     4  10  22  38  72  98 134 172 230 270 342 393
#
# _framework density 24.179480999999999
#
# number of rings (size 3 to 8) (size 9 to 14) (size 15 to 20)
#    0.000    1.412    0.000    7.059    9.882    0.941 
#    0.000    3.529    0.000    0.000    0.000    0.000 
#    0.000    0.000    0.000    0.000    0.000    0.000 
#
# Total GULP energy -189598.272894 kJ/mol
# GULP energy per Si atom -5576.419791 kJ/mol
# Density = 2.412445 g / cm^3
# Si number density = 24.179481 Si / 1000 Ang^3
#
#
#
# Elastic Constant Matrix: (Units=GPa)
#
#
# Indices 1 2 3 4 5 6 
#
# 1 70.9980 0.7703 13.9265 0.0000 0.0000 0.0000
# 2 0.7703 100.8808 16.2277 0.0000 0.0000 0.0000
# 3 13.9265 16.2277 261.0975 0.0000 0.0000 0.0000
# 4 0.0000 0.0000 0.0000 19.1935 0.0000 0.0000
# 5 0.0000 0.0000 0.0000 0.0000 4.8094 0.0000
# 6 0.0000 0.0000 0.0000 0.0000 0.0000 48.6152
#
#
#
# Elastic Compliance Matrix: (Units=1/GPa)
#
#
# Indices 1 2 3 4 5 6 
#
# 1 0.014234 0.000014 -0.000760 0.000000 0.000000 0.000000
# 2 0.000014 0.010013 -0.000623 0.000000 0.000000 0.000000
# 3 -0.000760 -0.000623 0.003909 0.000000 0.000000 0.000000
# 4 0.000000 0.000000 0.000000 0.052101 0.000000 0.000000
# 5 0.000000 0.000000 0.000000 0.000000 0.207927 0.000000
# 6 0.000000 0.000000 0.000000 0.000000 0.000000 0.020570
#
#
# Mechanical properties :
#
#
# Convention : Reuss Voigt Hill
#
# Bulk Modulus (GPa) = 39.34394 54.98058 47.16226
# Shear Modulus (GPa) = 15.62674 41.32708 28.47691
#
# Velocity S-wave (km/s) = 2.54496 4.13871 3.43553
# Velocity P-wave (km/s) = 4.99427 6.75473 5.94008
#
# Compressibility (1/GPa) = 0.02541687
#
# Stress axis : x y z
#
# Youngs Moduli (GPa) = 70.25508 99.87209 255.80360
#
# Poissons Ratio (x) = -0.00136 0.19442
# Poissons Ratio (y) = -0.00095 0.15938
# Poissons Ratio (z) = 0.05340 0.06222
#
# Static dielectric constant tensor:
#      x y z
#    x 2.067950 0.000000 0.000000 
#    y 0.000000 1.977540 0.000000 
#    z 0.000000 0.000000 1.843950 
# 
# From -- ./inp_files/2148.got.cif
#   From: 2010.05.17/outbox.cif.g08.bks.cpg/sg55_2_cif.got.tgz:2148.got - 2010.06.03 13:27:54.
