data_PCOD9427030
_publ_section_title
;
Structure prediction by ZEFSAII (Michael W. Deem and Ramdas Pophale) SiO2 
 PCOD9427030
Probable space group: P B A M
;
_chemical_formula_sum "Si O2"
_cell_formula_units_Z 56
_cell_length_a 22.360167
_cell_length_b 12.269996
_cell_length_c 10.533869
_cell_angle_alpha 90.000000
_cell_angle_beta 90.000000
_cell_angle_gamma 90.000000
_cell_volume 2890.063447
_symmetry_space_group_name_H-M "P B A M"
_symmetry_group_IT_number 55
_symmetry_cell_setting 'orthorhombic'
loop_
_space_group_symop_operation_xyz
x,y,z
-x,-y,z
1/2+x,1/2-y,-z
1/2-x,1/2+y,-z
-x,-y,-z
x,y,-z
1/2-x,1/2+y,z
1/2+x,1/2-y,z
loop_
_atom_site_type_symbol
_atom_site_label
_atom_site_fract_x
_atom_site_fract_y
_atom_site_fract_z
Si Si1 0.621393 0.165277 0.645468
Si Si2 0.907491 0.281477 0.143072
Si Si3 0.258708 0.924954 0.351803
Si Si4 0.176699 0.114545 0.735332
Si Si5 0.067915 0.977219 0.850786
Si Si6 0.492608 0.129368 0.645522
Si Si7 0.727439 0.746850 0.860226
O O1 0.608497 0.137200 0.500000
O O2 0.671100 0.077819 0.687812
O O3 0.652348 0.282579 0.656872
O O4 0.555741 0.171156 0.703573
O O5 0.917516 0.151140 0.158357
O O6 0.836764 0.303691 0.148031
O O7 0.941242 0.338773 0.257410
O O8 0.928772 0.310487 0.000000
O O9 0.256481 0.890374 0.500000
O O10 0.230128 0.839366 0.254006
O O11 0.222747 0.036464 0.337819
O O12 0.217450 0.170552 0.843813
O O13 0.119874 0.045600 0.782290
O O14 0.069269 0.007094 0.000000
O O15 0.000000 0.000000 0.804139
O O16 0.481824 0.169592 0.500000
O O17 0.500000 0.000000 0.639366
O O18 0.730439 0.693494 0.000000
#
# Coordination Sequence:
#
# PCOD9427030 Si02
#       7
#     8   8   8   8   8   8   8
#     4   9  20  38  55  82 119 148 192 249 291 349
#     4  10  21  39  58  85 122 153 196 249 296 346
#     4  10  21  37  60  87 117 155 196 244 302 358
#     4  11  20  35  61  86 117 156 197 243 298 360
#     4  10  20  35  58  85 117 157 193 238 297 355
#     4  10  22  40  62  84 114 157 200 241 295 353
#     4  10  22  38  59  88 122 159 198 249 298 354
#
# _framework density 19.376736999999999
#
# number of rings (size 3 to 8) (size 9 to 14) (size 15 to 20)
#    0.000    2.000    1.429    1.714    2.000    2.000 
#    0.000    2.857    0.000    3.000    0.000    0.000 
#    0.000    0.000    0.000    0.000    0.000    0.000 
#
# Total GULP energy -312085.251844 kJ/mol
# GULP energy per Si atom -5572.950926 kJ/mol
# Density = 1.933263 g / cm^3
# Si number density = 19.376737 Si / 1000 Ang^3
#
#
#
# Elastic Constant Matrix: (Units=GPa)
#
#
# Indices 1 2 3 4 5 6 
#
# 1 86.2906 10.5331 29.7708 0.0000 0.0000 0.0000
# 2 10.5331 46.8866 15.6711 0.0000 0.0000 0.0000
# 3 29.7708 15.6711 83.4635 0.0000 0.0000 0.0000
# 4 0.0000 0.0000 0.0000 15.3846 0.0000 0.0000
# 5 0.0000 0.0000 0.0000 0.0000 27.4229 0.0000
# 6 0.0000 0.0000 0.0000 0.0000 0.0000 33.3254
#
#
#
# Elastic Compliance Matrix: (Units=1/GPa)
#
#
# Indices 1 2 3 4 5 6 
#
# 1 0.013313 -0.001498 -0.004467 0.000000 0.000000 0.000000
# 2 -0.001498 0.022925 -0.003770 0.000000 0.000000 0.000000
# 3 -0.004467 -0.003770 0.014283 0.000000 0.000000 0.000000
# 4 0.000000 0.000000 0.000000 0.065000 0.000000 0.000000
# 5 0.000000 0.000000 0.000000 0.000000 0.036466 0.000000
# 6 0.000000 0.000000 0.000000 0.000000 0.000000 0.030007
#
#
# Mechanical properties :
#
#
# Convention : Reuss Voigt Hill
#
# Bulk Modulus (GPa) = 32.20631 36.51009 34.35820
# Shear Modulus (GPa) = 23.60570 25.93763 24.77166
#
# Velocity S-wave (km/s) = 3.49413 3.66265 3.57938
# Velocity P-wave (km/s) = 5.73897 6.06381 5.90363
#
# Compressibility (1/GPa) = 0.03104982
#
# Stress axis : x y z
#
# Youngs Moduli (GPa) = 75.11544 43.62131 70.01498
#
# Poissons Ratio (x) = 0.06533 0.31279
# Poissons Ratio (y) = 0.11249 0.26397
# Poissons Ratio (z) = 0.33557 0.16446
#
# Static dielectric constant tensor:
#      x y z
#    x 1.719770 0.000000 0.000000 
#    y 0.000000 1.669520 0.000000 
#    z 0.000000 0.000000 1.702910 
# 
# From -- ./inp_files/15324.got.cif
#   From: 2010.05.17/outbox.cif.g08.bks.cpg/sg55_8_cif.got.tgz:15324.got - 2010.06.03 13:27:54.
