data_PCOD9427277
_publ_section_title
;
Structure prediction by ZEFSAII (Michael W. Deem and Ramdas Pophale) SiO2 
 PCOD9427277
Probable space group: P B A M
;
_chemical_formula_sum "Si O2"
_cell_formula_units_Z 58
_cell_length_a 14.805675
_cell_length_b 22.944737
_cell_length_c 7.667521
_cell_angle_alpha 90.000000
_cell_angle_beta 90.000000
_cell_angle_gamma 90.000000
_cell_volume 2604.751340
_symmetry_space_group_name_H-M "P B A M"
_symmetry_group_IT_number 55
_symmetry_cell_setting 'orthorhombic'
loop_
_space_group_symop_operation_xyz
x,y,z
-x,-y,z
1/2+x,1/2-y,-z
1/2-x,1/2+y,-z
-x,-y,-z
x,y,-z
1/2-x,1/2+y,z
1/2+x,1/2-y,z
loop_
_atom_site_type_symbol
_atom_site_label
_atom_site_fract_x
_atom_site_fract_y
_atom_site_fract_z
Si Si1 0.956063 0.411806 0.286780
Si Si2 0.700530 0.607984 0.201297
Si Si3 0.020981 0.220531 0.802225
Si Si4 0.639346 0.031456 0.289423
Si Si5 0.000000 0.000000 0.500000
Si Si6 0.363422 0.203498 0.300457
Si Si7 0.799899 0.724817 0.703543
Si Si8 0.507936 0.409897 0.789749
O O1 0.960151 0.409602 0.500000
O O2 0.894834 0.467340 0.239580
O O3 0.911720 0.352617 0.220573
O O4 0.058705 0.425013 0.231220
O O5 0.764701 0.552144 0.221170
O O6 0.754359 0.661495 0.286210
O O7 0.598864 0.596233 0.262655
O O8 0.691789 0.623925 0.000000
O O9 0.104085 0.264739 0.789971
O O10 0.937278 0.245295 0.696090
O O11 0.048106 0.154575 0.756341
O O12 0.987481 0.217497 0.000000
O O13 0.643239 0.033280 0.500000
O O14 0.043435 0.041985 0.343172
O O15 0.341110 0.187816 0.500000
O O16 0.272755 0.229519 0.221058
O O17 0.815632 0.736928 0.500000
O O18 0.514944 0.422746 0.000000
#
# Coordination Sequence:
#
# PCOD9427277 Si02
#       8
#     8   8   8   8   2   8   8   8
#     4   8  16  33  53  84 121 158 191 257 317 367
#     4  11  22  39  61  89 126 164 210 271 328 381
#     4  11  23  41  64  90 131 172 206 266 336 395
#     4   9  17  32  58  84 118 157 206 249 310 387
#     4  12  26  44  80  90 120 178 230 262 344 386
#     4  10  20  36  60  89 123 157 206 261 314 386
#     4  11  23  36  60  93 124 160 217 268 319 400
#     4  10  25  46  67  98 134 167 221 283 329 395
#
# _framework density 22.267001
#
# number of rings (size 3 to 8) (size 9 to 14) (size 15 to 20)
#    0.000    1.931    1.379    3.103    3.862    1.655 
#    2.483    2.069    0.000    0.000    0.000    0.000 
#    0.000    0.000    0.000    0.000    0.000    0.000 
#
# Total GULP energy -323358.966445 kJ/mol
# GULP energy per Si atom -5575.154594 kJ/mol
# Density = 2.221632 g / cm^3
# Si number density = 22.267001 Si / 1000 Ang^3
#
#
#
# Elastic Constant Matrix: (Units=GPa)
#
#
# Indices 1 2 3 4 5 6 
#
# 1 54.9967 -12.4479 -1.6598 0.0000 0.0000 0.0000
# 2 -12.4479 57.4099 9.0909 0.0000 0.0000 0.0000
# 3 -1.6598 9.0909 63.9419 0.0000 0.0000 0.0000
# 4 0.0000 0.0000 0.0000 8.1221 0.0000 0.0000
# 5 0.0000 0.0000 0.0000 0.0000 6.7111 0.0000
# 6 0.0000 0.0000 0.0000 0.0000 0.0000 30.2692
#
#
#
# Elastic Compliance Matrix: (Units=1/GPa)
#
#
# Indices 1 2 3 4 5 6 
#
# 1 0.019122 0.004161 -0.000095 0.000000 0.000000 0.000000
# 2 0.004161 0.018725 -0.002554 0.000000 0.000000 0.000000
# 3 -0.000095 -0.002554 0.016000 0.000000 0.000000 0.000000
# 4 0.000000 0.000000 0.000000 0.123122 0.000000 0.000000
# 5 0.000000 0.000000 0.000000 0.000000 0.149007 0.000000
# 6 0.000000 0.000000 0.000000 0.000000 0.000000 0.033037
#
#
# Mechanical properties :
#
#
# Convention : Reuss Voigt Hill
#
# Bulk Modulus (GPa) = 17.58383 18.47943 18.03163
# Shear Modulus (GPa) = 13.33527 21.11148 17.22338
#
# Velocity S-wave (km/s) = 2.44986 3.08247 2.78419
# Velocity P-wave (km/s) = 3.98953 4.58104 4.29548
#
# Compressibility (1/GPa) = 0.05687043
#
# Stress axis : x y z
#
# Youngs Moduli (GPa) = 52.29612 53.40365 62.50048
#
# Poissons Ratio (x) = -0.22222 0.00595
# Poissons Ratio (y) = -0.21761 0.15964
# Poissons Ratio (z) = 0.00498 0.13641
#
# Static dielectric constant tensor:
#      x y z
#    x 1.820970 0.000000 0.000000 
#    y 0.000000 1.854470 0.000000 
#    z 0.000000 0.000000 1.828950 
# 
# From -- ./inp_files/6406.got.cif
#   From: 2010.05.17/outbox.cif.g08.bks.cpg/sg55_4_cif.got.tgz:6406.got - 2010.06.03 13:27:54.
