data_PCOD9427184
_publ_section_title
;
Structure prediction by ZEFSAII (Michael W. Deem and Ramdas Pophale) SiO2 
 PCOD9427184
Probable space group: P B A M
;
_chemical_formula_sum "Si O2"
_cell_formula_units_Z 64
_cell_length_a 18.787739
_cell_length_b 20.333490
_cell_length_c 7.611029
_cell_angle_alpha 90.000000
_cell_angle_beta 90.000000
_cell_angle_gamma 90.000000
_cell_volume 2907.567605
_symmetry_space_group_name_H-M "P B A M"
_symmetry_group_IT_number 55
_symmetry_cell_setting 'orthorhombic'
loop_
_space_group_symop_operation_xyz
x,y,z
-x,-y,z
1/2+x,1/2-y,-z
1/2-x,1/2+y,-z
-x,-y,-z
x,y,-z
1/2-x,1/2+y,z
1/2+x,1/2-y,z
loop_
_atom_site_type_symbol
_atom_site_label
_atom_site_fract_x
_atom_site_fract_y
_atom_site_fract_z
Si Si1 0.789823 0.410269 0.787301
Si Si2 0.059151 0.547785 0.201420
Si Si3 0.199224 0.739845 0.788050
Si Si4 0.305125 0.857753 0.291008
Si Si5 0.544981 0.707666 0.212645
Si Si6 0.459934 0.438066 0.797542
Si Si7 0.301393 0.469220 0.292175
Si Si8 0.464087 0.835218 0.292090
O O1 0.862592 0.444739 0.719815
O O2 0.787120 0.334735 0.726513
O O3 0.724799 0.456696 0.736806
O O4 0.794167 0.408523 0.000000
O O5 0.000000 0.500000 0.284421
O O6 0.023655 0.619548 0.203207
O O7 0.068956 0.524957 0.000000
O O8 0.260231 0.791475 0.738660
O O9 0.122381 0.766475 0.725801
O O10 0.196513 0.738025 0.000000
O O11 0.311956 0.867078 0.500000
O O12 0.258991 0.919038 0.222832
O O13 0.385506 0.852091 0.222776
O O14 0.530101 0.634404 0.280006
O O15 0.485328 0.759970 0.263140
O O16 0.548661 0.704984 0.000000
O O17 0.500000 0.500000 0.714364
O O18 0.376250 0.453198 0.794694
O O19 0.485203 0.433645 0.000000
O O20 0.310028 0.457533 0.500000
O O21 0.467096 0.849008 0.500000
#
# Coordination Sequence:
#
# PCOD9427184 Si02
#       8
#     8   8   8   8   8   8   8   8
#     4  10  21  37  57  85 119 151 194 245 292 349
#     4  10  20  36  58  84 116 155 198 245 293 348
#     4  10  20  37  62  86 111 152 201 247 294 348
#     4  10  23  40  57  85 122 157 198 242 290 357
#     4  10  20  39  63  87 118 153 199 251 299 357
#     4  10  22  41  66  92 119 155 200 252 307 357
#     4  11  23  39  60  87 122 162 202 244 294 357
#     4  11  23  37  57  86 121 157 195 244 298 356
#
# _framework density 22.011527000000001
#
# number of rings (size 3 to 8) (size 9 to 14) (size 15 to 20)
#    0.000    1.750    2.500    1.500    0.000    5.000 
#    0.000    3.750    0.000    0.000    0.000    0.000 
#    0.000    0.000    0.000    0.000    0.000    0.000 
#
# Total GULP energy -357716.277886 kJ/mol
# GULP energy per Si atom -5589.316842 kJ/mol
# Density = 2.196143 g / cm^3
# Si number density = 22.011527 Si / 1000 Ang^3
#
#
#
# Elastic Constant Matrix: (Units=GPa)
#
#
# Indices 1 2 3 4 5 6 
#
# 1 56.3841 11.2290 -10.8668 0.0000 0.0000 0.0000
# 2 11.2290 127.3662 -8.9013 0.0000 0.0000 0.0000
# 3 -10.8668 -8.9013 50.1266 0.0000 0.0000 0.0000
# 4 0.0000 0.0000 0.0000 22.8620 0.0000 0.0000
# 5 0.0000 0.0000 0.0000 0.0000 1.2604 0.0000
# 6 0.0000 0.0000 0.0000 0.0000 0.0000 44.3216
#
#
#
# Elastic Compliance Matrix: (Units=1/GPa)
#
#
# Indices 1 2 3 4 5 6 
#
# 1 0.018747 -0.001386 0.003818 0.000000 0.000000 0.000000
# 2 -0.001386 0.008053 0.001129 0.000000 0.000000 0.000000
# 3 0.003818 0.001129 0.020978 0.000000 0.000000 0.000000
# 4 0.000000 0.000000 0.000000 0.043741 0.000000 0.000000
# 5 0.000000 0.000000 0.000000 0.000000 0.793390 0.000000
# 6 0.000000 0.000000 0.000000 0.000000 0.000000 0.022562
#
#
# Mechanical properties :
#
#
# Convention : Reuss Voigt Hill
#
# Bulk Modulus (GPa) = 18.21469 24.08875 21.15172
# Shear Modulus (GPa) = 5.44278 29.84987 17.64633
#
# Velocity S-wave (km/s) = 1.57419 3.68652 2.83448
# Velocity P-wave (km/s) = 3.40545 5.39334 4.51028
#
# Compressibility (1/GPa) = 0.05490073
#
# Stress axis : x y z
#
# Youngs Moduli (GPa) = 53.34086 124.18499 47.66954
#
# Poissons Ratio (x) = 0.17212 -0.18201
# Poissons Ratio (y) = 0.07393 -0.05384
# Poissons Ratio (z) = -0.20366 -0.14026
#
# Static dielectric constant tensor:
#      x y z
#    x 1.770810 0.000000 0.000000 
#    y 0.000000 1.808270 0.000000 
#    z 0.000000 0.000000 1.843680 
# 
# From -- ./inp_files/8065.got.cif
#   From: 2010.05.17/outbox.cif.g08.bks.cpg/sg55_5_cif.got.tgz:8065.got - 2010.06.03 13:27:54.
