data_PCOD9427611
_publ_section_title
;
Structure prediction by ZEFSAII (Michael W. Deem and Ramdas Pophale) SiO2 
 PCOD9427611
Probable space group: P B A M
;
_chemical_formula_sum "Si O2"
_cell_formula_units_Z 48
_cell_length_a 18.538861
_cell_length_b 14.422465
_cell_length_c 8.677189
_cell_angle_alpha 90.000000
_cell_angle_beta 90.000000
_cell_angle_gamma 90.000000
_cell_volume 2320.072727
_symmetry_space_group_name_H-M "P B A M"
_symmetry_group_IT_number 55
_symmetry_cell_setting 'orthorhombic'
loop_
_space_group_symop_operation_xyz
x,y,z
-x,-y,z
1/2+x,1/2-y,-z
1/2-x,1/2+y,-z
-x,-y,-z
x,y,-z
1/2-x,1/2+y,z
1/2+x,1/2-y,z
loop_
_atom_site_type_symbol
_atom_site_label
_atom_site_fract_x
_atom_site_fract_y
_atom_site_fract_z
Si Si1 0.726420 0.321431 0.317428
Si Si2 0.153427 0.356267 0.813587
Si Si3 0.853122 0.433136 0.815601
Si Si4 0.602916 0.451679 0.183346
Si Si5 0.953369 0.127813 0.682584
Si Si6 0.512328 0.821340 0.815845
O O1 0.717484 0.324835 0.500000
O O2 0.706351 0.219329 0.257653
O O3 0.804466 0.357585 0.268228
O O4 0.670814 0.393023 0.238161
O O5 0.167020 0.462635 0.768284
O O6 0.070706 0.332560 0.767913
O O7 0.157189 0.350699 0.000000
O O8 0.937091 0.410026 0.788024
O O9 0.841225 0.425821 0.000000
O O10 0.532286 0.407316 0.262514
O O11 0.602878 0.558727 0.235661
O O12 0.595092 0.445654 0.000000
O O13 0.946756 0.118692 0.500000
O O14 0.951213 0.233539 0.735098
O O15 0.511793 0.804531 0.000000
#
# Coordination Sequence:
#
# PCOD9427611 Si02
#       6
#     8   8   8   8   8   8
#     4  12  25  41  62  91 128 169 207 256 320 381
#     4  10  21  41  69  94 121 161 209 261 311 369
#     4  10  23  42  65  94 125 163 212 260 309 370
#     4  11  21  37  60  86 119 162 210 257 304 363
#     4  11  21  34  57  92 128 160 199 252 311 368
#     4  10  20  38  65  95 126 164 211 259 307 370
#
# _framework density 20.689005000000002
#
# number of rings (size 3 to 8) (size 9 to 14) (size 15 to 20)
#    0.000    1.333    1.667    6.000    0.000    4.667 
#    0.000    1.667    0.000    3.000    0.000    0.000 
#    0.000    0.000    0.000    0.000    0.000    0.000 
#
# Total GULP energy -268414.771725 kJ/mol
# GULP energy per Si atom -5591.974411 kJ/mol
# Density = 2.064192 g / cm^3
# Si number density = 20.689005 Si / 1000 Ang^3
#
#
#
# Elastic Constant Matrix: (Units=GPa)
#
#
# Indices 1 2 3 4 5 6 
#
# 1 44.2903 35.2987 5.8137 0.0000 0.0000 0.0000
# 2 35.2987 124.8721 29.3688 0.0000 0.0000 0.0000
# 3 5.8137 29.3688 35.7217 0.0000 0.0000 0.0000
# 4 0.0000 0.0000 0.0000 -220.0089 0.0000 0.0000
# 5 0.0000 0.0000 0.0000 0.0000 -6.2616 0.0000
# 6 0.0000 0.0000 0.0000 0.0000 0.0000 22.9422
#
#
#
# Elastic Compliance Matrix: (Units=1/GPa)
#
#
# Indices 1 2 3 4 5 6 
#
# 1 0.029328 -0.008886 0.002533 0.000000 0.000000 0.000000
# 2 -0.008886 0.012620 -0.008930 0.000000 0.000000 0.000000
# 3 0.002533 -0.008930 0.034924 0.000000 0.000000 0.000000
# 4 0.000000 0.000000 0.000000 -0.004545 0.000000 0.000000
# 5 0.000000 0.000000 0.000000 0.000000 -0.159704 0.000000
# 6 0.000000 0.000000 0.000000 0.000000 0.000000 0.043588
#
#
# Mechanical properties :
#
#
# Convention : Reuss Voigt Hill
#
# Bulk Modulus (GPa) = 21.59570 38.42739 30.01154
# Shear Modulus (GPa) = 2261.43912 -31.70546 1114.86683
#
# Velocity S-wave (km/s) = 33.09737 -3.91894 23.23874
# Velocity P-wave (km/s) = 38.35417 1.36501 27.10331
#
# Compressibility (1/GPa) = 0.04630551
#
# Stress axis : x y z
#
# Youngs Moduli (GPa) = 34.09730 79.23785 28.63401
#
# Poissons Ratio (x) = 0.70411 -0.07252
# Poissons Ratio (y) = 0.30299 0.25569
# Poissons Ratio (z) = -0.08635 0.70756
#
# Static dielectric constant tensor:
#      x y z
#    x 1.747640 0.000000 0.000000 
#    y 0.000000 1.754310 0.000000 
#    z 0.000000 0.000000 1.688300 
# 
# From -- ./inp_files/7425.got.cif
#   From: 2010.05.17/outbox.cif.g08.bks.cpg/sg55_4_cif.got.tgz:7425.got - 2010.06.03 13:27:54.
