data_PCOD9427107
_publ_section_title
;
Structure prediction by ZEFSAII (Michael W. Deem and Ramdas Pophale) SiO2 
 PCOD9427107
Probable space group: P B A M
;
_chemical_formula_sum "Si O2"
_cell_formula_units_Z 64
_cell_length_a 9.230617
_cell_length_b 29.981778
_cell_length_c 11.719923
_cell_angle_alpha 90.000000
_cell_angle_beta 90.000000
_cell_angle_gamma 90.000000
_cell_volume 3243.492320
_symmetry_space_group_name_H-M "P B A M"
_symmetry_group_IT_number 55
_symmetry_cell_setting 'orthorhombic'
loop_
_space_group_symop_operation_xyz
x,y,z
-x,-y,z
1/2+x,1/2-y,-z
1/2-x,1/2+y,-z
-x,-y,-z
x,y,-z
1/2-x,1/2+y,z
1/2+x,1/2-y,z
loop_
_atom_site_type_symbol
_atom_site_label
_atom_site_fract_x
_atom_site_fract_y
_atom_site_fract_z
Si Si1 0.584363 0.677339 0.374152
Si Si2 0.731497 0.812538 0.121918
Si Si3 0.576741 0.548178 0.133389
Si Si4 0.126121 0.610548 0.712484
Si Si5 0.600210 0.175980 0.623542
Si Si6 0.925664 0.548386 0.868147
Si Si7 0.987544 0.750406 0.799030
Si Si8 0.426185 0.586673 0.633098
O O1 0.574583 0.697787 0.500000
O O2 0.741494 0.654483 0.364004
O O3 0.572521 0.715566 0.282036
O O4 0.465571 0.639155 0.366455
O O5 0.704697 0.851454 0.211732
O O6 0.597564 0.778178 0.126527
O O7 0.870282 0.781529 0.141548
O O8 0.742127 0.834942 0.000000
O O9 0.500000 0.500000 0.128027
O O10 0.751535 0.546292 0.151145
O O11 0.507286 0.568975 0.250934
O O12 0.555647 0.566971 0.000000
O O13 0.253889 0.582345 0.654430
O O14 0.024372 0.639558 0.630830
O O15 0.015721 0.581530 0.787984
O O16 0.594430 0.198244 0.500000
O O17 0.584951 0.213222 0.719136
O O18 0.000000 0.500000 0.855478
O O19 0.945028 0.562536 0.000000
O O20 0.461416 0.571386 0.500000
#
# Coordination Sequence:
#
# PCOD9427107 Si02
#       8
#     8   8   8   8   8   8   8   8
#     4  10  20  36  55  80 113 151 197 248 303 361
#     4  11  23  37  56  80 116 159 203 256 311 371
#     4  10  22  42  68  97 127 164 210 260 320 387
#     4  11  22  38  61  87 127 160 207 254 321 375
#     4  10  21  36  58  82 112 153 199 249 303 366
#     4  10  21  40  67  96 127 166 214 263 313 381
#     4  11  20  38  54  79 112 149 201 247 308 364
#     4  11  23  39  62  93 128 164 209 263 317 377
#
# _framework density 19.731818000000001
#
# number of rings (size 3 to 8) (size 9 to 14) (size 15 to 20)
#    0.000    1.500    2.500    3.000    0.000    2.250 
#    0.000    0.625    0.000    2.625    0.000    0.000 
#    0.000    0.000    0.000    0.000    0.000    0.000 
#
# Total GULP energy -356405.076291 kJ/mol
# GULP energy per Si atom -5568.829317 kJ/mol
# Density = 1.968691 g / cm^3
# Si number density = 19.731818 Si / 1000 Ang^3
#
#
#
# Elastic Constant Matrix: (Units=GPa)
#
#
# Indices 1 2 3 4 5 6 
#
# 1 118.6852 11.6400 46.3712 0.0000 0.0000 0.0000
# 2 11.6400 33.5757 28.9535 0.0000 0.0000 0.0000
# 3 46.3712 28.9535 125.7470 0.0000 0.0000 0.0000
# 4 0.0000 0.0000 0.0000 -285.7056 0.0000 0.0000
# 5 0.0000 0.0000 0.0000 0.0000 41.4461 0.0000
# 6 0.0000 0.0000 0.0000 0.0000 0.0000 31.5544
#
#
#
# Elastic Compliance Matrix: (Units=1/GPa)
#
#
# Indices 1 2 3 4 5 6 
#
# 1 0.009847 -0.000352 -0.003550 0.000000 0.000000 0.000000
# 2 -0.000352 0.037175 -0.008430 0.000000 0.000000 0.000000
# 3 -0.003550 -0.008430 0.011203 0.000000 0.000000 0.000000
# 4 0.000000 0.000000 0.000000 -0.003500 0.000000 0.000000
# 5 0.000000 0.000000 0.000000 0.000000 0.024128 0.000000
# 6 0.000000 0.000000 0.000000 0.000000 0.000000 0.031691
#
#
# Mechanical properties :
#
#
# Convention : Reuss Voigt Hill
#
# Bulk Modulus (GPa) = 29.79716 50.21525 40.00620
# Shear Modulus (GPa) = 34.15422 -29.80480 2.17471
#
# Velocity S-wave (km/s) = 4.16495 -3.89072 1.05096
# Velocity P-wave (km/s) = 6.18570 2.30661 4.66816
#
# Compressibility (1/GPa) = 0.03356025
#
# Stress axis : x y z
#
# Youngs Moduli (GPa) = 101.55065 26.89997 89.26486
#
# Poissons Ratio (x) = 0.00948 0.31691
# Poissons Ratio (y) = 0.03578 0.75247
# Poissons Ratio (z) = 0.36053 0.22676
#
# Static dielectric constant tensor:
#      x y z
#    x 1.726950 0.000000 0.000000 
#    y 0.000000 1.643930 0.000000 
#    z 0.000000 0.000000 1.713920 
# 
# From -- ./inp_files/12607.got.cif
#   From: 2010.05.17/outbox.cif.g08.bks.cpg/sg55_7_cif.got.tgz:12607.got - 2010.06.03 13:27:54.
