data_PCOD9427669
_publ_section_title
;
Structure prediction by ZEFSAII (Michael W. Deem and Ramdas Pophale) SiO2 
 PCOD9427669
Probable space group: P B A M
;
_chemical_formula_sum "Si O2"
_cell_formula_units_Z 40
_cell_length_a 14.571186
_cell_length_b 9.021179
_cell_length_c 13.748567
_cell_angle_alpha 90.000000
_cell_angle_beta 90.000000
_cell_angle_gamma 90.000000
_cell_volume 1807.239194
_symmetry_space_group_name_H-M "P B A M"
_symmetry_group_IT_number 55
_symmetry_cell_setting 'orthorhombic'
loop_
_space_group_symop_operation_xyz
x,y,z
-x,-y,z
1/2+x,1/2-y,-z
1/2-x,1/2+y,-z
-x,-y,-z
x,y,-z
1/2-x,1/2+y,z
1/2+x,1/2-y,z
loop_
_atom_site_type_symbol
_atom_site_label
_atom_site_fract_x
_atom_site_fract_y
_atom_site_fract_z
Si Si1 0.155855 0.719515 0.221000
Si Si2 0.542989 0.247738 0.500000
Si Si3 0.807141 0.986502 0.296938
Si Si4 0.141211 0.929478 0.500000
Si Si5 0.607710 0.038493 0.895768
Si Si6 0.443894 0.774035 0.286701
O O1 0.224094 0.627222 0.289676
O O2 0.155539 0.618705 0.125073
O O3 0.051498 0.724752 0.260507
O O4 0.189084 0.887610 0.214797
O O5 0.597465 0.404607 0.500000
O O6 0.437611 0.304993 0.500000
O O7 0.564822 0.168701 0.397885
O O8 0.899860 0.889415 0.288720
O O9 0.804970 0.073410 0.399114
O O10 0.609042 0.137159 0.797806
O O11 0.500000 0.000000 0.902591
O O12 0.636292 0.104122 0.000000
#
# Coordination Sequence:
#
# PCOD9427669 Si02
#       6
#     8   4   8   4   8   8
#     4  11  22  38  60  87 125 170 214 271 320 381
#     4   9  16  33  61  94 123 170 210 252 325 381
#     4  11  22  37  58  92 128 170 223 263 326 389
#     4   9  18  33  56  87 128 174 208 262 313 382
#     4   9  20  41  65  89 121 162 206 264 328 382
#     4  10  20  39  66  92 127 170 215 269 325 387
#
# _framework density 22.133206999999999
#
# number of rings (size 3 to 8) (size 9 to 14) (size 15 to 20)
#    0.000    2.000    2.000    1.800    0.000    1.600 
#    0.000   13.500    0.000    4.800    0.000    0.000 
#    0.000    0.000    0.000    0.000    0.000    0.000 
#
# Total GULP energy -223103.645158 kJ/mol
# GULP energy per Si atom -5577.591129 kJ/mol
# Density = 2.208283 g / cm^3
# Si number density = 22.133207 Si / 1000 Ang^3
#
#
#
# Elastic Constant Matrix: (Units=GPa)
#
#
# Indices 1 2 3 4 5 6 
#
# 1 94.0436 22.9916 15.8982 0.0000 0.0000 0.0000
# 2 22.9916 96.4258 49.3038 0.0000 0.0000 0.0000
# 3 15.8982 49.3038 150.1128 0.0000 0.0000 0.0000
# 4 0.0000 0.0000 0.0000 2.1271 0.0000 0.0000
# 5 0.0000 0.0000 0.0000 0.0000 -0.9028 0.0000
# 6 0.0000 0.0000 0.0000 0.0000 0.0000 36.2035
#
#
#
# Elastic Compliance Matrix: (Units=1/GPa)
#
#
# Indices 1 2 3 4 5 6 
#
# 1 0.011309 -0.002505 -0.000375 0.000000 0.000000 0.000000
# 2 -0.002505 0.013019 -0.004011 0.000000 0.000000 0.000000
# 3 -0.000375 -0.004011 0.008019 0.000000 0.000000 0.000000
# 4 0.000000 0.000000 0.000000 0.470116 0.000000 0.000000
# 5 0.000000 0.000000 0.000000 0.000000 -1.107637 0.000000
# 6 0.000000 0.000000 0.000000 0.000000 0.000000 0.027622
#
#
# Mechanical properties :
#
#
# Convention : Reuss Voigt Hill
#
# Bulk Modulus (GPa) = 53.86335 57.44105 55.65220
# Shear Modulus (GPa) = -8.96726 24.31147 7.67211
#
# Velocity S-wave (km/s) = -2.01502 3.31783 1.86383
# Velocity P-wave (km/s) = 4.35604 6.37857 5.46174
#
# Compressibility (1/GPa) = 0.01856550
#
# Stress axis : x y z
#
# Youngs Moduli (GPa) = 88.42418 76.81331 124.70936
#
# Poissons Ratio (x) = 0.19240 0.04677
# Poissons Ratio (y) = 0.22148 0.50016
# Poissons Ratio (z) = 0.03316 0.30807
#
# Static dielectric constant tensor:
#      x y z
#    x 1.839990 0.000000 0.000000 
#    y 0.000000 1.819050 0.000000 
#    z 0.000000 0.000000 1.893390 
# 
# From -- ./inp_files/18771.got.cif
#   From: 2010.05.17/outbox.cif.g08.bks.cpg/sg55_10_cif.got.tgz:18771.got - 2010.06.03 13:27:54.
