data_PCOD9427135
_publ_section_title
;
Structure prediction by ZEFSAII (Michael W. Deem and Ramdas Pophale) SiO2 
 PCOD9427135
Probable space group: P B A M
;
_chemical_formula_sum "Si O2"
_cell_formula_units_Z 52
_cell_length_a 25.687641
_cell_length_b 7.292558
_cell_length_c 12.921748
_cell_angle_alpha 90.000000
_cell_angle_beta 90.000000
_cell_angle_gamma 90.000000
_cell_volume 2420.613116
_symmetry_space_group_name_H-M "P B A M"
_symmetry_group_IT_number 55
_symmetry_cell_setting 'orthorhombic'
loop_
_space_group_symop_operation_xyz
x,y,z
-x,-y,z
1/2+x,1/2-y,-z
1/2-x,1/2+y,-z
-x,-y,-z
x,y,-z
1/2-x,1/2+y,z
1/2+x,1/2-y,z
loop_
_atom_site_type_symbol
_atom_site_label
_atom_site_fract_x
_atom_site_fract_y
_atom_site_fract_z
Si Si1 0.323148 0.481527 0.385199
Si Si2 0.064366 0.520328 0.000000
Si Si3 0.000000 0.000000 0.327687
Si Si4 0.796853 0.448835 0.381510
Si Si5 0.549450 0.131852 0.391597
Si Si6 0.101157 0.925562 0.211746
Si Si7 0.877157 0.498501 0.211369
Si Si8 0.061842 0.960497 0.000000
O O1 0.341454 0.536896 0.500000
O O2 0.265330 0.556183 0.366965
O O3 0.317672 0.259896 0.386748
O O4 0.362821 0.529254 0.294030
O O5 0.096816 0.448547 0.899706
O O6 0.000000 0.500000 0.000000
O O7 0.067647 0.740947 0.000000
O O8 0.043754 0.902781 0.259035
O O9 0.970859 0.839126 0.386921
O O10 0.803892 0.526847 0.500000
O O11 0.824129 0.537846 0.279487
O O12 0.578312 0.099070 0.500000
O O13 0.500000 0.000000 0.392201
O O14 0.581526 0.072989 0.293330
O O15 0.124019 0.722692 0.199407
O O16 0.091019 0.023666 0.103335
O O17 0.000000 0.000000 0.000000
#
# Coordination Sequence:
#
# PCOD9427135 Si02
#       8
#     8   4   4   8   8   8   8   4
#     4   9  19  35  56  81 112 148 190 242 299 358
#     4  10  22  34  59  82 114 156 201 245 286 356
#     4  12  23  37  56  86 120 157 201 244 298 360
#     4   9  18  35  59  82 110 149 193 242 299 358
#     4  11  23  37  55  82 119 154 192 242 296 357
#     4  10  21  36  58  84 115 154 196 249 294 357
#     4  10  20  38  58  83 114 156 199 242 300 351
#     4  10  20  36  57  80 112 152 199 242 295 348
#
# _framework density 21.482158999999999
#
# number of rings (size 3 to 8) (size 9 to 14) (size 15 to 20)
#    0.000    2.000    2.308    1.154    2.154    3.077 
#    0.000    2.308    0.000    0.000    0.000    0.000 
#    0.000    0.000    0.000    0.000    0.000    0.000 
#
# Total GULP energy -289738.214398 kJ/mol
# GULP energy per Si atom -5571.888738 kJ/mol
# Density = 2.143326 g / cm^3
# Si number density = 21.482159 Si / 1000 Ang^3
#
#
#
# Elastic Constant Matrix: (Units=GPa)
#
#
# Indices 1 2 3 4 5 6 
#
# 1 116.5604 -8.2463 91.8645 0.0000 0.0000 0.0000
# 2 -8.2463 65.3566 4.5882 0.0000 0.0000 0.0000
# 3 91.8645 4.5882 235.5597 0.0000 0.0000 0.0000
# 4 0.0000 0.0000 0.0000 1603.7044 0.0000 0.0000
# 5 0.0000 0.0000 0.0000 0.0000 -46.8224 0.0000
# 6 0.0000 0.0000 0.0000 0.0000 0.0000 26.8601
#
#
#
# Elastic Compliance Matrix: (Units=1/GPa)
#
#
# Indices 1 2 3 4 5 6 
#
# 1 0.012628 0.001942 -0.004962 0.000000 0.000000 0.000000
# 2 0.001942 0.015620 -0.001061 0.000000 0.000000 0.000000
# 3 -0.004962 -0.001061 0.006201 0.000000 0.000000 0.000000
# 4 0.000000 0.000000 0.000000 0.000624 0.000000 0.000000
# 5 0.000000 0.000000 0.000000 0.000000 -0.021357 0.000000
# 6 0.000000 0.000000 0.000000 0.000000 0.000000 0.037230
#
#
# Mechanical properties :
#
#
# Convention : Reuss Voigt Hill
#
# Bulk Modulus (GPa) = 38.04521 65.98773 52.01647
# Shear Modulus (GPa) = 73.66906 338.69975 206.18440
#
# Velocity S-wave (km/s) = 5.86239 12.57012 9.80753
# Velocity P-wave (km/s) = 7.97321 15.53903 12.34976
#
# Compressibility (1/GPa) = 0.02628452
#
# Stress axis : x y z
#
# Youngs Moduli (GPa) = 79.19159 64.01975 161.26082
#
# Poissons Ratio (x) = -0.12430 0.80024
# Poissons Ratio (y) = -0.15376 0.17117
# Poissons Ratio (z) = 0.39298 0.06795
#
# Static dielectric constant tensor:
#      x y z
#    x 1.776610 0.000000 0.000000 
#    y 0.000000 1.872780 0.000000 
#    z 0.000000 0.000000 1.848770 
# 
# From -- ./inp_files/15986.got.cif
#   From: 2010.05.17/outbox.cif.g08.bks.cpg/sg55_8_cif.got.tgz:15986.got - 2010.06.03 13:27:54.
