data_PCOD9427792
_publ_section_title
;
Structure prediction by ZEFSAII (Michael W. Deem and Ramdas Pophale) SiO2 
 PCOD9427792
Probable space group: P B A M
;
_chemical_formula_sum "Si O2"
_cell_formula_units_Z 58
_cell_length_a 13.888275
_cell_length_b 25.343258
_cell_length_c 9.113105
_cell_angle_alpha 90.000000
_cell_angle_beta 90.000000
_cell_angle_gamma 90.000000
_cell_volume 3207.577263
_symmetry_space_group_name_H-M "P B A M"
_symmetry_group_IT_number 55
_symmetry_cell_setting 'orthorhombic'
loop_
_space_group_symop_operation_xyz
x,y,z
-x,-y,z
1/2+x,1/2-y,-z
1/2-x,1/2+y,-z
-x,-y,-z
x,y,-z
1/2-x,1/2+y,z
1/2+x,1/2-y,z
loop_
_atom_site_type_symbol
_atom_site_label
_atom_site_fract_x
_atom_site_fract_y
_atom_site_fract_z
Si Si1 0.000000 0.500000 0.000000
Si Si2 0.174170 0.947559 0.826740
Si Si3 0.272659 0.553386 0.324675
Si Si4 0.757061 0.669605 0.826927
Si Si5 0.909971 0.401990 0.162399
Si Si6 0.013062 0.092718 0.326261
Si Si7 0.069706 0.792159 0.326494
Si Si8 0.460355 0.816335 0.324793
O O1 0.964237 0.456897 0.874587
O O2 0.228627 0.891988 0.805199
O O3 0.066541 0.939351 0.764688
O O4 0.225486 0.994516 0.740867
O O5 0.172895 0.959279 0.000000
O O6 0.261342 0.552639 0.500000
O O7 0.187328 0.585659 0.249464
O O8 0.377986 0.577442 0.290315
O O9 0.666942 0.702460 0.765956
O O10 0.853616 0.682361 0.740566
O O11 0.770355 0.678019 0.000000
O O12 0.977808 0.362481 0.250397
O O13 0.887627 0.379243 0.000000
O O14 0.997601 0.081949 0.500000
O O15 0.991798 0.154561 0.300534
O O16 0.094121 0.791575 0.500000
O O17 0.010477 0.739764 0.292568
O O18 0.457632 0.823103 0.500000
#
# Coordination Sequence:
#
# PCOD9427792 Si02
#       8
#     2   8   8   8   8   8   8   8
#     4   8  24  44  62  76 114 160 190 244 286 344
#     4  10  21  35  55  82 117 155 197 238 285 343
#     4  11  22  35  56  87 118 151 192 240 293 347
#     4  10  22  38  59  85 115 152 195 240 286 343
#     4  10  23  41  60  81 113 150 191 235 289 343
#     4   9  19  37  57  81 115 152 190 236 287 341
#     4   9  20  40  61  83 114 151 191 235 285 339
#     4  11  23  39  62  90 117 150 193 241 292 348
#
# _framework density 18.082184000000002
#
# number of rings (size 3 to 8) (size 9 to 14) (size 15 to 20)
#    0.414    1.655    0.000    2.483    1.931    6.621 
#    0.000    3.448    0.000    0.000    0.000    0.000 
#    0.000    0.000    0.000    0.000    0.000    0.000 
#
# Total GULP energy -323264.158753 kJ/mol
# GULP energy per Si atom -5573.519979 kJ/mol
# Density = 1.804103 g / cm^3
# Si number density = 18.082184 Si / 1000 Ang^3
#
#
#
# Elastic Constant Matrix: (Units=GPa)
#
#
# Indices 1 2 3 4 5 6 
#
# 1 104.9391 49.9124 75.5179 0.0000 0.0000 0.0000
# 2 49.9124 59.4542 53.7340 0.0000 0.0000 0.0000
# 3 75.5179 53.7340 95.2678 0.0000 0.0000 0.0000
# 4 0.0000 0.0000 0.0000 26.9792 0.0000 0.0000
# 5 0.0000 0.0000 0.0000 0.0000 -69.5959 0.0000
# 6 0.0000 0.0000 0.0000 0.0000 0.0000 20.7590
#
#
#
# Elastic Compliance Matrix: (Units=1/GPa)
#
#
# Indices 1 2 3 4 5 6 
#
# 1 0.023127 -0.005807 -0.015058 0.000000 0.000000 0.000000
# 2 -0.005807 0.035767 -0.015571 0.000000 0.000000 0.000000
# 3 -0.015058 -0.015571 0.031215 0.000000 0.000000 0.000000
# 4 0.000000 0.000000 0.000000 0.037066 0.000000 0.000000
# 5 0.000000 0.000000 0.000000 0.000000 -0.014369 0.000000
# 6 0.000000 0.000000 0.000000 0.000000 0.000000 0.048172
#
#
# Mechanical properties :
#
#
# Convention : Reuss Voigt Hill
#
# Bulk Modulus (GPa) = 58.00698 68.66552 63.33625
# Shear Modulus (GPa) = 20.86855 0.99492 10.93173
#
# Velocity S-wave (km/s) = 3.40088 0.74257 2.46144
# Velocity P-wave (km/s) = 6.89714 6.22831 6.57124
#
# Compressibility (1/GPa) = 0.01723930
#
# Stress axis : x y z
#
# Youngs Moduli (GPa) = 43.23939 27.95848 32.03564
#
# Poissons Ratio (x) = 0.16234 0.48238
# Poissons Ratio (y) = 0.25107 0.49883
# Poissons Ratio (z) = 0.65108 0.43534
#
# Static dielectric constant tensor:
#      x y z
#    x 1.597370 0.000000 0.000000 
#    y 0.000000 1.606790 0.000000 
#    z 0.000000 0.000000 1.605730 
# 
# From -- ./inp_files/4357.got.cif
#   From: 2010.05.17/outbox.cif.g08.bks.cpg/sg55_3_cif.got.tgz:4357.got - 2010.06.03 13:27:54.
