data_PCOD9427783
_publ_section_title
;
Structure prediction by ZEFSAII (Michael W. Deem and Ramdas Pophale) SiO2 
 PCOD9427783
Probable space group: P B A M
;
_chemical_formula_sum "Si O2"
_cell_formula_units_Z 48
_cell_length_a 12.446480
_cell_length_b 22.960634
_cell_length_c 7.663795
_cell_angle_alpha 90.000000
_cell_angle_beta 90.000000
_cell_angle_gamma 90.000000
_cell_volume 2190.152222
_symmetry_space_group_name_H-M "P B A M"
_symmetry_group_IT_number 55
_symmetry_cell_setting 'orthorhombic'
loop_
_space_group_symop_operation_xyz
x,y,z
-x,-y,z
1/2+x,1/2-y,-z
1/2-x,1/2+y,-z
-x,-y,-z
x,y,-z
1/2-x,1/2+y,z
1/2+x,1/2-y,z
loop_
_atom_site_type_symbol
_atom_site_label
_atom_site_fract_x
_atom_site_fract_y
_atom_site_fract_z
Si Si1 0.167027 0.951134 0.287982
Si Si2 0.673679 0.151694 0.288782
Si Si3 0.486401 0.636793 0.288735
Si Si4 0.355365 0.259546 0.196849
Si Si5 0.934093 0.359963 0.302450
Si Si6 0.273095 0.580268 0.285387
O O1 0.165081 0.953247 0.500000
O O2 0.260453 0.905992 0.237015
O O3 0.056062 0.920062 0.235957
O O4 0.189914 0.016239 0.228513
O O5 0.672853 0.154472 0.500000
O O6 0.744352 0.206810 0.231475
O O7 0.551958 0.148416 0.223000
O O8 0.489231 0.640086 0.500000
O O9 0.550171 0.692948 0.223203
O O10 0.364313 0.626697 0.233241
O O11 0.378585 0.203191 0.310172
O O12 0.357096 0.238397 0.000000
O O13 0.953434 0.381551 0.500000
O O14 0.845086 0.402403 0.222700
O O15 0.271098 0.580652 0.500000
#
# Coordination Sequence:
#
# PCOD9427783 Si02
#       6
#     8   8   8   8   8   8
#     4   8  14  28  52  82 111 138 171 214 264 313
#     4   9  19  36  57  78 105 140 177 218 265 320
#     4   9  17  32  55  82 109 141 177 217 265 316
#     4  11  23  37  54  75 104 141 183 228 269 314
#     4  10  21  35  53  80 109 141 179 219 265 317
#     4   9  17  29  52  85 113 137 171 217 266 315
#
# _framework density 21.916285999999999
#
# number of rings (size 3 to 8) (size 9 to 14) (size 15 to 20)
#    0.000    2.667    0.000    3.000    2.333    3.333 
#    0.000    3.333    0.000   12.000    0.000    5.833 
#    0.000    0.000    0.000    0.000    0.000    0.000 
#
# Total GULP energy -267971.310701 kJ/mol
# GULP energy per Si atom -5582.735640 kJ/mol
# Density = 2.186640 g / cm^3
# Si number density = 21.916286 Si / 1000 Ang^3
#
#
#
# Elastic Constant Matrix: (Units=GPa)
#
#
# Indices 1 2 3 4 5 6 
#
# 1 119.2703 -6.6819 4.3138 0.0000 0.0000 0.0000
# 2 -6.6819 30.7090 -8.4963 0.0000 0.0000 0.0000
# 3 4.3138 -8.4963 52.7007 0.0000 0.0000 0.0000
# 4 0.0000 0.0000 0.0000 -100.9737 0.0000 0.0000
# 5 0.0000 0.0000 0.0000 0.0000 -5.8656 0.0000
# 6 0.0000 0.0000 0.0000 0.0000 0.0000 9.3437
#
#
#
# Elastic Compliance Matrix: (Units=1/GPa)
#
#
# Indices 1 2 3 4 5 6 
#
# 1 0.008496 0.001734 -0.000416 0.000000 0.000000 0.000000
# 2 0.001734 0.034438 0.005410 0.000000 0.000000 0.000000
# 3 -0.000416 0.005410 0.019881 0.000000 0.000000 0.000000
# 4 0.000000 0.000000 0.000000 -0.009904 0.000000 0.000000
# 5 0.000000 0.000000 0.000000 0.000000 -0.170486 0.000000
# 6 0.000000 0.000000 0.000000 0.000000 0.000000 0.107024
#
#
# Mechanical properties :
#
#
# Convention : Reuss Voigt Hill
#
# Bulk Modulus (GPa) = 13.11112 20.10567 16.60839
# Shear Modulus (GPa) = 3524.38732 -5.26282 1759.56225
#
# Velocity S-wave (km/s) = 40.14479 -1.55130 28.36545
# Velocity P-wave (km/s) = 46.41984 2.44643 32.86934
#
# Compressibility (1/GPa) = 0.07627115
#
# Stress axis : x y z
#
# Youngs Moduli (GPa) = 117.69567 29.03788 50.29840
#
# Poissons Ratio (x) = -0.05034 0.02092
# Poissons Ratio (y) = -0.20404 -0.27212
# Poissons Ratio (z) = 0.04896 -0.15710
#
# Static dielectric constant tensor:
#      x y z
#    x 1.807540 0.000000 0.000000 
#    y 0.000000 1.755600 0.000000 
#    z 0.000000 0.000000 1.828870 
# 
# From -- ./inp_files/4032.got.cif
#   From: 2010.05.17/outbox.cif.g08.bks.cpg/sg55_3_cif.got.tgz:4032.got - 2010.06.03 13:27:54.
