data_PCOD9427580
_publ_section_title
;
Structure prediction by ZEFSAII (Michael W. Deem and Ramdas Pophale) SiO2 
 PCOD9427580
Probable space group: P B A M
;
_chemical_formula_sum "Si O2"
_cell_formula_units_Z 38
_cell_length_a 5.481826
_cell_length_b 16.753636
_cell_length_c 17.678773
_cell_angle_alpha 90.000000
_cell_angle_beta 90.000000
_cell_angle_gamma 90.000000
_cell_volume 1623.627660
_symmetry_space_group_name_H-M "P B A M"
_symmetry_group_IT_number 55
_symmetry_cell_setting 'orthorhombic'
loop_
_space_group_symop_operation_xyz
x,y,z
-x,-y,z
1/2+x,1/2-y,-z
1/2-x,1/2+y,-z
-x,-y,-z
x,y,-z
1/2-x,1/2+y,z
1/2+x,1/2-y,z
loop_
_atom_site_type_symbol
_atom_site_label
_atom_site_fract_x
_atom_site_fract_y
_atom_site_fract_z
Si Si1 0.755840 0.703274 0.000000
Si Si2 0.500000 0.000000 0.500000
Si Si3 0.648727 0.426561 0.629625
Si Si4 0.872792 0.160397 0.167205
Si Si5 0.642108 0.719704 0.412636
Si Si6 0.126190 0.654232 0.774538
O O1 0.706666 0.662219 0.919886
O O2 0.537826 0.769404 0.000000
O O3 0.665519 0.955575 0.433905
O O4 0.500000 0.500000 0.663458
O O5 0.441040 0.371003 0.591382
O O6 0.781018 0.375289 0.693488
O O7 0.645202 0.121598 0.210820
O O8 0.894497 0.250650 0.204000
O O9 0.144783 0.126453 0.173998
O O10 0.668370 0.746282 0.500000
O O11 0.907851 0.734554 0.379200
#
# Coordination Sequence:
#
# PCOD9427580 Si02
#       6
#     4   2   8   8   8   8
#     4  12  16  32  60 104 152 185 213 288 350 430
#     4  12  30  52  68  94 128 186 252 294 366 446
#     4  12  29  46  71  95 139 187 241 304 365 436
#     4  10  20  38  63 105 140 178 231 279 355 416
#     4  10  24  42  66  95 123 161 218 287 359 418
#     4  10  22  37  61  95 136 179 222 289 342 416
#
# _framework density 23.404381000000001
#
# number of rings (size 3 to 8) (size 9 to 14) (size 15 to 20)
#    0.000    1.263    5.263    0.316   11.789    0.000 
#    0.000    0.000    0.000    0.000    0.000    8.105 
#    0.000    0.000    0.000    0.000    0.000    0.000 
#
# Total GULP energy -211643.589773 kJ/mol
# GULP energy per Si atom -5569.568152 kJ/mol
# Density = 2.335111 g / cm^3
# Si number density = 23.404381 Si / 1000 Ang^3
#
#
#
# Elastic Constant Matrix: (Units=GPa)
#
#
# Indices 1 2 3 4 5 6 
#
# 1 131.3672 30.8882 -3.5118 0.0000 0.0000 0.0000
# 2 30.8882 52.0814 18.1269 0.0000 0.0000 0.0000
# 3 -3.5118 18.1269 103.7261 0.0000 0.0000 0.0000
# 4 0.0000 0.0000 0.0000 9.8148 0.0000 0.0000
# 5 0.0000 0.0000 0.0000 0.0000 -9.5669 0.0000
# 6 0.0000 0.0000 0.0000 0.0000 0.0000 29.3012
#
#
#
# Elastic Compliance Matrix: (Units=1/GPa)
#
#
# Indices 1 2 3 4 5 6 
#
# 1 0.009012 -0.005804 0.001319 0.000000 0.000000 0.000000
# 2 -0.005804 0.024182 -0.004423 0.000000 0.000000 0.000000
# 3 0.001319 -0.004423 0.010458 0.000000 0.000000 0.000000
# 4 0.000000 0.000000 0.000000 0.101887 0.000000 0.000000
# 5 0.000000 0.000000 0.000000 0.000000 -0.104527 0.000000
# 6 0.000000 0.000000 0.000000 0.000000 0.000000 0.034128
#
#
# Mechanical properties :
#
#
# Convention : Reuss Voigt Hill
#
# Bulk Modulus (GPa) = 38.70222 42.02015 40.36118
# Shear Modulus (GPa) = 49.22786 22.02124 35.62455
#
# Velocity S-wave (km/s) = 4.59122 3.07074 3.90568
# Velocity P-wave (km/s) = 6.68415 5.52861 6.13366
#
# Compressibility (1/GPa) = 0.02583831
#
# Stress axis : x y z
#
# Youngs Moduli (GPa) = 110.96002 41.35252 95.61759
#
# Poissons Ratio (x) = 0.24002 -0.12616
# Poissons Ratio (y) = 0.64403 0.42287
# Poissons Ratio (z) = -0.14641 0.18288
#
# Static dielectric constant tensor:
#      x y z
#    x 1.947490 0.000000 0.000000 
#    y 0.000000 2.027480 0.000000 
#    z 0.000000 0.000000 1.863150 
# 
# From -- ./inp_files/20352.got.cif
#   From: 2010.05.17/outbox.cif.g08.bks.cpg/sg55_11_cif.got.tgz:20352.got - 2010.06.03 13:27:54.
