data_PCOD9427916
_publ_section_title
;
Structure prediction by ZEFSAII (Michael W. Deem and Ramdas Pophale) SiO2 
 PCOD9427916
Probable space group: P B A M
;
_chemical_formula_sum "Si O2"
_cell_formula_units_Z 48
_cell_length_a 13.665727
_cell_length_b 8.955479
_cell_length_c 17.372424
_cell_angle_alpha 90.000000
_cell_angle_beta 90.000000
_cell_angle_gamma 90.000000
_cell_volume 2126.091645
_symmetry_space_group_name_H-M "P B A M"
_symmetry_group_IT_number 55
_symmetry_cell_setting 'orthorhombic'
loop_
_space_group_symop_operation_xyz
x,y,z
-x,-y,z
1/2+x,1/2-y,-z
1/2-x,1/2+y,-z
-x,-y,-z
x,y,-z
1/2-x,1/2+y,z
1/2+x,1/2-y,z
loop_
_atom_site_type_symbol
_atom_site_label
_atom_site_fract_x
_atom_site_fract_y
_atom_site_fract_z
Si Si1 0.783217 0.507880 0.818443
Si Si2 0.113574 0.555947 0.500000
Si Si3 0.007457 0.824413 0.500000
Si Si4 0.114611 0.160482 0.351394
Si Si5 0.559281 0.842109 0.087077
Si Si6 0.894686 0.816974 0.174347
Si Si7 0.237452 0.436741 0.357874
O O1 0.851278 0.384481 0.858155
O O2 0.672049 0.462854 0.839364
O O3 0.823970 0.672098 0.838301
O O4 0.792120 0.501880 0.726206
O O5 0.171751 0.500690 0.425971
O O6 0.000000 0.500000 0.500000
O O7 0.107913 0.735379 0.500000
O O8 0.952825 0.783737 0.420164
O O9 0.000000 0.000000 0.500000
O O10 0.075238 0.178022 0.264879
O O11 0.212343 0.262437 0.354988
O O12 0.151330 0.992219 0.366830
O O13 0.488066 0.717084 0.122286
O O14 0.500000 0.000000 0.084620
O O15 0.589422 0.805803 0.000000
#
# Coordination Sequence:
#
# PCOD9427916 Si02
#       7
#     8   4   4   8   8   8   8
#     4   9  19  35  57  83 111 148 190 234 281 337
#     4  12  23  36  54  80 107 146 188 231 281 329
#     4  12  27  38  52  82 115 144 188 238 287 331
#     4  10  21  39  56  79 108 147 187 231 280 337
#     4   9  18  33  57  85 115 151 187 229 283 346
#     4   9  19  36  58  83 112 147 191 233 280 339
#     4  10  21  36  58  77 107 146 188 230 282 335
#
# _framework density 22.576637000000002
#
# number of rings (size 3 to 8) (size 9 to 14) (size 15 to 20)
#    0.000    2.167    1.667    0.500    4.667    1.333 
#    0.000    0.833    0.000    1.000    0.000    0.000 
#    0.000    0.000    0.000    0.000    0.000    0.000 
#
# Total GULP energy -267971.044004 kJ/mol
# GULP energy per Si atom -5582.730083 kJ/mol
# Density = 2.252525 g / cm^3
# Si number density = 22.576637 Si / 1000 Ang^3
#
#
#
# Elastic Constant Matrix: (Units=GPa)
#
#
# Indices 1 2 3 4 5 6 
#
# 1 40.4594 4.7275 34.2342 0.0000 0.0000 0.0000
# 2 4.7275 68.3069 8.7053 0.0000 0.0000 0.0000
# 3 34.2342 8.7053 66.6346 0.0000 0.0000 0.0000
# 4 0.0000 0.0000 0.0000 18.4541 0.0000 0.0000
# 5 0.0000 0.0000 0.0000 0.0000 -36.9508 0.0000
# 6 0.0000 0.0000 0.0000 0.0000 0.0000 42.9272
#
#
#
# Elastic Compliance Matrix: (Units=1/GPa)
#
#
# Indices 1 2 3 4 5 6 
#
# 1 0.043725 -0.000166 -0.022442 0.000000 0.000000 0.000000
# 2 -0.000166 0.014888 -0.001860 0.000000 0.000000 0.000000
# 3 -0.022442 -0.001860 0.026780 0.000000 0.000000 0.000000
# 4 0.000000 0.000000 0.000000 0.054189 0.000000 0.000000
# 5 0.000000 0.000000 0.000000 0.000000 -0.027063 0.000000
# 6 0.000000 0.000000 0.000000 0.000000 0.000000 0.023295
#
#
# Mechanical properties :
#
#
# Convention : Reuss Voigt Hill
#
# Bulk Modulus (GPa) = 27.42956 30.08165 28.75561
# Shear Modulus (GPa) = 25.39324 13.40169 19.39747
#
# Velocity S-wave (km/s) = 3.35738 2.43905 2.93436
# Velocity P-wave (km/s) = 5.21586 4.61358 4.92394
#
# Compressibility (1/GPa) = 0.03645702
#
# Stress axis : x y z
#
# Youngs Moduli (GPa) = 22.87027 67.16678 37.34107
#
# Poissons Ratio (x) = 0.01115 0.83802
# Poissons Ratio (y) = 0.00380 0.06944
# Poissons Ratio (z) = 0.51326 0.12491
#
# Static dielectric constant tensor:
#      x y z
#    x 1.839800 0.000000 0.000000 
#    y 0.000000 1.898080 0.000000 
#    z 0.000000 0.000000 1.789500 
# 
# From -- ./inp_files/19367.got.cif
#   From: 2010.05.17/outbox.cif.g08.bks.cpg/sg55_10_cif.got.tgz:19367.got - 2010.06.03 13:27:54.
