data_PCOD9427067
_publ_section_title
;
Structure prediction by ZEFSAII (Michael W. Deem and Ramdas Pophale) SiO2 
 PCOD9427067
Probable space group: P B A M
;
_chemical_formula_sum "Si O2"
_cell_formula_units_Z 56
_cell_length_a 13.108131
_cell_length_b 9.116610
_cell_length_c 21.948701
_cell_angle_alpha 90.000000
_cell_angle_beta 90.000000
_cell_angle_gamma 90.000000
_cell_volume 2622.907481
_symmetry_space_group_name_H-M "P B A M"
_symmetry_group_IT_number 55
_symmetry_cell_setting 'orthorhombic'
loop_
_space_group_symop_operation_xyz
x,y,z
-x,-y,z
1/2+x,1/2-y,-z
1/2-x,1/2+y,-z
-x,-y,-z
x,y,-z
1/2-x,1/2+y,z
1/2+x,1/2-y,z
loop_
_atom_site_type_symbol
_atom_site_label
_atom_site_fract_x
_atom_site_fract_y
_atom_site_fract_z
Si Si1 0.968469 0.836253 0.170610
Si Si2 0.645978 0.165497 0.570559
Si Si3 0.372668 0.313501 0.071564
Si Si4 0.048453 0.847588 0.430138
Si Si5 0.247575 0.074880 0.861799
Si Si6 0.200413 0.645275 0.631748
Si Si7 0.403987 0.095974 0.757218
O O1 0.845756 0.831123 0.168172
O O2 0.016147 0.808149 0.103320
O O3 0.034909 0.732408 0.213884
O O4 0.000000 0.000000 0.188373
O O5 0.681772 0.177164 0.500000
O O6 0.527623 0.208762 0.569323
O O7 0.689150 0.298533 0.612044
O O8 0.670332 0.004862 0.596944
O O9 0.310167 0.441607 0.105827
O O10 0.309911 0.168053 0.088694
O O11 0.379457 0.337576 0.000000
O O12 0.080261 0.875354 0.500000
O O13 0.139486 0.789261 0.390357
O O14 0.000000 0.000000 0.408672
O O15 0.331906 0.032939 0.811007
O O16 0.171573 0.626000 0.701715
O O17 0.500000 0.000000 0.735271
#
# Coordination Sequence:
#
# PCOD9427067 Si02
#       7
#     8   8   8   8   8   8   8
#     4   9  21  39  59  85 118 160 205 251 307 365
#     4  11  23  40  62  89 121 155 198 252 311 371
#     4  10  20  35  59  90 120 157 207 256 305 367
#     4  10  21  39  62  88 120 156 196 249 312 371
#     4  10  21  38  60  85 122 164 197 248 311 358
#     4  12  25  40  63  91 120 160 206 254 306 369
#     4  11  24  41  61  87 122 160 205 252 299 368
#
# _framework density 21.350352999999998
#
# number of rings (size 3 to 8) (size 9 to 14) (size 15 to 20)
#    0.000    1.571    0.000    4.714    0.000   11.714 
#    0.000    0.000    0.000    4.714    0.000    0.000 
#    0.000    0.000    0.000    0.000    0.000    0.000 
#
# Total GULP energy -312515.073049 kJ/mol
# GULP energy per Si atom -5580.626304 kJ/mol
# Density = 2.130176 g / cm^3
# Si number density = 21.350353 Si / 1000 Ang^3
#
#
#
# Elastic Constant Matrix: (Units=GPa)
#
#
# Indices 1 2 3 4 5 6 
#
# 1 59.1741 -15.6837 -0.7331 0.0000 0.0000 0.0000
# 2 -15.6837 54.8764 8.3242 0.0000 0.0000 0.0000
# 3 -0.7331 8.3242 100.8323 0.0000 0.0000 0.0000
# 4 0.0000 0.0000 0.0000 10.2105 0.0000 0.0000
# 5 0.0000 0.0000 0.0000 0.0000 14.9491 0.0000
# 6 0.0000 0.0000 0.0000 0.0000 0.0000 32.0594
#
#
#
# Elastic Compliance Matrix: (Units=1/GPa)
#
#
# Indices 1 2 3 4 5 6 
#
# 1 0.018293 0.005274 -0.000302 0.000000 0.000000 0.000000
# 2 0.005274 0.019974 -0.001611 0.000000 0.000000 0.000000
# 3 -0.000302 -0.001611 0.010048 0.000000 0.000000 0.000000
# 4 0.000000 0.000000 0.000000 0.097938 0.000000 0.000000
# 5 0.000000 0.000000 0.000000 0.000000 0.066894 0.000000
# 6 0.000000 0.000000 0.000000 0.000000 0.000000 0.031192
#
#
# Mechanical properties :
#
#
# Convention : Reuss Voigt Hill
#
# Bulk Modulus (GPa) = 18.16918 22.07750 20.12334
# Shear Modulus (GPa) = 19.53401 26.30883 22.92142
#
# Velocity S-wave (km/s) = 3.02806 3.51414 3.28012
# Velocity P-wave (km/s) = 4.55566 5.17963 4.87763
#
# Compressibility (1/GPa) = 0.05503827
#
# Stress axis : x y z
#
# Youngs Moduli (GPa) = 54.66447 50.06400 99.52006
#
# Poissons Ratio (x) = -0.26404 0.03009
# Poissons Ratio (y) = -0.28831 0.16029
# Poissons Ratio (z) = 0.01653 0.08063
#
# Static dielectric constant tensor:
#      x y z
#    x 1.878640 0.000000 0.000000 
#    y 0.000000 1.787460 0.000000 
#    z 0.000000 0.000000 1.757040 
# 
# From -- ./inp_files/22968.got.cif
#   From: 2010.05.17/outbox.cif.g08.bks.cpg/sg55_12_cif.got.tgz:22968.got - 2010.06.03 13:27:54.
