data_PCOD9427970
_publ_section_title
;
Structure prediction by ZEFSAII (Michael W. Deem and Ramdas Pophale) SiO2 
 PCOD9427970
Probable space group: P B A M
;
_chemical_formula_sum "Si O2"
_cell_formula_units_Z 40
_cell_length_a 26.135915
_cell_length_b 7.933422
_cell_length_c 8.036327
_cell_angle_alpha 90.000000
_cell_angle_beta 90.000000
_cell_angle_gamma 90.000000
_cell_volume 1666.310248
_symmetry_space_group_name_H-M "P B A M"
_symmetry_group_IT_number 55
_symmetry_cell_setting 'orthorhombic'
loop_
_space_group_symop_operation_xyz
x,y,z
-x,-y,z
1/2+x,1/2-y,-z
1/2-x,1/2+y,-z
-x,-y,-z
x,y,-z
1/2-x,1/2+y,z
1/2+x,1/2-y,z
loop_
_atom_site_type_symbol
_atom_site_label
_atom_site_fract_x
_atom_site_fract_y
_atom_site_fract_z
Si Si1 0.864543 0.264368 0.688044
Si Si2 0.083312 0.582083 0.000000
Si Si3 0.076306 0.093676 0.684697
Si Si4 0.768744 0.036625 0.308530
Si Si5 0.326447 0.776745 0.190892
Si Si6 0.978813 0.768325 0.000000
O O1 0.870359 0.331690 0.500000
O O2 0.806604 0.197067 0.709771
O O3 0.898428 0.091725 0.697654
O O4 0.883890 0.384597 0.833823
O O5 0.052910 0.407059 0.000000
O O6 0.038117 0.722081 0.000000
O O7 0.053999 0.113327 0.500000
O O8 0.123404 0.224559 0.708141
O O9 0.038608 0.134394 0.834810
O O10 0.773633 0.979213 0.500000
O O11 0.711076 0.086577 0.269521
O O12 0.792016 0.892957 0.194216
O O13 0.338938 0.814773 0.000000
#
# Coordination Sequence:
#
# PCOD9427970 Si02
#       6
#     8   4   8   8   8   4
#     4   9  21  40  64  90 115 156 202 244 294 349
#     4  11  25  41  64  83 126 151 190 251 302 361
#     4  10  21  41  65  88 120 156 200 249 293 349
#     4  10  21  37  56  84 121 158 196 238 287 340
#     4  11  21  35  58  88 120 157 199 239 287 342
#     4  11  25  43  58  93 116 157 194 239 310 365
#
# _framework density 24.005133000000001
#
# number of rings (size 3 to 8) (size 9 to 14) (size 15 to 20)
#    0.000    1.800    1.000    4.200    5.600    4.800 
#    0.000    6.000    0.000    0.000    0.000    0.000 
#    0.000    0.000    0.000    0.000    0.000    0.000 
#
# Total GULP energy -224206.634123 kJ/mol
# GULP energy per Si atom -5605.165853 kJ/mol
# Density = 2.395050 g / cm^3
# Si number density = 24.005133 Si / 1000 Ang^3
#
#
#
# Elastic Constant Matrix: (Units=GPa)
#
#
# Indices 1 2 3 4 5 6 
#
# 1 118.1344 17.7042 54.9809 0.0000 0.0000 0.0000
# 2 17.7042 78.0399 47.6276 0.0000 0.0000 0.0000
# 3 54.9809 47.6276 193.6158 0.0000 0.0000 0.0000
# 4 0.0000 0.0000 0.0000 26.1102 0.0000 0.0000
# 5 0.0000 0.0000 0.0000 0.0000 -52.5660 0.0000
# 6 0.0000 0.0000 0.0000 0.0000 0.0000 48.8858
#
#
#
# Elastic Compliance Matrix: (Units=1/GPa)
#
#
# Indices 1 2 3 4 5 6 
#
# 1 0.009779 -0.000616 -0.002625 0.000000 0.000000 0.000000
# 2 -0.000616 0.015116 -0.003543 0.000000 0.000000 0.000000
# 3 -0.002625 -0.003543 0.006782 0.000000 0.000000 0.000000
# 4 0.000000 0.000000 0.000000 0.038299 0.000000 0.000000
# 5 0.000000 0.000000 0.000000 0.000000 -0.019024 0.000000
# 6 0.000000 0.000000 0.000000 0.000000 0.000000 0.020456
#
#
# Mechanical properties :
#
#
# Convention : Reuss Voigt Hill
#
# Bulk Modulus (GPa) = 55.22619 70.04615 62.63617
# Shear Modulus (GPa) = 54.93601 22.45116 38.69359
#
# Velocity S-wave (km/s) = 4.78903 3.06153 4.01919
# Velocity P-wave (km/s) = 7.32364 6.46067 6.90565
#
# Compressibility (1/GPa) = 0.01810735
#
# Stress axis : x y z
#
# Youngs Moduli (GPa) = 102.25815 66.15357 147.44780
#
# Poissons Ratio (x) = 0.04077 0.38711
# Poissons Ratio (y) = 0.06302 0.52248
# Poissons Ratio (z) = 0.26847 0.23441
#
# Static dielectric constant tensor:
#      x y z
#    x 1.891800 0.000000 0.000000 
#    y 0.000000 1.963560 0.000000 
#    z 0.000000 0.000000 1.830620 
# 
# From -- ./inp_files/2545.got.cif
#   From: 2010.05.17/outbox.cif.g08.bks.cpg/sg55_2_cif.got.tgz:2545.got - 2010.06.03 13:27:54.
