data_PCOD9427564
_publ_section_title
;
Structure prediction by ZEFSAII (Michael W. Deem and Ramdas Pophale) SiO2 
 PCOD9427564
Probable space group: P B A M
;
_chemical_formula_sum "Si O2"
_cell_formula_units_Z 48
_cell_length_a 27.035866
_cell_length_b 8.967065
_cell_length_c 10.193789
_cell_angle_alpha 90.000000
_cell_angle_beta 90.000000
_cell_angle_gamma 90.000000
_cell_volume 2471.304404
_symmetry_space_group_name_H-M "P B A M"
_symmetry_group_IT_number 55
_symmetry_cell_setting 'orthorhombic'
loop_
_space_group_symop_operation_xyz
x,y,z
-x,-y,z
1/2+x,1/2-y,-z
1/2-x,1/2+y,-z
-x,-y,-z
x,y,-z
1/2-x,1/2+y,z
1/2+x,1/2-y,z
loop_
_atom_site_type_symbol
_atom_site_label
_atom_site_fract_x
_atom_site_fract_y
_atom_site_fract_z
Si Si1 0.451191 0.336146 0.855228
Si Si2 0.623326 0.930845 0.850216
Si Si3 0.580038 0.427218 0.349644
Si Si4 0.465226 0.867748 0.746769
Si Si5 0.191059 0.124328 0.342244
Si Si6 0.707677 0.028804 0.658363
O O1 0.403808 0.228236 0.841603
O O2 0.448432 0.459124 0.743348
O O3 0.498041 0.226405 0.839521
O O4 0.450969 0.404039 0.000000
O O5 0.580302 0.051362 0.818390
O O6 0.666028 0.945667 0.742495
O O7 0.640901 0.952605 0.000000
O O8 0.578934 0.479585 0.500000
O O9 0.557949 0.260059 0.344576
O O10 0.636474 0.420420 0.297381
O O11 0.500000 0.000000 0.688044
O O12 0.188710 0.113309 0.500000
O O13 0.201483 0.296594 0.312447
O O14 0.237754 0.025788 0.301892
O O15 0.701564 0.005991 0.500000
#
# Coordination Sequence:
#
# PCOD9427564 Si02
#       6
#     8   8   8   8   8   8
#     4  10  23  40  60  87 121 161 203 241 293 360
#     4  10  21  39  62  89 120 155 201 251 294 346
#     4  11  23  40  60  90 124 154 197 251 299 349
#     4  10  21  39  63  87 117 160 202 244 297 358
#     4   9  20  37  60  87 116 152 195 239 291 357
#     4  10  20  38  62  87 117 156 198 242 295 358
#
# _framework density 19.422941999999999
#
# number of rings (size 3 to 8) (size 9 to 14) (size 15 to 20)
#    0.000    2.000    1.667    1.000    2.333    6.333 
#    0.000    5.000    0.000    0.000    0.000    0.000 
#    0.000    0.000    0.000    0.000    0.000    0.000 
#
# Total GULP energy -267808.581452 kJ/mol
# GULP energy per Si atom -5579.345447 kJ/mol
# Density = 1.937873 g / cm^3
# Si number density = 19.422942 Si / 1000 Ang^3
#
#
#
# Elastic Constant Matrix: (Units=GPa)
#
#
# Indices 1 2 3 4 5 6 
#
# 1 124.5498 41.3065 40.1143 0.0000 0.0000 0.0000
# 2 41.3065 84.6828 45.2933 0.0000 0.0000 0.0000
# 3 40.1143 45.2933 86.6137 0.0000 0.0000 0.0000
# 4 0.0000 0.0000 0.0000 18.9125 0.0000 0.0000
# 5 0.0000 0.0000 0.0000 0.0000 -31.7245 0.0000
# 6 0.0000 0.0000 0.0000 0.0000 0.0000 35.7337
#
#
#
# Elastic Compliance Matrix: (Units=1/GPa)
#
#
# Indices 1 2 3 4 5 6 
#
# 1 0.010081 -0.003360 -0.002912 0.000000 0.000000 0.000000
# 2 -0.003360 0.017514 -0.007603 0.000000 0.000000 0.000000
# 3 -0.002912 -0.007603 0.016870 0.000000 0.000000 0.000000
# 4 0.000000 0.000000 0.000000 0.052875 0.000000 0.000000
# 5 0.000000 0.000000 0.000000 0.000000 -0.031521 0.000000
# 6 0.000000 0.000000 0.000000 0.000000 0.000000 0.027985
#
#
# Mechanical properties :
#
#
# Convention : Reuss Voigt Hill
#
# Bulk Modulus (GPa) = 59.82271 61.03050 60.42661
# Shear Modulus (GPa) = 39.33167 15.85982 27.59574
#
# Velocity S-wave (km/s) = 4.50489 2.86064 3.77341
# Velocity P-wave (km/s) = 7.61089 6.51161 7.08261
#
# Compressibility (1/GPa) = 0.01671606
#
# Stress axis : x y z
#
# Youngs Moduli (GPa) = 99.19582 57.09745 59.27756
#
# Poissons Ratio (x) = 0.19184 0.17261
# Poissons Ratio (y) = 0.33328 0.45066
# Poissons Ratio (z) = 0.28886 0.43409
#
# Static dielectric constant tensor:
#      x y z
#    x 1.703800 0.000000 0.000000 
#    y 0.000000 1.680500 0.000000 
#    z 0.000000 0.000000 1.653940 
# 
# From -- ./inp_files/10540.got.cif
#   From: 2010.05.17/outbox.cif.g08.bks.cpg/sg55_6_cif.got.tgz:10540.got - 2010.06.03 13:27:54.
