data_PCOD9427269
_publ_section_title
;
Structure prediction by ZEFSAII (Michael W. Deem and Ramdas Pophale) SiO2 
 PCOD9427269
Probable space group: P B A M
;
_chemical_formula_sum "Si O2"
_cell_formula_units_Z 58
_cell_length_a 12.722351
_cell_length_b 24.854484
_cell_length_c 9.544795
_cell_angle_alpha 90.000000
_cell_angle_beta 90.000000
_cell_angle_gamma 90.000000
_cell_volume 3018.135473
_symmetry_space_group_name_H-M "P B A M"
_symmetry_group_IT_number 55
_symmetry_cell_setting 'orthorhombic'
loop_
_space_group_symop_operation_xyz
x,y,z
-x,-y,z
1/2+x,1/2-y,-z
1/2-x,1/2+y,-z
-x,-y,-z
x,y,-z
1/2-x,1/2+y,z
1/2+x,1/2-y,z
loop_
_atom_site_type_symbol
_atom_site_label
_atom_site_fract_x
_atom_site_fract_y
_atom_site_fract_z
Si Si1 0.000000 0.000000 0.000000
Si Si2 0.899834 0.534901 0.832175
Si Si3 0.857898 0.893041 0.661270
Si Si4 0.583646 0.628222 0.662207
Si Si5 0.738051 0.208288 0.665224
Si Si6 0.163371 0.986974 0.741871
Si Si7 0.450554 0.839521 0.167528
Si Si8 0.335585 0.173136 0.335047
O O1 0.908931 0.008995 0.120898
O O2 0.787792 0.517529 0.770612
O O3 0.919593 0.598048 0.805602
O O4 0.000000 0.500000 0.781714
O O5 0.893138 0.527551 0.000000
O O6 0.857067 0.874570 0.500000
O O7 0.750376 0.869551 0.720869
O O8 0.966923 0.872189 0.727602
O O9 0.857933 0.957238 0.663659
O O10 0.572082 0.644350 0.500000
O O11 0.670072 0.668667 0.721039
O O12 0.626948 0.567728 0.667941
O O13 0.716492 0.195846 0.500000
O O14 0.635894 0.197574 0.757465
O O15 0.780497 0.268742 0.671675
O O16 0.561547 0.828826 0.240892
O O17 0.454039 0.831414 0.000000
O O18 0.361680 0.162504 0.500000
#
# Coordination Sequence:
#
# PCOD9427269 Si02
#       8
#     2   8   8   8   8   8   8   8
#     4  12  24  32  56  88 120 168 200 244 304 370
#     4  10  21  36  56  81 117 166 203 237 289 361
#     4  10  21  37  59  88 119 154 195 249 305 351
#     4  10  20  36  60  88 115 151 196 248 305 355
#     4  10  22  40  66  90 116 158 205 252 300 359
#     4  12  20  37  56  85 123 153 198 247 298 367
#     4  11  23  41  63  90 124 161 201 250 304 362
#     4  10  23  42  65  90 121 159 206 256 300 361
#
# _framework density 19.217161999999998
#
# number of rings (size 3 to 8) (size 9 to 14) (size 15 to 20)
#    0.000    1.517    3.448    1.655    1.931    1.655 
#    1.241    0.000    3.034    3.310    0.000    0.000 
#    0.000    0.000    0.000    0.000    0.000    0.000 
#
# Total GULP energy -323098.564419 kJ/mol
# GULP energy per Si atom -5570.664904 kJ/mol
# Density = 1.917342 g / cm^3
# Si number density = 19.217162 Si / 1000 Ang^3
#
#
#
# Elastic Constant Matrix: (Units=GPa)
#
#
# Indices 1 2 3 4 5 6 
#
# 1 139.2296 6.6463 40.5561 0.0000 0.0000 0.0000
# 2 6.6463 39.8208 8.7376 0.0000 0.0000 0.0000
# 3 40.5561 8.7376 53.7257 0.0000 0.0000 0.0000
# 4 0.0000 0.0000 0.0000 4.1370 0.0000 0.0000
# 5 0.0000 0.0000 0.0000 0.0000 25.9887 0.0000
# 6 0.0000 0.0000 0.0000 0.0000 0.0000 16.5505
#
#
#
# Elastic Compliance Matrix: (Units=1/GPa)
#
#
# Indices 1 2 3 4 5 6 
#
# 1 0.009207 -0.000012 -0.006948 0.000000 0.000000 0.000000
# 2 -0.000012 0.026042 -0.004226 0.000000 0.000000 0.000000
# 3 -0.006948 -0.004226 0.024545 0.000000 0.000000 0.000000
# 4 0.000000 0.000000 0.000000 0.241722 0.000000 0.000000
# 5 0.000000 0.000000 0.000000 0.000000 0.038478 0.000000
# 6 0.000000 0.000000 0.000000 0.000000 0.000000 0.060421
#
#
# Mechanical properties :
#
#
# Convention : Reuss Voigt Hill
#
# Bulk Modulus (GPa) = 26.72269 38.29514 32.50892
# Shear Modulus (GPa) = 11.48733 21.12431 16.30582
#
# Velocity S-wave (km/s) = 2.44757 3.31908 2.91607
# Velocity P-wave (km/s) = 4.68223 5.88721 5.31895
#
# Compressibility (1/GPa) = 0.03742138
#
# Stress axis : x y z
#
# Youngs Moduli (GPa) = 108.61480 38.39972 40.74102
#
# Poissons Ratio (x) = 0.00047 0.28307
# Poissons Ratio (y) = 0.00132 0.17218
# Poissons Ratio (z) = 0.75466 0.16228
#
# Static dielectric constant tensor:
#      x y z
#    x 1.695700 0.000000 0.000000 
#    y 0.000000 1.660230 0.000000 
#    z 0.000000 0.000000 1.657770 
# 
# From -- ./inp_files/4343.got.cif
#   From: 2010.05.17/outbox.cif.g08.bks.cpg/sg55_3_cif.got.tgz:4343.got - 2010.06.03 13:27:54.
