data_PCOD9427396
_publ_section_title
;
Structure prediction by ZEFSAII (Michael W. Deem and Ramdas Pophale) SiO2 
 PCOD9427396
Probable space group: P B A M
;
_chemical_formula_sum "Si O2"
_cell_formula_units_Z 60
_cell_length_a 23.518489
_cell_length_b 5.349407
_cell_length_c 24.842528
_cell_angle_alpha 90.000000
_cell_angle_beta 90.000000
_cell_angle_gamma 90.000000
_cell_volume 3125.437695
_symmetry_space_group_name_H-M "P B A M"
_symmetry_group_IT_number 55
_symmetry_cell_setting 'orthorhombic'
loop_
_space_group_symop_operation_xyz
x,y,z
-x,-y,z
1/2+x,1/2-y,-z
1/2-x,1/2+y,-z
-x,-y,-z
x,y,-z
1/2-x,1/2+y,z
1/2+x,1/2-y,z
loop_
_atom_site_type_symbol
_atom_site_label
_atom_site_fract_x
_atom_site_fract_y
_atom_site_fract_z
Si Si1 0.622130 0.766566 0.942305
Si Si2 0.000000 0.000000 0.243592
Si Si3 0.555101 0.875555 0.840195
Si Si4 0.885207 0.752571 0.760412
Si Si5 0.803857 0.770959 0.058839
Si Si6 0.780025 0.878685 0.819273
Si Si7 0.210406 0.408300 0.321273
Si Si8 0.788294 0.586954 0.557662
O O1 0.586711 0.745314 0.888406
O O2 0.655440 0.508558 0.945946
O O3 0.662265 0.010765 0.935711
O O4 0.591757 0.802602 0.000000
O O5 0.029329 0.798670 0.205335
O O6 0.942546 0.868072 0.266920
O O7 0.500000 0.000000 0.866513
O O8 0.593763 0.070393 0.807978
O O9 0.842039 0.932565 0.793971
O O10 0.844101 0.621062 0.717313
O O11 0.775699 0.838887 0.116045
O O12 0.773216 0.753962 0.000000
O O13 0.758929 0.606528 0.800589
O O14 0.248351 0.662133 0.315023
O O15 0.185902 0.408743 0.382686
O O16 0.820818 0.590474 0.500000
O O17 0.751205 0.333519 0.556867
#
# Coordination Sequence:
#
# PCOD9427396 Si02
#       8
#     8   4   8   8   8   8   8   8
#     4  10  20  37  60  80 103 134 170 224 279 334
#     4  10  24  40  63  78 107 154 194 236 290 330
#     4  10  22  38  57  81 101 140 182 232 284 337
#     4  11  23  39  58  81 116 147 193 236 281 346
#     4  10  21  38  57  77 105 139 174 211 263 336
#     4  12  25  37  59  86 109 144 178 223 283 337
#     4  10  21  35  56  88 123 158 191 238 288 333
#     4   8  14  27  48  77 116 157 193 227 275 335
#
# _framework density 19.197310999999999
#
# number of rings (size 3 to 8) (size 9 to 14) (size 15 to 20)
#    0.000    1.867    1.333    2.400    5.600    0.800 
#    0.000    0.333    0.000    0.000    0.000    0.467 
#    0.000    4.800    0.000    0.133    0.000    0.000 
#
# Total GULP energy -334068.209374 kJ/mol
# GULP energy per Si atom -5567.803490 kJ/mol
# Density = 1.915362 g / cm^3
# Si number density = 19.197311 Si / 1000 Ang^3
#
#
#
# Elastic Constant Matrix: (Units=GPa)
#
#
# Indices 1 2 3 4 5 6 
#
# 1 77.8357 13.9162 29.2449 0.0000 0.0000 0.0000
# 2 13.9162 56.7572 -19.3073 0.0000 0.0000 0.0000
# 3 29.2449 -19.3073 92.6751 0.0000 0.0000 0.0000
# 4 0.0000 0.0000 0.0000 18.4504 0.0000 0.0000
# 5 0.0000 0.0000 0.0000 0.0000 7.0112 0.0000
# 6 0.0000 0.0000 0.0000 0.0000 0.0000 19.4777
#
#
#
# Elastic Compliance Matrix: (Units=1/GPa)
#
#
# Indices 1 2 3 4 5 6 
#
# 1 0.016389 -0.006219 -0.006467 0.000000 0.000000 0.000000
# 2 -0.006219 0.021322 0.006404 0.000000 0.000000 0.000000
# 3 -0.006467 0.006404 0.014166 0.000000 0.000000 0.000000
# 4 0.000000 0.000000 0.000000 0.054199 0.000000 0.000000
# 5 0.000000 0.000000 0.000000 0.000000 0.142630 0.000000
# 6 0.000000 0.000000 0.000000 0.000000 0.000000 0.051341
#
#
# Mechanical properties :
#
#
# Convention : Reuss Voigt Hill
#
# Bulk Modulus (GPa) = 25.43609 30.55283 27.99446
# Shear Modulus (GPa) = 15.35087 22.54881 18.94984
#
# Velocity S-wave (km/s) = 2.83085 3.43093 3.14524
# Velocity P-wave (km/s) = 4.89526 5.62537 5.27297
#
# Compressibility (1/GPa) = 0.03931421
#
# Stress axis : x y z
#
# Youngs Moduli (GPa) = 61.01527 46.89942 70.59392
#
# Poissons Ratio (x) = 0.29164 0.45656
# Poissons Ratio (y) = 0.37942 -0.45212
# Poissons Ratio (z) = 0.39461 -0.30037
#
# Static dielectric constant tensor:
#      x y z
#    x 1.464230 0.000000 0.000000 
#    y 0.000000 1.454120 0.000000 
#    z 0.000000 0.000000 1.733520 
# 
# From -- ./inp_files/23702.got.cif
#   From: 2010.05.17/outbox.cif.g08.bks.cpg/sg55_12_cif.got.tgz:23702.got - 2010.06.03 13:27:54.
