data_PCOD9427627
_publ_section_title
;
Structure prediction by ZEFSAII (Michael W. Deem and Ramdas Pophale) SiO2 
 PCOD9427627
Probable space group: P B A M
;
_chemical_formula_sum "Si O2"
_cell_formula_units_Z 40
_cell_length_a 14.584236
_cell_length_b 8.494324
_cell_length_c 13.709016
_cell_angle_alpha 90.000000
_cell_angle_beta 90.000000
_cell_angle_gamma 90.000000
_cell_volume 1698.317126
_symmetry_space_group_name_H-M "P B A M"
_symmetry_group_IT_number 55
_symmetry_cell_setting 'orthorhombic'
loop_
_space_group_symop_operation_xyz
x,y,z
-x,-y,z
1/2+x,1/2-y,-z
1/2-x,1/2+y,-z
-x,-y,-z
x,y,-z
1/2-x,1/2+y,z
1/2+x,1/2-y,z
loop_
_atom_site_type_symbol
_atom_site_label
_atom_site_fract_x
_atom_site_fract_y
_atom_site_fract_z
Si Si1 0.452140 0.156696 0.176998
Si Si2 0.375456 0.658049 0.804827
Si Si3 0.781765 0.154301 0.887362
Si Si4 0.876829 0.340866 0.390041
Si Si5 0.824308 0.973833 0.607583
O O1 0.524263 0.296933 0.160111
O O2 0.356011 0.207785 0.131433
O O3 0.436463 0.135749 0.293465
O O4 0.500000 0.000000 0.137839
O O5 0.307105 0.803511 0.824108
O O6 0.329972 0.507299 0.855949
O O7 0.377377 0.617694 0.691030
O O8 0.755782 0.149535 0.000000
O O9 0.914652 0.367539 0.500000
O O10 0.783956 0.442836 0.380408
O O11 0.845485 0.158193 0.385542
O O12 0.850598 0.917017 0.500000
#
# Coordination Sequence:
#
# PCOD9427627 Si02
#       5
#     8   8   8   8   8
#     4  12  27  43  69 102 139 182 227 284 343 414
#     4  12  24  45  72 102 137 181 227 280 355 411
#     4  12  27  48  73 100 134 178 232 293 350 408
#     4  10  22  41  66 103 141 183 230 277 339 411
#     4  10  20  38  69  99 135 180 225 272 333 409
#
# _framework density 23.552727000000001
#
# number of rings (size 3 to 8) (size 9 to 14) (size 15 to 20)
#    0.000    0.800    4.000    2.400    2.800    4.000 
#    0.000    2.000    0.000    0.000    0.000    0.000 
#    0.000    0.000    0.000    0.000    0.000    0.000 
#
# Total GULP energy -224116.397864 kJ/mol
# GULP energy per Si atom -5602.909947 kJ/mol
# Density = 2.349912 g / cm^3
# Si number density = 23.552727 Si / 1000 Ang^3
#
#
#
# Elastic Constant Matrix: (Units=GPa)
#
#
# Indices 1 2 3 4 5 6 
#
# 1 53.9914 0.5943 -14.6636 0.0000 0.0000 0.0000
# 2 0.5943 53.5071 16.3055 0.0000 0.0000 0.0000
# 3 -14.6636 16.3055 76.3428 0.0000 0.0000 0.0000
# 4 0.0000 0.0000 0.0000 -10.7072 0.0000 0.0000
# 5 0.0000 0.0000 0.0000 0.0000 -21.9949 0.0000
# 6 0.0000 0.0000 0.0000 0.0000 0.0000 41.4988
#
#
#
# Elastic Compliance Matrix: (Units=1/GPa)
#
#
# Indices 1 2 3 4 5 6 
#
# 1 0.019647 -0.001463 0.004086 0.000000 0.000000 0.000000
# 2 -0.001463 0.020099 -0.004574 0.000000 0.000000 0.000000
# 3 0.004086 -0.004574 0.014861 0.000000 0.000000 0.000000
# 4 0.000000 0.000000 0.000000 -0.093395 0.000000 0.000000
# 5 0.000000 0.000000 0.000000 0.000000 -0.045465 0.000000
# 6 0.000000 0.000000 0.000000 0.000000 0.000000 0.024097
#
#
# Mechanical properties :
#
#
# Convention : Reuss Voigt Hill
#
# Bulk Modulus (GPa) = 19.72188 20.92374 20.32281
# Shear Modulus (GPa) = -127.05814 13.86634 -56.59590
#
# Velocity S-wave (km/s) = -7.35278 2.42902 -4.90730
# Velocity P-wave (km/s) = 7.98078 4.09511 4.84370
#
# Compressibility (1/GPa) = 0.05070511
#
# Stress axis : x y z
#
# Youngs Moduli (GPa) = 50.89733 49.75320 67.29198
#
# Poissons Ratio (x) = 0.07281 -0.27498
# Poissons Ratio (y) = 0.07449 0.30779
# Poissons Ratio (z) = -0.20798 0.22757
#
# Static dielectric constant tensor:
#      x y z
#    x 1.829870 0.000000 0.000000 
#    y 0.000000 1.898320 0.000000 
#    z 0.000000 0.000000 1.873790 
# 
# From -- ./inp_files/17038.got.cif
#   From: 2010.05.17/outbox.cif.g08.bks.cpg/sg55_9_cif.got.tgz:17038.got - 2010.06.03 13:27:54.
