data_PCOD9427743
_publ_section_title
;
Structure prediction by ZEFSAII (Michael W. Deem and Ramdas Pophale) SiO2 
 PCOD9427743
Probable space group: P B A M
;
_chemical_formula_sum "Si O2"
_cell_formula_units_Z 64
_cell_length_a 10.212544
_cell_length_b 28.118125
_cell_length_c 14.199273
_cell_angle_alpha 90.000000
_cell_angle_beta 90.000000
_cell_angle_gamma 90.000000
_cell_volume 4077.428997
_symmetry_space_group_name_H-M "P B A M"
_symmetry_group_IT_number 55
_symmetry_cell_setting 'orthorhombic'
loop_
_space_group_symop_operation_xyz
x,y,z
-x,-y,z
1/2+x,1/2-y,-z
1/2-x,1/2+y,-z
-x,-y,-z
x,y,-z
1/2-x,1/2+y,z
1/2+x,1/2-y,z
loop_
_atom_site_type_symbol
_atom_site_label
_atom_site_fract_x
_atom_site_fract_y
_atom_site_fract_z
Si Si1 0.396720 0.961233 0.885889
Si Si2 0.986574 0.644033 0.886560
Si Si3 0.579757 0.693997 0.608987
Si Si4 0.599517 0.542620 0.113239
Si Si5 0.535249 0.644081 0.201286
Si Si6 0.291915 0.726896 0.391621
Si Si7 0.248375 0.786343 0.112500
Si Si8 0.747035 0.818095 0.796526
O O1 0.432668 0.907574 0.857836
O O2 0.247252 0.972070 0.861010
O O3 0.500000 0.000000 0.850550
O O4 0.402962 0.961903 0.000000
O O5 0.879932 0.684428 0.863383
O O6 0.123685 0.654927 0.838375
O O7 0.002562 0.644262 0.000000
O O8 0.578683 0.677754 0.500000
O O9 0.564591 0.653899 0.688279
O O10 0.711510 0.724543 0.624639
O O11 0.449832 0.727494 0.621220
O O12 0.500000 0.500000 0.133719
O O13 0.566005 0.591396 0.165960
O O14 0.595732 0.551735 0.000000
O O15 0.626860 0.681857 0.146832
O O16 0.384166 0.656562 0.182014
O O17 0.267204 0.713413 0.500000
O O18 0.239781 0.689500 0.315697
O O19 0.248867 0.734903 0.159844
O O20 0.242136 0.780941 0.000000
#
# Coordination Sequence:
#
# PCOD9427743 Si02
#       8
#     8   8   8   8   8   8   8   8
#     4   9  18  34  53  71  94 127 166 213 259 293
#     4  10  21  34  48  70 102 136 171 207 245 295
#     4   9  18  33  53  75 101 133 169 213 257 300
#     4  10  21  36  54  75 100 132 172 217 260 301
#     4  11  21  34  52  75 104 134 171 215 254 306
#     4   9  18  32  49  71  99 131 170 211 250 290
#     4  11  21  34  47  66 104 144 173 202 242 290
#     4  11  22  31  48  75 102 138 174 201 244 298
#
# _framework density 15.696165000000001
#
# number of rings (size 3 to 8) (size 9 to 14) (size 15 to 20)
#    0.000    2.000    2.500    1.500    3.500    3.000 
#    0.000    0.000    0.000    0.375    0.000    0.000 
#    0.000    1.000    0.000    0.000    0.000    0.000 
#
# Total GULP energy -356906.637532 kJ/mol
# GULP energy per Si atom -5576.666211 kJ/mol
# Density = 1.566044 g / cm^3
# Si number density = 15.696165 Si / 1000 Ang^3
#
#
#
# Elastic Constant Matrix: (Units=GPa)
#
#
# Indices 1 2 3 4 5 6 
#
# 1 114.8595 56.6871 36.8905 0.0000 0.0000 0.0000
# 2 56.6871 86.2912 26.7913 0.0000 0.0000 0.0000
# 3 36.8905 26.7913 48.1299 0.0000 0.0000 0.0000
# 4 0.0000 0.0000 0.0000 14.7153 0.0000 0.0000
# 5 0.0000 0.0000 0.0000 0.0000 20.5264 0.0000
# 6 0.0000 0.0000 0.0000 0.0000 0.0000 25.1551
#
#
#
# Elastic Compliance Matrix: (Units=1/GPa)
#
#
# Indices 1 2 3 4 5 6 
#
# 1 0.014647 -0.007419 -0.007097 0.000000 0.000000 0.000000
# 2 -0.007419 0.017767 -0.004204 0.000000 0.000000 0.000000
# 3 -0.007097 -0.004204 0.028557 0.000000 0.000000 0.000000
# 4 0.000000 0.000000 0.000000 0.067956 0.000000 0.000000
# 5 0.000000 0.000000 0.000000 0.000000 0.048718 0.000000
# 6 0.000000 0.000000 0.000000 0.000000 0.000000 0.039753
#
#
# Mechanical properties :
#
#
# Convention : Reuss Voigt Hill
#
# Bulk Modulus (GPa) = 42.49510 54.44650 48.47080
# Shear Modulus (GPa) = 19.03438 20.67346 19.85392
#
# Velocity S-wave (km/s) = 3.48613 3.63313 3.56039
# Velocity P-wave (km/s) = 6.58304 7.23620 6.91733
#
# Compressibility (1/GPa) = 0.02353213
#
# Stress axis : x y z
#
# Youngs Moduli (GPa) = 68.27297 56.28293 35.01765
#
# Poissons Ratio (x) = 0.41754 0.24853
# Poissons Ratio (y) = 0.50649 0.14721
# Poissons Ratio (z) = 0.48454 0.23661
#
# Static dielectric constant tensor:
#      x y z
#    x 1.538000 0.000000 0.000000 
#    y 0.000000 1.491270 0.000000 
#    z 0.000000 0.000000 1.528830 
# 
# From -- ./inp_files/17917.got.cif
#   From: 2010.05.17/outbox.cif.g08.bks.cpg/sg55_9_cif.got.tgz:17917.got - 2010.06.03 13:27:54.
