data_PCOD9427306
_publ_section_title
;
Structure prediction by ZEFSAII (Michael W. Deem and Ramdas Pophale) SiO2 
 PCOD9427306
Probable space group: P B A M
;
_chemical_formula_sum "Si O2"
_cell_formula_units_Z 48
_cell_length_a 11.988747
_cell_length_b 24.778041
_cell_length_c 8.126811
_cell_angle_alpha 90.000000
_cell_angle_beta 90.000000
_cell_angle_gamma 90.000000
_cell_volume 2414.131497
_symmetry_space_group_name_H-M "P B A M"
_symmetry_group_IT_number 55
_symmetry_cell_setting 'orthorhombic'
loop_
_space_group_symop_operation_xyz
x,y,z
-x,-y,z
1/2+x,1/2-y,-z
1/2-x,1/2+y,-z
-x,-y,-z
x,y,-z
1/2-x,1/2+y,z
1/2+x,1/2-y,z
loop_
_atom_site_type_symbol
_atom_site_label
_atom_site_fract_x
_atom_site_fract_y
_atom_site_fract_z
Si Si1 0.241695 0.035697 0.196765
Si Si2 0.781624 0.083995 0.807396
Si Si3 0.171835 0.203792 0.700777
Si Si4 0.378098 0.823690 0.304240
Si Si5 0.616000 0.865544 0.300515
Si Si6 0.971532 0.897363 0.695173
O O1 0.341034 0.076432 0.240926
O O2 0.128436 0.060845 0.270818
O O3 0.257796 0.974529 0.256033
O O4 0.228116 0.034423 0.000000
O O5 0.720076 0.133881 0.723992
O O6 0.914234 0.087500 0.782398
O O7 0.755336 0.087080 0.000000
O O8 0.172957 0.204424 0.500000
O O9 0.150340 0.264129 0.761426
O O10 0.289883 0.177900 0.751351
O O11 0.076441 0.160978 0.748851
O O12 0.393077 0.817108 0.500000
O O13 0.494556 0.847940 0.240225
O O14 0.615953 0.867066 0.500000
O O15 0.992521 0.895642 0.500000
#
# Coordination Sequence:
#
# PCOD9427306 Si02
#       6
#     8   8   8   8   8   8
#     4  10  21  38  58  79 113 155 187 227 283 337
#     4  11  24  38  53  81 118 152 188 229 280 337
#     4   8  17  34  58  84 110 140 179 228 283 334
#     4  10  21  36  58  84 111 148 189 233 278 328
#     4   9  19  36  58  84 111 143 190 236 275 331
#     4  10  20  36  62  89 111 143 187 236 282 331
#
# _framework density 19.882928
#
# number of rings (size 3 to 8) (size 9 to 14) (size 15 to 20)
#    0.000    2.333    0.000    3.000    2.333    6.000 
#    0.000    7.500    0.000    0.000    0.000    0.000 
#    0.000    0.000    0.000    0.000    0.000    0.000 
#
# Total GULP energy -267988.850170 kJ/mol
# GULP energy per Si atom -5583.101045 kJ/mol
# Density = 1.983767 g / cm^3
# Si number density = 19.882928 Si / 1000 Ang^3
#
#
#
# Elastic Constant Matrix: (Units=GPa)
#
#
# Indices 1 2 3 4 5 6 
#
# 1 -11.6498 -13.9769 2.6129 0.0000 0.0000 0.0000
# 2 -13.9769 118.2155 8.8357 0.0000 0.0000 0.0000
# 3 2.6129 8.8357 7.9661 0.0000 0.0000 0.0000
# 4 0.0000 0.0000 0.0000 36.2265 0.0000 0.0000
# 5 0.0000 0.0000 0.0000 0.0000 9.4786 0.0000
# 6 0.0000 0.0000 0.0000 0.0000 0.0000 9.9866
#
#
#
# Elastic Compliance Matrix: (Units=1/GPa)
#
#
# Indices 1 2 3 4 5 6 
#
# 1 -0.066079 -0.010285 0.033082 0.000000 0.000000 0.000000
# 2 -0.010285 0.007623 -0.005081 0.000000 0.000000 0.000000
# 3 0.033082 -0.005081 0.120317 0.000000 0.000000 0.000000
# 4 0.000000 0.000000 0.000000 0.027604 0.000000 0.000000
# 5 0.000000 0.000000 0.000000 0.000000 0.105501 0.000000
# 6 0.000000 0.000000 0.000000 0.000000 0.000000 0.100134
#
#
# Mechanical properties :
#
#
# Convention : Reuss Voigt Hill
#
# Bulk Modulus (GPa) = 10.27832 12.16391 11.22111
# Shear Modulus (GPa) = 17.11742 18.94234 18.02988
#
# Velocity S-wave (km/s) = 2.93731 3.08992 3.01458
# Velocity P-wave (km/s) = 4.08465 4.34295 4.21578
#
# Compressibility (1/GPa) = 0.09729221
#
# Stress axis : x y z
#
# Youngs Moduli (GPa) = -15.13343 131.18425 8.31137
#
# Poissons Ratio (x) = 1.34927 -0.27496
# Poissons Ratio (y) = -0.15565 0.04223
# Poissons Ratio (z) = 0.50065 0.66660
#
# Static dielectric constant tensor:
#      x y z
#    x 1.663580 0.000000 0.000000 
#    y 0.000000 1.699790 0.000000 
#    z 0.000000 0.000000 1.702270 
# 
# From -- ./inp_files/4033.got.cif
#   From: 2010.05.17/outbox.cif.g08.bks.cpg/sg55_3_cif.got.tgz:4033.got - 2010.06.03 13:27:54.
