data_PCOD9427930
_publ_section_title
;
Structure prediction by ZEFSAII (Michael W. Deem and Ramdas Pophale) SiO2 
 PCOD9427930
Probable space group: P B A M
;
_chemical_formula_sum "Si O2"
_cell_formula_units_Z 40
_cell_length_a 8.914905
_cell_length_b 11.479776
_cell_length_c 15.781566
_cell_angle_alpha 90.000000
_cell_angle_beta 90.000000
_cell_angle_gamma 90.000000
_cell_volume 1615.103021
_symmetry_space_group_name_H-M "P B A M"
_symmetry_group_IT_number 55
_symmetry_cell_setting 'orthorhombic'
loop_
_space_group_symop_operation_xyz
x,y,z
-x,-y,z
1/2+x,1/2-y,-z
1/2-x,1/2+y,-z
-x,-y,-z
x,y,-z
1/2-x,1/2+y,z
1/2+x,1/2-y,z
loop_
_atom_site_type_symbol
_atom_site_label
_atom_site_fract_x
_atom_site_fract_y
_atom_site_fract_z
Si Si1 0.282035 0.076803 0.274133
Si Si2 0.757655 0.511829 0.094531
Si Si3 0.996084 0.763039 0.733089
Si Si4 0.353814 0.418317 0.405817
Si Si5 0.490684 0.203720 0.909643
O O1 0.449921 0.128300 0.265539
O O2 0.170934 0.189165 0.280445
O O3 0.212548 0.008279 0.192934
O O4 0.265779 0.996488 0.356069
O O5 0.865566 0.396956 0.089199
O O6 0.855301 0.630646 0.097419
O O7 0.683674 0.511740 0.000000
O O8 0.089405 0.819485 0.657487
O O9 0.029154 0.790362 0.831991
O O10 0.500000 0.500000 0.413606
O O11 0.307811 0.380012 0.500000
O O12 0.490482 0.264091 0.000000
#
# Coordination Sequence:
#
# PCOD9427930 Si02
#       5
#     8   8   8   8   8
#     4  10  21  36  59  86 120 155 201 244 299 358
#     4   8  15  30  53  81 118 160 197 237 288 347
#     4  10  21  36  59  89 115 157 199 247 297 362
#     4   9  20  40  60  80 116 158 194 247 315 367
#     4   8  15  30  53  82 117 157 197 238 288 347
#
# _framework density 24.766221999999999
#
# number of rings (size 3 to 8) (size 9 to 14) (size 15 to 20)
#    0.000    3.000    0.000    1.200    2.800    1.600 
#    0.000    1.000    0.000    4.800    0.000    0.000 
#    0.000    0.000    0.000    0.000    0.000    0.000 
#
# Total GULP energy -222883.957434 kJ/mol
# GULP energy per Si atom -5572.098936 kJ/mol
# Density = 2.470985 g / cm^3
# Si number density = 24.766222 Si / 1000 Ang^3
#
#
#
# Elastic Constant Matrix: (Units=GPa)
#
#
# Indices 1 2 3 4 5 6 
#
# 1 49.8440 25.0333 24.2029 0.0000 0.0000 0.0000
# 2 25.0333 81.4926 51.6004 0.0000 0.0000 0.0000
# 3 24.2029 51.6004 245.2926 0.0000 0.0000 0.0000
# 4 0.0000 0.0000 0.0000 39.6551 0.0000 0.0000
# 5 0.0000 0.0000 0.0000 0.0000 33.3918 0.0000
# 6 0.0000 0.0000 0.0000 0.0000 0.0000 36.1208
#
#
#
# Elastic Compliance Matrix: (Units=1/GPa)
#
#
# Indices 1 2 3 4 5 6 
#
# 1 0.023909 -0.006750 -0.000939 0.000000 0.000000 0.000000
# 2 -0.006750 0.016062 -0.002713 0.000000 0.000000 0.000000
# 3 -0.000939 -0.002713 0.004740 0.000000 0.000000 0.000000
# 4 0.000000 0.000000 0.000000 0.025217 0.000000 0.000000
# 5 0.000000 0.000000 0.000000 0.000000 0.029947 0.000000
# 6 0.000000 0.000000 0.000000 0.000000 0.000000 0.027685
#
#
# Mechanical properties :
#
#
# Convention : Reuss Voigt Hill
#
# Bulk Modulus (GPa) = 41.82802 64.25583 53.04192
# Shear Modulus (GPa) = 31.98294 40.21971 36.10132
#
# Velocity S-wave (km/s) = 3.59749 4.03423 3.82210
# Velocity P-wave (km/s) = 5.84652 6.90661 6.39856
#
# Compressibility (1/GPa) = 0.02390742
#
# Stress axis : x y z
#
# Youngs Moduli (GPa) = 41.82601 62.25780 210.96486
#
# Poissons Ratio (x) = 0.42022 0.19813
# Poissons Ratio (y) = 0.28231 0.57233
# Poissons Ratio (z) = 0.03928 0.16890
#
# Static dielectric constant tensor:
#      x y z
#    x 2.044400 0.000000 0.000000 
#    y 0.000000 1.974990 0.000000 
#    z 0.000000 0.000000 2.075060 
# 
# From -- ./inp_files/20598.got.cif
#   From: 2010.05.17/outbox.cif.g08.bks.cpg/sg55_11_cif.got.tgz:20598.got - 2010.06.03 13:27:54.
