data_PCOD9427289
_publ_section_title
;
Structure prediction by ZEFSAII (Michael W. Deem and Ramdas Pophale) SiO2 
 PCOD9427289
Probable space group: P B A M
;
_chemical_formula_sum "Si O2"
_cell_formula_units_Z 58
_cell_length_a 26.113415
_cell_length_b 14.116188
_cell_length_c 8.700880
_cell_angle_alpha 90.000000
_cell_angle_beta 90.000000
_cell_angle_gamma 90.000000
_cell_volume 3207.334704
_symmetry_space_group_name_H-M "P B A M"
_symmetry_group_IT_number 55
_symmetry_cell_setting 'orthorhombic'
loop_
_space_group_symop_operation_xyz
x,y,z
-x,-y,z
1/2+x,1/2-y,-z
1/2-x,1/2+y,-z
-x,-y,-z
x,y,-z
1/2-x,1/2+y,z
1/2+x,1/2-y,z
loop_
_atom_site_type_symbol
_atom_site_label
_atom_site_fract_x
_atom_site_fract_y
_atom_site_fract_z
Si Si1 0.906774 0.905772 0.830801
Si Si2 0.000000 0.000000 0.000000
Si Si3 0.605858 0.023636 0.183096
Si Si4 0.209147 0.561889 0.686187
Si Si5 0.556835 0.212350 0.683836
Si Si6 0.163198 0.759068 0.313545
Si Si7 0.057895 0.663164 0.685665
Si Si8 0.317000 0.471707 0.314018
O O1 0.920334 0.811296 0.739119
O O2 0.865185 0.970061 0.747144
O O3 0.886132 0.878065 0.000000
O O4 0.958563 0.963536 0.868422
O O5 0.662080 0.997646 0.246120
O O6 0.586834 0.123898 0.245269
O O7 0.568948 0.940086 0.245404
O O8 0.605721 0.022621 0.000000
O O9 0.205695 0.557684 0.500000
O O10 0.199315 0.671292 0.732474
O O11 0.263797 0.520658 0.733265
O O12 0.559047 0.205871 0.500000
O O13 0.497157 0.203107 0.731780
O O14 0.163706 0.761541 0.500000
O O15 0.105401 0.730121 0.267113
O O16 0.179307 0.862710 0.259667
O O17 0.059217 0.655062 0.500000
O O18 0.318235 0.471760 0.500000
#
# Coordination Sequence:
#
# PCOD9427289 Si02
#       8
#     8   2   8   8   8   8   8   8
#     4  10  23  40  57  82 117 153 187 229 291 348
#     4   8  24  44  58  76 122 168 178 236 290 352
#     4  11  22  36  55  84 119 156 194 239 294 353
#     4   9  19  37  58  82 117 154 196 248 292 336
#     4  11  22  37  60  87 115 153 196 241 290 344
#     4   8  16  32  54  81 110 143 188 240 290 338
#     4   9  19  35  56  81 113 152 196 244 288 340
#     4  10  20  36  61  88 112 150 201 248 289 338
#
# _framework density 18.083552000000001
#
# number of rings (size 3 to 8) (size 9 to 14) (size 15 to 20)
#    0.414    1.931    0.000    3.310    1.931    4.414 
#    0.000    6.207    0.000    0.000    0.000    0.000 
#    0.000    0.000    0.000    0.000    0.000    0.000 
#
# Total GULP energy -322973.745488 kJ/mol
# GULP energy per Si atom -5568.512853 kJ/mol
# Density = 1.804239 g / cm^3
# Si number density = 18.083552 Si / 1000 Ang^3
#
#
#
# Elastic Constant Matrix: (Units=GPa)
#
#
# Indices 1 2 3 4 5 6 
#
# 1 128.1649 117.8818 33.1005 0.0000 0.0000 0.0000
# 2 117.8818 166.9121 32.9927 0.0000 0.0000 0.0000
# 3 33.1005 32.9927 32.3965 0.0000 0.0000 0.0000
# 4 0.0000 0.0000 0.0000 7.9880 0.0000 0.0000
# 5 0.0000 0.0000 0.0000 0.0000 15.4492 0.0000
# 6 0.0000 0.0000 0.0000 0.0000 0.0000 23.4857
#
#
#
# Elastic Compliance Matrix: (Units=1/GPa)
#
#
# Indices 1 2 3 4 5 6 
#
# 1 0.024272 -0.015325 -0.009192 0.000000 0.000000 0.000000
# 2 -0.015325 0.017177 -0.001835 0.000000 0.000000 0.000000
# 3 -0.009192 -0.001835 0.042129 0.000000 0.000000 0.000000
# 4 0.000000 0.000000 0.000000 0.125188 0.000000 0.000000
# 5 0.000000 0.000000 0.000000 0.000000 0.064728 0.000000
# 6 0.000000 0.000000 0.000000 0.000000 0.000000 0.042579
#
#
# Mechanical properties :
#
#
# Convention : Reuss Voigt Hill
#
# Bulk Modulus (GPa) = 32.39125 77.26926 54.83026
# Shear Modulus (GPa) = 13.19019 18.95114 16.07067
#
# Velocity S-wave (km/s) = 2.70368 3.24076 2.98432
# Velocity P-wave (km/s) = 5.26283 7.53825 6.50087
#
# Compressibility (1/GPa) = 0.03087253
#
# Stress axis : x y z
#
# Youngs Moduli (GPa) = 41.19964 58.21620 23.73684
#
# Poissons Ratio (x) = 0.89217 0.21820
# Poissons Ratio (y) = 0.63139 0.04356
# Poissons Ratio (z) = 0.37872 0.10684
#
# Static dielectric constant tensor:
#      x y z
#    x 1.604210 0.000000 0.000000 
#    y 0.000000 1.602870 0.000000 
#    z 0.000000 0.000000 1.609500 
# 
# From -- ./inp_files/4466.got.cif
#   From: 2010.05.17/outbox.cif.g08.bks.cpg/sg55_3_cif.got.tgz:4466.got - 2010.06.03 13:27:54.
