data_PCOD9427179
_publ_section_title
;
Structure prediction by ZEFSAII (Michael W. Deem and Ramdas Pophale) SiO2 
 PCOD9427179
Probable space group: P B A M
;
_chemical_formula_sum "Si O2"
_cell_formula_units_Z 64
_cell_length_a 29.232815
_cell_length_b 13.226128
_cell_length_c 9.066180
_cell_angle_alpha 90.000000
_cell_angle_beta 90.000000
_cell_angle_gamma 90.000000
_cell_volume 3505.320210
_symmetry_space_group_name_H-M "P B A M"
_symmetry_group_IT_number 55
_symmetry_cell_setting 'orthorhombic'
loop_
_space_group_symop_operation_xyz
x,y,z
-x,-y,z
1/2+x,1/2-y,-z
1/2-x,1/2+y,-z
-x,-y,-z
x,y,-z
1/2-x,1/2+y,z
1/2+x,1/2-y,z
loop_
_atom_site_type_symbol
_atom_site_label
_atom_site_fract_x
_atom_site_fract_y
_atom_site_fract_z
Si Si1 0.375112 0.278538 0.824005
Si Si2 0.941407 0.401578 0.178427
Si Si3 0.887731 0.788386 0.323639
Si Si4 0.858820 0.011134 0.677080
Si Si5 0.048408 0.373265 0.177729
Si Si6 0.748929 0.527550 0.672527
Si Si7 0.214581 0.652156 0.834806
Si Si8 0.299937 0.794400 0.165530
O O1 0.409047 0.189522 0.770083
O O2 0.378986 0.387182 0.747879
O O3 0.324117 0.234409 0.801446
O O4 0.381755 0.291311 0.000000
O O5 0.930912 0.517214 0.225871
O O6 0.994386 0.378995 0.212737
O O7 0.937670 0.403408 0.000000
O O8 0.891417 0.786597 0.500000
O O9 0.882717 0.906016 0.275938
O O10 0.927856 0.722482 0.251796
O O11 0.841264 0.734198 0.271215
O O12 0.862537 0.017585 0.500000
O O13 0.804303 0.007437 0.711541
O O14 0.052830 0.366290 0.000000
O O15 0.750687 0.552975 0.500000
O O16 0.780284 0.431658 0.710925
O O17 0.770145 0.614843 0.771164
O O18 0.263957 0.703490 0.842055
O O19 0.203963 0.610535 0.000000
O O20 0.317110 0.815922 0.000000
#
# Coordination Sequence:
#
# PCOD9427179 Si02
#       8
#     8   8   8   8   8   8   8   8
#     4  10  20  36  58  84 111 144 188 236 278 330
#     4   8  17  36  62  88 115 141 176 229 288 342
#     4  11  23  39  56  82 115 150 191 234 281 336
#     4  10  22  38  54  75 112 155 190 229 278 332
#     4   9  18  37  63  88 112 145 181 224 287 346
#     4  11  22  36  53  74 109 153 190 230 278 331
#     4  10  21  34  52  80 111 143 186 234 277 325
#     4  11  22  36  54  79 110 147 190 235 278 327
#
# _framework density 18.257961000000002
#
# number of rings (size 3 to 8) (size 9 to 14) (size 15 to 20)
#    0.000    2.000    2.500    1.875    1.750    2.500 
#    0.000    3.125    0.000    3.750    0.000    0.000 
#    0.000    0.000    0.000    0.000    0.000    0.000 
#
# Total GULP energy -356887.556012 kJ/mol
# GULP energy per Si atom -5576.368063 kJ/mol
# Density = 1.821640 g / cm^3
# Si number density = 18.257961 Si / 1000 Ang^3
#
#
#
# Elastic Constant Matrix: (Units=GPa)
#
#
# Indices 1 2 3 4 5 6 
#
# 1 35.5047 21.6245 7.8679 0.0000 0.0000 0.0000
# 2 21.6245 107.4112 30.0592 0.0000 0.0000 0.0000
# 3 7.8679 30.0592 25.4379 0.0000 0.0000 0.0000
# 4 0.0000 0.0000 0.0000 27.9012 0.0000 0.0000
# 5 0.0000 0.0000 0.0000 0.0000 18.2624 0.0000
# 6 0.0000 0.0000 0.0000 0.0000 0.0000 33.9875
#
#
#
# Elastic Compliance Matrix: (Units=1/GPa)
#
#
# Indices 1 2 3 4 5 6 
#
# 1 0.032302 -0.005539 -0.003446 0.000000 0.000000 0.000000
# 2 -0.005539 0.014860 -0.015846 0.000000 0.000000 0.000000
# 3 -0.003446 -0.015846 0.059102 0.000000 0.000000 0.000000
# 4 0.000000 0.000000 0.000000 0.035841 0.000000 0.000000
# 5 0.000000 0.000000 0.000000 0.000000 0.054757 0.000000
# 6 0.000000 0.000000 0.000000 0.000000 0.000000 0.029423
#
#
# Mechanical properties :
#
#
# Convention : Reuss Voigt Hill
#
# Bulk Modulus (GPa) = 17.66710 31.93966 24.80338
# Shear Modulus (GPa) = 16.95983 23.28370 20.12176
#
# Velocity S-wave (km/s) = 3.05109 3.57496 3.32336
# Velocity P-wave (km/s) = 4.70209 5.87979 5.32361
#
# Compressibility (1/GPa) = 0.05660237
#
# Stress axis : x y z
#
# Youngs Moduli (GPa) = 30.95741 67.29617 16.91986
#
# Poissons Ratio (x) = 0.37275 0.05831
# Poissons Ratio (y) = 0.17147 0.26811
# Poissons Ratio (z) = 0.10668 1.06638
#
# Static dielectric constant tensor:
#      x y z
#    x 1.617830 0.000000 0.000000 
#    y 0.000000 1.659190 0.000000 
#    z 0.000000 0.000000 1.622950 
# 
# From -- ./inp_files/10754.got.cif
#   From: 2010.05.17/outbox.cif.g08.bks.cpg/sg55_6_cif.got.tgz:10754.got - 2010.06.03 13:27:54.
