data_PCOD9427959
_publ_section_title
;
Structure prediction by ZEFSAII (Michael W. Deem and Ramdas Pophale) SiO2 
 PCOD9427959
Probable space group: P B A M
;
_chemical_formula_sum "Si O2"
_cell_formula_units_Z 64
_cell_length_a 23.965115
_cell_length_b 17.903063
_cell_length_c 8.978896
_cell_angle_alpha 90.000000
_cell_angle_beta 90.000000
_cell_angle_gamma 90.000000
_cell_volume 3852.386023
_symmetry_space_group_name_H-M "P B A M"
_symmetry_group_IT_number 55
_symmetry_cell_setting 'orthorhombic'
loop_
_space_group_symop_operation_xyz
x,y,z
-x,-y,z
1/2+x,1/2-y,-z
1/2-x,1/2+y,-z
-x,-y,-z
x,y,-z
1/2-x,1/2+y,z
1/2+x,1/2-y,z
loop_
_atom_site_type_symbol
_atom_site_label
_atom_site_fract_x
_atom_site_fract_y
_atom_site_fract_z
Si Si1 0.135140 0.006540 0.822284
Si Si2 0.056531 0.300440 0.177586
Si Si3 0.928836 0.859481 0.677890
Si Si4 0.635432 0.078729 0.325876
Si Si5 0.235894 0.489789 0.177114
Si Si6 0.151250 0.586517 0.325112
Si Si7 0.562919 0.790679 0.678622
Si Si8 0.942046 0.116568 0.323674
O O1 0.114485 0.081476 0.742065
O O2 0.199305 0.988579 0.783581
O O3 0.094857 0.940217 0.769118
O O4 0.131561 0.015881 0.000000
O O5 0.075671 0.221099 0.245658
O O6 0.096751 0.365367 0.236604
O O7 0.993868 0.312454 0.238601
O O8 0.056608 0.297266 0.000000
O O9 0.923786 0.851435 0.500000
O O10 0.991832 0.889233 0.708213
O O11 0.636178 0.098330 0.500000
O O12 0.698140 0.072405 0.259793
O O13 0.616647 0.991555 0.312590
O O14 0.206351 0.566786 0.231454
O O15 0.229779 0.482156 0.000000
O O16 0.165709 0.594747 0.500000
O O17 0.114078 0.656154 0.277969
O O18 0.554119 0.799045 0.500000
O O19 0.573521 0.703007 0.705980
O O20 0.934264 0.101648 0.500000
#
# Coordination Sequence:
#
# PCOD9427959 Si02
#       8
#     8   8   8   8   8   8   8   8
#     4  11  22  35  54  78 105 138 173 214 267 316
#     4  11  21  33  52  80 111 139 168 209 263 314
#     4  10  21  37  56  78 105 137 174 214 256 307
#     4   9  18  34  55  76 102 139 180 217 256 300
#     4   9  19  35  52  74 104 137 174 219 262 304
#     4   8  17  33  55  76 101 138 178 218 256 300
#     4   9  18  35  54  77 108 138 171 212 258 307
#     4   9  19  34  54  78 105 136 171 213 257 307
#
# _framework density 16.613081000000001
#
# number of rings (size 3 to 8) (size 9 to 14) (size 15 to 20)
#    0.750    1.750    0.000    3.375    0.000    7.000 
#    0.000    3.750    0.000    6.000    0.000    0.000 
#    0.000    0.000    0.000    0.000    0.000    0.000 
#
# Total GULP energy -356515.341038 kJ/mol
# GULP energy per Si atom -5570.552204 kJ/mol
# Density = 1.657527 g / cm^3
# Si number density = 16.613081 Si / 1000 Ang^3
#
#
#
# Elastic Constant Matrix: (Units=GPa)
#
#
# Indices 1 2 3 4 5 6 
#
# 1 18.9921 1.8259 12.2867 0.0000 0.0000 0.0000
# 2 1.8259 16.6625 10.5599 0.0000 0.0000 0.0000
# 3 12.2867 10.5599 49.1841 0.0000 0.0000 0.0000
# 4 0.0000 0.0000 0.0000 20.8851 0.0000 0.0000
# 5 0.0000 0.0000 0.0000 0.0000 -46.3725 0.0000
# 6 0.0000 0.0000 0.0000 0.0000 0.0000 -13.6152
#
#
#
# Elastic Compliance Matrix: (Units=1/GPa)
#
#
# Indices 1 2 3 4 5 6 
#
# 1 0.062984 0.003553 -0.016497 0.000000 0.000000 0.000000
# 2 0.003553 0.069668 -0.015845 0.000000 0.000000 0.000000
# 3 -0.016497 -0.015845 0.027855 0.000000 0.000000 0.000000
# 4 0.000000 0.000000 0.000000 0.047881 0.000000 0.000000
# 5 0.000000 0.000000 0.000000 0.000000 -0.021565 0.000000
# 6 0.000000 0.000000 0.000000 0.000000 0.000000 -0.073447
#
#
# Mechanical properties :
#
#
# Convention : Reuss Voigt Hill
#
# Bulk Modulus (GPa) = 9.71548 14.90930 12.31239
# Shear Modulus (GPa) = 24.35887 -3.80944 10.27472
#
# Velocity S-wave (km/s) = 3.83331 -1.51592 2.48961
# Velocity P-wave (km/s) = 5.04511 2.43514 3.96126
#
# Compressibility (1/GPa) = 0.10292851
#
# Stress axis : x y z
#
# Youngs Moduli (GPa) = 15.87696 14.35388 35.90029
#
# Poissons Ratio (x) = -0.05100 0.59225
# Poissons Ratio (y) = -0.05641 0.56885
# Poissons Ratio (z) = 0.26192 0.22744
#
# Static dielectric constant tensor:
#      x y z
#    x 1.541180 0.000000 0.000000 
#    y 0.000000 1.554240 0.000000 
#    z 0.000000 0.000000 1.551520 
# 
# From -- ./inp_files/10307.got.cif
#   From: 2010.05.17/outbox.cif.g08.bks.cpg/sg55_6_cif.got.tgz:10307.got - 2010.06.03 13:27:54.
