data_PCOD9427421
_publ_section_title
;
Structure prediction by ZEFSAII (Michael W. Deem and Ramdas Pophale) SiO2 
 PCOD9427421
Probable space group: P B A M
;
_chemical_formula_sum "Si O2"
_cell_formula_units_Z 48
_cell_length_a 8.738345
_cell_length_b 11.880997
_cell_length_c 22.231628
_cell_angle_alpha 90.000000
_cell_angle_beta 90.000000
_cell_angle_gamma 90.000000
_cell_volume 2308.093193
_symmetry_space_group_name_H-M "P B A M"
_symmetry_group_IT_number 55
_symmetry_cell_setting 'orthorhombic'
loop_
_space_group_symop_operation_xyz
x,y,z
-x,-y,z
1/2+x,1/2-y,-z
1/2-x,1/2+y,-z
-x,-y,-z
x,y,-z
1/2-x,1/2+y,z
1/2+x,1/2-y,z
loop_
_atom_site_type_symbol
_atom_site_label
_atom_site_fract_x
_atom_site_fract_y
_atom_site_fract_z
Si Si1 0.101994 0.893934 0.880990
Si Si2 0.549435 0.129044 0.431032
Si Si3 0.176443 0.214529 0.153858
Si Si4 0.668836 0.949563 0.065298
Si Si5 0.795635 0.250700 0.356267
Si Si6 0.048918 0.129642 0.718770
O O1 0.233937 0.832256 0.842392
O O2 0.971038 0.799657 0.890526
O O3 0.202888 0.951624 0.932456
O O4 0.000000 0.000000 0.857659
O O5 0.587859 0.157603 0.500000
O O6 0.688544 0.157058 0.386591
O O7 0.406654 0.200669 0.407037
O O8 0.500000 0.000000 0.428120
O O9 0.292727 0.126979 0.122734
O O10 0.111242 0.177521 0.218085
O O11 0.500000 0.000000 0.070201
O O12 0.682067 0.891353 0.000000
O O13 0.684395 0.345574 0.328782
O O14 0.902952 0.200117 0.304297
O O15 0.000000 0.000000 0.721439
#
# Coordination Sequence:
#
# PCOD9427421 Si02
#       6
#     8   8   8   8   8   8
#     4  10  22  39  62  91 124 159 207 260 319 387
#     4  10  20  37  60  88 124 166 213 265 320 375
#     4  11  22  39  63  90 122 165 209 258 322 386
#     4  10  22  40  62  90 123 161 209 264 322 387
#     4  10  22  37  59  90 124 166 214 262 316 375
#     4  11  22  39  60  88 127 165 209 260 314 379
#
# _framework density 20.796386999999999
#
# number of rings (size 3 to 8) (size 9 to 14) (size 15 to 20)
#    0.000    1.667    0.000    5.000    0.000    3.667 
#    0.000    4.167    0.000    8.000    0.000    0.000 
#    0.000    0.000    0.000    0.000    0.000    0.000 
#
# Total GULP energy -267548.017200 kJ/mol
# GULP energy per Si atom -5573.917025 kJ/mol
# Density = 2.074905 g / cm^3
# Si number density = 20.796387 Si / 1000 Ang^3
#
#
#
# Elastic Constant Matrix: (Units=GPa)
#
#
# Indices 1 2 3 4 5 6 
#
# 1 131.7924 54.0326 43.1210 0.0000 0.0000 0.0000
# 2 54.0326 94.4475 44.5071 0.0000 0.0000 0.0000
# 3 43.1210 44.5071 123.2613 0.0000 0.0000 0.0000
# 4 0.0000 0.0000 0.0000 -10.6124 0.0000 0.0000
# 5 0.0000 0.0000 0.0000 0.0000 -2.4529 0.0000
# 6 0.0000 0.0000 0.0000 0.0000 0.0000 41.9308
#
#
#
# Elastic Compliance Matrix: (Units=1/GPa)
#
#
# Indices 1 2 3 4 5 6 
#
# 1 0.010222 -0.005016 -0.001765 0.000000 0.000000 0.000000
# 2 -0.005016 0.015220 -0.003741 0.000000 0.000000 0.000000
# 3 -0.001765 -0.003741 0.010081 0.000000 0.000000 0.000000
# 4 0.000000 0.000000 0.000000 -0.094229 0.000000 0.000000
# 5 0.000000 0.000000 0.000000 0.000000 -0.407683 0.000000
# 6 0.000000 0.000000 0.000000 0.000000 0.000000 0.023849
#
#
# Mechanical properties :
#
#
# Convention : Reuss Voigt Hill
#
# Bulk Modulus (GPa) = 69.06304 70.31364 69.68834
# Shear Modulus (GPa) = -11.99990 19.62912 3.81461
#
# Velocity S-wave (km/s) = -2.40473 3.07558 1.35582
# Velocity P-wave (km/s) = 5.05677 6.81881 6.00280
#
# Compressibility (1/GPa) = 0.01447952
#
# Stress axis : x y z
#
# Youngs Moduli (GPa) = 97.83219 65.70106 99.19676
#
# Poissons Ratio (x) = 0.32956 0.17505
# Poissons Ratio (y) = 0.49074 0.37109
# Poissons Ratio (z) = 0.17264 0.24579
#
# Static dielectric constant tensor:
#      x y z
#    x 1.760410 0.000000 0.000000 
#    y 0.000000 1.790160 0.000000 
#    z 0.000000 0.000000 1.750720 
# 
# From -- ./inp_files/23432.got.cif
#   From: 2010.05.17/outbox.cif.g08.bks.cpg/sg55_12_cif.got.tgz:23432.got - 2010.06.03 13:27:54.
