data_PCOD9427696
_publ_section_title
;
Structure prediction by ZEFSAII (Michael W. Deem and Ramdas Pophale) SiO2 
 PCOD9427696
Probable space group: P B A M
;
_chemical_formula_sum "Si O2"
_cell_formula_units_Z 48
_cell_length_a 9.532860
_cell_length_b 28.166533
_cell_length_c 7.904672
_cell_angle_alpha 90.000000
_cell_angle_beta 90.000000
_cell_angle_gamma 90.000000
_cell_volume 2122.464632
_symmetry_space_group_name_H-M "P B A M"
_symmetry_group_IT_number 55
_symmetry_cell_setting 'orthorhombic'
loop_
_space_group_symop_operation_xyz
x,y,z
-x,-y,z
1/2+x,1/2-y,-z
1/2-x,1/2+y,-z
-x,-y,-z
x,y,-z
1/2-x,1/2+y,z
1/2+x,1/2-y,z
loop_
_atom_site_type_symbol
_atom_site_label
_atom_site_fract_x
_atom_site_fract_y
_atom_site_fract_z
Si Si1 0.819973 0.891635 0.801941
Si Si2 0.188481 0.275657 0.801831
Si Si3 0.006336 0.808682 0.208269
Si Si4 0.341719 0.502966 0.303112
Si Si5 0.921490 0.546684 0.804826
Si Si6 0.028532 0.645864 0.305559
O O1 0.797992 0.941996 0.713122
O O2 0.680975 0.859954 0.777152
O O3 0.952829 0.860877 0.740715
O O4 0.837131 0.901821 0.000000
O O5 0.339448 0.292366 0.732833
O O6 0.110609 0.229130 0.732485
O O7 0.074760 0.317392 0.783635
O O8 0.213124 0.266093 0.000000
O O9 0.007116 0.808706 0.000000
O O10 0.500000 0.500000 0.240093
O O11 0.337717 0.489217 0.500000
O O12 0.239797 0.468046 0.204247
O O13 0.000000 0.500000 0.736290
O O14 0.958155 0.594042 0.707357
O O15 0.966757 0.553624 0.000000
O O16 0.044995 0.660005 0.500000
#
# Coordination Sequence:
#
# PCOD9427696 Si02
#       6
#     8   8   8   8   8   8
#     4  11  22  40  64  93 123 163 213 258 303 363
#     4  10  20  40  66  94 123 159 203 254 306 367
#     4   9  20  38  66  96 123 156 203 257 308 358
#     4  11  25  42  61  91 131 169 203 250 312 369
#     4  11  23  41  66  93 119 161 215 260 301 359
#     4  12  25  40  61  91 126 165 204 254 317 373
#
# _framework density 22.615217999999999
#
# number of rings (size 3 to 8) (size 9 to 14) (size 15 to 20)
#    0.000    1.333    1.667    4.000    2.333    4.667 
#    0.000    5.000    0.000    0.000    0.000    0.000 
#    0.000    0.000    0.000    0.000    0.000    0.000 
#
# Total GULP energy -268449.591766 kJ/mol
# GULP energy per Si atom -5592.699828 kJ/mol
# Density = 2.256374 g / cm^3
# Si number density = 22.615218 Si / 1000 Ang^3
#
#
#
# Elastic Constant Matrix: (Units=GPa)
#
#
# Indices 1 2 3 4 5 6 
#
# 1 87.5465 4.1061 -10.7233 0.0000 0.0000 0.0000
# 2 4.1061 50.9262 -15.3786 0.0000 0.0000 0.0000
# 3 -10.7233 -15.3786 30.2379 0.0000 0.0000 0.0000
# 4 0.0000 0.0000 0.0000 18.7412 0.0000 0.0000
# 5 0.0000 0.0000 0.0000 0.0000 10.6348 0.0000
# 6 0.0000 0.0000 0.0000 0.0000 0.0000 34.9935
#
#
#
# Elastic Compliance Matrix: (Units=1/GPa)
#
#
# Indices 1 2 3 4 5 6 
#
# 1 0.011947 0.000374 0.004427 0.000000 0.000000 0.000000
# 2 0.000374 0.023211 0.011937 0.000000 0.000000 0.000000
# 3 0.004427 0.011937 0.040712 0.000000 0.000000 0.000000
# 4 0.000000 0.000000 0.000000 0.053358 0.000000 0.000000
# 5 0.000000 0.000000 0.000000 0.000000 0.094031 0.000000
# 6 0.000000 0.000000 0.000000 0.000000 0.000000 0.028577
#
#
# Mechanical properties :
#
#
# Convention : Reuss Voigt Hill
#
# Bulk Modulus (GPa) = 9.14535 13.85767 11.50151
# Shear Modulus (GPa) = 19.62249 25.58766 22.60508
#
# Velocity S-wave (km/s) = 2.94882 3.36733 3.16500
# Velocity P-wave (km/s) = 3.95559 4.61080 4.29570
#
# Compressibility (1/GPa) = 0.10934518
#
# Stress axis : x y z
#
# Youngs Moduli (GPa) = 83.70152 43.08324 24.56277
#
# Poissons Ratio (x) = -0.01609 -0.10873
# Poissons Ratio (y) = -0.03126 -0.29321
# Poissons Ratio (z) = -0.37053 -0.51429
#
# Static dielectric constant tensor:
#      x y z
#    x 1.854760 0.000000 0.000000 
#    y 0.000000 1.817780 0.000000 
#    z 0.000000 0.000000 1.804660 
# 
# From -- ./inp_files/2876.got.cif
#   From: 2010.05.17/outbox.cif.g08.bks.cpg/sg55_2_cif.got.tgz:2876.got - 2010.06.03 13:27:54.
