data_PCOD9427284
_publ_section_title
;
Structure prediction by ZEFSAII (Michael W. Deem and Ramdas Pophale) SiO2 
 PCOD9427284
Probable space group: P B A M
;
_chemical_formula_sum "Si O2"
_cell_formula_units_Z 48
_cell_length_a 15.976365
_cell_length_b 7.650734
_cell_length_c 16.713763
_cell_angle_alpha 90.000000
_cell_angle_beta 90.000000
_cell_angle_gamma 90.000000
_cell_volume 2042.938610
_symmetry_space_group_name_H-M "P B A M"
_symmetry_group_IT_number 55
_symmetry_cell_setting 'orthorhombic'
loop_
_space_group_symop_operation_xyz
x,y,z
-x,-y,z
1/2+x,1/2-y,-z
1/2-x,1/2+y,-z
-x,-y,-z
x,y,-z
1/2-x,1/2+y,z
1/2+x,1/2-y,z
loop_
_atom_site_type_symbol
_atom_site_label
_atom_site_fract_x
_atom_site_fract_y
_atom_site_fract_z
Si Si1 0.863706 0.904962 0.000000
Si Si2 0.831819 0.799895 0.670473
Si Si3 0.488363 0.286141 0.307513
Si Si4 0.830813 0.154986 0.591335
Si Si5 0.963453 0.275716 0.000000
Si Si6 0.216270 0.009729 0.834333
Si Si7 0.614467 0.852063 0.837129
O O1 0.808374 0.902129 0.919408
O O2 0.937881 0.763452 0.000000
O O3 0.914763 0.088399 0.000000
O O4 0.748611 0.698587 0.646809
O O5 0.819639 0.890903 0.756835
O O6 0.921526 0.708193 0.671191
O O7 0.840853 0.948337 0.602637
O O8 0.500000 0.500000 0.294993
O O9 0.415947 0.265435 0.373273
O O10 0.453739 0.192783 0.228977
O O11 0.816578 0.205135 0.500000
O O12 0.930715 0.369095 0.921163
O O13 0.316432 0.999498 0.823612
O O14 0.173066 0.821377 0.836989
#
# Coordination Sequence:
#
# PCOD9427284 Si02
#       7
#     4   8   8   8   4   8   8
#     4   9  19  30  55  85 115 154 200 241 285 330
#     4  11  21  39  62  85 118 154 192 240 292 348
#     4  10  20  36  61  86 114 151 196 234 282 351
#     4  11  23  39  61  88 115 149 194 243 295 350
#     4   9  19  30  51  85 116 151 202 247 273 340
#     4  11  19  35  57  85 119 156 196 242 286 348
#     4  11  20  35  58  86 118 155 199 241 290 342
#
# _framework density 23.495566
#
# number of rings (size 3 to 8) (size 9 to 14) (size 15 to 20)
#    0.000    1.500    5.000    2.000    2.333    3.667 
#    0.000    0.833    0.000    6.000    0.000    0.000 
#    0.000    0.000    0.000    0.000    0.000    0.000 
#
# Total GULP energy -268665.473904 kJ/mol
# GULP energy per Si atom -5597.197373 kJ/mol
# Density = 2.344209 g / cm^3
# Si number density = 23.495566 Si / 1000 Ang^3
#
#
#
# Elastic Constant Matrix: (Units=GPa)
#
#
# Indices 1 2 3 4 5 6 
#
# 1 156.9974 40.4733 64.4211 0.0000 0.0000 0.0000
# 2 40.4733 51.8088 22.4130 0.0000 0.0000 0.0000
# 3 64.4211 22.4130 143.1927 0.0000 0.0000 0.0000
# 4 0.0000 0.0000 0.0000 15.8455 0.0000 0.0000
# 5 0.0000 0.0000 0.0000 0.0000 22.4342 0.0000
# 6 0.0000 0.0000 0.0000 0.0000 0.0000 40.3737
#
#
#
# Elastic Compliance Matrix: (Units=1/GPa)
#
#
# Indices 1 2 3 4 5 6 
#
# 1 0.009183 -0.005778 -0.003227 0.000000 0.000000 0.000000
# 2 -0.005778 0.024339 -0.001210 0.000000 0.000000 0.000000
# 3 -0.003227 -0.001210 0.008625 0.000000 0.000000 0.000000
# 4 0.000000 0.000000 0.000000 0.063109 0.000000 0.000000
# 5 0.000000 0.000000 0.000000 0.000000 0.044575 0.000000
# 6 0.000000 0.000000 0.000000 0.000000 0.000000 0.024769
#
#
# Mechanical properties :
#
#
# Convention : Reuss Voigt Hill
#
# Bulk Modulus (GPa) = 46.04744 67.40151 56.72447
# Shear Modulus (GPa) = 24.71954 30.71011 27.71483
#
# Velocity S-wave (km/s) = 3.24712 3.61925 3.43822
# Velocity P-wave (km/s) = 5.80511 6.79812 6.32115
#
# Compressibility (1/GPa) = 0.02171673
#
# Stress axis : x y z
#
# Youngs Moduli (GPa) = 108.89422 41.08629 115.94405
#
# Poissons Ratio (x) = 0.23739 0.37416
# Poissons Ratio (y) = 0.62918 0.14031
# Poissons Ratio (z) = 0.35141 0.04972
#
# Static dielectric constant tensor:
#      x y z
#    x 1.915620 0.000000 0.000000 
#    y 0.000000 1.987050 0.000000 
#    z 0.000000 0.000000 1.828270 
# 
# From -- ./inp_files/21536.got.cif
#   From: 2010.05.17/outbox.cif.g08.bks.cpg/sg55_11_cif.got.tgz:21536.got - 2010.06.03 13:27:54.
