data_PCOD9427566
_publ_section_title
;
Structure prediction by ZEFSAII (Michael W. Deem and Ramdas Pophale) SiO2 
 PCOD9427566
Probable space group: P B A M
;
_chemical_formula_sum "Si O2"
_cell_formula_units_Z 64
_cell_length_a 12.771481
_cell_length_b 16.523125
_cell_length_c 14.086592
_cell_angle_alpha 90.000000
_cell_angle_beta 90.000000
_cell_angle_gamma 90.000000
_cell_volume 2972.619935
_symmetry_space_group_name_H-M "P B A M"
_symmetry_group_IT_number 55
_symmetry_cell_setting 'orthorhombic'
loop_
_space_group_symop_operation_xyz
x,y,z
-x,-y,z
1/2+x,1/2-y,-z
1/2-x,1/2+y,-z
-x,-y,-z
x,y,-z
1/2-x,1/2+y,z
1/2+x,1/2-y,z
loop_
_atom_site_type_symbol
_atom_site_label
_atom_site_fract_x
_atom_site_fract_y
_atom_site_fract_z
Si Si1 0.289058 0.388408 0.739885
Si Si2 0.994818 0.763983 0.894576
Si Si3 0.986673 0.094885 0.388936
Si Si4 0.098134 0.941305 0.101289
Si Si5 0.878903 0.491939 0.699424
Si Si6 0.229908 0.143346 0.390667
Si Si7 0.210350 0.227762 0.794752
Si Si8 0.645442 0.892146 0.109437
O O1 0.389333 0.372504 0.672864
O O2 0.328999 0.458741 0.810274
O O3 0.184091 0.423300 0.693289
O O4 0.258249 0.315764 0.810169
O O5 0.911957 0.764785 0.810770
O O6 0.053134 0.850107 0.892836
O O7 0.065822 0.684526 0.884983
O O8 0.943995 0.758603 0.000000
O O9 0.959079 0.103967 0.500000
O O10 0.105481 0.126287 0.377439
O O11 0.000000 0.000000 0.367314
O O12 0.152485 0.951343 0.000000
O O13 0.000000 0.000000 0.104491
O O14 0.806427 0.430423 0.638355
O O15 0.880961 0.456068 0.807729
O O16 0.000000 0.500000 0.668730
O O17 0.247353 0.165062 0.500000
O O18 0.249327 0.210492 0.311592
O O19 0.247921 0.154242 0.860840
O O20 0.645614 0.920859 0.000000
#
# Coordination Sequence:
#
# PCOD9427566 Si02
#       8
#     8   8   8   8   8   8   8   8
#     4  12  23  38  65  92 127 163 206 260 311 369
#     4  10  20  38  62  87 124 166 206 255 310 365
#     4  10  20  39  68  97 120 149 199 255 322 376
#     4  10  22  36  57  93 128 160 206 259 315 368
#     4  11  25  42  63  92 125 169 217 258 310 382
#     4  10  23  44  68  92 124 164 203 262 324 381
#     4  11  23  37  62  91 125 160 208 250 308 381
#     4  10  22  41  60  85 124 168 211 254 307 369
#
# _framework density 21.529831000000001
#
# number of rings (size 3 to 8) (size 9 to 14) (size 15 to 20)
#    0.000    1.500    2.500    2.250    3.500    2.000 
#    0.000    0.000    0.000    0.000    0.000    0.000 
#    0.000    0.000    0.000    0.000    0.000    0.000 
#
# Total GULP energy -356946.844876 kJ/mol
# GULP energy per Si atom -5577.294451 kJ/mol
# Density = 2.148083 g / cm^3
# Si number density = 21.529831 Si / 1000 Ang^3
#
#
#
# Elastic Constant Matrix: (Units=GPa)
#
#
# Indices 1 2 3 4 5 6 
#
# 1 85.7064 8.8239 5.5517 0.0000 0.0000 0.0000
# 2 8.8239 32.8388 -10.5003 0.0000 0.0000 0.0000
# 3 5.5517 -10.5003 65.0481 0.0000 0.0000 0.0000
# 4 0.0000 0.0000 0.0000 18.9953 0.0000 0.0000
# 5 0.0000 0.0000 0.0000 0.0000 36.8252 0.0000
# 6 0.0000 0.0000 0.0000 0.0000 0.0000 17.6213
#
#
#
# Elastic Compliance Matrix: (Units=1/GPa)
#
#
# Indices 1 2 3 4 5 6 
#
# 1 0.012166 -0.003797 -0.001651 0.000000 0.000000 0.000000
# 2 -0.003797 0.033294 0.005699 0.000000 0.000000 0.000000
# 3 -0.001651 0.005699 0.016434 0.000000 0.000000 0.000000
# 4 0.000000 0.000000 0.000000 0.052645 0.000000 0.000000
# 5 0.000000 0.000000 0.000000 0.000000 0.027155 0.000000
# 6 0.000000 0.000000 0.000000 0.000000 0.000000 0.056749
#
#
# Mechanical properties :
#
#
# Convention : Reuss Voigt Hill
#
# Bulk Modulus (GPa) = 16.02706 21.26044 18.64375
# Shear Modulus (GPa) = 22.85813 26.66957 24.76385
#
# Velocity S-wave (km/s) = 3.26190 3.52337 3.39516
# Velocity P-wave (km/s) = 4.65263 5.14281 4.90385
#
# Compressibility (1/GPa) = 0.06239448
#
# Stress axis : x y z
#
# Youngs Moduli (GPa) = 82.19889 30.03535 60.84931
#
# Poissons Ratio (x) = 0.11404 0.10048
# Poissons Ratio (y) = 0.31210 -0.34675
# Poissons Ratio (z) = 0.13573 -0.17116
#
# Static dielectric constant tensor:
#      x y z
#    x 1.877260 0.000000 0.000000 
#    y 0.000000 1.807080 0.000000 
#    z 0.000000 0.000000 1.819700 
# 
# From -- ./inp_files/18580.got.cif
#   From: 2010.05.17/outbox.cif.g08.bks.cpg/sg55_10_cif.got.tgz:18580.got - 2010.06.03 13:27:54.
