data_PCOD9427098
_publ_section_title
;
Structure prediction by ZEFSAII (Michael W. Deem and Ramdas Pophale) SiO2 
 PCOD9427098
Probable space group: P B A M
;
_chemical_formula_sum "Si O2"
_cell_formula_units_Z 40
_cell_length_a 10.802201
_cell_length_b 19.345082
_cell_length_c 7.633299
_cell_angle_alpha 90.000000
_cell_angle_beta 90.000000
_cell_angle_gamma 90.000000
_cell_volume 1595.126402
_symmetry_space_group_name_H-M "P B A M"
_symmetry_group_IT_number 55
_symmetry_cell_setting 'orthorhombic'
loop_
_space_group_symop_operation_xyz
x,y,z
-x,-y,z
1/2+x,1/2-y,-z
1/2-x,1/2+y,-z
-x,-y,-z
x,y,-z
1/2-x,1/2+y,z
1/2+x,1/2-y,z
loop_
_atom_site_type_symbol
_atom_site_label
_atom_site_fract_x
_atom_site_fract_y
_atom_site_fract_z
Si Si1 0.730714 0.681558 0.698409
Si Si2 0.617647 0.545196 0.789080
Si Si3 0.505247 0.161648 0.787546
Si Si4 0.766128 0.419631 0.215559
Si Si5 0.393517 0.701983 0.801799
O O1 0.726590 0.704941 0.500000
O O2 0.626434 0.624778 0.733037
O O3 0.767589 0.749617 0.808231
O O4 0.858586 0.638141 0.730428
O O5 0.500000 0.500000 0.732591
O O6 0.732890 0.497072 0.733328
O O7 0.616083 0.547117 0.000000
O O8 0.395131 0.113418 0.726321
O O9 0.508987 0.242538 0.725147
O O10 0.502996 0.163522 0.000000
O O11 0.656566 0.368282 0.277306
O O12 0.765300 0.417097 0.000000
O O13 0.433411 0.687339 0.000000
#
# Coordination Sequence:
#
# PCOD9427098 Si02
#       5
#     8   8   8   8   8
#     4  10  20  36  54  75 109 147 180 214 265 328
#     4  10  21  36  56  82 110 142 183 231 279 327
#     4   8  16  32  55  79 104 134 175 224 268 315
#     4   9  17  32  57  85 106 134 181 230 275 320
#     4   8  16  32  54  78 103 136 177 223 270 315
#
# _framework density 25.076381000000001
#
# number of rings (size 3 to 8) (size 9 to 14) (size 15 to 20)
#    1.200    1.800    0.000    1.200    0.000    2.800 
#    0.000   13.000    0.000    0.000    0.000    0.000 
#    0.000    0.000    0.000    0.000    0.000    0.000 
#
# Total GULP energy -222955.134153 kJ/mol
# GULP energy per Si atom -5573.878354 kJ/mol
# Density = 2.501931 g / cm^3
# Si number density = 25.076381 Si / 1000 Ang^3
#
#
#
# Elastic Constant Matrix: (Units=GPa)
#
#
# Indices 1 2 3 4 5 6 
#
# 1 49.0939 6.0355 0.4092 0.0000 0.0000 0.0000
# 2 6.0355 139.5394 4.6281 0.0000 0.0000 0.0000
# 3 0.4092 4.6281 76.3489 0.0000 0.0000 0.0000
# 4 0.0000 0.0000 0.0000 -7.7603 0.0000 0.0000
# 5 0.0000 0.0000 0.0000 0.0000 68.2029 0.0000
# 6 0.0000 0.0000 0.0000 0.0000 0.0000 46.3629
#
#
#
# Elastic Compliance Matrix: (Units=1/GPa)
#
#
# Indices 1 2 3 4 5 6 
#
# 1 0.020478 -0.000884 -0.000056 0.000000 0.000000 0.000000
# 2 -0.000884 0.007219 -0.000433 0.000000 0.000000 0.000000
# 3 -0.000056 -0.000433 0.013124 0.000000 0.000000 0.000000
# 4 0.000000 0.000000 0.000000 -0.128862 0.000000 0.000000
# 5 0.000000 0.000000 0.000000 0.000000 0.014662 0.000000
# 6 0.000000 0.000000 0.000000 0.000000 0.000000 0.021569
#
#
# Mechanical properties :
#
#
# Convention : Reuss Voigt Hill
#
# Bulk Modulus (GPa) = 26.26342 31.90308 29.08325
# Shear Modulus (GPa) = -137.47115 38.28839 -49.59138
#
# Velocity S-wave (km/s) = -7.41215 3.91176 -4.45186
# Velocity P-wave (km/s) = 7.92194 5.75782 3.84739
#
# Compressibility (1/GPa) = 0.03807577
#
# Stress axis : x y z
#
# Youngs Moduli (GPa) = 48.83222 138.52292 76.19449
#
# Poissons Ratio (x) = 0.12244 0.00428
# Poissons Ratio (y) = 0.04316 0.03298
# Poissons Ratio (z) = 0.00274 0.05996
#
# Static dielectric constant tensor:
#      x y z
#    x 2.174890 0.000000 0.000000 
#    y 0.000000 1.949070 0.000000 
#    z 0.000000 0.000000 1.968510 
# 
# From -- ./inp_files/3840.got.cif
#   From: 2010.05.17/outbox.cif.g08.bks.cpg/sg55_2_cif.got.tgz:3840.got - 2010.06.03 13:27:54.
