data_PCOD9427645
_publ_section_title
;
Structure prediction by ZEFSAII (Michael W. Deem and Ramdas Pophale) SiO2 
 PCOD9427645
Probable space group: P B A M
;
_chemical_formula_sum "Si O2"
_cell_formula_units_Z 64
_cell_length_a 24.801835
_cell_length_b 15.879308
_cell_length_c 7.873862
_cell_angle_alpha 90.000000
_cell_angle_beta 90.000000
_cell_angle_gamma 90.000000
_cell_volume 3101.010133
_symmetry_space_group_name_H-M "P B A M"
_symmetry_group_IT_number 55
_symmetry_cell_setting 'orthorhombic'
loop_
_space_group_symop_operation_xyz
x,y,z
-x,-y,z
1/2+x,1/2-y,-z
1/2-x,1/2+y,-z
-x,-y,-z
x,y,-z
1/2-x,1/2+y,z
1/2+x,1/2-y,z
loop_
_atom_site_type_symbol
_atom_site_label
_atom_site_fract_x
_atom_site_fract_y
_atom_site_fract_z
Si Si1 0.993998 0.865653 0.794743
Si Si2 0.412682 0.491546 0.207232
Si Si3 0.210514 0.981561 0.205794
Si Si4 0.718254 0.179312 0.702019
Si Si5 0.387455 0.101004 0.297288
Si Si6 0.227587 0.647247 0.199787
Si Si7 0.110736 0.409498 0.708539
Si Si8 0.000220 0.327745 0.702269
O O1 0.943151 0.922746 0.740466
O O2 0.992708 0.771089 0.731712
O O3 0.048161 0.915086 0.740401
O O4 0.993936 0.864264 0.000000
O O5 0.351428 0.483938 0.265745
O O6 0.412136 0.491349 0.000000
O O7 0.240724 0.896293 0.256013
O O8 0.242880 0.063719 0.270360
O O9 0.209336 0.984782 0.000000
O O10 0.715034 0.186958 0.500000
O O11 0.739014 0.268280 0.768858
O O12 0.659497 0.150155 0.766098
O O13 0.393255 0.095395 0.500000
O O14 0.333478 0.153214 0.264520
O O15 0.442779 0.140537 0.228347
O O16 0.379613 0.005362 0.234867
O O17 0.223399 0.634580 0.000000
O O18 0.111233 0.408699 0.500000
O O19 0.052530 0.377252 0.767434
O O20 0.999432 0.342631 0.500000
#
# Coordination Sequence:
#
# PCOD9427645 Si02
#       8
#     8   8   8   8   8   8   8   8
#     4   9  18  35  57  81 109 146 186 227 276 339
#     4   8  17  35  57  78 108 148 186 222 276 339
#     4  10  21  39  61  86 116 154 195 241 292 344
#     4  11  23  39  61  87 118 155 197 239 289 349
#     4  10  20  39  62  82 111 149 193 237 285 343
#     4  11  24  39  59  87 121 156 195 240 292 346
#     4   9  19  38  60  82 111 149 188 233 287 341
#     4  10  21  35  57  86 112 142 186 237 288 339
#
# _framework density 20.638438000000001
#
# number of rings (size 3 to 8) (size 9 to 14) (size 15 to 20)
#    0.000    2.250    1.250    1.875    3.500    2.500 
#    0.000    3.125    0.000    1.500    0.000    0.000 
#    0.000    0.000    0.000    0.000    0.000    0.000 
#
# Total GULP energy -357418.722132 kJ/mol
# GULP energy per Si atom -5584.667533 kJ/mol
# Density = 2.059146 g / cm^3
# Si number density = 20.638438 Si / 1000 Ang^3
#
#
#
# Elastic Constant Matrix: (Units=GPa)
#
#
# Indices 1 2 3 4 5 6 
#
# 1 -127.1881 -173.4047 58.7391 0.0000 0.0000 0.0000
# 2 -173.4047 -66.5016 33.9622 0.0000 0.0000 0.0000
# 3 58.7391 33.9622 2.6059 0.0000 0.0000 0.0000
# 4 0.0000 0.0000 0.0000 13.5775 0.0000 0.0000
# 5 0.0000 0.0000 0.0000 0.0000 12.1264 0.0000
# 6 0.0000 0.0000 0.0000 0.0000 0.0000 -58.8237
#
#
#
# Elastic Compliance Matrix: (Units=1/GPa)
#
#
# Indices 1 2 3 4 5 6 
#
# 1 0.003566 -0.006577 0.005330 0.000000 0.000000 0.000000
# 2 -0.006577 0.010165 0.015768 0.000000 0.000000 0.000000
# 3 0.005330 0.015768 0.058091 0.000000 0.000000 0.000000
# 4 0.000000 0.000000 0.000000 0.073651 0.000000 0.000000
# 5 0.000000 0.000000 0.000000 0.000000 0.082465 0.000000
# 6 0.000000 0.000000 0.000000 0.000000 0.000000 -0.017000
#
#
# Mechanical properties :
#
#
# Convention : Reuss Voigt Hill
#
# Bulk Modulus (GPa) = 9.91414 -39.16562 -14.62574
# Shear Modulus (GPa) = 23.19990 -13.98266 4.60862
#
# Velocity S-wave (km/s) = 3.35641 -2.60572 1.49595
# Velocity P-wave (km/s) = 4.45363 5.29823 2.02934
#
# Compressibility (1/GPa) = 0.10086607
#
# Stress axis : x y z
#
# Youngs Moduli (GPa) = 280.40222 98.37226 17.21426
#
# Poissons Ratio (x) = 0.64700 -0.09176
# Poissons Ratio (y) = 1.84423 -0.27144
# Poissons Ratio (z) = -1.49462 -1.55116
#
# Static dielectric constant tensor:
#      x y z
#    x 1.748090 0.000000 0.000000 
#    y 0.000000 1.698260 0.000000 
#    z 0.000000 0.000000 1.751180 
# 
# From -- ./inp_files/9736.got.cif
#   From: 2010.05.17/outbox.cif.g08.bks.cpg/sg55_5_cif.got.tgz:9736.got - 2010.06.03 13:27:54.
