data_PCOD9427600
_publ_section_title
;
Structure prediction by ZEFSAII (Michael W. Deem and Ramdas Pophale) SiO2 
 PCOD9427600
Probable space group: P B A M
;
_chemical_formula_sum "Si O2"
_cell_formula_units_Z 48
_cell_length_a 20.471076
_cell_length_b 14.113208
_cell_length_c 9.099900
_cell_angle_alpha 90.000000
_cell_angle_beta 90.000000
_cell_angle_gamma 90.000000
_cell_volume 2629.075346
_symmetry_space_group_name_H-M "P B A M"
_symmetry_group_IT_number 55
_symmetry_cell_setting 'orthorhombic'
loop_
_space_group_symop_operation_xyz
x,y,z
-x,-y,z
1/2+x,1/2-y,-z
1/2-x,1/2+y,-z
-x,-y,-z
x,y,-z
1/2-x,1/2+y,z
1/2+x,1/2-y,z
loop_
_atom_site_type_symbol
_atom_site_label
_atom_site_fract_x
_atom_site_fract_y
_atom_site_fract_z
Si Si1 0.072383 0.040763 0.674441
Si Si2 0.931514 0.552021 0.175384
Si Si3 0.693888 0.967429 0.327942
Si Si4 0.608354 0.244479 0.323769
Si Si5 0.236687 0.750067 0.329100
Si Si6 0.686907 0.574804 0.174336
O O1 0.088083 0.034084 0.500000
O O2 0.080248 0.151663 0.714326
O O3 0.123778 0.978060 0.762950
O O4 0.000000 0.000000 0.696616
O O5 0.873970 0.492763 0.251915
O O6 0.926190 0.657915 0.241288
O O7 0.000000 0.500000 0.204702
O O8 0.921594 0.555862 0.000000
O O9 0.691538 0.994028 0.500000
O O10 0.712931 0.857536 0.317841
O O11 0.750415 0.024968 0.246854
O O12 0.601551 0.232061 0.500000
O O13 0.686249 0.243672 0.290510
O O14 0.230304 0.779641 0.500000
O O15 0.193323 0.817499 0.228489
O O16 0.689180 0.568229 0.000000
#
# Coordination Sequence:
#
# PCOD9427600 Si02
#       6
#     8   8   8   8   8   8
#     4  10  22  42  66  91 123 161 206 257 303 357
#     4  11  25  42  60  89 129 165 199 249 309 367
#     4  11  22  40  65  90 118 156 208 257 297 354
#     4  10  20  38  64  90 118 160 207 250 304 363
#     4  10  21  38  63  91 121 158 204 256 302 354
#     4  12  24  37  60  92 126 160 198 247 305 366
#
# _framework density 18.257369000000001
#
# number of rings (size 3 to 8) (size 9 to 14) (size 15 to 20)
#    0.000    1.333    3.333    2.500    0.000    5.000 
#    0.000    5.000    0.000    0.000    0.000    0.000 
#    0.000    0.000    0.000    0.000    0.000    0.000 
#
# Total GULP energy -268281.280683 kJ/mol
# GULP energy per Si atom -5589.193348 kJ/mol
# Density = 1.821581 g / cm^3
# Si number density = 18.257369 Si / 1000 Ang^3
#
#
#
# Elastic Constant Matrix: (Units=GPa)
#
#
# Indices 1 2 3 4 5 6 
#
# 1 83.4189 40.4063 60.7977 0.0000 0.0000 0.0000
# 2 40.4063 101.9886 50.3507 0.0000 0.0000 0.0000
# 3 60.7977 50.3507 83.5451 0.0000 0.0000 0.0000
# 4 0.0000 0.0000 0.0000 -33.3349 0.0000 0.0000
# 5 0.0000 0.0000 0.0000 0.0000 24.4110 0.0000
# 6 0.0000 0.0000 0.0000 0.0000 0.0000 29.1346
#
#
#
# Elastic Compliance Matrix: (Units=1/GPa)
#
#
# Indices 1 2 3 4 5 6 
#
# 1 0.025656 -0.001348 -0.017858 0.000000 0.000000 0.000000
# 2 -0.001348 0.014029 -0.007474 0.000000 0.000000 0.000000
# 3 -0.017858 -0.007474 0.029469 0.000000 0.000000 0.000000
# 4 0.000000 0.000000 0.000000 -0.029999 0.000000 0.000000
# 5 0.000000 0.000000 0.000000 0.000000 0.040965 0.000000
# 6 0.000000 0.000000 0.000000 0.000000 0.000000 0.034323
#
#
# Mechanical properties :
#
#
# Convention : Reuss Voigt Hill
#
# Bulk Modulus (GPa) = 63.31297 63.56244 63.43770
# Shear Modulus (GPa) = 28.89020 11.86866 20.37943
#
# Velocity S-wave (km/s) = 3.98224 2.55242 3.34463
# Velocity P-wave (km/s) = 7.47647 6.60127 7.05246
#
# Compressibility (1/GPa) = 0.01579455
#
# Stress axis : x y z
#
# Youngs Moduli (GPa) = 38.97720 71.28158 33.93344
#
# Poissons Ratio (x) = 0.09611 0.60598
# Poissons Ratio (y) = 0.05255 0.25361
# Poissons Ratio (z) = 0.69605 0.53274
#
# Static dielectric constant tensor:
#      x y z
#    x 1.595200 0.000000 0.000000 
#    y 0.000000 1.632670 0.000000 
#    z 0.000000 0.000000 1.605880 
# 
# From -- ./inp_files/7439.got.cif
#   From: 2010.05.17/outbox.cif.g08.bks.cpg/sg55_4_cif.got.tgz:7439.got - 2010.06.03 13:27:54.
