data_PCOD9427790
_publ_section_title
;
Structure prediction by ZEFSAII (Michael W. Deem and Ramdas Pophale) SiO2 
 PCOD9427790
Probable space group: P B A M
;
_chemical_formula_sum "Si O2"
_cell_formula_units_Z 64
_cell_length_a 11.336929
_cell_length_b 31.684557
_cell_length_c 9.714942
_cell_angle_alpha 90.000000
_cell_angle_beta 90.000000
_cell_angle_gamma 90.000000
_cell_volume 3489.661309
_symmetry_space_group_name_H-M "P B A M"
_symmetry_group_IT_number 55
_symmetry_cell_setting 'orthorhombic'
loop_
_space_group_symop_operation_xyz
x,y,z
-x,-y,z
1/2+x,1/2-y,-z
1/2-x,1/2+y,-z
-x,-y,-z
x,y,-z
1/2-x,1/2+y,z
1/2+x,1/2-y,z
loop_
_atom_site_type_symbol
_atom_site_label
_atom_site_fract_x
_atom_site_fract_y
_atom_site_fract_z
Si Si1 0.631604 0.981100 0.333435
Si Si2 0.069451 0.809479 0.153815
Si Si3 0.141716 0.617663 0.666171
Si Si4 0.149412 0.173033 0.658139
Si Si5 0.774172 0.106158 0.152631
Si Si6 0.743533 0.734080 0.343697
Si Si7 0.099302 0.346396 0.336037
Si Si8 0.864517 0.014206 0.835372
O O1 0.648495 0.987215 0.500000
O O2 0.623776 0.931170 0.302998
O O3 0.500000 0.000000 0.299874
O O4 0.749614 0.997127 0.251191
O O5 0.148021 0.851701 0.148356
O O6 0.142429 0.774254 0.234431
O O7 0.959208 0.821523 0.243863
O O8 0.038969 0.796289 0.000000
O O9 0.145092 0.621490 0.500000
O O10 0.264633 0.636835 0.713102
O O11 0.033445 0.646610 0.713440
O O12 0.114182 0.163828 0.500000
O O13 0.214968 0.218068 0.657161
O O14 0.676761 0.117198 0.265306
O O15 0.851438 0.064853 0.180881
O O16 0.720404 0.100284 0.000000
O O17 0.702540 0.724039 0.500000
O O18 0.846681 0.700029 0.310569
O O19 0.102924 0.352484 0.500000
O O20 0.850761 0.004263 0.000000
O O21 0.000000 0.000000 0.796907
#
# Coordination Sequence:
#
# PCOD9427790 Si02
#       8
#     8   8   8   8   8   8   8   8
#     4  10  21  38  59  85 115 148 186 235 293 347
#     4  10  21  36  55  78 110 144 177 222 273 326
#     4   9  19  34  54  81 113 141 174 226 281 327
#     4  10  21  35  55  80 109 143 181 226 270 321
#     4   9  19  36  55  77 107 142 179 221 273 324
#     4   9  19  34  57  82 104 139 185 226 265 317
#     4   9  17  33  57  82 104 137 181 222 265 320
#     4  10  22  38  58  82 111 149 190 234 280 337
#
# _framework density 18.339888999999999
#
# number of rings (size 3 to 8) (size 9 to 14) (size 15 to 20)
#    0.000    2.500    0.000    1.125    3.500    3.000 
#    0.000    1.250    0.000    0.000    0.000    0.000 
#    0.000    0.000    0.000    0.000    0.000    0.000 
#
# Total GULP energy -356409.283794 kJ/mol
# GULP energy per Si atom -5568.895059 kJ/mol
# Density = 1.829815 g / cm^3
# Si number density = 18.339889 Si / 1000 Ang^3
#
#
#
# Elastic Constant Matrix: (Units=GPa)
#
#
# Indices 1 2 3 4 5 6 
#
# 1 88.6736 -4.9970 46.4225 0.0000 0.0000 0.0000
# 2 -4.9970 23.8026 6.6033 0.0000 0.0000 0.0000
# 3 46.4225 6.6033 56.6064 0.0000 0.0000 0.0000
# 4 0.0000 0.0000 0.0000 75.0274 0.0000 0.0000
# 5 0.0000 0.0000 0.0000 0.0000 174.9964 0.0000
# 6 0.0000 0.0000 0.0000 0.0000 0.0000 73.1483
#
#
#
# Elastic Compliance Matrix: (Units=1/GPa)
#
#
# Indices 1 2 3 4 5 6 
#
# 1 0.021788 0.009850 -0.019018 0.000000 0.000000 0.000000
# 2 0.009850 0.047870 -0.013662 0.000000 0.000000 0.000000
# 3 -0.019018 -0.013662 0.034856 0.000000 0.000000 0.000000
# 4 0.000000 0.000000 0.000000 0.013328 0.000000 0.000000
# 5 0.000000 0.000000 0.000000 0.000000 0.005714 0.000000
# 6 0.000000 0.000000 0.000000 0.000000 0.000000 0.013671
#
#
# Mechanical properties :
#
#
# Convention : Reuss Voigt Hill
#
# Bulk Modulus (GPa) = 16.99092 29.46002 23.22547
# Shear Modulus (GPa) = 24.69066 72.70468 48.69767
#
# Velocity S-wave (km/s) = 3.67315 6.30309 5.15854
# Velocity P-wave (km/s) = 5.22245 8.31085 6.94061
#
# Compressibility (1/GPa) = 0.05885496
#
# Stress axis : x y z
#
# Youngs Moduli (GPa) = 45.89579 20.88986 28.68969
#
# Poissons Ratio (x) = -0.20576 0.54561
# Poissons Ratio (y) = -0.45207 0.39196
# Poissons Ratio (z) = 0.87283 0.28540
#
# Static dielectric constant tensor:
#      x y z
#    x 1.661710 0.000000 0.000000 
#    y 0.000000 1.623020 0.000000 
#    z 0.000000 0.000000 1.642070 
# 
# From -- ./inp_files/4634.got.cif
#   From: 2010.05.17/outbox.cif.g08.bks.cpg/sg55_3_cif.got.tgz:4634.got - 2010.06.03 13:27:54.
