data_PCOD9427858
_publ_section_title
;
Structure prediction by ZEFSAII (Michael W. Deem and Ramdas Pophale) SiO2 
 PCOD9427858
Probable space group: P B A M
;
_chemical_formula_sum "Si O2"
_cell_formula_units_Z 40
_cell_length_a 22.629100
_cell_length_b 8.149832
_cell_length_c 11.171286
_cell_angle_alpha 90.000000
_cell_angle_beta 90.000000
_cell_angle_gamma 90.000000
_cell_volume 2060.246137
_symmetry_space_group_name_H-M "P B A M"
_symmetry_group_IT_number 55
_symmetry_cell_setting 'orthorhombic'
loop_
_space_group_symop_operation_xyz
x,y,z
-x,-y,z
1/2+x,1/2-y,-z
1/2-x,1/2+y,-z
-x,-y,-z
x,y,-z
1/2-x,1/2+y,z
1/2+x,1/2-y,z
loop_
_atom_site_type_symbol
_atom_site_label
_atom_site_fract_x
_atom_site_fract_y
_atom_site_fract_z
Si Si1 0.553907 0.787772 0.500000
Si Si2 0.596243 0.188169 0.236990
Si Si3 0.657937 0.313510 0.000000
Si Si4 0.470155 0.324691 0.247161
Si Si5 0.412238 0.842209 0.500000
Si Si6 0.628355 0.856250 0.870085
Si Si7 0.780871 0.168435 0.000000
O O1 0.561227 0.691400 0.376422
O O2 0.483046 0.816869 0.500000
O O3 0.589867 0.958294 0.500000
O O4 0.621826 0.289283 0.124061
O O5 0.524818 0.198247 0.232634
O O6 0.611136 0.232868 0.375154
O O7 0.619585 0.002921 0.221005
O O8 0.691318 0.488464 0.000000
O O9 0.711004 0.179440 0.000000
O O10 0.500000 0.500000 0.234546
O O11 0.419667 0.283158 0.153914
O O12 0.613675 0.930695 0.000000
O O13 0.691438 0.769772 0.887801
#
# Coordination Sequence:
#
# PCOD9427858 Si02
#       7
#     4   8   4   8   4   8   4
#     4   9  17  32  52  73 119 160 190 226 277 351
#     4  11  21  35  61  85 115 156 194 235 287 341
#     4  12  22  41  64  85 108 148 190 244 288 350
#     4  11  21  32  51  84 122 156 194 237 288 344
#     4   9  18  34  54  85 113 156 194 230 279 344
#     4  10  21  36  54  82 115 149 192 235 285 342
#     4  10  24  41  60  87 112 144 192 240 298 344
#
# _framework density 19.415156
#
# number of rings (size 3 to 8) (size 9 to 14) (size 15 to 20)
#    0.600    1.000    3.000    3.300    1.400    1.200 
#    0.000    0.000    0.000    6.000    0.000    0.000 
#    0.000    0.000    0.000    0.000    0.000    0.000 
#
# Total GULP energy -222774.526575 kJ/mol
# GULP energy per Si atom -5569.363164 kJ/mol
# Density = 1.937097 g / cm^3
# Si number density = 19.415156 Si / 1000 Ang^3
#
#
#
# Elastic Constant Matrix: (Units=GPa)
#
#
# Indices 1 2 3 4 5 6 
#
# 1 58.2959 -1.3319 39.2181 0.0000 0.0000 0.0000
# 2 -1.3319 53.6985 10.0967 0.0000 0.0000 0.0000
# 3 39.2181 10.0967 129.7994 0.0000 0.0000 0.0000
# 4 0.0000 0.0000 0.0000 15.6740 0.0000 0.0000
# 5 0.0000 0.0000 0.0000 0.0000 -47.5449 0.0000
# 6 0.0000 0.0000 0.0000 0.0000 0.0000 33.0242
#
#
#
# Elastic Compliance Matrix: (Units=1/GPa)
#
#
# Indices 1 2 3 4 5 6 
#
# 1 0.021700 0.001797 -0.006696 0.000000 0.000000 0.000000
# 2 0.001797 0.019048 -0.002025 0.000000 0.000000 0.000000
# 3 -0.006696 -0.002025 0.009885 0.000000 0.000000 0.000000
# 4 0.000000 0.000000 0.000000 0.063800 0.000000 0.000000
# 5 0.000000 0.000000 0.000000 0.000000 -0.021033 0.000000
# 6 0.000000 0.000000 0.000000 0.000000 0.000000 0.030281
#
#
# Mechanical properties :
#
#
# Convention : Reuss Voigt Hill
#
# Bulk Modulus (GPa) = 27.18493 37.52886 32.35689
# Shear Modulus (GPa) = 33.38014 13.15138 23.26576
#
# Velocity S-wave (km/s) = 4.15092 2.60547 3.46545
# Velocity P-wave (km/s) = 6.08324 5.33132 5.71965
#
# Compressibility (1/GPa) = 0.03678509
#
# Stress axis : x y z
#
# Youngs Moduli (GPa) = 46.08343 52.49958 101.16408
#
# Poissons Ratio (x) = -0.09436 0.67742
# Poissons Ratio (y) = -0.08282 0.20483
# Poissons Ratio (z) = 0.30859 0.10630
#
# Static dielectric constant tensor:
#      x y z
#    x 1.646220 0.000000 0.000000 
#    y 0.000000 1.749890 0.000000 
#    z 0.000000 0.000000 1.715390 
# 
# From -- ./inp_files/15245.got.cif
#   From: 2010.05.17/outbox.cif.g08.bks.cpg/sg55_8_cif.got.tgz:15245.got - 2010.06.03 13:27:54.
