data_PCOD9427987
_publ_section_title
;
Structure prediction by ZEFSAII (Michael W. Deem and Ramdas Pophale) SiO2 
 PCOD9427987
Probable space group: P B A M
;
_chemical_formula_sum "Si O2"
_cell_formula_units_Z 48
_cell_length_a 4.995535
_cell_length_b 34.032598
_cell_length_c 13.356339
_cell_angle_alpha 90.000000
_cell_angle_beta 90.000000
_cell_angle_gamma 90.000000
_cell_volume 2270.725010
_symmetry_space_group_name_H-M "P B A M"
_symmetry_group_IT_number 55
_symmetry_cell_setting 'orthorhombic'
loop_
_space_group_symop_operation_xyz
x,y,z
-x,-y,z
1/2+x,1/2-y,-z
1/2-x,1/2+y,-z
-x,-y,-z
x,y,-z
1/2-x,1/2+y,z
1/2+x,1/2-y,z
loop_
_atom_site_type_symbol
_atom_site_label
_atom_site_fract_x
_atom_site_fract_y
_atom_site_fract_z
Si Si1 0.390861 0.408009 0.383204
Si Si2 0.735575 0.526135 0.114788
Si Si3 0.127502 0.539655 0.383067
Si Si4 0.714396 0.276635 0.884415
Si Si5 0.984884 0.854182 0.793609
Si Si6 0.531662 0.107301 0.882363
O O1 0.454119 0.399954 0.500000
O O2 0.095561 0.426391 0.380155
O O3 0.430245 0.369747 0.315272
O O4 0.596930 0.441767 0.346019
O O5 0.500000 0.500000 0.160515
O O6 0.828264 0.567665 0.158310
O O7 0.000000 0.500000 0.108526
O O8 0.643561 0.535509 0.000000
O O9 0.184081 0.529664 0.500000
O O10 0.000000 0.500000 0.337471
O O11 0.510364 0.240380 0.872415
O O12 0.632593 0.310966 0.809089
O O13 0.687019 0.291308 0.000000
O O14 0.748015 0.882641 0.832040
O O15 0.249137 0.859302 0.861499
O O16 0.483340 0.102365 0.000000
#
# Coordination Sequence:
#
# PCOD9427987 Si02
#       6
#     8   8   8   8   8   8
#     4  10  21  37  57  83 116 154 195 240 289 337
#     4   9  17  31  49  68  99 145 187 222 264 315
#     4   9  17  33  57  81 110 151 197 248 299 335
#     4  10  21  38  61  87 114 144 178 224 285 349
#     4  12  23  38  59  86 116 147 187 231 287 350
#     4  11  22  36  56  82 112 147 188 236 285 334
#
# _framework density 21.138622000000002
#
# number of rings (size 3 to 8) (size 9 to 14) (size 15 to 20)
#    0.000    1.833    0.000    5.000    0.000    6.000 
#    0.000    8.333    0.000    1.000    0.000    0.000 
#    0.000    0.000    0.000    0.000    0.000    0.000 
#
# Total GULP energy -268473.634308 kJ/mol
# GULP energy per Si atom -5593.200715 kJ/mol
# Density = 2.109051 g / cm^3
# Si number density = 21.138622 Si / 1000 Ang^3
#
#
#
# Elastic Constant Matrix: (Units=GPa)
#
#
# Indices 1 2 3 4 5 6 
#
# 1 90.8685 -12.4061 -4.8619 0.0000 0.0000 0.0000
# 2 -12.4061 60.3381 24.9030 0.0000 0.0000 0.0000
# 3 -4.8619 24.9030 79.3488 0.0000 0.0000 0.0000
# 4 0.0000 0.0000 0.0000 36.2764 0.0000 0.0000
# 5 0.0000 0.0000 0.0000 0.0000 15.0754 0.0000
# 6 0.0000 0.0000 0.0000 0.0000 0.0000 27.9540
#
#
#
# Elastic Compliance Matrix: (Units=1/GPa)
#
#
# Indices 1 2 3 4 5 6 
#
# 1 0.011323 0.002346 -0.000042 0.000000 0.000000 0.000000
# 2 0.002346 0.019525 -0.005984 0.000000 0.000000 0.000000
# 3 -0.000042 -0.005984 0.014478 0.000000 0.000000 0.000000
# 4 0.000000 0.000000 0.000000 0.027566 0.000000 0.000000
# 5 0.000000 0.000000 0.000000 0.000000 0.066333 0.000000
# 6 0.000000 0.000000 0.000000 0.000000 0.000000 0.035773
#
#
# Mechanical properties :
#
#
# Convention : Reuss Voigt Hill
#
# Bulk Modulus (GPa) = 26.34044 27.31393 26.82719
# Shear Modulus (GPa) = 25.63900 30.72252 28.18076
#
# Velocity S-wave (km/s) = 3.48645 3.81646 3.65518
# Velocity P-wave (km/s) = 5.35677 5.68946 5.52562
#
# Compressibility (1/GPa) = 0.03796444
#
# Stress axis : x y z
#
# Youngs Moduli (GPa) = 88.31674 51.21541 69.07000
#
# Poissons Ratio (x) = -0.12013 0.00293
# Poissons Ratio (y) = -0.20715 0.41333
# Poissons Ratio (z) = 0.00374 0.30648
#
# Static dielectric constant tensor:
#      x y z
#    x 1.751090 0.000000 0.000000 
#    y 0.000000 1.785850 0.000000 
#    z 0.000000 0.000000 1.814340 
# 
# From -- ./inp_files/16666.got.cif
#   From: 2010.05.17/outbox.cif.g08.bks.cpg/sg55_9_cif.got.tgz:16666.got - 2010.06.03 13:27:54.
