data_PCOD9427411
_publ_section_title
;
Structure prediction by ZEFSAII (Michael W. Deem and Ramdas Pophale) SiO2 
 PCOD9427411
Probable space group: P B A M
;
_chemical_formula_sum "Si O2"
_cell_formula_units_Z 48
_cell_length_a 10.528734
_cell_length_b 29.097831
_cell_length_c 8.709776
_cell_angle_alpha 90.000000
_cell_angle_beta 90.000000
_cell_angle_gamma 90.000000
_cell_volume 2668.355914
_symmetry_space_group_name_H-M "P B A M"
_symmetry_group_IT_number 55
_symmetry_cell_setting 'orthorhombic'
loop_
_space_group_symop_operation_xyz
x,y,z
-x,-y,z
1/2+x,1/2-y,-z
1/2-x,1/2+y,-z
-x,-y,-z
x,y,-z
1/2-x,1/2+y,z
1/2+x,1/2-y,z
loop_
_atom_site_type_symbol
_atom_site_label
_atom_site_fract_x
_atom_site_fract_y
_atom_site_fract_z
Si Si1 0.149876 0.552179 0.685582
Si Si2 0.495562 0.696539 0.815932
Si Si3 0.763533 0.354564 0.183692
Si Si4 0.759327 0.146110 0.314354
Si Si5 0.853090 0.550872 0.313649
Si Si6 0.002435 0.299053 0.316068
O O1 0.156861 0.554897 0.500000
O O2 0.229146 0.593300 0.757038
O O3 0.186600 0.500414 0.734029
O O4 0.000952 0.558222 0.728859
O O5 0.365909 0.670859 0.769046
O O6 0.616717 0.668088 0.758865
O O7 0.499135 0.747457 0.746368
O O8 0.497888 0.699940 0.000000
O O9 0.884163 0.327488 0.250628
O O10 0.770709 0.354071 0.000000
O O11 0.771751 0.146638 0.500000
O O12 0.731070 0.093801 0.263315
O O13 0.634521 0.175943 0.274833
O O14 0.851989 0.550871 0.500000
O O15 0.993079 0.298729 0.500000
#
# Coordination Sequence:
#
# PCOD9427411 Si02
#       6
#     8   8   8   8   8   8
#     4   9  16  32  59  85 111 142 181 231 279 322
#     4  11  25  40  53  77 116 155 185 223 276 331
#     4  11  23  38  56  82 117 151 185 224 272 332
#     4  10  20  37  60  86 111 141 186 233 278 329
#     4   8  15  31  57  87 112 137 178 235 282 319
#     4  11  22  38  62  86 106 139 189 238 279 325
#
# _framework density 17.988603999999999
#
# number of rings (size 3 to 8) (size 9 to 14) (size 15 to 20)
#    0.000    2.000    1.667    3.500    0.000    6.667 
#    0.000    3.333    0.000    5.000    0.000    0.000 
#    0.000    0.000    0.000    0.000    0.000    0.000 
#
# Total GULP energy -268007.154610 kJ/mol
# GULP energy per Si atom -5583.482388 kJ/mol
# Density = 1.794766 g / cm^3
# Si number density = 17.988604 Si / 1000 Ang^3
#
#
#
# Elastic Constant Matrix: (Units=GPa)
#
#
# Indices 1 2 3 4 5 6 
#
# 1 119.0069 73.1037 37.8338 0.0000 0.0000 0.0000
# 2 73.1037 174.0236 35.5598 0.0000 0.0000 0.0000
# 3 37.8338 35.5598 27.6536 0.0000 0.0000 0.0000
# 4 0.0000 0.0000 0.0000 -60.2637 0.0000 0.0000
# 5 0.0000 0.0000 0.0000 0.0000 24.9750 0.0000
# 6 0.0000 0.0000 0.0000 0.0000 0.0000 -14.4736
#
#
#
# Elastic Compliance Matrix: (Units=1/GPa)
#
#
# Indices 1 2 3 4 5 6 
#
# 1 0.015978 -0.003045 -0.017944 0.000000 0.000000 0.000000
# 2 -0.003045 0.008375 -0.006603 0.000000 0.000000 0.000000
# 3 -0.017944 -0.006603 0.069202 0.000000 0.000000 0.000000
# 4 0.000000 0.000000 0.000000 -0.016594 0.000000 0.000000
# 5 0.000000 0.000000 0.000000 0.000000 0.040040 0.000000
# 6 0.000000 0.000000 0.000000 0.000000 0.000000 -0.069091
#
#
# Mechanical properties :
#
#
# Convention : Reuss Voigt Hill
#
# Bulk Modulus (GPa) = 26.06163 68.18652 47.12408
# Shear Modulus (GPa) = 43.14582 1.66000 22.40291
#
# Velocity S-wave (km/s) = 4.90277 0.96167 3.53284
# Velocity P-wave (km/s) = 6.82414 6.26265 6.54941
#
# Compressibility (1/GPa) = 0.03837059
#
# Stress axis : x y z
#
# Youngs Moduli (GPa) = 62.58443 119.40517 14.45035
#
# Poissons Ratio (x) = 0.36364 0.25930
# Poissons Ratio (y) = 0.19060 0.09541
# Poissons Ratio (z) = 1.12305 0.78839
#
# Static dielectric constant tensor:
#      x y z
#    x 1.585430 0.000000 0.000000 
#    y 0.000000 1.618880 0.000000 
#    z 0.000000 0.000000 1.606700 
# 
# From -- ./inp_files/2847.got.cif
#   From: 2010.05.17/outbox.cif.g08.bks.cpg/sg55_2_cif.got.tgz:2847.got - 2010.06.03 13:27:54.
