data_PCOD9427710
_publ_section_title
;
Structure prediction by ZEFSAII (Michael W. Deem and Ramdas Pophale) SiO2 
 PCOD9427710
Probable space group: P B A M
;
_chemical_formula_sum "Si O2"
_cell_formula_units_Z 32
_cell_length_a 12.245691
_cell_length_b 11.450331
_cell_length_c 11.074767
_cell_angle_alpha 90.000000
_cell_angle_beta 90.000000
_cell_angle_gamma 90.000000
_cell_volume 1552.872989
_symmetry_space_group_name_H-M "P B A M"
_symmetry_group_IT_number 55
_symmetry_cell_setting 'orthorhombic'
loop_
_space_group_symop_operation_xyz
x,y,z
-x,-y,z
1/2+x,1/2-y,-z
1/2-x,1/2+y,-z
-x,-y,-z
x,y,-z
1/2-x,1/2+y,z
1/2+x,1/2-y,z
loop_
_atom_site_type_symbol
_atom_site_label
_atom_site_fract_x
_atom_site_fract_y
_atom_site_fract_z
Si Si1 0.658624 0.946033 0.361997
Si Si2 0.347934 0.860959 0.000000
Si Si3 0.191874 0.090716 0.000000
Si Si4 0.962602 0.662511 0.256122
Si Si5 0.602106 0.422218 0.265897
O O1 0.645137 0.909230 0.500000
O O2 0.591232 0.859265 0.274643
O O3 0.784437 0.954749 0.327871
O O4 0.600714 0.069533 0.338527
O O5 0.422284 0.858788 0.119707
O O6 0.280522 0.983749 0.000000
O O7 0.282724 0.733496 0.000000
O O8 0.123651 0.071201 0.121991
O O9 0.927979 0.789976 0.294439
O O10 0.500000 0.500000 0.300901
#
# Coordination Sequence:
#
# PCOD9427710 Si02
#       5
#     8   4   4   8   8
#     4  11  25  44  67  93 133 180 227 279 329 389
#     4  10  20  40  72 102 136 181 215 278 347 409
#     4  10  21  41  67 103 141 172 218 280 340 409
#     4  10  23  43  67 100 132 171 223 279 337 400
#     4  11  25  43  69 100 134 174 221 274 341 405
#
# _framework density 20.606966
#
# number of rings (size 3 to 8) (size 9 to 14) (size 15 to 20)
#    0.000    1.500    2.500    1.875    3.500    5.500 
#    0.000    0.000    0.000    0.000    0.000    0.000 
#    0.000    0.000    0.000    0.000    0.000    0.000 
#
# Total GULP energy -178699.746696 kJ/mol
# GULP energy per Si atom -5584.367084 kJ/mol
# Density = 2.056006 g / cm^3
# Si number density = 20.606966 Si / 1000 Ang^3
#
#
#
# Elastic Constant Matrix: (Units=GPa)
#
#
# Indices 1 2 3 4 5 6 
#
# 1 153.4340 67.1514 35.2573 0.0000 0.0000 0.0000
# 2 67.1514 100.1588 32.3667 0.0000 0.0000 0.0000
# 3 35.2573 32.3667 58.4101 0.0000 0.0000 0.0000
# 4 0.0000 0.0000 0.0000 87.8404 0.0000 0.0000
# 5 0.0000 0.0000 0.0000 0.0000 -28.8235 0.0000
# 6 0.0000 0.0000 0.0000 0.0000 0.0000 26.5097
#
#
#
# Elastic Compliance Matrix: (Units=1/GPa)
#
#
# Indices 1 2 3 4 5 6 
#
# 1 0.009562 -0.005537 -0.002704 0.000000 0.000000 0.000000
# 2 -0.005537 0.015369 -0.005174 0.000000 0.000000 0.000000
# 3 -0.002704 -0.005174 0.021619 0.000000 0.000000 0.000000
# 4 0.000000 0.000000 0.000000 0.011384 0.000000 0.000000
# 5 0.000000 0.000000 0.000000 0.000000 -0.034694 0.000000
# 6 0.000000 0.000000 0.000000 0.000000 0.000000 0.037722
#
#
# Mechanical properties :
#
#
# Convention : Reuss Voigt Hill
#
# Bulk Modulus (GPa) = 50.70804 64.61707 57.66255
# Shear Modulus (GPa) = 52.98591 28.92050 40.95320
#
# Velocity S-wave (km/s) = 5.07626 3.75031 4.46280
# Velocity P-wave (km/s) = 7.68235 7.08365 7.38907
#
# Compressibility (1/GPa) = 0.01972074
#
# Stress axis : x y z
#
# Youngs Moduli (GPa) = 104.57938 65.06814 46.25537
#
# Poissons Ratio (x) = 0.36030 0.12505
# Poissons Ratio (y) = 0.57908 0.23931
# Poissons Ratio (z) = 0.28273 0.33665
#
# Static dielectric constant tensor:
#      x y z
#    x 1.734230 0.000000 0.000000 
#    y 0.000000 1.746980 0.000000 
#    z 0.000000 0.000000 1.717800 
# 
# From -- ./inp_files/12785.got.cif
#   From: 2010.05.17/outbox.cif.g08.bks.cpg/sg55_7_cif.got.tgz:12785.got - 2010.06.03 13:27:54.
