data_PCOD9427182
_publ_section_title
;
Structure prediction by ZEFSAII (Michael W. Deem and Ramdas Pophale) SiO2 
 PCOD9427182
Probable space group: P B A M
;
_chemical_formula_sum "Si O2"
_cell_formula_units_Z 56
_cell_length_a 20.708532
_cell_length_b 15.923597
_cell_length_c 8.880654
_cell_angle_alpha 90.000000
_cell_angle_beta 90.000000
_cell_angle_gamma 90.000000
_cell_volume 2928.434003
_symmetry_space_group_name_H-M "P B A M"
_symmetry_group_IT_number 55
_symmetry_cell_setting 'orthorhombic'
loop_
_space_group_symop_operation_xyz
x,y,z
-x,-y,z
1/2+x,1/2-y,-z
1/2-x,1/2+y,-z
-x,-y,-z
x,y,-z
1/2-x,1/2+y,z
1/2+x,1/2-y,z
loop_
_atom_site_type_symbol
_atom_site_label
_atom_site_fract_x
_atom_site_fract_y
_atom_site_fract_z
Si Si1 0.828818 0.329618 0.320447
Si Si2 0.806704 0.815674 0.819265
Si Si3 0.095516 0.330962 0.180629
Si Si4 0.549703 0.572574 0.681052
Si Si5 0.680919 0.510515 0.180500
Si Si6 0.817292 0.527739 0.679342
Si Si7 0.968320 0.262614 0.318831
O O1 0.822502 0.317917 0.500000
O O2 0.764178 0.295177 0.243820
O O3 0.831293 0.429517 0.290170
O O4 0.896047 0.288606 0.271959
O O5 0.860265 0.748723 0.770785
O O6 0.823073 0.911608 0.773995
O O7 0.803855 0.814135 0.000000
O O8 0.129359 0.412995 0.247628
O O9 0.023820 0.316551 0.241730
O O10 0.095341 0.334690 0.000000
O O11 0.500000 0.500000 0.727152
O O12 0.558009 0.568499 0.500000
O O13 0.618401 0.557157 0.757472
O O14 0.522805 0.664495 0.718132
O O15 0.747068 0.545580 0.250078
O O16 0.683778 0.515085 0.000000
O O17 0.815410 0.539858 0.500000
O O18 0.972554 0.272842 0.500000
#
# Coordination Sequence:
#
# PCOD9427182 Si02
#       7
#     8   8   8   8   8   8   8
#     4   9  20  38  59  83 110 146 194 239 283 338
#     4   9  20  37  57  82 115 149 185 232 283 340
#     4  11  23  38  57  85 116 149 192 235 286 347
#     4  10  21  36  56  84 119 154 192 236 284 346
#     4  10  20  36  58  84 114 147 187 235 286 342
#     4  10  21  38  59  82 110 147 190 238 289 338
#     4  10  22  39  57  82 114 151 193 236 285 341
#
# _framework density 19.122848999999999
#
# number of rings (size 3 to 8) (size 9 to 14) (size 15 to 20)
#    0.000    2.143    0.000    2.143    2.000    4.286 
#    0.000    2.857    0.000    0.000    0.000    0.000 
#    0.000    0.000    0.000    0.000    0.000    0.000 
#
# Total GULP energy -312871.769653 kJ/mol
# GULP energy per Si atom -5586.995887 kJ/mol
# Density = 1.907932 g / cm^3
# Si number density = 19.122849 Si / 1000 Ang^3
#
#
#
# Elastic Constant Matrix: (Units=GPa)
#
#
# Indices 1 2 3 4 5 6 
#
# 1 72.4566 3.4354 11.8954 0.0000 0.0000 0.0000
# 2 3.4354 16.8644 13.2863 0.0000 0.0000 0.0000
# 3 11.8954 13.2863 17.4804 0.0000 0.0000 0.0000
# 4 0.0000 0.0000 0.0000 21.3992 0.0000 0.0000
# 5 0.0000 0.0000 0.0000 0.0000 43.8959 0.0000
# 6 0.0000 0.0000 0.0000 0.0000 0.0000 35.3431
#
#
#
# Elastic Compliance Matrix: (Units=1/GPa)
#
#
# Indices 1 2 3 4 5 6 
#
# 1 0.016746 0.013874 -0.021941 0.000000 0.000000 0.000000
# 2 0.013874 0.159293 -0.130515 0.000000 0.000000 0.000000
# 3 -0.021941 -0.130515 0.171338 0.000000 0.000000 0.000000
# 4 0.000000 0.000000 0.000000 0.046731 0.000000 0.000000
# 5 0.000000 0.000000 0.000000 0.000000 0.022781 0.000000
# 6 0.000000 0.000000 0.000000 0.000000 0.000000 0.028294
#
#
# Mechanical properties :
#
#
# Convention : Reuss Voigt Hill
#
# Bulk Modulus (GPa) = 14.24221 18.22617 16.23419
# Shear Modulus (GPa) = 6.70466 25.33995 16.02230
#
# Velocity S-wave (km/s) = 1.87449 3.64416 2.89772
# Velocity P-wave (km/s) = 3.48552 5.22095 4.43887
#
# Compressibility (1/GPa) = 0.07021381
#
# Stress axis : x y z
#
# Youngs Moduli (GPa) = 59.71717 6.27772 5.83643
#
# Poissons Ratio (x) = -0.08710 0.12806
# Poissons Ratio (y) = -0.82854 0.76174
# Poissons Ratio (z) = 1.31024 0.81934
#
# Static dielectric constant tensor:
#      x y z
#    x 1.627150 0.000000 0.000000 
#    y 0.000000 1.674420 0.000000 
#    z 0.000000 0.000000 1.636320 
# 
# From -- ./inp_files/8742.got.cif
#   From: 2010.05.17/outbox.cif.g08.bks.cpg/sg55_5_cif.got.tgz:8742.got - 2010.06.03 13:27:54.
