data_PCOD9427639
_publ_section_title
;
Structure prediction by ZEFSAII (Michael W. Deem and Ramdas Pophale) SiO2 
 PCOD9427639
Probable space group: P B A M
;
_chemical_formula_sum "Si O2"
_cell_formula_units_Z 32
_cell_length_a 13.546328
_cell_length_b 8.427974
_cell_length_c 12.642496
_cell_angle_alpha 90.000000
_cell_angle_beta 90.000000
_cell_angle_gamma 90.000000
_cell_volume 1443.369750
_symmetry_space_group_name_H-M "P B A M"
_symmetry_group_IT_number 55
_symmetry_cell_setting 'orthorhombic'
loop_
_space_group_symop_operation_xyz
x,y,z
-x,-y,z
1/2+x,1/2-y,-z
1/2-x,1/2+y,-z
-x,-y,-z
x,y,-z
1/2-x,1/2+y,z
1/2+x,1/2-y,z
loop_
_atom_site_type_symbol
_atom_site_label
_atom_site_fract_x
_atom_site_fract_y
_atom_site_fract_z
Si Si1 0.841210 0.060478 0.730274
Si Si2 0.361377 0.944891 0.821660
Si Si3 0.327586 0.777578 0.376762
Si Si4 0.973339 0.236664 0.883496
O O1 0.756480 0.043440 0.821428
O O2 0.787684 0.185885 0.651416
O O3 0.935327 0.129152 0.788583
O O4 0.851747 0.896396 0.668000
O O5 0.381119 0.909041 0.696692
O O6 0.413407 0.794096 0.875289
O O7 0.410636 0.101305 0.866957
O O8 0.346519 0.790841 0.500000
O O9 0.954119 0.171527 0.000000
#
# Coordination Sequence:
#
# PCOD9427639 Si02
#       4
#     8   8   8   8
#     4  10  20  39  60  88 121 146 203 239 285 360
#     4   9  20  40  59  87 120 147 202 240 277 366
#     4  10  20  39  63  84 118 156 188 244 298 339
#     4  11  22  39  62  86 119 160 193 242 297 339
#
# _framework density 22.170342000000002
#
# number of rings (size 3 to 8) (size 9 to 14) (size 15 to 20)
#    1.500    0.500    2.500    2.250    0.000    3.000 
#    0.000   10.000    0.000    0.000    0.000    0.000 
#    0.000    0.000    0.000    0.000    0.000    0.000 
#
# Total GULP energy -178318.639201 kJ/mol
# GULP energy per Si atom -5572.457475 kJ/mol
# Density = 2.211988 g / cm^3
# Si number density = 22.170342 Si / 1000 Ang^3
#
#
#
# Elastic Constant Matrix: (Units=GPa)
#
#
# Indices 1 2 3 4 5 6 
#
# 1 41.3059 8.2999 6.9339 0.0000 0.0000 0.0000
# 2 8.2999 87.1597 35.5603 0.0000 0.0000 0.0000
# 3 6.9339 35.5603 134.5920 0.0000 0.0000 0.0000
# 4 0.0000 0.0000 0.0000 -182.1720 0.0000 0.0000
# 5 0.0000 0.0000 0.0000 0.0000 14.2015 0.0000
# 6 0.0000 0.0000 0.0000 0.0000 0.0000 33.6265
#
#
#
# Elastic Compliance Matrix: (Units=1/GPa)
#
#
# Indices 1 2 3 4 5 6 
#
# 1 0.024746 -0.002058 -0.000731 0.000000 0.000000 0.000000
# 2 -0.002058 0.013031 -0.003337 0.000000 0.000000 0.000000
# 3 -0.000731 -0.003337 0.008349 0.000000 0.000000 0.000000
# 4 0.000000 0.000000 0.000000 -0.005489 0.000000 0.000000
# 5 0.000000 0.000000 0.000000 0.000000 0.070415 0.000000
# 6 0.000000 0.000000 0.000000 0.000000 0.000000 0.029738
#
#
# Mechanical properties :
#
#
# Convention : Reuss Voigt Hill
#
# Bulk Modulus (GPa) = 29.52156 40.51622 35.01889
# Shear Modulus (GPa) = 30.42602 -12.71790 8.85406
#
# Velocity S-wave (km/s) = 3.70858 -2.39769 2.00058
# Velocity P-wave (km/s) = 5.62874 3.26335 4.60066
#
# Compressibility (1/GPa) = 0.03387355
#
# Stress axis : x y z
#
# Youngs Moduli (GPa) = 40.41073 76.74277 119.77306
#
# Poissons Ratio (x) = 0.15795 0.08756
# Poissons Ratio (y) = 0.08317 0.39965
# Poissons Ratio (z) = 0.02954 0.25607
#
# Static dielectric constant tensor:
#      x y z
#    x 1.893720 0.000000 0.000000 
#    y 0.000000 1.867610 0.000000 
#    z 0.000000 0.000000 1.768160 
# 
# From -- ./inp_files/11801.got.cif
#   From: 2010.05.17/outbox.cif.g08.bks.cpg/sg55_6_cif.got.tgz:11801.got - 2010.06.03 13:27:54.
