data_PCOD9427154
_publ_section_title
;
Structure prediction by ZEFSAII (Michael W. Deem and Ramdas Pophale) SiO2 
 PCOD9427154
Probable space group: P B A M
;
_chemical_formula_sum "Si O2"
_cell_formula_units_Z 32
_cell_length_a 8.059931
_cell_length_b 13.954429
_cell_length_c 11.555012
_cell_angle_alpha 90.000000
_cell_angle_beta 90.000000
_cell_angle_gamma 90.000000
_cell_volume 1299.612246
_symmetry_space_group_name_H-M "P B A M"
_symmetry_group_IT_number 55
_symmetry_cell_setting 'orthorhombic'
loop_
_space_group_symop_operation_xyz
x,y,z
-x,-y,z
1/2+x,1/2-y,-z
1/2-x,1/2+y,-z
-x,-y,-z
x,y,-z
1/2-x,1/2+y,z
1/2+x,1/2-y,z
loop_
_atom_site_type_symbol
_atom_site_label
_atom_site_fract_x
_atom_site_fract_y
_atom_site_fract_z
Si Si1 0.659670 0.887297 0.865961
Si Si2 0.022910 0.115654 0.263121
Si Si3 0.589968 0.114364 0.500000
Si Si4 0.202290 0.172022 0.500000
Si Si5 0.335240 0.905275 0.752976
O O1 0.840342 0.851785 0.828962
O O2 0.504213 0.852684 0.789186
O O3 0.671572 0.001366 0.834674
O O4 0.626446 0.872413 0.000000
O O5 0.101972 0.139061 0.386897
O O6 0.836573 0.151262 0.240552
O O7 0.000000 0.000000 0.258831
O O8 0.393768 0.138447 0.500000
O O9 0.691326 0.213351 0.500000
O O10 0.643335 0.064193 0.618932
#
# Coordination Sequence:
#
# PCOD9427154 Si02
#       5
#     8   8   4   4   8
#     4  10  21  37  61  90 121 160 201 243 290 347
#     4  10  21  37  60  90 125 153 197 247 305 353
#     4  12  24  38  62  86 122 163 196 248 311 368
#     4  12  23  41  58  90 121 157 200 248 304 376
#     4  10  20  36  57  90 119 155 194 244 299 354
#
# _framework density 24.622727000000001
#
# number of rings (size 3 to 8) (size 9 to 14) (size 15 to 20)
#    0.000    1.500    2.500    4.125    0.000   10.500 
#    0.000    0.000    0.000    3.000    0.000    0.000 
#    0.000    0.000    0.000    0.000    0.000    0.000 
#
# Total GULP energy -179116.001824 kJ/mol
# GULP energy per Si atom -5597.375057 kJ/mol
# Density = 2.456669 g / cm^3
# Si number density = 24.622727 Si / 1000 Ang^3
#
#
#
# Elastic Constant Matrix: (Units=GPa)
#
#
# Indices 1 2 3 4 5 6 
#
# 1 217.3330 -3.6693 47.9209 0.0000 0.0000 0.0000
# 2 -3.6693 61.8107 -22.5617 0.0000 0.0000 0.0000
# 3 47.9209 -22.5617 143.6542 0.0000 0.0000 0.0000
# 4 0.0000 0.0000 0.0000 9.7085 0.0000 0.0000
# 5 0.0000 0.0000 0.0000 0.0000 10.2816 0.0000
# 6 0.0000 0.0000 0.0000 0.0000 0.0000 32.9111
#
#
#
# Elastic Compliance Matrix: (Units=1/GPa)
#
#
# Indices 1 2 3 4 5 6 
#
# 1 0.004973 -0.000329 -0.001711 0.000000 0.000000 0.000000
# 2 -0.000329 0.017184 0.002809 0.000000 0.000000 0.000000
# 3 -0.001711 0.002809 0.007973 0.000000 0.000000 0.000000
# 4 0.000000 0.000000 0.000000 0.103003 0.000000 0.000000
# 5 0.000000 0.000000 0.000000 0.000000 0.097261 0.000000
# 6 0.000000 0.000000 0.000000 0.000000 0.000000 0.030385
#
#
# Mechanical properties :
#
#
# Convention : Reuss Voigt Hill
#
# Bulk Modulus (GPa) = 31.57794 51.79752 41.68773
# Shear Modulus (GPa) = 18.53249 37.32078 27.92664
#
# Velocity S-wave (km/s) = 2.74644 3.89743 3.37141
# Velocity P-wave (km/s) = 4.78642 6.42926 5.66768
#
# Compressibility (1/GPa) = 0.03166767
#
# Stress axis : x y z
#
# Youngs Moduli (GPa) = 201.09202 58.19341 125.42491
#
# Poissons Ratio (x) = 0.01916 0.21455
# Poissons Ratio (y) = 0.06619 -0.35228
# Poissons Ratio (z) = 0.34398 -0.16345
#
# Static dielectric constant tensor:
#      x y z
#    x 2.016260 0.000000 0.000000 
#    y 0.000000 2.021510 0.000000 
#    z 0.000000 0.000000 1.862090 
# 
# From -- ./inp_files/11735.got.cif
#   From: 2010.05.17/outbox.cif.g08.bks.cpg/sg55_6_cif.got.tgz:11735.got - 2010.06.03 13:27:54.
