data_PCOD9427679
_publ_section_title
;
Structure prediction by ZEFSAII (Michael W. Deem and Ramdas Pophale) SiO2 
 PCOD9427679
Probable space group: P B A M
;
_chemical_formula_sum "Si O2"
_cell_formula_units_Z 64
_cell_length_a 9.951071
_cell_length_b 12.979930
_cell_length_c 26.640617
_cell_angle_alpha 90.000000
_cell_angle_beta 90.000000
_cell_angle_gamma 90.000000
_cell_volume 3441.014116
_symmetry_space_group_name_H-M "P B A M"
_symmetry_group_IT_number 55
_symmetry_cell_setting 'orthorhombic'
loop_
_space_group_symop_operation_xyz
x,y,z
-x,-y,z
1/2+x,1/2-y,-z
1/2-x,1/2+y,-z
-x,-y,-z
x,y,-z
1/2-x,1/2+y,z
1/2+x,1/2-y,z
loop_
_atom_site_type_symbol
_atom_site_label
_atom_site_fract_x
_atom_site_fract_y
_atom_site_fract_z
Si Si1 0.160314 0.347974 0.695200
Si Si2 0.723544 0.366954 0.941073
Si Si3 0.097127 0.402325 0.807175
Si Si4 0.636520 0.546046 0.864732
Si Si5 0.388003 0.411467 0.442606
Si Si6 0.600119 0.757000 0.642032
Si Si7 0.515977 0.763065 0.102681
Si Si8 0.847938 0.481684 0.615496
O O1 0.123494 0.352436 0.753237
O O2 0.301694 0.295104 0.682569
O O3 0.165591 0.460903 0.669344
O O4 0.041075 0.289379 0.666024
O O5 0.679534 0.467011 0.908882
O O6 0.874954 0.333173 0.926238
O O7 0.616312 0.276561 0.926995
O O8 0.715364 0.387968 0.000000
O O9 0.238981 0.442659 0.828010
O O10 0.000000 0.500000 0.801682
O O11 0.034387 0.323596 0.847879
O O12 0.500000 0.500000 0.841225
O O13 0.596310 0.658805 0.884045
O O14 0.500000 0.500000 0.440113
O O15 0.375974 0.375926 0.500000
O O16 0.420160 0.320155 0.404169
O O17 0.252461 0.463994 0.422438
O O18 0.671478 0.860806 0.622494
O O19 0.000000 0.500000 0.598299
#
# Coordination Sequence:
#
# PCOD9427679 Si02
#       8
#     8   8   8   8   8   8   8   8
#     4  10  23  38  62  88 117 163 202 248 310 358
#     4  11  23  42  67  92 126 167 209 256 311 370
#     4  12  23  42  65  91 128 162 205 261 311 369
#     4  10  24  44  62  91 127 161 203 257 309 369
#     4  10  21  36  58  87 122 160 199 253 308 354
#     4  10  20  40  60  87 121 158 207 252 297 374
#     4  11  23  41  63  95 126 161 207 260 306 372
#     4   9  19  39  57  83 119 152 204 253 296 364
#
# _framework density 18.599167000000001
#
# number of rings (size 3 to 8) (size 9 to 14) (size 15 to 20)
#    0.000    1.625    2.500    2.250    1.750    3.500 
#    4.500   10.625    0.000    0.000    0.000    0.000 
#    0.000    0.000    0.000    0.000    0.000    0.000 
#
# Total GULP energy -357340.401704 kJ/mol
# GULP energy per Si atom -5583.443777 kJ/mol
# Density = 1.855683 g / cm^3
# Si number density = 18.599167 Si / 1000 Ang^3
#
#
#
# Elastic Constant Matrix: (Units=GPa)
#
#
# Indices 1 2 3 4 5 6 
#
# 1 82.4301 23.3150 52.1279 0.0000 0.0000 0.0000
# 2 23.3150 88.4989 42.9903 0.0000 0.0000 0.0000
# 3 52.1279 42.9903 129.3743 0.0000 0.0000 0.0000
# 4 0.0000 0.0000 0.0000 15.1058 0.0000 0.0000
# 5 0.0000 0.0000 0.0000 0.0000 14.4118 0.0000
# 6 0.0000 0.0000 0.0000 0.0000 0.0000 22.3476
#
#
#
# Elastic Compliance Matrix: (Units=1/GPa)
#
#
# Indices 1 2 3 4 5 6 
#
# 1 0.016409 -0.001325 -0.006171 0.000000 0.000000 0.000000
# 2 -0.001325 0.013582 -0.003979 0.000000 0.000000 0.000000
# 3 -0.006171 -0.003979 0.011538 0.000000 0.000000 0.000000
# 4 0.000000 0.000000 0.000000 0.066200 0.000000 0.000000
# 5 0.000000 0.000000 0.000000 0.000000 0.069388 0.000000
# 6 0.000000 0.000000 0.000000 0.000000 0.000000 0.044747
#
#
# Mechanical properties :
#
#
# Convention : Reuss Voigt Hill
#
# Bulk Modulus (GPa) = 53.82755 59.68552 56.75654
# Shear Modulus (GPa) = 19.91975 22.49772 21.20874
#
# Velocity S-wave (km/s) = 3.27617 3.48172 3.38050
# Velocity P-wave (km/s) = 6.58139 6.95149 6.76897
#
# Compressibility (1/GPa) = 0.01857785
#
# Stress axis : x y z
#
# Youngs Moduli (GPa) = 60.94254 73.62877 86.66794
#
# Poissons Ratio (x) = 0.09757 0.53484
# Poissons Ratio (y) = 0.08076 0.34487
# Poissons Ratio (z) = 0.37609 0.29298
#
# Static dielectric constant tensor:
#      x y z
#    x 1.635520 0.000000 0.000000 
#    y 0.000000 1.643430 0.000000 
#    z 0.000000 0.000000 1.605940 
# 
# From -- ./inp_files/23493.got.cif
#   From: 2010.05.17/outbox.cif.g08.bks.cpg/sg55_12_cif.got.tgz:23493.got - 2010.06.03 13:27:54.
