data_PCOD9427412
_publ_section_title
;
Structure prediction by ZEFSAII (Michael W. Deem and Ramdas Pophale) SiO2 
 PCOD9427412
Probable space group: P B A M
;
_chemical_formula_sum "Si O2"
_cell_formula_units_Z 56
_cell_length_a 14.758316
_cell_length_b 7.918993
_cell_length_c 20.917379
_cell_angle_alpha 90.000000
_cell_angle_beta 90.000000
_cell_angle_gamma 90.000000
_cell_volume 2444.635024
_symmetry_space_group_name_H-M "P B A M"
_symmetry_group_IT_number 55
_symmetry_cell_setting 'orthorhombic'
loop_
_space_group_symop_operation_xyz
x,y,z
-x,-y,z
1/2+x,1/2-y,-z
1/2-x,1/2+y,-z
-x,-y,-z
x,y,-z
1/2-x,1/2+y,z
1/2+x,1/2-y,z
loop_
_atom_site_type_symbol
_atom_site_label
_atom_site_fract_x
_atom_site_fract_y
_atom_site_fract_z
Si Si1 0.297874 0.253743 0.799562
Si Si2 0.610906 0.304949 0.661946
Si Si3 0.188998 0.574170 0.666934
Si Si4 0.444505 0.737508 0.068679
Si Si5 0.389165 0.618704 0.202587
Si Si6 0.459266 0.191834 0.572977
Si Si7 0.857033 0.404003 0.068667
O O1 0.329110 0.149382 0.737553
O O2 0.189949 0.258680 0.794296
O O3 0.343454 0.435411 0.797716
O O4 0.312837 0.162561 0.867180
O O5 0.702302 0.417015 0.655771
O O6 0.563178 0.348228 0.729863
O O7 0.651793 0.115322 0.663244
O O8 0.535847 0.305130 0.607019
O O9 0.131525 0.680562 0.615385
O O10 0.436358 0.640476 0.134844
O O11 0.544596 0.816207 0.067062
O O12 0.376250 0.896547 0.071450
O O13 0.428749 0.648452 0.000000
O O14 0.441812 0.241749 0.500000
O O15 0.500000 0.000000 0.572411
O O16 0.811205 0.366242 0.000000
#
# Coordination Sequence:
#
# PCOD9427412 Si02
#       7
#     8   8   8   8   8   8   8
#     4  11  22  36  55  80 110 145 187 234 282 335
#     4  10  20  37  60  86 117 154 193 239 288 342
#     4  10  20  37  60  86 117 154 193 239 288 342
#     4   9  19  36  56  78 107 144 185 229 281 339
#     4  11  22  36  55  80 110 145 187 234 282 335
#     4   9  20  38  61  89 118 153 194 229 279 352
#     4   9  19  36  56  78 107 144 185 229 281 339
#
# _framework density 22.907304
#
# number of rings (size 3 to 8) (size 9 to 14) (size 15 to 20)
#    0.000    2.143    0.000    6.000    2.000    2.286 
#    0.000    3.571    0.000    6.000    0.000    0.000 
#    0.000    0.000    0.000    0.000    0.000    0.000 
#
# Total GULP energy -312993.236009 kJ/mol
# GULP energy per Si atom -5589.164929 kJ/mol
# Density = 2.285517 g / cm^3
# Si number density = 22.907304 Si / 1000 Ang^3
#
#
#
# Elastic Constant Matrix: (Units=GPa)
#
#
# Indices 1 2 3 4 5 6 
#
# 1 53.6880 17.2409 56.8597 0.0000 0.0000 0.0000
# 2 17.2409 81.6299 35.5541 0.0000 0.0000 0.0000
# 3 56.8597 35.5541 222.8889 0.0000 0.0000 0.0000
# 4 0.0000 0.0000 0.0000 -1.4018 0.0000 0.0000
# 5 0.0000 0.0000 0.0000 0.0000 28.9696 0.0000
# 6 0.0000 0.0000 0.0000 0.0000 0.0000 35.0530
#
#
#
# Elastic Compliance Matrix: (Units=1/GPa)
#
#
# Indices 1 2 3 4 5 6 
#
# 1 0.026107 -0.002808 -0.006212 0.000000 0.000000 0.000000
# 2 -0.002808 0.013467 -0.001432 0.000000 0.000000 0.000000
# 3 -0.006212 -0.001432 0.006300 0.000000 0.000000 0.000000
# 4 0.000000 0.000000 0.000000 -0.713350 0.000000 0.000000
# 5 0.000000 0.000000 0.000000 0.000000 0.034519 0.000000
# 6 0.000000 0.000000 0.000000 0.000000 0.000000 0.028528
#
#
# Mechanical properties :
#
#
# Convention : Reuss Voigt Hill
#
# Bulk Modulus (GPa) = 40.04888 64.16847 52.10868
# Shear Modulus (GPa) = -8.69261 29.09428 10.20084
#
# Velocity S-wave (km/s) = -1.95011 3.56770 2.11252
# Velocity P-wave (km/s) = 3.52851 6.71151 5.36166
#
# Compressibility (1/GPa) = 0.02496949
#
# Stress axis : x y z
#
# Youngs Moduli (GPa) = 38.30397 74.25453 158.73934
#
# Poissons Ratio (x) = 0.20853 0.98609
# Poissons Ratio (y) = 0.10757 0.22728
# Poissons Ratio (z) = 0.23794 0.10632
#
# Static dielectric constant tensor:
#      x y z
#    x 1.865530 0.000000 0.000000 
#    y 0.000000 1.868340 0.000000 
#    z 0.000000 0.000000 1.883780 
# 
# From -- ./inp_files/23057.got.cif
#   From: 2010.05.17/outbox.cif.g08.bks.cpg/sg55_12_cif.got.tgz:23057.got - 2010.06.03 13:27:54.
