data_PCOD9427779
_publ_section_title
;
Structure prediction by ZEFSAII (Michael W. Deem and Ramdas Pophale) SiO2 
 PCOD9427779
Probable space group: P B A M
;
_chemical_formula_sum "Si O2"
_cell_formula_units_Z 64
_cell_length_a 11.429877
_cell_length_b 32.659229
_cell_length_c 7.505180
_cell_angle_alpha 90.000000
_cell_angle_beta 90.000000
_cell_angle_gamma 90.000000
_cell_volume 2801.615925
_symmetry_space_group_name_H-M "P B A M"
_symmetry_group_IT_number 55
_symmetry_cell_setting 'orthorhombic'
loop_
_space_group_symop_operation_xyz
x,y,z
-x,-y,z
1/2+x,1/2-y,-z
1/2-x,1/2+y,-z
-x,-y,-z
x,y,-z
1/2-x,1/2+y,z
1/2+x,1/2-y,z
loop_
_atom_site_type_symbol
_atom_site_label
_atom_site_fract_x
_atom_site_fract_y
_atom_site_fract_z
Si Si1 0.930006 0.615809 0.215734
Si Si2 0.374771 0.173860 0.791001
Si Si3 0.237164 0.819935 0.699715
Si Si4 0.887864 0.827778 0.703761
Si Si5 0.074852 0.260306 0.283990
Si Si6 0.061060 0.888269 0.715271
Si Si7 0.880935 0.522678 0.217516
Si Si8 0.880469 0.019341 0.205786
O O1 0.842345 0.647330 0.305519
O O2 0.899454 0.570052 0.265744
O O3 0.058088 0.632302 0.262287
O O4 0.917175 0.619856 0.000000
O O5 0.250376 0.177450 0.702398
O O6 0.464878 0.211068 0.759764
O O7 0.351384 0.171819 0.000000
O O8 0.199398 0.807974 0.500000
O O9 0.303445 0.781044 0.782683
O O10 0.136811 0.848818 0.776984
O O11 0.929432 0.827497 0.500000
O O12 0.937204 0.785733 0.785032
O O13 0.932355 0.871996 0.768824
O O14 0.083911 0.259756 0.500000
O O15 0.074395 0.893211 0.500000
O O16 0.102166 0.931436 0.790770
O O17 0.750115 0.509774 0.279493
O O18 0.000000 0.500000 0.275551
O O19 0.878449 0.520229 0.000000
O O20 0.877130 0.005440 0.000000
O O21 0.000000 0.000000 0.285619
#
# Coordination Sequence:
#
# PCOD9427779 Si02
#       8
#     8   8   8   8   8   8   8   8
#     4   9  17  32  54  76 101 137 174 213 268 329
#     4  10  21  35  52  78 111 142 180 231 285 335
#     4   9  17  31  54  80 103 133 177 225 268 317
#     4  10  22  37  56  80 111 151 193 232 279 344
#     4   9  19  35  58  80 104 143 188 232 274 327
#     4  10  21  36  56  83 112 145 188 233 285 341
#     4   9  17  31  53  80 107 136 177 227 279 337
#     4  10  21  37  59  85 111 147 196 241 289 354
#
# _framework density 22.843959000000002
#
# number of rings (size 3 to 8) (size 9 to 14) (size 15 to 20)
#    0.000    2.500    1.250    0.375    1.750    2.750 
#    0.000    2.500    0.000    1.500    0.000    0.000 
#    0.000    0.000    0.000    0.000    0.000    0.000 
#
# Total GULP energy -356801.245499 kJ/mol
# GULP energy per Si atom -5575.019461 kJ/mol
# Density = 2.279197 g / cm^3
# Si number density = 22.843959 Si / 1000 Ang^3
#
#
#
# Elastic Constant Matrix: (Units=GPa)
#
#
# Indices 1 2 3 4 5 6 
#
# 1 147.1393 44.1210 0.3396 0.0000 0.0000 0.0000
# 2 44.1210 60.7915 -1.2973 0.0000 0.0000 0.0000
# 3 0.3396 -1.2973 58.6147 0.0000 0.0000 0.0000
# 4 0.0000 0.0000 0.0000 9.8333 0.0000 0.0000
# 5 0.0000 0.0000 0.0000 0.0000 27.5962 0.0000
# 6 0.0000 0.0000 0.0000 0.0000 0.0000 29.9012
#
#
#
# Elastic Compliance Matrix: (Units=1/GPa)
#
#
# Indices 1 2 3 4 5 6 
#
# 1 0.008689 -0.006310 -0.000190 0.000000 0.000000 0.000000
# 2 -0.006310 0.021040 0.000502 0.000000 0.000000 0.000000
# 3 -0.000190 0.000502 0.017073 0.000000 0.000000 0.000000
# 4 0.000000 0.000000 0.000000 0.101695 0.000000 0.000000
# 5 0.000000 0.000000 0.000000 0.000000 0.036237 0.000000
# 6 0.000000 0.000000 0.000000 0.000000 0.000000 0.033444
#
#
# Mechanical properties :
#
#
# Convention : Reuss Voigt Hill
#
# Bulk Modulus (GPa) = 28.73079 39.20801 33.96940
# Shear Modulus (GPa) = 20.68037 28.35829 24.51933
#
# Velocity S-wave (km/s) = 3.01206 3.52716 3.27974
# Velocity P-wave (km/s) = 4.97001 5.81279 5.40784
#
# Compressibility (1/GPa) = 0.03480587
#
# Stress axis : x y z
#
# Youngs Moduli (GPa) = 115.08936 47.52801 58.57278
#
# Poissons Ratio (x) = 0.29991 0.01113
# Poissons Ratio (y) = 0.72624 -0.02942
# Poissons Ratio (z) = 0.02187 -0.02387
#
# Static dielectric constant tensor:
#      x y z
#    x 1.936250 0.000000 0.000000 
#    y 0.000000 1.833750 0.000000 
#    z 0.000000 0.000000 1.744160 
# 
# From -- ./inp_files/4542.got.cif
#   From: 2010.05.17/outbox.cif.g08.bks.cpg/sg55_3_cif.got.tgz:4542.got - 2010.06.03 13:27:54.
