data_PCOD9427087
_publ_section_title
;
Structure prediction by ZEFSAII (Michael W. Deem and Ramdas Pophale) SiO2 
 PCOD9427087
Probable space group: P B A M
;
_chemical_formula_sum "Si O2"
_cell_formula_units_Z 40
_cell_length_a 24.744474
_cell_length_b 5.335604
_cell_length_c 12.636675
_cell_angle_alpha 90.000000
_cell_angle_beta 90.000000
_cell_angle_gamma 90.000000
_cell_volume 1668.378682
_symmetry_space_group_name_H-M "P B A M"
_symmetry_group_IT_number 55
_symmetry_cell_setting 'orthorhombic'
loop_
_space_group_symop_operation_xyz
x,y,z
-x,-y,z
1/2+x,1/2-y,-z
1/2-x,1/2+y,-z
-x,-y,-z
x,y,-z
1/2-x,1/2+y,z
1/2+x,1/2-y,z
loop_
_atom_site_type_symbol
_atom_site_label
_atom_site_fract_x
_atom_site_fract_y
_atom_site_fract_z
Si Si1 0.449334 0.311290 0.886693
Si Si2 0.870736 0.857238 0.220469
Si Si3 0.220399 0.487116 0.198252
Si Si4 0.328494 0.250729 0.619402
Si Si5 0.441531 0.003269 0.672073
O O1 0.500000 0.500000 0.885354
O O2 0.395429 0.474512 0.870400
O O3 0.451035 0.140098 0.784151
O O4 0.448692 0.178281 0.000000
O O5 0.839618 0.616889 0.174156
O O6 0.919619 0.769552 0.296104
O O7 0.832288 0.017286 0.298356
O O8 0.242994 0.753534 0.160524
O O9 0.210755 0.548027 0.324279
O O10 0.313486 0.313619 0.500000
O O11 0.389750 0.136965 0.619663
O O12 0.500000 0.000000 0.618358
#
# Coordination Sequence:
#
# PCOD9427087 Si02
#       5
#     8   8   8   8   8
#     4  10  20  35  61  96 129 167 215 268 326 387
#     4  10  21  39  62  89 129 169 211 271 323 395
#     4  11  22  42  65  91 120 164 211 269 333 382
#     4  10  23  39  58  88 123 165 218 270 321 386
#     4  10  20  36  57  85 128 171 212 260 323 386
#
# _framework density 23.975373000000001
#
# number of rings (size 3 to 8) (size 9 to 14) (size 15 to 20)
#    0.000    1.800    4.000    0.000    0.000    5.600 
#    0.000    1.000    0.000    1.200    0.000    0.000 
#    0.000    0.000    0.000    0.000    0.000    0.000 
#
# Total GULP energy -223111.517103 kJ/mol
# GULP energy per Si atom -5577.787928 kJ/mol
# Density = 2.392080 g / cm^3
# Si number density = 23.975373 Si / 1000 Ang^3
#
#
#
# Elastic Constant Matrix: (Units=GPa)
#
#
# Indices 1 2 3 4 5 6 
#
# 1 107.4534 31.7010 -9.5468 0.0000 0.0000 0.0000
# 2 31.7010 112.2115 14.8667 0.0000 0.0000 0.0000
# 3 -9.5468 14.8667 93.3860 0.0000 0.0000 0.0000
# 4 0.0000 0.0000 0.0000 -21.7166 0.0000 0.0000
# 5 0.0000 0.0000 0.0000 0.0000 82.0529 0.0000
# 6 0.0000 0.0000 0.0000 0.0000 0.0000 63.7377
#
#
#
# Elastic Compliance Matrix: (Units=1/GPa)
#
#
# Indices 1 2 3 4 5 6 
#
# 1 0.010370 -0.003136 0.001559 0.000000 0.000000 0.000000
# 2 -0.003136 0.010052 -0.001921 0.000000 0.000000 0.000000
# 3 0.001559 -0.001921 0.011173 0.000000 0.000000 0.000000
# 4 0.000000 0.000000 0.000000 -0.046048 0.000000 0.000000
# 5 0.000000 0.000000 0.000000 0.000000 0.012187 0.000000
# 6 0.000000 0.000000 0.000000 0.000000 0.000000 0.015689
#
#
# Mechanical properties :
#
#
# Convention : Reuss Voigt Hill
#
# Bulk Modulus (GPa) = 40.64979 43.01029 41.83004
# Shear Modulus (GPa) = 174.69989 43.21680 108.95834
#
# Velocity S-wave (km/s) = 8.54544 4.25025 6.74867
# Velocity P-wave (km/s) = 10.69382 6.48571 8.84370
#
# Compressibility (1/GPa) = 0.02460037
#
# Stress axis : x y z
#
# Youngs Moduli (GPa) = 96.43036 99.47995 89.49773
#
# Poissons Ratio (x) = 0.31200 -0.13957
# Poissons Ratio (y) = 0.30243 0.17192
# Poissons Ratio (z) = -0.15038 0.19109
#
# Static dielectric constant tensor:
#      x y z
#    x 2.020400 0.000000 0.000000 
#    y 0.000000 1.978330 0.000000 
#    z 0.000000 0.000000 1.848480 
# 
# From -- ./inp_files/11320.got.cif
#   From: 2010.05.17/outbox.cif.g08.bks.cpg/sg55_6_cif.got.tgz:11320.got - 2010.06.03 13:27:54.
