data_PCOD9427074
_publ_section_title
;
Structure prediction by ZEFSAII (Michael W. Deem and Ramdas Pophale) SiO2 
 PCOD9427074
Probable space group: P B A M
;
_chemical_formula_sum "Si O2"
_cell_formula_units_Z 44
_cell_length_a 10.155169
_cell_length_b 14.734080
_cell_length_c 14.935258
_cell_angle_alpha 90.000000
_cell_angle_beta 90.000000
_cell_angle_gamma 90.000000
_cell_volume 2234.718931
_symmetry_space_group_name_H-M "P B A M"
_symmetry_group_IT_number 55
_symmetry_cell_setting 'orthorhombic'
loop_
_space_group_symop_operation_xyz
x,y,z
-x,-y,z
1/2+x,1/2-y,-z
1/2-x,1/2+y,-z
-x,-y,-z
x,y,-z
1/2-x,1/2+y,z
1/2+x,1/2-y,z
loop_
_atom_site_type_symbol
_atom_site_label
_atom_site_fract_x
_atom_site_fract_y
_atom_site_fract_z
Si Si1 0.000000 0.500000 0.674188
Si Si2 0.014504 0.900464 0.161299
Si Si3 0.639438 0.137664 0.000000
Si Si4 0.640415 0.284143 0.711750
Si Si5 0.805056 0.595632 0.802667
Si Si6 0.911317 0.307618 0.604300
Si Si7 0.411364 0.270462 0.000000
O O1 0.119079 0.473786 0.740093
O O2 0.036153 0.589476 0.618399
O O3 0.150443 0.906127 0.215549
O O4 0.898866 0.869065 0.226622
O O5 0.038790 0.825070 0.086509
O O6 0.000000 0.000000 0.120196
O O7 0.667330 0.083550 0.908421
O O8 0.751893 0.218711 0.000000
O O9 0.490985 0.176450 0.000000
O O10 0.647607 0.196543 0.776531
O O11 0.777669 0.296170 0.660930
O O12 0.522958 0.259422 0.643366
O O13 0.887420 0.290338 0.500000
#
# Coordination Sequence:
#
# PCOD9427074 Si02
#       7
#     4   8   4   8   8   8   4
#     4  10  23  39  64  86 122 154 198 243 305 356
#     4  11  21  37  60  87 124 154 199 244 290 345
#     4  10  20  35  60  84 124 155 200 244 269 354
#     4  11  21  38  65  85 120 159 194 242 296 359
#     4  10  21  39  58  92 119 160 199 235 293 346
#     4  11  23  41  63  89 116 154 200 250 303 358
#     4  10  21  36  56  88 116 161 200 237 286 339
#
# _framework density 19.689277000000001
#
# number of rings (size 3 to 8) (size 9 to 14) (size 15 to 20)
#    0.000    1.455    3.636    2.182    0.000    0.364 
#    3.273    0.000    0.000    2.182    0.000    0.000 
#    0.000    0.000    0.000    0.000    0.000    0.000 
#
# Total GULP energy -245657.513073 kJ/mol
# GULP energy per Si atom -5583.125297 kJ/mol
# Density = 1.964446 g / cm^3
# Si number density = 19.689277 Si / 1000 Ang^3
#
#
#
# Elastic Constant Matrix: (Units=GPa)
#
#
# Indices 1 2 3 4 5 6 
#
# 1 78.8348 -18.5937 5.4965 0.0000 0.0000 0.0000
# 2 -18.5937 27.9038 -10.7529 0.0000 0.0000 0.0000
# 3 5.4965 -10.7529 71.1778 0.0000 0.0000 0.0000
# 4 0.0000 0.0000 0.0000 3.5351 0.0000 0.0000
# 5 0.0000 0.0000 0.0000 0.0000 19.9437 0.0000
# 6 0.0000 0.0000 0.0000 0.0000 0.0000 22.8742
#
#
#
# Elastic Compliance Matrix: (Units=1/GPa)
#
#
# Indices 1 2 3 4 5 6 
#
# 1 0.015059 0.010179 0.000375 0.000000 0.000000 0.000000
# 2 0.010179 0.044933 0.006002 0.000000 0.000000 0.000000
# 3 0.000375 0.006002 0.014927 0.000000 0.000000 0.000000
# 4 0.000000 0.000000 0.000000 0.282881 0.000000 0.000000
# 5 0.000000 0.000000 0.000000 0.000000 0.050141 0.000000
# 6 0.000000 0.000000 0.000000 0.000000 0.000000 0.043717
#
#
# Mechanical properties :
#
#
# Convention : Reuss Voigt Hill
#
# Bulk Modulus (GPa) = 9.25649 14.46849 11.86249
# Shear Modulus (GPa) = 10.99971 22.72169 16.86070
#
# Velocity S-wave (km/s) = 2.36617 3.40076 2.92950
# Velocity P-wave (km/s) = 3.48949 4.77332 4.18098
#
# Compressibility (1/GPa) = 0.10803232
#
# Stress axis : x y z
#
# Youngs Moduli (GPa) = 66.40340 22.25520 66.99222
#
# Poissons Ratio (x) = -0.22654 -0.02511
# Poissons Ratio (y) = -0.67594 -0.40209
# Poissons Ratio (z) = -0.02489 -0.13358
#
# Static dielectric constant tensor:
#      x y z
#    x 1.699620 0.000000 0.000000 
#    y 0.000000 1.716440 0.000000 
#    z 0.000000 0.000000 1.662800 
# 
# From -- ./inp_files/20739.got.cif
#   From: 2010.05.17/outbox.cif.g08.bks.cpg/sg55_11_cif.got.tgz:20739.got - 2010.06.03 13:27:54.
