data_PCOD9427223
_publ_section_title
;
Structure prediction by ZEFSAII (Michael W. Deem and Ramdas Pophale) SiO2 
 PCOD9427223
Probable space group: P B A M
;
_chemical_formula_sum "Si O2"
_cell_formula_units_Z 56
_cell_length_a 14.086088
_cell_length_b 7.302654
_cell_length_c 21.669014
_cell_angle_alpha 90.000000
_cell_angle_beta 90.000000
_cell_angle_gamma 90.000000
_cell_volume 2229.001043
_symmetry_space_group_name_H-M "P B A M"
_symmetry_group_IT_number 55
_symmetry_cell_setting 'orthorhombic'
loop_
_space_group_symop_operation_xyz
x,y,z
-x,-y,z
1/2+x,1/2-y,-z
1/2-x,1/2+y,-z
-x,-y,-z
x,y,-z
1/2-x,1/2+y,z
1/2+x,1/2-y,z
loop_
_atom_site_type_symbol
_atom_site_label
_atom_site_fract_x
_atom_site_fract_y
_atom_site_fract_z
Si Si1 0.385899 0.650071 0.565457
Si Si2 0.895886 0.822106 0.829290
Si Si3 0.684510 0.731261 0.166733
Si Si4 0.389680 0.666884 0.303605
Si Si5 0.662469 0.780052 0.566744
Si Si6 0.541361 0.798422 0.068547
Si Si7 0.830690 0.258493 0.300288
O O1 0.430717 0.701740 0.500000
O O2 0.433300 0.708336 0.629592
O O3 0.373756 0.429513 0.565894
O O4 0.277805 0.723997 0.565885
O O5 0.797530 0.714679 0.837630
O O6 0.937568 0.781184 0.760963
O O7 0.968301 0.796163 0.884407
O O8 0.859386 0.029762 0.828053
O O9 0.640292 0.811268 0.104807
O O10 0.655199 0.832372 0.230814
O O11 0.284288 0.753198 0.302455
O O12 0.372244 0.447106 0.302862
O O13 0.636171 0.866733 0.500000
O O14 0.640358 0.856770 0.635484
O O15 0.500000 0.000000 0.062475
O O16 0.549545 0.716458 0.000000
#
# Coordination Sequence:
#
# PCOD9427223 Si02
#       7
#     8   8   8   8   8   8   8
#     4   8  12  18  30  52  86 126 165 206 250 294
#     4  10  20  36  59  85 114 147 182 222 268 320
#     4  10  20  36  59  85 114 147 182 222 268 320
#     4   8  14  24  40  65  96 131 171 212 254 302
#     4   8  12  18  30  52  86 126 165 206 250 294
#     4  11  25  43  61  83 110 139 176 222 271 327
#     4   8  14  24  40  65  96 131 171 212 254 302
#
# _framework density 25.123362
#
# number of rings (size 3 to 8) (size 9 to 14) (size 15 to 20)
#    0.000    3.000    0.000    1.286    0.000    2.857 
#    0.000    0.000    0.000    0.000    0.000    1.000 
#    0.000    8.000    0.000    0.000    0.000    4.000 
#
# Total GULP energy -312672.826342 kJ/mol
# GULP energy per Si atom -5583.443328 kJ/mol
# Density = 2.506618 g / cm^3
# Si number density = 25.123362 Si / 1000 Ang^3
#
#
#
# Elastic Constant Matrix: (Units=GPa)
#
#
# Indices 1 2 3 4 5 6 
#
# 1 105.2323 10.6833 57.6174 0.0000 0.0000 0.0000
# 2 10.6833 51.6232 25.4495 0.0000 0.0000 0.0000
# 3 57.6174 25.4495 308.2494 0.0000 0.0000 0.0000
# 4 0.0000 0.0000 0.0000 28.2195 0.0000 0.0000
# 5 0.0000 0.0000 0.0000 0.0000 16.0814 0.0000
# 6 0.0000 0.0000 0.0000 0.0000 0.0000 26.5108
#
#
#
# Elastic Compliance Matrix: (Units=1/GPa)
#
#
# Indices 1 2 3 4 5 6 
#
# 1 0.010666 -0.001276 -0.001888 0.000000 0.000000 0.000000
# 2 -0.001276 0.020346 -0.001441 0.000000 0.000000 0.000000
# 3 -0.001888 -0.001441 0.003716 0.000000 0.000000 0.000000
# 4 0.000000 0.000000 0.000000 0.035436 0.000000 0.000000
# 5 0.000000 0.000000 0.000000 0.000000 0.062184 0.000000
# 6 0.000000 0.000000 0.000000 0.000000 0.000000 0.037720
#
#
# Mechanical properties :
#
#
# Convention : Reuss Voigt Hill
#
# Bulk Modulus (GPa) = 39.19078 72.51172 55.85125
# Shear Modulus (GPa) = 26.62604 38.91932 32.77268
#
# Velocity S-wave (km/s) = 3.25901 3.94017 3.61566
# Velocity P-wave (km/s) = 5.45845 7.04449 6.30157
#
# Compressibility (1/GPa) = 0.02551620
#
# Stress axis : x y z
#
# Youngs Moduli (GPa) = 93.75338 49.15025 269.10098
#
# Poissons Ratio (x) = 0.06274 0.50815
# Poissons Ratio (y) = 0.11967 0.38783
# Poissons Ratio (z) = 0.17704 0.07083
#
# Static dielectric constant tensor:
#      x y z
#    x 2.080800 0.000000 0.000000 
#    y 0.000000 2.001330 0.000000 
#    z 0.000000 0.000000 2.060240 
# 
# From -- ./inp_files/22963.got.cif
#   From: 2010.05.17/outbox.cif.g08.bks.cpg/sg55_12_cif.got.tgz:22963.got - 2010.06.03 13:27:54.
