data_PCOD9427202
_publ_section_title
;
Structure prediction by ZEFSAII (Michael W. Deem and Ramdas Pophale) SiO2 
 PCOD9427202
Probable space group: P B A M
;
_chemical_formula_sum "Si O2"
_cell_formula_units_Z 40
_cell_length_a 17.092750
_cell_length_b 14.414314
_cell_length_c 7.773857
_cell_angle_alpha 90.000000
_cell_angle_beta 90.000000
_cell_angle_gamma 90.000000
_cell_volume 1915.324953
_symmetry_space_group_name_H-M "P B A M"
_symmetry_group_IT_number 55
_symmetry_cell_setting 'orthorhombic'
loop_
_space_group_symop_operation_xyz
x,y,z
-x,-y,z
1/2+x,1/2-y,-z
1/2-x,1/2+y,-z
-x,-y,-z
x,y,-z
1/2-x,1/2+y,z
1/2+x,1/2-y,z
loop_
_atom_site_type_symbol
_atom_site_label
_atom_site_fract_x
_atom_site_fract_y
_atom_site_fract_z
Si Si1 0.613524 0.427079 0.692788
Si Si2 0.335201 0.213855 0.797004
Si Si3 0.335779 0.766487 0.194109
Si Si4 0.575795 0.129945 0.500000
Si Si5 0.390680 0.086971 0.500000
Si Si6 0.943603 0.115499 0.800091
O O1 0.645119 0.424737 0.500000
O O2 0.650891 0.344486 0.799377
O O3 0.615589 0.530772 0.765379
O O4 0.521371 0.401476 0.692599
O O5 0.255965 0.271727 0.762349
O O6 0.348034 0.129206 0.667767
O O7 0.405261 0.286154 0.766670
O O8 0.334322 0.188135 0.000000
O O9 0.390386 0.816010 0.333617
O O10 0.350578 0.800177 0.000000
O O11 0.481533 0.121549 0.500000
O O12 0.607328 0.024267 0.500000
O O13 0.966999 0.110876 0.000000
#
# Coordination Sequence:
#
# PCOD9427202 Si02
#       6
#     8   8   8   4   4   8
#     4  11  21  34  57  92 122 155 197 242 306 369
#     4  10  24  42  64  92 123 165 205 253 317 370
#     4  11  23  43  64  89 128 163 205 258 311 376
#     4  11  25  44  61  97 119 171 222 257 316 352
#     4  11  25  42  67  87 131 163 218 273 294 372
#     4  10  20  36  58  89 121 157 198 240 302 371
#
# _framework density 20.884184000000001
#
# number of rings (size 3 to 8) (size 9 to 14) (size 15 to 20)
#    0.000    1.400    1.000    5.400    2.800    4.800 
#    0.000    6.000    0.000    0.000    0.000    0.000 
#    0.000    0.000    0.000    0.000    0.000    0.000 
#
# Total GULP energy -223486.243976 kJ/mol
# GULP energy per Si atom -5587.156099 kJ/mol
# Density = 2.083665 g / cm^3
# Si number density = 20.884184 Si / 1000 Ang^3
#
#
#
# Elastic Constant Matrix: (Units=GPa)
#
#
# Indices 1 2 3 4 5 6 
#
# 1 33.8238 -1.1185 16.1143 0.0000 0.0000 0.0000
# 2 -1.1185 70.4005 27.7292 0.0000 0.0000 0.0000
# 3 16.1143 27.7292 95.5765 0.0000 0.0000 0.0000
# 4 0.0000 0.0000 0.0000 15.3759 0.0000 0.0000
# 5 0.0000 0.0000 0.0000 0.0000 25.2450 0.0000
# 6 0.0000 0.0000 0.0000 0.0000 0.0000 18.5674
#
#
#
# Elastic Compliance Matrix: (Units=1/GPa)
#
#
# Indices 1 2 3 4 5 6 
#
# 1 0.032713 0.003040 -0.006397 0.000000 0.000000 0.000000
# 2 0.003040 0.016319 -0.005247 0.000000 0.000000 0.000000
# 3 -0.006397 -0.005247 0.013064 0.000000 0.000000 0.000000
# 4 0.000000 0.000000 0.000000 0.065037 0.000000 0.000000
# 5 0.000000 0.000000 0.000000 0.000000 0.039612 0.000000
# 6 0.000000 0.000000 0.000000 0.000000 0.000000 0.053858
#
#
# Mechanical properties :
#
#
# Convention : Reuss Voigt Hill
#
# Bulk Modulus (GPa) = 22.27839 31.69455 26.98647
# Shear Modulus (GPa) = 19.78042 22.30938 21.04490
#
# Velocity S-wave (km/s) = 3.08092 3.27194 3.17787
# Velocity P-wave (km/s) = 4.83185 5.42987 5.13956
#
# Compressibility (1/GPa) = 0.04488656
#
# Stress axis : x y z
#
# Youngs Moduli (GPa) = 30.56859 61.27645 76.54756
#
# Poissons Ratio (x) = -0.18625 0.48970
# Poissons Ratio (y) = -0.09291 0.40166
# Poissons Ratio (z) = 0.19556 0.32153
#
# Static dielectric constant tensor:
#      x y z
#    x 1.802390 0.000000 0.000000 
#    y 0.000000 1.742830 0.000000 
#    z 0.000000 0.000000 1.735430 
# 
# From -- ./inp_files/7287.got.cif
#   From: 2010.05.17/outbox.cif.g08.bks.cpg/sg55_4_cif.got.tgz:7287.got - 2010.06.03 13:27:54.
