data_PCOD9427747
_publ_section_title
;
Structure prediction by ZEFSAII (Michael W. Deem and Ramdas Pophale) SiO2 
 PCOD9427747
Probable space group: P B A M
;
_chemical_formula_sum "Si O2"
_cell_formula_units_Z 58
_cell_length_a 10.911857
_cell_length_b 34.416955
_cell_length_c 7.647273
_cell_angle_alpha 90.000000
_cell_angle_beta 90.000000
_cell_angle_gamma 90.000000
_cell_volume 2871.955486
_symmetry_space_group_name_H-M "P B A M"
_symmetry_group_IT_number 55
_symmetry_cell_setting 'orthorhombic'
loop_
_space_group_symop_operation_xyz
x,y,z
-x,-y,z
1/2+x,1/2-y,-z
1/2-x,1/2+y,-z
-x,-y,-z
x,y,-z
1/2-x,1/2+y,z
1/2+x,1/2-y,z
loop_
_atom_site_type_symbol
_atom_site_label
_atom_site_fract_x
_atom_site_fract_y
_atom_site_fract_z
Si Si1 0.500000 0.500000 0.500000
Si Si2 0.966844 0.133384 0.291241
Si Si3 0.934829 0.559451 0.211019
Si Si4 0.555495 0.447444 0.202609
Si Si5 0.690637 0.138524 0.294618
Si Si6 0.187899 0.274673 0.796376
Si Si7 0.815689 0.481103 0.787512
Si Si8 0.033462 0.777571 0.209552
O O1 0.468479 0.467760 0.343545
O O2 0.971548 0.129991 0.500000
O O3 0.047175 0.098874 0.214504
O O4 0.998779 0.177425 0.242648
O O5 0.826464 0.127415 0.229126
O O6 0.897352 0.602156 0.267544
O O7 0.842440 0.525202 0.269773
O O8 0.069050 0.545097 0.267942
O O9 0.933982 0.559096 0.000000
O O10 0.688034 0.462720 0.266913
O O11 0.534012 0.458159 0.000000
O O12 0.701326 0.146332 0.500000
O O13 0.655363 0.179649 0.212218
O O14 0.326934 0.270544 0.722342
O O15 0.075811 0.249600 0.720408
O O16 0.196840 0.263367 0.000000
O O17 0.814844 0.481261 0.000000
O O18 0.040194 0.771997 0.000000
#
# Coordination Sequence:
#
# PCOD9427747 Si02
#       8
#     2   8   8   8   8   8   8   8
#     4  12  26  40  56  88 120 148 198 240 290 346
#     4  10  21  38  56  82 117 153 189 239 290 344
#     4   9  17  35  58  78 105 144 188 236 283 335
#     4  11  23  40  60  85 118 155 196 244 293 346
#     4  10  21  34  53  81 114 145 187 232 283 344
#     4   9  18  35  57  82 109 142 187 237 288 351
#     4   8  18  36  57  79 106 145 192 235 285 340
#     4   9  18  35  59  83 109 146 190 237 296 356
#
# _framework density 20.195297
#
# number of rings (size 3 to 8) (size 9 to 14) (size 15 to 20)
#    0.000    2.483    0.690    1.862    1.931    2.207 
#    3.724    0.690    0.000    0.000    0.000    0.000 
#    0.000    0.000    0.000    0.000    0.000    0.000 
#
# Total GULP energy -323032.911130 kJ/mol
# GULP energy per Si atom -5569.532951 kJ/mol
# Density = 2.014933 g / cm^3
# Si number density = 20.195297 Si / 1000 Ang^3
#
#
#
# Elastic Constant Matrix: (Units=GPa)
#
#
# Indices 1 2 3 4 5 6 
#
# 1 103.0176 87.8254 12.7073 0.0000 0.0000 0.0000
# 2 87.8254 135.9389 6.0546 0.0000 0.0000 0.0000
# 3 12.7073 6.0546 68.9318 0.0000 0.0000 0.0000
# 4 0.0000 0.0000 0.0000 40.0249 0.0000 0.0000
# 5 0.0000 0.0000 0.0000 0.0000 5.4247 0.0000
# 6 0.0000 0.0000 0.0000 0.0000 0.0000 34.7686
#
#
#
# Elastic Compliance Matrix: (Units=1/GPa)
#
#
# Indices 1 2 3 4 5 6 
#
# 1 0.022148 -0.014183 -0.002837 0.000000 0.000000 0.000000
# 2 -0.014183 0.016467 0.001168 0.000000 0.000000 0.000000
# 3 -0.002837 0.001168 0.014928 0.000000 0.000000 0.000000
# 4 0.000000 0.000000 0.000000 0.024984 0.000000 0.000000
# 5 0.000000 0.000000 0.000000 0.000000 0.184341 0.000000
# 6 0.000000 0.000000 0.000000 0.000000 0.000000 0.028762
#
#
# Mechanical properties :
#
#
# Convention : Reuss Voigt Hill
#
# Bulk Modulus (GPa) = 45.78908 57.89588 51.84248
# Shear Modulus (GPa) = 15.12338 29.46371 22.29355
#
# Velocity S-wave (km/s) = 2.73949 3.82375 3.32610
# Velocity P-wave (km/s) = 5.72091 6.94442 6.36215
#
# Compressibility (1/GPa) = 0.02183927
#
# Stress axis : x y z
#
# Youngs Moduli (GPa) = 45.14992 60.72625 66.99034
#
# Poissons Ratio (x) = 0.86128 0.19007
# Poissons Ratio (y) = 0.64036 -0.07826
# Poissons Ratio (z) = 0.12810 -0.07094
#
# Static dielectric constant tensor:
#      x y z
#    x 1.769740 0.000000 0.000000 
#    y 0.000000 1.705160 0.000000 
#    z 0.000000 0.000000 1.757900 
# 
# From -- ./inp_files/4348.got.cif
#   From: 2010.05.17/outbox.cif.g08.bks.cpg/sg55_3_cif.got.tgz:4348.got - 2010.06.03 13:27:54.
