data_PCOD9427069
_publ_section_title
;
Structure prediction by ZEFSAII (Michael W. Deem and Ramdas Pophale) SiO2 
 PCOD9427069
Probable space group: P B A M
;
_chemical_formula_sum "Si O2"
_cell_formula_units_Z 40
_cell_length_a 13.505477
_cell_length_b 9.792029
_cell_length_c 13.864121
_cell_angle_alpha 90.000000
_cell_angle_beta 90.000000
_cell_angle_gamma 90.000000
_cell_volume 1833.474857
_symmetry_space_group_name_H-M "P B A M"
_symmetry_group_IT_number 55
_symmetry_cell_setting 'orthorhombic'
loop_
_space_group_symop_operation_xyz
x,y,z
-x,-y,z
1/2+x,1/2-y,-z
1/2-x,1/2+y,-z
-x,-y,-z
x,y,-z
1/2-x,1/2+y,z
1/2+x,1/2-y,z
loop_
_atom_site_type_symbol
_atom_site_label
_atom_site_fract_x
_atom_site_fract_y
_atom_site_fract_z
Si Si1 0.912912 0.610968 0.389387
Si Si2 0.525059 0.658225 0.280477
Si Si3 0.230344 0.153412 0.109340
Si Si4 0.759838 0.100230 0.239654
Si Si5 0.968826 0.352136 0.891090
O O1 0.879293 0.619235 0.500000
O O2 0.823248 0.571942 0.318730
O O3 0.000000 0.500000 0.382738
O O4 0.962211 0.752957 0.355309
O O5 0.500000 0.500000 0.286935
O O6 0.644479 0.670172 0.288846
O O7 0.502619 0.726880 0.176655
O O8 0.213377 0.299160 0.159237
O O9 0.350015 0.145313 0.103835
O O10 0.201963 0.032117 0.181752
O O11 0.192527 0.138800 0.000000
O O12 0.000000 0.500000 0.851105
O O13 0.007925 0.340413 0.000000
#
# Coordination Sequence:
#
# PCOD9427069 Si02
#       5
#     8   8   8   8   8
#     4  11  25  46  69  89 115 161 218 265 310 373
#     4  11  23  39  61  94 129 157 196 259 323 373
#     4  10  20  35  59  90 126 167 204 245 302 369
#     4  11  22  40  64  91 127 166 205 253 311 370
#     4   9  18  34  58  87 123 169 214 250 294 366
#
# _framework density 21.816499
#
# number of rings (size 3 to 8) (size 9 to 14) (size 15 to 20)
#    0.000    1.600    0.000    6.000    0.000    2.400 
#    0.000   10.000    0.000    1.800    0.000    0.000 
#    0.000    0.000    0.000    0.000    0.000    0.000 
#
# Total GULP energy -223787.008718 kJ/mol
# GULP energy per Si atom -5594.675218 kJ/mol
# Density = 2.176684 g / cm^3
# Si number density = 21.816499 Si / 1000 Ang^3
#
#
#
# Elastic Constant Matrix: (Units=GPa)
#
#
# Indices 1 2 3 4 5 6 
#
# 1 73.9826 -5.9277 22.3353 0.0000 0.0000 0.0000
# 2 -5.9277 125.1295 35.4045 0.0000 0.0000 0.0000
# 3 22.3353 35.4045 140.2686 0.0000 0.0000 0.0000
# 4 0.0000 0.0000 0.0000 -1.2640 0.0000 0.0000
# 5 0.0000 0.0000 0.0000 0.0000 26.2532 0.0000
# 6 0.0000 0.0000 0.0000 0.0000 0.0000 32.1680
#
#
#
# Elastic Compliance Matrix: (Units=1/GPa)
#
#
# Indices 1 2 3 4 5 6 
#
# 1 0.014435 0.001437 -0.002661 0.000000 0.000000 0.000000
# 2 0.001437 0.008749 -0.002437 0.000000 0.000000 0.000000
# 3 -0.002661 -0.002437 0.008168 0.000000 0.000000 0.000000
# 4 0.000000 0.000000 0.000000 -0.791129 0.000000 0.000000
# 5 0.000000 0.000000 0.000000 0.000000 0.038091 0.000000
# 6 0.000000 0.000000 0.000000 0.000000 0.000000 0.031087
#
#
# Mechanical properties :
#
#
# Convention : Reuss Voigt Hill
#
# Bulk Modulus (GPa) = 41.61548 49.22279 45.41913
# Shear Modulus (GPa) = -7.40449 30.60267 11.59909
#
# Velocity S-wave (km/s) = -1.84428 3.74937 2.30829
# Velocity P-wave (km/s) = 3.81857 6.43077 5.28849
#
# Compressibility (1/GPa) = 0.02402952
#
# Stress axis : x y z
#
# Youngs Moduli (GPa) = 69.27494 114.29400 122.42770
#
# Poissons Ratio (x) = -0.16422 0.32581
# Poissons Ratio (y) = -0.09953 0.29838
# Poissons Ratio (z) = 0.18436 0.27855
#
# Static dielectric constant tensor:
#      x y z
#    x 1.836750 0.000000 0.000000 
#    y 0.000000 1.784040 0.000000 
#    z 0.000000 0.000000 1.791720 
# 
# From -- ./inp_files/17075.got.cif
#   From: 2010.05.17/outbox.cif.g08.bks.cpg/sg55_9_cif.got.tgz:17075.got - 2010.06.03 13:27:54.
