data_PCOD9427976
_publ_section_title
;
Structure prediction by ZEFSAII (Michael W. Deem and Ramdas Pophale) SiO2 
 PCOD9427976
Probable space group: P B A M
;
_chemical_formula_sum "Si O2"
_cell_formula_units_Z 56
_cell_length_a 7.210158
_cell_length_b 20.710062
_cell_length_c 16.092391
_cell_angle_alpha 90.000000
_cell_angle_beta 90.000000
_cell_angle_gamma 90.000000
_cell_volume 2402.961192
_symmetry_space_group_name_H-M "P B A M"
_symmetry_group_IT_number 55
_symmetry_cell_setting 'orthorhombic'
loop_
_space_group_symop_operation_xyz
x,y,z
-x,-y,z
1/2+x,1/2-y,-z
1/2-x,1/2+y,-z
-x,-y,-z
x,y,-z
1/2-x,1/2+y,z
1/2+x,1/2-y,z
loop_
_atom_site_type_symbol
_atom_site_label
_atom_site_fract_x
_atom_site_fract_y
_atom_site_fract_z
Si Si1 0.359367 0.159771 0.096399
Si Si2 0.741824 0.945800 0.221827
Si Si3 0.930016 0.199936 0.092771
Si Si4 0.655929 0.655708 0.362503
Si Si5 0.029243 0.718236 0.409011
Si Si6 0.717077 0.406157 0.592804
Si Si7 0.319134 0.413012 0.197869
O O1 0.375300 0.103982 0.165790
O O2 0.436085 0.228260 0.129690
O O3 0.138036 0.173256 0.090951
O O4 0.419012 0.145024 0.000000
O O5 0.719777 0.942177 0.322467
O O6 0.959451 0.927551 0.208203
O O7 0.722656 0.018386 0.188406
O O8 0.805442 0.143531 0.130934
O O9 0.860235 0.211757 0.000000
O O10 0.837052 0.680775 0.408061
O O11 0.550153 0.723672 0.343925
O O12 0.503363 0.608357 0.401763
O O13 0.735654 0.619580 0.283496
O O14 0.043619 0.750434 0.500000
O O15 0.185362 0.663976 0.401792
O O16 0.759829 0.432975 0.500000
#
# Coordination Sequence:
#
# PCOD9427976 Si02
#       7
#     8   8   8   8   8   8   8
#     4   9  18  33  58  87 115 145 184 232 286 343
#     4   9  19  38  56  81 113 153 194 233 283 348
#     4   9  18  33  55  85 114 144 181 232 288 342
#     4  11  21  34  56  83 115 149 189 244 295 341
#     4  11  21  34  54  84 114 144 190 242 293 347
#     4  10  21  37  57  81 113 153 194 241 290 340
#     4   9  20  35  55  81 114 148 191 234 285 347
#
# _framework density 23.304582
#
# number of rings (size 3 to 8) (size 9 to 14) (size 15 to 20)
#    0.000    2.286    1.429    1.286    2.000    1.714 
#    0.000   10.714    0.000    1.714    0.000    4.000 
#    0.000    0.000    0.000    0.000    0.000    0.000 
#
# Total GULP energy -312501.013363 kJ/mol
# GULP energy per Si atom -5580.375239 kJ/mol
# Density = 2.325154 g / cm^3
# Si number density = 23.304582 Si / 1000 Ang^3
#
#
#
# Elastic Constant Matrix: (Units=GPa)
#
#
# Indices 1 2 3 4 5 6 
#
# 1 59.3198 7.3001 14.4493 0.0000 0.0000 0.0000
# 2 7.3001 118.8875 60.8714 0.0000 0.0000 0.0000
# 3 14.4493 60.8714 89.2324 0.0000 0.0000 0.0000
# 4 0.0000 0.0000 0.0000 71.3033 0.0000 0.0000
# 5 0.0000 0.0000 0.0000 0.0000 15.4998 0.0000
# 6 0.0000 0.0000 0.0000 0.0000 0.0000 21.7880
#
#
#
# Elastic Compliance Matrix: (Units=1/GPa)
#
#
# Indices 1 2 3 4 5 6 
#
# 1 0.017576 0.000581 -0.003242 0.000000 0.000000 0.000000
# 2 0.000581 0.012945 -0.008925 0.000000 0.000000 0.000000
# 3 -0.003242 -0.008925 0.017820 0.000000 0.000000 0.000000
# 4 0.000000 0.000000 0.000000 0.014025 0.000000 0.000000
# 5 0.000000 0.000000 0.000000 0.000000 0.064517 0.000000
# 6 0.000000 0.000000 0.000000 0.000000 0.000000 0.045897
#
#
# Mechanical properties :
#
#
# Convention : Reuss Voigt Hill
#
# Bulk Modulus (GPa) = 39.73201 48.07569 43.90385
# Shear Modulus (GPa) = 24.46877 34.03948 29.25413
#
# Velocity S-wave (km/s) = 3.24382 3.82597 3.54686
# Velocity P-wave (km/s) = 5.57816 6.33968 5.97107
#
# Compressibility (1/GPa) = 0.02516863
#
# Stress axis : x y z
#
# Youngs Moduli (GPa) = 56.89553 77.24831 56.11673
#
# Poissons Ratio (x) = -0.04487 0.18195
# Poissons Ratio (y) = -0.03305 0.50084
# Poissons Ratio (z) = 0.18447 0.68943
#
# Static dielectric constant tensor:
#      x y z
#    x 1.954870 0.000000 0.000000 
#    y 0.000000 1.865090 0.000000 
#    z 0.000000 0.000000 1.884730 
# 
# From -- ./inp_files/17637.got.cif
#   From: 2010.05.17/outbox.cif.g08.bks.cpg/sg55_9_cif.got.tgz:17637.got - 2010.06.03 13:27:54.
