data_PCOD9427837
_publ_section_title
;
Structure prediction by ZEFSAII (Michael W. Deem and Ramdas Pophale) SiO2 
 PCOD9427837
Probable space group: P B A M
;
_chemical_formula_sum "Si O2"
_cell_formula_units_Z 64
_cell_length_a 21.742353
_cell_length_b 15.418503
_cell_length_c 9.476538
_cell_angle_alpha 90.000000
_cell_angle_beta 90.000000
_cell_angle_gamma 90.000000
_cell_volume 3176.862809
_symmetry_space_group_name_H-M "P B A M"
_symmetry_group_IT_number 55
_symmetry_cell_setting 'orthorhombic'
loop_
_space_group_symop_operation_xyz
x,y,z
-x,-y,z
1/2+x,1/2-y,-z
1/2-x,1/2+y,-z
-x,-y,-z
x,y,-z
1/2-x,1/2+y,z
1/2+x,1/2-y,z
loop_
_atom_site_type_symbol
_atom_site_label
_atom_site_fract_x
_atom_site_fract_y
_atom_site_fract_z
Si Si1 0.058954 0.708826 0.666945
Si Si2 0.192258 0.133618 0.667252
Si Si3 0.239825 0.486161 0.160362
Si Si4 0.417333 0.577363 0.835896
Si Si5 0.937806 0.119406 0.164346
Si Si6 0.930994 0.623444 0.337684
Si Si7 0.211782 0.325544 0.336377
Si Si8 0.903519 0.459639 0.838694
O O1 0.072393 0.707906 0.500000
O O2 0.077963 0.799567 0.737480
O O3 0.088399 0.626482 0.745966
O O4 0.985420 0.692014 0.685787
O O5 0.190033 0.121497 0.500000
O O6 0.124294 0.132939 0.732736
O O7 0.224454 0.225568 0.695494
O O8 0.226336 0.056370 0.745241
O O9 0.243714 0.392420 0.232349
O O10 0.168135 0.513306 0.158858
O O11 0.262691 0.485330 0.000000
O O12 0.409257 0.474825 0.801985
O O13 0.488815 0.601915 0.824254
O O14 0.399937 0.590489 0.000000
O O15 0.924413 0.139217 0.000000
O O16 0.937145 0.592362 0.500000
O O17 0.862288 0.661275 0.323400
O O18 0.936412 0.541949 0.233711
O O19 0.227367 0.344095 0.500000
O O20 0.923965 0.445481 0.000000
#
# Coordination Sequence:
#
# PCOD9427837 Si02
#       8
#     8   8   8   8   8   8   8   8
#     4  11  21  32  51  81 113 148 185 221 274 337
#     4  11  22  37  61  89 114 145 187 233 283 339
#     4  10  22  40  59  81 110 147 190 237 285 332
#     4   9  19  37  59  82 111 147 184 226 275 325
#     4   9  19  36  56  80 113 149 184 224 271 323
#     4   9  18  33  53  78 110 143 179 224 275 329
#     4   9  19  37  59  83 111 144 182 230 283 334
#     4  10  21  36  53  75 106 144 187 231 278 329
#
# _framework density 20.145658999999998
#
# number of rings (size 3 to 8) (size 9 to 14) (size 15 to 20)
#    0.000    2.250    0.000    3.375    0.000    7.000 
#    2.250    3.750    0.000    0.000    0.000    0.000 
#    0.000    0.000    0.000    0.000    0.000    0.000 
#
# Total GULP energy -357517.511584 kJ/mol
# GULP energy per Si atom -5586.211119 kJ/mol
# Density = 2.009981 g / cm^3
# Si number density = 20.145659 Si / 1000 Ang^3
#
#
#
# Elastic Constant Matrix: (Units=GPa)
#
#
# Indices 1 2 3 4 5 6 
#
# 1 12.8706 -1.0131 9.0505 0.0000 0.0000 0.0000
# 2 -1.0131 127.6049 95.0590 0.0000 0.0000 0.0000
# 3 9.0505 95.0590 115.3147 0.0000 0.0000 0.0000
# 4 0.0000 0.0000 0.0000 28.3654 0.0000 0.0000
# 5 0.0000 0.0000 0.0000 0.0000 25.5460 0.0000
# 6 0.0000 0.0000 0.0000 0.0000 0.0000 20.0755
#
#
#
# Elastic Compliance Matrix: (Units=1/GPa)
#
#
# Indices 1 2 3 4 5 6 
#
# 1 0.093440 0.016079 -0.020588 0.000000 0.000000 0.000000
# 2 0.016079 0.023074 -0.020283 0.000000 0.000000 0.000000
# 3 -0.020588 -0.020283 0.027008 0.000000 0.000000 0.000000
# 4 0.000000 0.000000 0.000000 0.035254 0.000000 0.000000
# 5 0.000000 0.000000 0.000000 0.000000 0.039145 0.000000
# 6 0.000000 0.000000 0.000000 0.000000 0.000000 0.049812
#
#
# Mechanical properties :
#
#
# Convention : Reuss Voigt Hill
#
# Bulk Modulus (GPa) = 10.64539 51.33145 30.98842
# Shear Modulus (GPa) = 14.34185 24.97696 19.65941
#
# Velocity S-wave (km/s) = 2.67105 3.52493 3.12727
# Velocity P-wave (km/s) = 3.84817 6.48863 5.33435
#
# Compressibility (1/GPa) = 0.09393741
#
# Stress axis : x y z
#
# Youngs Moduli (GPa) = 10.70208 43.33863 37.02615
#
# Poissons Ratio (x) = -0.69684 0.76230
# Poissons Ratio (y) = -0.17208 0.75100
# Poissons Ratio (z) = 0.22034 0.87904
#
# Static dielectric constant tensor:
#      x y z
#    x 1.761430 0.000000 0.000000 
#    y 0.000000 1.688660 0.000000 
#    z 0.000000 0.000000 1.671910 
# 
# From -- ./inp_files/9693.got.cif
#   From: 2010.05.17/outbox.cif.g08.bks.cpg/sg55_5_cif.got.tgz:9693.got - 2010.06.03 13:27:54.
