data_PCOD9427524
_publ_section_title
;
Structure prediction by ZEFSAII (Michael W. Deem and Ramdas Pophale) SiO2 
 PCOD9427524
Probable space group: P B A M
;
_chemical_formula_sum "Si O2"
_cell_formula_units_Z 52
_cell_length_a 9.900281
_cell_length_b 14.639675
_cell_length_c 17.444807
_cell_angle_alpha 90.000000
_cell_angle_beta 90.000000
_cell_angle_gamma 90.000000
_cell_volume 2528.396182
_symmetry_space_group_name_H-M "P B A M"
_symmetry_group_IT_number 55
_symmetry_cell_setting 'orthorhombic'
loop_
_space_group_symop_operation_xyz
x,y,z
-x,-y,z
1/2+x,1/2-y,-z
1/2-x,1/2+y,-z
-x,-y,-z
x,y,-z
1/2-x,1/2+y,z
1/2+x,1/2-y,z
loop_
_atom_site_type_symbol
_atom_site_label
_atom_site_fract_x
_atom_site_fract_y
_atom_site_fract_z
Si Si1 0.400276 0.366301 0.088316
Si Si2 0.000000 0.000000 0.362345
Si Si3 0.515243 0.098091 0.205432
Si Si4 0.144712 0.717554 0.314984
Si Si5 0.915685 0.803294 0.412184
Si Si6 0.134968 0.258827 0.912448
Si Si7 0.805239 0.084639 0.246683
O O1 0.555783 0.335998 0.101659
O O2 0.348381 0.429375 0.157832
O O3 0.295716 0.278593 0.093401
O O4 0.387806 0.400110 0.000000
O O5 0.123934 0.982652 0.304985
O O6 0.974007 0.906736 0.407812
O O7 0.394604 0.137780 0.255961
O O8 0.564796 0.172387 0.145497
O O9 0.645785 0.082712 0.258625
O O10 0.500000 0.000000 0.166664
O O11 0.284975 0.702361 0.357985
O O12 0.148865 0.812410 0.267623
O O13 0.027305 0.735158 0.377171
O O14 0.882965 0.780951 0.500000
O O15 0.099701 0.281590 0.000000
#
# Coordination Sequence:
#
# PCOD9427524 Si02
#       7
#     8   4   8   8   8   8   8
#     4   9  17  31  54  80 112 150 192 235 276 327
#     4  10  23  38  63  86 116 152 188 238 287 348
#     4  11  21  35  57  86 119 150 189 241 283 331
#     4  11  21  38  63  86 114 154 192 231 281 348
#     4  11  23  41  63  87 116 148 190 237 292 349
#     4   9  18  32  52  80 111 149 193 235 280 327
#     4  10  20  38  57  87 115 154 196 231 280 338
#
# _framework density 20.566396999999998
#
# number of rings (size 3 to 8) (size 9 to 14) (size 15 to 20)
#    0.000    1.846    3.077    1.615    0.000    0.308 
#    2.769    0.385    0.000    1.846    0.000    0.000 
#    0.000    0.000    0.000    0.000    0.000    0.000 
#
# Total GULP energy -289942.773150 kJ/mol
# GULP energy per Si atom -5575.822561 kJ/mol
# Density = 2.051959 g / cm^3
# Si number density = 20.566397 Si / 1000 Ang^3
#
#
#
# Elastic Constant Matrix: (Units=GPa)
#
#
# Indices 1 2 3 4 5 6 
#
# 1 63.2983 -17.0924 -7.5466 0.0000 0.0000 0.0000
# 2 -17.0924 31.4422 -7.0234 0.0000 0.0000 0.0000
# 3 -7.5466 -7.0234 49.4778 0.0000 0.0000 0.0000
# 4 0.0000 0.0000 0.0000 -6.7813 0.0000 0.0000
# 5 0.0000 0.0000 0.0000 0.0000 13.0663 0.0000
# 6 0.0000 0.0000 0.0000 0.0000 0.0000 20.3961
#
#
#
# Elastic Compliance Matrix: (Units=1/GPa)
#
#
# Indices 1 2 3 4 5 6 
#
# 1 0.019489 0.011627 0.004623 0.000000 0.000000 0.000000
# 2 0.011627 0.039783 0.007421 0.000000 0.000000 0.000000
# 3 0.004623 0.007421 0.021970 0.000000 0.000000 0.000000
# 4 0.000000 0.000000 0.000000 -0.147463 0.000000 0.000000
# 5 0.000000 0.000000 0.000000 0.000000 0.076533 0.000000
# 6 0.000000 0.000000 0.000000 0.000000 0.000000 0.049029
#
#
# Mechanical properties :
#
#
# Convention : Reuss Voigt Hill
#
# Bulk Modulus (GPa) = 7.77705 8.98814 8.38260
# Shear Modulus (GPa) = 91.14258 17.06159 54.10209
#
# Velocity S-wave (km/s) = 6.66427 2.88338 5.13451
# Velocity P-wave (km/s) = 7.93765 3.93255 6.26383
#
# Compressibility (1/GPa) = 0.12858341
#
# Stress axis : x y z
#
# Youngs Moduli (GPa) = 51.31070 25.13652 45.51748
#
# Poissons Ratio (x) = -0.29227 -0.21043
# Poissons Ratio (y) = -0.59660 -0.33777
# Poissons Ratio (z) = -0.23721 -0.18653
#
# Static dielectric constant tensor:
#      x y z
#    x 1.778390 0.000000 0.000000 
#    y 0.000000 1.805660 0.000000 
#    z 0.000000 0.000000 1.714890 
# 
# From -- ./inp_files/20948.got.cif
#   From: 2010.05.17/outbox.cif.g08.bks.cpg/sg55_11_cif.got.tgz:20948.got - 2010.06.03 13:27:54.
