data_PCOD9427427
_publ_section_title
;
Structure prediction by ZEFSAII (Michael W. Deem and Ramdas Pophale) SiO2 
 PCOD9427427
Probable space group: P B A M
;
_chemical_formula_sum "Si O2"
_cell_formula_units_Z 58
_cell_length_a 12.132840
_cell_length_b 29.682228
_cell_length_c 9.041746
_cell_angle_alpha 90.000000
_cell_angle_beta 90.000000
_cell_angle_gamma 90.000000
_cell_volume 3256.201484
_symmetry_space_group_name_H-M "P B A M"
_symmetry_group_IT_number 55
_symmetry_cell_setting 'orthorhombic'
loop_
_space_group_symop_operation_xyz
x,y,z
-x,-y,z
1/2+x,1/2-y,-z
1/2-x,1/2+y,-z
-x,-y,-z
x,y,-z
1/2-x,1/2+y,z
1/2+x,1/2-y,z
loop_
_atom_site_type_symbol
_atom_site_label
_atom_site_fract_x
_atom_site_fract_y
_atom_site_fract_z
Si Si1 0.512130 0.859050 0.322947
Si Si2 0.103767 0.820966 0.178193
Si Si3 0.226717 0.985992 0.163480
Si Si4 0.717877 0.922075 0.676707
Si Si5 0.149039 0.156111 0.176964
Si Si6 0.000000 0.000000 0.000000
Si Si7 0.853860 0.281489 0.177348
Si Si8 0.731659 0.108112 0.322515
O O1 0.515392 0.853027 0.500000
O O2 0.602470 0.897355 0.285748
O O3 0.553153 0.813220 0.247565
O O4 0.390082 0.874154 0.280582
O O5 0.136262 0.770287 0.223403
O O6 0.179069 0.857440 0.257841
O O7 0.975325 0.829933 0.210851
O O8 0.117831 0.824945 0.000000
O O9 0.247875 0.940888 0.254279
O O10 0.270394 0.029756 0.247689
O O11 0.279982 0.982401 0.000000
O O12 0.097083 0.992376 0.126406
O O13 0.725816 0.925752 0.500000
O O14 0.811592 0.888518 0.739102
O O15 0.236455 0.195505 0.214005
O O16 0.156360 0.147698 0.000000
O O17 0.865897 0.282744 0.000000
O O18 0.738100 0.106328 0.500000
#
# Coordination Sequence:
#
# PCOD9427427 Si02
#       8
#     8   8   8   8   8   2   8   8
#     4   9  21  40  59  82 120 154 187 238 294 343
#     4  10  22  36  57  83 115 151 190 241 293 340
#     4  10  22  40  61  84 113 154 188 233 288 340
#     4  10  20  37  61  86 111 150 194 237 283 343
#     4   9  19  35  55  82 115 146 187 237 287 340
#     4   8  24  40  62  78 120 152 186 224 294 336
#     4   9  19  36  59  85 109 148 196 237 284 344
#     4  11  24  40  57  85 119 155 193 236 290 349
#
# _framework density 17.812165
#
# number of rings (size 3 to 8) (size 9 to 14) (size 15 to 20)
#    0.414    1.931    0.000    1.241    3.862    3.310 
#    0.000    3.448    0.000    0.000    0.000    0.000 
#    0.000    0.000    0.000    0.000    0.000    0.000 
#
# Total GULP energy -323045.016041 kJ/mol
# GULP energy per Si atom -5569.741656 kJ/mol
# Density = 1.777162 g / cm^3
# Si number density = 17.812165 Si / 1000 Ang^3
#
#
#
# Elastic Constant Matrix: (Units=GPa)
#
#
# Indices 1 2 3 4 5 6 
#
# 1 103.6040 73.5931 48.3657 0.0000 0.0000 0.0000
# 2 73.5931 167.7978 63.5970 0.0000 0.0000 0.0000
# 3 48.3657 63.5970 49.8402 0.0000 0.0000 0.0000
# 4 0.0000 0.0000 0.0000 -431.7790 0.0000 0.0000
# 5 0.0000 0.0000 0.0000 0.0000 30.4150 0.0000
# 6 0.0000 0.0000 0.0000 0.0000 0.0000 9.9373
#
#
#
# Elastic Compliance Matrix: (Units=1/GPa)
#
#
# Indices 1 2 3 4 5 6 
#
# 1 0.018168 -0.002491 -0.014453 0.000000 0.000000 0.000000
# 2 -0.002491 0.011882 -0.012745 0.000000 0.000000 0.000000
# 3 -0.014453 -0.012745 0.050353 0.000000 0.000000 0.000000
# 4 0.000000 0.000000 0.000000 -0.002316 0.000000 0.000000
# 5 0.000000 0.000000 0.000000 0.000000 0.032878 0.000000
# 6 0.000000 0.000000 0.000000 0.000000 0.000000 0.100631
#
#
# Mechanical properties :
#
#
# Convention : Reuss Voigt Hill
#
# Bulk Modulus (GPa) = 47.56025 76.92819 62.24422
# Shear Modulus (GPa) = 17.98672 -69.23957 -25.62643
#
# Velocity S-wave (km/s) = 3.18118 -6.24151 -3.79714
# Velocity P-wave (km/s) = 6.34446 2.94272 3.97445
#
# Compressibility (1/GPa) = 0.02102596
#
# Stress axis : x y z
#
# Youngs Moduli (GPa) = 55.04105 84.15744 19.85989
#
# Poissons Ratio (x) = 0.20959 0.28703
# Poissons Ratio (y) = 0.13708 0.25312
# Poissons Ratio (z) = 0.79550 1.07262
#
# Static dielectric constant tensor:
#      x y z
#    x 1.593120 0.000000 0.000000 
#    y 0.000000 1.583840 0.000000 
#    z 0.000000 0.000000 1.598960 
# 
# From -- ./inp_files/4330.got.cif
#   From: 2010.05.17/outbox.cif.g08.bks.cpg/sg55_3_cif.got.tgz:4330.got - 2010.06.03 13:27:54.
