data_PCOD9427777
_publ_section_title
;
Structure prediction by ZEFSAII (Michael W. Deem and Ramdas Pophale) SiO2 
 PCOD9427777
Probable space group: P B A M
;
_chemical_formula_sum "Si O2"
_cell_formula_units_Z 40
_cell_length_a 11.650514
_cell_length_b 8.905344
_cell_length_c 17.280099
_cell_angle_alpha 90.000000
_cell_angle_beta 90.000000
_cell_angle_gamma 90.000000
_cell_volume 1792.841979
_symmetry_space_group_name_H-M "P B A M"
_symmetry_group_IT_number 55
_symmetry_cell_setting 'orthorhombic'
loop_
_space_group_symop_operation_xyz
x,y,z
-x,-y,z
1/2+x,1/2-y,-z
1/2-x,1/2+y,-z
-x,-y,-z
x,y,-z
1/2-x,1/2+y,z
1/2+x,1/2-y,z
loop_
_atom_site_type_symbol
_atom_site_label
_atom_site_fract_x
_atom_site_fract_y
_atom_site_fract_z
Si Si1 0.631060 0.562881 0.587590
Si Si2 0.876934 0.074858 0.091856
Si Si3 0.515245 0.175904 0.416263
Si Si4 0.316759 0.885796 0.288306
Si Si5 0.303633 0.141078 0.820211
O O1 0.500000 0.500000 0.597816
O O2 0.670536 0.526949 0.500000
O O3 0.604945 0.740889 0.590791
O O4 0.721169 0.538471 0.655268
O O5 0.874161 0.244432 0.125729
O O6 0.782539 0.965394 0.131022
O O7 0.856750 0.080674 0.000000
O O8 0.000000 0.000000 0.106965
O O9 0.565168 0.222457 0.500000
O O10 0.596257 0.200661 0.344115
O O11 0.500000 0.000000 0.418136
O O12 0.263431 0.760505 0.233014
O O13 0.365621 0.022253 0.236504
#
# Coordination Sequence:
#
# PCOD9427777 Si02
#       5
#     8   8   8   8   8
#     4  10  21  36  55  79 111 158 210 251 290 343
#     4  10  22  44  69  90 120 158 192 238 300 367
#     4  10  21  35  52  76 109 154 203 245 286 338
#     4  11  21  36  56  83 120 156 192 247 306 347
#     4  10  23  37  60  95 120 150 196 244 298 366
#
# _framework density 22.310945
#
# number of rings (size 3 to 8) (size 9 to 14) (size 15 to 20)
#    0.000    1.800    0.000    3.600    0.000    8.000 
#    0.000   11.000    0.000   10.800    0.000    0.000 
#    0.000    0.000    0.000    0.000    0.000    0.000 
#
# Total GULP energy -223363.866205 kJ/mol
# GULP energy per Si atom -5584.096655 kJ/mol
# Density = 2.226016 g / cm^3
# Si number density = 22.310945 Si / 1000 Ang^3
#
#
#
# Elastic Constant Matrix: (Units=GPa)
#
#
# Indices 1 2 3 4 5 6 
#
# 1 53.8008 19.3501 54.4544 0.0000 0.0000 0.0000
# 2 19.3501 122.5942 38.3593 0.0000 0.0000 0.0000
# 3 54.4544 38.3593 119.1165 0.0000 0.0000 0.0000
# 4 0.0000 0.0000 0.0000 28.8529 0.0000 0.0000
# 5 0.0000 0.0000 0.0000 0.0000 26.5511 0.0000
# 6 0.0000 0.0000 0.0000 0.0000 0.0000 27.6503
#
#
#
# Elastic Compliance Matrix: (Units=1/GPa)
#
#
# Indices 1 2 3 4 5 6 
#
# 1 0.034630 -0.000570 -0.015648 0.000000 0.000000 0.000000
# 2 -0.000570 0.009080 -0.002664 0.000000 0.000000 0.000000
# 3 -0.015648 -0.002664 0.016406 0.000000 0.000000 0.000000
# 4 0.000000 0.000000 0.000000 0.034659 0.000000 0.000000
# 5 0.000000 0.000000 0.000000 0.000000 0.037663 0.000000
# 6 0.000000 0.000000 0.000000 0.000000 0.000000 0.036166
#
#
# Mechanical properties :
#
#
# Convention : Reuss Voigt Hill
#
# Bulk Modulus (GPa) = 44.73431 57.75990 51.24710
# Shear Modulus (GPa) = 23.38442 28.83404 26.10923
#
# Velocity S-wave (km/s) = 3.24097 3.59886 3.42459
# Velocity P-wave (km/s) = 5.83944 6.57372 6.21743
#
# Compressibility (1/GPa) = 0.02235421
#
# Stress axis : x y z
#
# Youngs Moduli (GPa) = 28.87695 110.12748 60.95240
#
# Poissons Ratio (x) = 0.06276 0.95376
# Poissons Ratio (y) = 0.01646 0.16236
# Poissons Ratio (z) = 0.45185 0.29334
#
# Static dielectric constant tensor:
#      x y z
#    x 1.834130 0.000000 0.000000 
#    y 0.000000 1.887880 0.000000 
#    z 0.000000 0.000000 1.843200 
# 
# From -- ./inp_files/17049.got.cif
#   From: 2010.05.17/outbox.cif.g08.bks.cpg/sg55_9_cif.got.tgz:17049.got - 2010.06.03 13:27:54.
