data_PCOD9427388
_publ_section_title
;
Structure prediction by ZEFSAII (Michael W. Deem and Ramdas Pophale) SiO2 
 PCOD9427388
Probable space group: P B A M
;
_chemical_formula_sum "Si O2"
_cell_formula_units_Z 40
_cell_length_a 15.975034
_cell_length_b 12.520051
_cell_length_c 10.718392
_cell_angle_alpha 90.000000
_cell_angle_beta 90.000000
_cell_angle_gamma 90.000000
_cell_volume 2143.766724
_symmetry_space_group_name_H-M "P B A M"
_symmetry_group_IT_number 55
_symmetry_cell_setting 'orthorhombic'
loop_
_space_group_symop_operation_xyz
x,y,z
-x,-y,z
1/2+x,1/2-y,-z
1/2-x,1/2+y,-z
-x,-y,-z
x,y,-z
1/2-x,1/2+y,z
1/2+x,1/2-y,z
loop_
_atom_site_type_symbol
_atom_site_label
_atom_site_fract_x
_atom_site_fract_y
_atom_site_fract_z
Si Si1 0.159226 0.755279 0.753305
Si Si2 0.737479 0.543039 0.357794
Si Si3 0.501993 0.378614 0.148187
Si Si4 0.587698 0.963748 0.646379
Si Si5 0.688977 0.370615 0.145758
O O1 0.196230 0.841813 0.657947
O O2 0.123776 0.646181 0.697614
O O3 0.238023 0.717215 0.837432
O O4 0.078731 0.812708 0.811908
O O5 0.722689 0.502018 0.500000
O O6 0.837693 0.548749 0.340219
O O7 0.705999 0.464497 0.247216
O O8 0.500000 0.500000 0.200232
O O9 0.594401 0.331463 0.174388
O O10 0.496201 0.386776 0.000000
O O11 0.574062 0.946201 0.500000
O O12 0.500000 0.000000 0.704059
O O13 0.690089 0.407884 0.000000
#
# Coordination Sequence:
#
# PCOD9427388 Si02
#       5
#     8   8   8   8   8
#     4  11  21  35  62  86 118 153 200 242 299 346
#     4  10  21  38  60  87 120 154 197 249 295 350
#     4  10  20  37  59  85 117 154 196 242 293 350
#     4   9  20  38  57  80 116 157 195 237 295 354
#     4  10  22  39  60  87 118 156 198 243 297 354
#
# _framework density 18.658747999999999
#
# number of rings (size 3 to 8) (size 9 to 14) (size 15 to 20)
#    0.000    2.000    2.000    1.200    2.800    1.600 
#    0.000    3.000    0.000    3.000    0.000    0.000 
#    0.000    0.000    0.000    0.000    0.000    0.000 
#
# Total GULP energy -222686.742908 kJ/mol
# GULP energy per Si atom -5567.168573 kJ/mol
# Density = 1.861628 g / cm^3
# Si number density = 18.658748 Si / 1000 Ang^3
#
#
#
# Elastic Constant Matrix: (Units=GPa)
#
#
# Indices 1 2 3 4 5 6 
#
# 1 182.7106 66.5776 45.7830 0.0000 0.0000 0.0000
# 2 66.5776 71.1917 19.8588 0.0000 0.0000 0.0000
# 3 45.7830 19.8588 73.8333 0.0000 0.0000 0.0000
# 4 0.0000 0.0000 0.0000 17.0980 0.0000 0.0000
# 5 0.0000 0.0000 0.0000 0.0000 25.6213 0.0000
# 6 0.0000 0.0000 0.0000 0.0000 0.0000 38.3800
#
#
#
# Elastic Compliance Matrix: (Units=1/GPa)
#
#
# Indices 1 2 3 4 5 6 
#
# 1 0.009124 -0.007518 -0.003635 0.000000 0.000000 0.000000
# 2 -0.007518 0.021381 -0.001089 0.000000 0.000000 0.000000
# 3 -0.003635 -0.001089 0.016091 0.000000 0.000000 0.000000
# 4 0.000000 0.000000 0.000000 0.058486 0.000000 0.000000
# 5 0.000000 0.000000 0.000000 0.000000 0.039030 0.000000
# 6 0.000000 0.000000 0.000000 0.000000 0.000000 0.026055
#
#
# Mechanical properties :
#
#
# Convention : Reuss Voigt Hill
#
# Bulk Modulus (GPa) = 45.22611 65.79716 55.51163
# Shear Modulus (GPa) = 24.74968 29.25428 27.00198
#
# Velocity S-wave (km/s) = 3.64598 3.96392 3.80827
# Velocity P-wave (km/s) = 6.48193 7.50268 7.01090
#
# Compressibility (1/GPa) = 0.02211112
#
# Stress axis : x y z
#
# Youngs Moduli (GPa) = 109.60598 46.76991 62.14623
#
# Poissons Ratio (x) = 0.35163 0.22592
# Poissons Ratio (y) = 0.82404 0.06767
# Poissons Ratio (z) = 0.39844 0.05093
#
# Static dielectric constant tensor:
#      x y z
#    x 1.698240 0.000000 0.000000 
#    y 0.000000 1.665800 0.000000 
#    z 0.000000 0.000000 1.642240 
# 
# From -- ./inp_files/13008.got.cif
#   From: 2010.05.17/outbox.cif.g08.bks.cpg/sg55_7_cif.got.tgz:13008.got - 2010.06.03 13:27:54.
