data_PCOD9427142
_publ_section_title
;
Structure prediction by ZEFSAII (Michael W. Deem and Ramdas Pophale) SiO2 
 PCOD9427142
Probable space group: P B A M
;
_chemical_formula_sum "Si O2"
_cell_formula_units_Z 64
_cell_length_a 19.116655
_cell_length_b 20.225948
_cell_length_c 7.771649
_cell_angle_alpha 90.000000
_cell_angle_beta 90.000000
_cell_angle_gamma 90.000000
_cell_volume 3004.927282
_symmetry_space_group_name_H-M "P B A M"
_symmetry_group_IT_number 55
_symmetry_cell_setting 'orthorhombic'
loop_
_space_group_symop_operation_xyz
x,y,z
-x,-y,z
1/2+x,1/2-y,-z
1/2-x,1/2+y,-z
-x,-y,-z
x,y,-z
1/2-x,1/2+y,z
1/2+x,1/2-y,z
loop_
_atom_site_type_symbol
_atom_site_label
_atom_site_fract_x
_atom_site_fract_y
_atom_site_fract_z
Si Si1 0.797033 0.405114 0.792774
Si Si2 0.055441 0.551152 0.198751
Si Si3 0.194221 0.745580 0.792034
Si Si4 0.305263 0.857608 0.294308
Si Si5 0.541062 0.706822 0.204385
Si Si6 0.447740 0.443191 0.707812
Si Si7 0.291909 0.474853 0.293161
Si Si8 0.461538 0.832295 0.298477
O O1 0.867611 0.440551 0.723850
O O2 0.793910 0.329559 0.731328
O O3 0.732055 0.451359 0.749490
O O4 0.803506 0.401937 0.000000
O O5 0.000000 0.500000 0.278579
O O6 0.018828 0.622515 0.205237
O O7 0.065260 0.530173 0.000000
O O8 0.255556 0.795061 0.738969
O O9 0.118671 0.772392 0.731289
O O10 0.192526 0.745151 0.000000
O O11 0.311463 0.864826 0.500000
O O12 0.265315 0.922378 0.225853
O O13 0.383975 0.847126 0.229169
O O14 0.529181 0.630301 0.243712
O O15 0.483861 0.756404 0.279860
O O16 0.540397 0.716348 0.000000
O O17 0.500000 0.500000 0.770040
O O18 0.446226 0.446478 0.500000
O O19 0.368849 0.456194 0.771395
O O20 0.293343 0.468509 0.500000
O O21 0.464393 0.849939 0.500000
#
# Coordination Sequence:
#
# PCOD9427142 Si02
#       8
#     8   8   8   8   8   8   8   8
#     4  10  21  37  56  84 119 152 193 241 288 349
#     4  10  20  36  57  82 117 158 197 242 295 350
#     4  10  21  38  60  85 115 154 200 247 294 351
#     4  10  22  39  59  86 118 153 198 245 294 359
#     4  11  22  40  64  88 120 158 203 252 301 362
#     4  10  22  41  65  91 122 159 203 254 307 359
#     4  10  21  38  59  86 120 157 198 245 296 355
#     4  11  23  37  58  88 121 155 197 248 300 358
#
# _framework density 21.298352999999999
#
# number of rings (size 3 to 8) (size 9 to 14) (size 15 to 20)
#    0.000    1.750    2.500    1.500    0.000    5.000 
#    0.000    3.750    0.000    0.000    0.000    0.000 
#    0.000    0.000    0.000    0.000    0.000    0.000 
#
# Total GULP energy -357686.912938 kJ/mol
# GULP energy per Si atom -5588.858015 kJ/mol
# Density = 2.124988 g / cm^3
# Si number density = 21.298353 Si / 1000 Ang^3
#
#
#
# Elastic Constant Matrix: (Units=GPa)
#
#
# Indices 1 2 3 4 5 6 
#
# 1 75.6063 18.6717 1.9357 0.0000 0.0000 0.0000
# 2 18.6717 118.9117 -10.1481 0.0000 0.0000 0.0000
# 3 1.9357 -10.1481 30.8544 0.0000 0.0000 0.0000
# 4 0.0000 0.0000 0.0000 24.7694 0.0000 0.0000
# 5 0.0000 0.0000 0.0000 0.0000 -0.2837 0.0000
# 6 0.0000 0.0000 0.0000 0.0000 0.0000 42.3322
#
#
#
# Elastic Compliance Matrix: (Units=1/GPa)
#
#
# Indices 1 2 3 4 5 6 
#
# 1 0.013839 -0.002312 -0.001629 0.000000 0.000000 0.000000
# 2 -0.002312 0.009039 0.003118 0.000000 0.000000 0.000000
# 3 -0.001629 0.003118 0.033538 0.000000 0.000000 0.000000
# 4 0.000000 0.000000 0.000000 0.040372 0.000000 0.000000
# 5 0.000000 0.000000 0.000000 0.000000 -3.524703 0.000000
# 6 0.000000 0.000000 0.000000 0.000000 0.000000 0.023623
#
#
# Mechanical properties :
#
#
# Convention : Reuss Voigt Hill
#
# Bulk Modulus (GPa) = 18.25807 27.36565 22.81186
# Shear Modulus (GPa) = -1.47737 27.69112 13.10687
#
# Velocity S-wave (km/s) = -0.83376 3.60968 2.48340
# Velocity P-wave (km/s) = 2.76844 5.49997 4.35396
#
# Compressibility (1/GPa) = 0.05477031
#
# Stress axis : x y z
#
# Youngs Moduli (GPa) = 72.25909 110.63509 29.81693
#
# Poissons Ratio (x) = 0.25579 0.04856
# Poissons Ratio (y) = 0.16706 -0.09297
# Poissons Ratio (z) = 0.11768 -0.34495
#
# Static dielectric constant tensor:
#      x y z
#    x 1.758370 0.000000 0.000000 
#    y 0.000000 1.747830 0.000000 
#    z 0.000000 0.000000 1.787710 
# 
# From -- ./inp_files/8062.got.cif
#   From: 2010.05.17/outbox.cif.g08.bks.cpg/sg55_5_cif.got.tgz:8062.got - 2010.06.03 13:27:54.
