data_PCOD9427140
_publ_section_title
;
Structure prediction by ZEFSAII (Michael W. Deem and Ramdas Pophale) SiO2 
 PCOD9427140
Probable space group: P B A M
;
_chemical_formula_sum "Si O2"
_cell_formula_units_Z 56
_cell_length_a 24.014432
_cell_length_b 13.954508
_cell_length_c 8.431517
_cell_angle_alpha 90.000000
_cell_angle_beta 90.000000
_cell_angle_gamma 90.000000
_cell_volume 2825.482150
_symmetry_space_group_name_H-M "P B A M"
_symmetry_group_IT_number 55
_symmetry_cell_setting 'orthorhombic'
loop_
_space_group_symop_operation_xyz
x,y,z
-x,-y,z
1/2+x,1/2-y,-z
1/2-x,1/2+y,-z
-x,-y,-z
x,y,-z
1/2-x,1/2+y,z
1/2+x,1/2-y,z
loop_
_atom_site_type_symbol
_atom_site_label
_atom_site_fract_x
_atom_site_fract_y
_atom_site_fract_z
Si Si1 0.622846 0.280497 0.312912
Si Si2 0.479528 0.603521 0.690485
Si Si3 0.668998 0.000354 0.807686
Si Si4 0.957160 0.291664 0.189853
Si Si5 0.668178 0.795712 0.686552
Si Si6 0.728450 0.197074 0.188149
Si Si7 0.560083 0.096771 0.813389
O O1 0.616512 0.258258 0.500000
O O2 0.585936 0.374516 0.280842
O O3 0.687293 0.274712 0.268448
O O4 0.593801 0.196165 0.211743
O O5 0.500000 0.500000 0.746521
O O6 0.488269 0.608067 0.500000
O O7 0.513471 0.691228 0.766172
O O8 0.706270 0.091994 0.762416
O O9 0.605160 0.020706 0.751710
O O10 0.688902 0.901000 0.737463
O O11 0.668356 0.994217 0.000000
O O12 0.895607 0.290928 0.258420
O O13 0.998717 0.377038 0.249563
O O14 0.953856 0.301246 0.000000
O O15 0.671307 0.783707 0.500000
O O16 0.708467 0.718540 0.766853
O O17 0.721306 0.203984 0.000000
O O18 0.553736 0.076725 0.000000
#
# Coordination Sequence:
#
# PCOD9427140 Si02
#       7
#     8   8   8   8   8   8   8
#     4   9  16  29  53  81 108 142 183 229 282 333
#     4   9  18  34  55  82 117 153 189 234 288 344
#     4   9  19  38  62  85 109 143 189 237 286 341
#     4  10  20  36  57  82 115 152 192 238 287 337
#     4  12  25  39  57  84 119 154 190 237 294 348
#     4  10  21  40  62  81 108 148 194 241 286 339
#     4   8  16  32  56  82 109 144 183 226 275 332
#
# _framework density 19.819627000000001
#
# number of rings (size 3 to 8) (size 9 to 14) (size 15 to 20)
#    0.000    2.429    0.000    3.429    0.000    4.857 
#    2.571    2.857    0.000    0.000    0.000    0.000 
#    0.000    0.000    0.000    0.000    0.000    0.000 
#
# Total GULP energy -312310.681525 kJ/mol
# GULP energy per Si atom -5576.976456 kJ/mol
# Density = 1.977452 g / cm^3
# Si number density = 19.819627 Si / 1000 Ang^3
#
#
#
# Elastic Constant Matrix: (Units=GPa)
#
#
# Indices 1 2 3 4 5 6 
#
# 1 98.9530 19.8153 8.2771 0.0000 0.0000 0.0000
# 2 19.8153 56.2792 14.0292 0.0000 0.0000 0.0000
# 3 8.2771 14.0292 30.3446 0.0000 0.0000 0.0000
# 4 0.0000 0.0000 0.0000 22.1066 0.0000 0.0000
# 5 0.0000 0.0000 0.0000 0.0000 29.4133 0.0000
# 6 0.0000 0.0000 0.0000 0.0000 0.0000 31.4076
#
#
#
# Elastic Compliance Matrix: (Units=1/GPa)
#
#
# Indices 1 2 3 4 5 6 
#
# 1 0.010922 -0.003507 -0.001358 0.000000 0.000000 0.000000
# 2 -0.003507 0.021209 -0.008849 0.000000 0.000000 0.000000
# 3 -0.001358 -0.008849 0.037416 0.000000 0.000000 0.000000
# 4 0.000000 0.000000 0.000000 0.045235 0.000000 0.000000
# 5 0.000000 0.000000 0.000000 0.000000 0.033998 0.000000
# 6 0.000000 0.000000 0.000000 0.000000 0.000000 0.031839
#
#
# Mechanical properties :
#
#
# Convention : Reuss Voigt Hill
#
# Bulk Modulus (GPa) = 23.74184 29.98000 26.86092
# Shear Modulus (GPa) = 22.51366 26.14918 24.33142
#
# Velocity S-wave (km/s) = 3.37401 3.63624 3.50757
# Velocity P-wave (km/s) = 5.21378 5.72616 5.47597
#
# Compressibility (1/GPa) = 0.04211973
#
# Stress axis : x y z
#
# Youngs Moduli (GPa) = 91.56136 47.14948 26.72632
#
# Poissons Ratio (x) = 0.16535 0.03629
# Poissons Ratio (y) = 0.32110 0.23650
# Poissons Ratio (z) = 0.12432 0.41723
#
# Static dielectric constant tensor:
#      x y z
#    x 1.732490 0.000000 0.000000 
#    y 0.000000 1.703160 0.000000 
#    z 0.000000 0.000000 1.677020 
# 
# From -- ./inp_files/6157.got.cif
#   From: 2010.05.17/outbox.cif.g08.bks.cpg/sg55_4_cif.got.tgz:6157.got - 2010.06.03 13:27:54.
