data_PCOD9427060
_publ_section_title
;
Structure prediction by ZEFSAII (Michael W. Deem and Ramdas Pophale) SiO2 
 PCOD9427060
Probable space group: P B A M
;
_chemical_formula_sum "Si O2"
_cell_formula_units_Z 64
_cell_length_a 18.540720
_cell_length_b 14.476314
_cell_length_c 12.565253
_cell_angle_alpha 90.000000
_cell_angle_beta 90.000000
_cell_angle_gamma 90.000000
_cell_volume 3372.530045
_symmetry_space_group_name_H-M "P B A M"
_symmetry_group_IT_number 55
_symmetry_cell_setting 'orthorhombic'
loop_
_space_group_symop_operation_xyz
x,y,z
-x,-y,z
1/2+x,1/2-y,-z
1/2-x,1/2+y,-z
-x,-y,-z
x,y,-z
1/2-x,1/2+y,z
1/2+x,1/2-y,z
loop_
_atom_site_type_symbol
_atom_site_label
_atom_site_fract_x
_atom_site_fract_y
_atom_site_fract_z
Si Si1 0.490458 0.610341 0.119739
Si Si2 0.377162 0.358207 0.736183
Si Si3 0.184139 0.025405 0.378028
Si Si4 0.266123 0.856601 0.873255
Si Si5 0.610170 0.830782 0.623974
Si Si6 0.146419 0.190039 0.226464
Si Si7 0.165320 0.484334 0.704551
Si Si8 0.562494 0.169654 0.622152
O O1 0.500000 0.500000 0.123728
O O2 0.547118 0.650694 0.203676
O O3 0.409281 0.638468 0.148782
O O4 0.507357 0.641774 0.000000
O O5 0.373095 0.451340 0.666504
O O6 0.313691 0.364379 0.823510
O O7 0.365071 0.269985 0.661382
O O8 0.170443 0.050119 0.500000
O O9 0.183775 0.113678 0.300715
O O10 0.261999 0.976823 0.365591
O O11 0.300208 0.759112 0.834953
O O12 0.313176 0.937517 0.816537
O O13 0.266076 0.863971 0.000000
O O14 0.630144 0.848065 0.500000
O O15 0.523496 0.834916 0.632175
O O16 0.643021 0.909275 0.699382
O O17 0.097834 0.254141 0.302632
O O18 0.100522 0.426127 0.653663
O O19 0.579486 0.191464 0.500000
#
# Coordination Sequence:
#
# PCOD9427060 Si02
#       8
#     8   8   8   8   8   8   8   8
#     4  11  22  39  61  82 113 153 197 246 297 348
#     4  11  22  40  58  89 120 154 196 247 294 353
#     4  11  22  37  58  87 122 157 191 238 297 355
#     4  10  23  42  63  85 115 155 201 252 298 343
#     4  11  21  36  60  89 122 159 196 240 298 361
#     4  11  21  39  60  89 118 151 196 243 294 354
#     4  10  22  38  59  84 120 155 202 245 288 354
#     4  10  20  35  59  86 119 158 193 238 295 357
#
# _framework density 18.976849999999999
#
# number of rings (size 3 to 8) (size 9 to 14) (size 15 to 20)
#    0.000    1.375    2.500    3.750    0.000    1.000 
#    0.000    8.750    0.000    1.500    0.000    0.000 
#    0.000    0.000    0.000    0.000    0.000    0.000 
#
# Total GULP energy -357484.703309 kJ/mol
# GULP energy per Si atom -5585.698489 kJ/mol
# Density = 1.893366 g / cm^3
# Si number density = 18.976850 Si / 1000 Ang^3
#
#
#
# Elastic Constant Matrix: (Units=GPa)
#
#
# Indices 1 2 3 4 5 6 
#
# 1 37.9392 -0.7481 26.7517 0.0000 0.0000 0.0000
# 2 -0.7481 85.6094 29.3228 0.0000 0.0000 0.0000
# 3 26.7517 29.3228 100.5166 0.0000 0.0000 0.0000
# 4 0.0000 0.0000 0.0000 12.9935 0.0000 0.0000
# 5 0.0000 0.0000 0.0000 0.0000 20.4643 0.0000
# 6 0.0000 0.0000 0.0000 0.0000 0.0000 20.5641
#
#
#
# Elastic Compliance Matrix: (Units=1/GPa)
#
#
# Indices 1 2 3 4 5 6 
#
# 1 0.033478 0.003716 -0.009994 0.000000 0.000000 0.000000
# 2 0.003716 0.013390 -0.004895 0.000000 0.000000 0.000000
# 3 -0.009994 -0.004895 0.014036 0.000000 0.000000 0.000000
# 4 0.000000 0.000000 0.000000 0.076961 0.000000 0.000000
# 5 0.000000 0.000000 0.000000 0.000000 0.048866 0.000000
# 6 0.000000 0.000000 0.000000 0.000000 0.000000 0.048628
#
#
# Mechanical properties :
#
#
# Convention : Reuss Voigt Hill
#
# Bulk Modulus (GPa) = 25.93497 37.19089 31.56293
# Shear Modulus (GPa) = 18.48024 22.05363 20.26694
#
# Velocity S-wave (km/s) = 3.12401 3.41271 3.27154
# Velocity P-wave (km/s) = 5.16807 5.93037 5.56229
#
# Compressibility (1/GPa) = 0.03855798
#
# Stress axis : x y z
#
# Youngs Moduli (GPa) = 29.87030 74.68218 71.24349
#
# Poissons Ratio (x) = -0.27749 0.71200
# Poissons Ratio (y) = -0.11099 0.34874
# Poissons Ratio (z) = 0.29852 0.36557
#
# Static dielectric constant tensor:
#      x y z
#    x 1.655450 0.000000 0.000000 
#    y 0.000000 1.666200 0.000000 
#    z 0.000000 0.000000 1.628190 
# 
# From -- ./inp_files/14391.got.cif
#   From: 2010.05.17/outbox.cif.g08.bks.cpg/sg55_8_cif.got.tgz:14391.got - 2010.06.03 13:27:54.
