data_PCOD9427123
_publ_section_title
;
Structure prediction by ZEFSAII (Michael W. Deem and Ramdas Pophale) SiO2 
 PCOD9427123
Probable space group: P B A M
;
_chemical_formula_sum "Si O2"
_cell_formula_units_Z 64
_cell_length_a 26.725612
_cell_length_b 15.232913
_cell_length_c 8.214706
_cell_angle_alpha 90.000000
_cell_angle_beta 90.000000
_cell_angle_gamma 90.000000
_cell_volume 3344.280108
_symmetry_space_group_name_H-M "P B A M"
_symmetry_group_IT_number 55
_symmetry_cell_setting 'orthorhombic'
loop_
_space_group_symop_operation_xyz
x,y,z
-x,-y,z
1/2+x,1/2-y,-z
1/2-x,1/2+y,-z
-x,-y,-z
x,y,-z
1/2-x,1/2+y,z
1/2+x,1/2-y,z
loop_
_atom_site_type_symbol
_atom_site_label
_atom_site_fract_x
_atom_site_fract_y
_atom_site_fract_z
Si Si1 0.997627 0.398776 0.306071
Si Si2 0.604209 0.168111 0.194073
Si Si3 0.213796 0.001403 0.803089
Si Si4 0.364525 0.640801 0.305321
Si Si5 0.828521 0.504833 0.800759
Si Si6 0.364353 0.355986 0.804789
Si Si7 0.056958 0.993240 0.303039
Si Si8 0.609458 0.835547 0.803958
O O1 0.992813 0.402259 0.500000
O O2 0.948349 0.351325 0.239196
O O3 0.000000 0.500000 0.244030
O O4 0.048900 0.349353 0.263117
O O5 0.626534 0.262497 0.238290
O O6 0.641075 0.090707 0.252539
O O7 0.600459 0.161366 0.000000
O O8 0.185284 0.089843 0.750393
O O9 0.270954 0.996330 0.747450
O O10 0.180736 0.918253 0.743868
O O11 0.213587 0.999616 0.000000
O O12 0.364683 0.644957 0.500000
O O13 0.410237 0.577336 0.252379
O O14 0.858260 0.418454 0.745841
O O15 0.828277 0.504939 0.000000
O O16 0.414860 0.408191 0.763314
O O17 0.369058 0.257038 0.741762
O O18 0.359067 0.351582 0.000000
O O19 0.057658 0.989324 0.500000
O O20 0.000000 0.000000 0.248289
O O21 0.612982 0.834091 0.000000
#
# Coordination Sequence:
#
# PCOD9427123 Si02
#       8
#     8   8   8   8   8   8   8   8
#     4  11  23  38  56  80 113 152 187 231 283 338
#     4  11  22  37  59  86 114 149 190 235 284 335
#     4   9  18  37  60  83 111 146 187 232 280 330
#     4  10  21  37  55  81 115 149 187 232 282 335
#     4   9  19  35  59  85 110 145 189 232 276 329
#     4   9  19  33  53  81 110 139 178 229 276 321
#     4   9  19  35  53  73 103 144 184 224 273 330
#     4  10  20  36  56  83 114 147 186 233 281 333
#
# _framework density 19.137153000000001
#
# number of rings (size 3 to 8) (size 9 to 14) (size 15 to 20)
#    0.000    2.250    1.250    1.125    1.750    2.750 
#    0.000    5.625    0.000    3.000    0.000    0.000 
#    0.000    0.000    0.000    0.000    0.000    0.000 
#
# Total GULP energy -357258.275977 kJ/mol
# GULP energy per Si atom -5582.160562 kJ/mol
# Density = 1.909360 g / cm^3
# Si number density = 19.137153 Si / 1000 Ang^3
#
#
#
# Elastic Constant Matrix: (Units=GPa)
#
#
# Indices 1 2 3 4 5 6 
#
# 1 150.3548 67.0945 -1.5055 0.0000 0.0000 0.0000
# 2 67.0945 165.7721 4.2851 0.0000 0.0000 0.0000
# 3 -1.5055 4.2851 6.1122 0.0000 0.0000 0.0000
# 4 0.0000 0.0000 0.0000 12.0847 0.0000 0.0000
# 5 0.0000 0.0000 0.0000 0.0000 -58.2889 0.0000
# 6 0.0000 0.0000 0.0000 0.0000 0.0000 3.2753
#
#
#
# Elastic Compliance Matrix: (Units=1/GPa)
#
#
# Indices 1 2 3 4 5 6 
#
# 1 0.008234 -0.003447 0.004445 0.000000 0.000000 0.000000
# 2 -0.003447 0.007587 -0.006168 0.000000 0.000000 0.000000
# 3 0.004445 -0.006168 0.169025 0.000000 0.000000 0.000000
# 4 0.000000 0.000000 0.000000 0.082749 0.000000 0.000000
# 5 0.000000 0.000000 0.000000 0.000000 -0.017156 0.000000
# 6 0.000000 0.000000 0.000000 0.000000 0.000000 0.305315
#
#
# Mechanical properties :
#
#
# Convention : Reuss Voigt Hill
#
# Bulk Modulus (GPa) = 5.73050 51.33192 28.53121
# Shear Modulus (GPa) = 8.00942 8.23855 8.12398
#
# Velocity S-wave (km/s) = 2.04801 2.07710 2.06261
# Velocity P-wave (km/s) = 2.93145 5.71261 4.54023
#
# Compressibility (1/GPa) = 0.17450482
#
# Stress axis : x y z
#
# Youngs Moduli (GPa) = 121.44998 131.80182 5.91627
#
# Poissons Ratio (x) = 0.45438 -0.02630
# Poissons Ratio (y) = 0.41869 0.03649
# Poissons Ratio (z) = -0.53984 0.81299
#
# Static dielectric constant tensor:
#      x y z
#    x 1.639030 0.000000 0.000000 
#    y 0.000000 1.662520 0.000000 
#    z 0.000000 0.000000 1.666480 
# 
# From -- ./inp_files/9831.got.cif
#   From: 2010.05.17/outbox.cif.g08.bks.cpg/sg55_5_cif.got.tgz:9831.got - 2010.06.03 13:27:54.
