data_PCOD9427936
_publ_section_title
;
Structure prediction by ZEFSAII (Michael W. Deem and Ramdas Pophale) SiO2 
 PCOD9427936
Probable space group: P B A M
;
_chemical_formula_sum "Si O2"
_cell_formula_units_Z 32
_cell_length_a 14.558374
_cell_length_b 7.230643
_cell_length_c 11.930003
_cell_angle_alpha 90.000000
_cell_angle_beta 90.000000
_cell_angle_gamma 90.000000
_cell_volume 1255.828528
_symmetry_space_group_name_H-M "P B A M"
_symmetry_group_IT_number 55
_symmetry_cell_setting 'orthorhombic'
loop_
_space_group_symop_operation_xyz
x,y,z
-x,-y,z
1/2+x,1/2-y,-z
1/2-x,1/2+y,-z
-x,-y,-z
x,y,-z
1/2-x,1/2+y,z
1/2+x,1/2-y,z
loop_
_atom_site_type_symbol
_atom_site_label
_atom_site_fract_x
_atom_site_fract_y
_atom_site_fract_z
Si Si1 0.407043 0.845068 0.620694
Si Si2 0.842186 0.021808 0.121426
Si Si3 0.012112 0.289648 0.151972
Si Si4 0.768229 0.996083 0.369893
O O1 0.450342 0.832426 0.500000
O O2 0.479318 0.802790 0.714364
O O3 0.326693 0.691739 0.627874
O O4 0.342253 0.023945 0.633256
O O5 0.792355 0.059687 0.240721
O O6 0.925380 0.168419 0.119597
O O7 0.894931 0.822741 0.122402
O O8 0.791950 0.035666 0.000000
O O9 0.000000 0.500000 0.114340
O O10 0.787358 0.070557 0.500000
#
# Coordination Sequence:
#
# PCOD9427936 Si02
#       4
#     8   8   8   8
#     4   9  19  35  57  87 118 150 193 240 289 346
#     4  10  22  40  59  84 119 154 194 241 289 342
#     4  10  21  36  60  85 116 151 194 237 290 340
#     4   9  19  37  60  83 116 154 191 239 292 341
#
# _framework density 25.481186000000001
#
# number of rings (size 3 to 8) (size 9 to 14) (size 15 to 20)
#    0.000    2.500    0.000    1.500    3.500    3.500 
#    0.000   11.250    0.000    0.000    0.000    0.000 
#    0.000    0.000    0.000    0.000    0.000    0.000 
#
# Total GULP energy -178193.224815 kJ/mol
# GULP energy per Si atom -5568.538275 kJ/mol
# Density = 2.542319 g / cm^3
# Si number density = 25.481186 Si / 1000 Ang^3
#
#
#
# Elastic Constant Matrix: (Units=GPa)
#
#
# Indices 1 2 3 4 5 6 
#
# 1 35.0101 4.3685 67.3551 0.0000 0.0000 0.0000
# 2 4.3685 83.1803 31.3578 0.0000 0.0000 0.0000
# 3 67.3551 31.3578 333.1452 0.0000 0.0000 0.0000
# 4 0.0000 0.0000 0.0000 -44.9651 0.0000 0.0000
# 5 0.0000 0.0000 0.0000 0.0000-5642.5837 0.0000
# 6 0.0000 0.0000 0.0000 0.0000 0.0000 21.5677
#
#
#
# Elastic Compliance Matrix: (Units=1/GPa)
#
#
# Indices 1 2 3 4 5 6 
#
# 1 0.046852 0.001151 -0.009581 0.000000 0.000000 0.000000
# 2 0.001151 0.012493 -0.001409 0.000000 0.000000 0.000000
# 3 -0.009581 -0.001409 0.005071 0.000000 0.000000 0.000000
# 4 0.000000 0.000000 0.000000 -0.022239 0.000000 0.000000
# 5 0.000000 0.000000 0.000000 0.000000 -0.000177 0.000000
# 6 0.000000 0.000000 0.000000 0.000000 0.000000 0.046366
#
#
# Mechanical properties :
#
#
# Convention : Reuss Voigt Hill
#
# Bulk Modulus (GPa) = 22.35160 73.05538 47.70349
# Shear Modulus (GPa) = 40.66539 -1109.97927 -534.65694
#
# Velocity S-wave (km/s) = 3.99920 -20.89385 -14.50102
# Velocity P-wave (km/s) = 5.48778 23.52314 16.17440
#
# Compressibility (1/GPa) = 0.04473953
#
# Stress axis : x y z
#
# Youngs Moduli (GPa) = 21.34378 80.04701 197.18627
#
# Poissons Ratio (x) = -0.09216 1.88922
# Poissons Ratio (y) = -0.02457 0.27777
# Poissons Ratio (z) = 0.20449 0.11276
#
# Static dielectric constant tensor:
#      x y z
#    x 2.061070 0.000000 0.000000 
#    y 0.000000 2.182050 0.000000 
#    z 0.000000 0.000000 2.059360 
# 
# From -- ./inp_files/8307.got.cif
#   From: 2010.05.17/outbox.cif.g08.bks.cpg/sg55_5_cif.got.tgz:8307.got - 2010.06.03 13:27:54.
