data_PCOD9427968
_publ_section_title
;
Structure prediction by ZEFSAII (Michael W. Deem and Ramdas Pophale) SiO2 
 PCOD9427968
Probable space group: P B A M
;
_chemical_formula_sum "Si O2"
_cell_formula_units_Z 64
_cell_length_a 29.064616
_cell_length_b 12.787539
_cell_length_c 8.794253
_cell_angle_alpha 90.000000
_cell_angle_beta 90.000000
_cell_angle_gamma 90.000000
_cell_volume 3268.515255
_symmetry_space_group_name_H-M "P B A M"
_symmetry_group_IT_number 55
_symmetry_cell_setting 'orthorhombic'
loop_
_space_group_symop_operation_xyz
x,y,z
-x,-y,z
1/2+x,1/2-y,-z
1/2-x,1/2+y,-z
-x,-y,-z
x,y,-z
1/2-x,1/2+y,z
1/2+x,1/2-y,z
loop_
_atom_site_type_symbol
_atom_site_label
_atom_site_fract_x
_atom_site_fract_y
_atom_site_fract_z
Si Si1 0.982356 0.885760 0.185134
Si Si2 0.878037 0.841543 0.183913
Si Si3 0.299982 0.064061 0.818774
Si Si4 0.068497 0.748153 0.181248
Si Si5 0.637248 0.117781 0.681208
Si Si6 0.802190 0.010633 0.818183
Si Si7 0.447427 0.025427 0.318985
Si Si8 0.164456 0.781449 0.319651
O O1 0.930575 0.861041 0.236023
O O2 0.020670 0.801266 0.231379
O O3 0.981196 0.885910 0.000000
O O4 0.000000 0.000000 0.233138
O O5 0.859663 0.732208 0.247812
O O6 0.844456 0.936213 0.228192
O O7 0.877973 0.836331 0.000000
O O8 0.317723 0.172125 0.748254
O O9 0.327545 0.965953 0.750458
O O10 0.246016 0.046525 0.788444
O O11 0.307192 0.067264 0.000000
O O12 0.068218 0.627282 0.228453
O O13 0.112867 0.799709 0.257525
O O14 0.072433 0.759241 0.000000
O O15 0.643338 0.122631 0.500000
O O16 0.586478 0.070507 0.713485
O O17 0.805175 0.121490 0.735708
O O18 0.805494 0.028657 0.000000
O O19 0.444242 0.047837 0.500000
O O20 0.500000 0.000000 0.281680
O O21 0.163803 0.773987 0.500000
#
# Coordination Sequence:
#
# PCOD9427968 Si02
#       8
#     8   8   8   8   8   8   8   8
#     4   9  18  34  59  90 124 161 208 261 313 365
#     4  10  21  40  65  94 128 167 210 262 316 373
#     4  11  24  43  67  93 122 162 211 263 316 376
#     4  11  21  35  60  90 120 162 211 260 308 371
#     4  11  23  39  60  89 127 167 206 255 317 380
#     4  10  24  44  68  94 122 162 211 260 314 375
#     4  10  21  37  56  82 121 166 207 256 317 375
#     4  12  25  42  65  94 129 165 205 259 320 379
#
# _framework density 19.580756999999998
#
# number of rings (size 3 to 8) (size 9 to 14) (size 15 to 20)
#    0.000    1.500    1.250    3.750    1.750    4.250 
#    0.000    0.625    0.000    2.625    0.000    0.000 
#    0.000    0.000    0.000    0.000    0.000    0.000 
#
# Total GULP energy -357821.099790 kJ/mol
# GULP energy per Si atom -5590.954684 kJ/mol
# Density = 1.953619 g / cm^3
# Si number density = 19.580757 Si / 1000 Ang^3
#
#
#
# Elastic Constant Matrix: (Units=GPa)
#
#
# Indices 1 2 3 4 5 6 
#
# 1 100.9663 36.1168 38.8833 0.0000 0.0000 0.0000
# 2 36.1168 120.5826 32.6974 0.0000 0.0000 0.0000
# 3 38.8833 32.6974 37.8771 0.0000 0.0000 0.0000
# 4 0.0000 0.0000 0.0000 37.1701 0.0000 0.0000
# 5 0.0000 0.0000 0.0000 0.0000 4.3036 0.0000
# 6 0.0000 0.0000 0.0000 0.0000 0.0000 29.0998
#
#
#
# Elastic Compliance Matrix: (Units=1/GPa)
#
#
# Indices 1 2 3 4 5 6 
#
# 1 0.016399 -0.000453 -0.016444 0.000000 0.000000 0.000000
# 2 -0.000453 0.010840 -0.008893 0.000000 0.000000 0.000000
# 3 -0.016444 -0.008893 0.050958 0.000000 0.000000 0.000000
# 4 0.000000 0.000000 0.000000 0.026903 0.000000 0.000000
# 5 0.000000 0.000000 0.000000 0.000000 0.232361 0.000000
# 6 0.000000 0.000000 0.000000 0.000000 0.000000 0.034364
#
#
# Mechanical properties :
#
#
# Convention : Reuss Voigt Hill
#
# Bulk Modulus (GPa) = 37.56751 52.75790 45.16271
# Shear Modulus (GPa) = 11.56664 24.22996 17.89830
#
# Velocity S-wave (km/s) = 2.43310 3.52154 3.02665
# Velocity P-wave (km/s) = 5.20777 6.59827 5.94382
#
# Compressibility (1/GPa) = 0.02661874
#
# Stress axis : x y z
#
# Youngs Moduli (GPa) = 60.97952 92.25011 19.62391
#
# Poissons Ratio (x) = 0.04178 0.32269
# Poissons Ratio (y) = 0.02762 0.17451
# Poissons Ratio (z) = 1.00272 0.82036
#
# Static dielectric constant tensor:
#      x y z
#    x 1.693000 0.000000 0.000000 
#    y 0.000000 1.654380 0.000000 
#    z 0.000000 0.000000 1.655570 
# 
# From -- ./inp_files/10750.got.cif
#   From: 2010.05.17/outbox.cif.g08.bks.cpg/sg55_6_cif.got.tgz:10750.got - 2010.06.03 13:27:54.
