data_PCOD9427464
_publ_section_title
;
Structure prediction by ZEFSAII (Michael W. Deem and Ramdas Pophale) SiO2 
 PCOD9427464
Probable space group: P B A M
;
_chemical_formula_sum "Si O2"
_cell_formula_units_Z 64
_cell_length_a 25.345509
_cell_length_b 14.406034
_cell_length_c 8.924075
_cell_angle_alpha 90.000000
_cell_angle_beta 90.000000
_cell_angle_gamma 90.000000
_cell_volume 3258.432016
_symmetry_space_group_name_H-M "P B A M"
_symmetry_group_IT_number 55
_symmetry_cell_setting 'orthorhombic'
loop_
_space_group_symop_operation_xyz
x,y,z
-x,-y,z
1/2+x,1/2-y,-z
1/2-x,1/2+y,-z
-x,-y,-z
x,y,-z
1/2-x,1/2+y,z
1/2+x,1/2-y,z
loop_
_atom_site_type_symbol
_atom_site_label
_atom_site_fract_x
_atom_site_fract_y
_atom_site_fract_z
Si Si1 0.597307 0.530437 0.819390
Si Si2 0.455883 0.272502 0.821144
Si Si3 0.218795 0.725603 0.175654
Si Si4 0.120334 0.626493 0.322961
Si Si5 0.161331 0.237161 0.822559
Si Si6 0.940374 0.850469 0.322684
Si Si7 0.213994 0.949299 0.176991
Si Si8 0.830661 0.541690 0.821220
O O1 0.578683 0.634994 0.787762
O O2 0.560509 0.454312 0.743946
O O3 0.657717 0.516738 0.764473
O O4 0.595924 0.518623 0.000000
O O5 0.426587 0.184003 0.753142
O O6 0.512925 0.291746 0.751968
O O7 0.459309 0.263792 0.000000
O O8 0.174456 0.677731 0.273714
O O9 0.279470 0.702514 0.212998
O O10 0.213641 0.837154 0.187619
O O11 0.209898 0.702043 0.000000
O O12 0.114272 0.627217 0.500000
O O13 0.127524 0.522693 0.260710
O O14 0.115508 0.192446 0.726483
O O15 0.161115 0.348518 0.801620
O O16 0.152437 0.218404 0.000000
O O17 0.946504 0.852136 0.500000
O O18 0.270971 0.980842 0.235436
O O19 0.214343 0.972040 0.000000
O O20 0.832393 0.523965 0.000000
#
# Coordination Sequence:
#
# PCOD9427464 Si02
#       8
#     8   8   8   8   8   8   8   8
#     4  10  20  37  62  89 116 155 204 248 288 344
#     4  11  23  43  67  86 112 155 211 256 290 343
#     4   9  17  35  60  85 114 154 201 246 288 339
#     4  12  24  36  56  90 128 159 191 239 306 367
#     4   9  20  40  65  88 114 155 210 256 290 340
#     4  12  26  40  58  87 126 160 192 243 310 367
#     4   8  15  32  58  87 114 147 196 245 285 329
#     4   9  19  37  62  88 117 156 202 250 291 343
#
# _framework density 19.641349000000002
#
# number of rings (size 3 to 8) (size 9 to 14) (size 15 to 20)
#    0.000    2.000    1.250    4.500    1.750    3.500 
#    0.000    2.500    0.000    3.750    0.000    0.000 
#    0.000    0.000    0.000    0.000    0.000    0.000 
#
# Total GULP energy -357597.654554 kJ/mol
# GULP energy per Si atom -5587.463352 kJ/mol
# Density = 1.959664 g / cm^3
# Si number density = 19.641349 Si / 1000 Ang^3
#
#
#
# Elastic Constant Matrix: (Units=GPa)
#
#
# Indices 1 2 3 4 5 6 
#
# 1 65.3954 0.1549 22.1090 0.0000 0.0000 0.0000
# 2 0.1549 35.4225 11.7874 0.0000 0.0000 0.0000
# 3 22.1090 11.7874 51.7437 0.0000 0.0000 0.0000
# 4 0.0000 0.0000 0.0000 88.4386 0.0000 0.0000
# 5 0.0000 0.0000 0.0000 0.0000 11.5546 0.0000
# 6 0.0000 0.0000 0.0000 0.0000 0.0000 32.8728
#
#
#
# Elastic Compliance Matrix: (Units=1/GPa)
#
#
# Indices 1 2 3 4 5 6 
#
# 1 0.018109 0.002700 -0.008353 0.000000 0.000000 0.000000
# 2 0.002700 0.030949 -0.008204 0.000000 0.000000 0.000000
# 3 -0.008353 -0.008204 0.024764 0.000000 0.000000 0.000000
# 4 0.000000 0.000000 0.000000 0.011307 0.000000 0.000000
# 5 0.000000 0.000000 0.000000 0.000000 0.086545 0.000000
# 6 0.000000 0.000000 0.000000 0.000000 0.000000 0.030420
#
#
# Mechanical properties :
#
#
# Convention : Reuss Voigt Hill
#
# Bulk Modulus (GPa) = 21.68783 24.51827 23.10305
# Shear Modulus (GPa) = 20.39340 34.47391 27.43366
#
# Velocity S-wave (km/s) = 3.22575 4.19402 3.74134
# Velocity P-wave (km/s) = 4.99398 5.99693 5.51829
#
# Compressibility (1/GPa) = 0.04610881
#
# Stress axis : x y z
#
# Youngs Moduli (GPa) = 55.22081 32.31137 40.38138
#
# Poissons Ratio (x) = -0.08725 0.33730
# Poissons Ratio (y) = -0.14911 0.33129
# Poissons Ratio (z) = 0.46125 0.26508
#
# Static dielectric constant tensor:
#      x y z
#    x 1.700240 0.000000 0.000000 
#    y 0.000000 1.714270 0.000000 
#    z 0.000000 0.000000 1.649610 
# 
# From -- ./inp_files/6625.got.cif
#   From: 2010.05.17/outbox.cif.g08.bks.cpg/sg55_4_cif.got.tgz:6625.got - 2010.06.03 13:27:54.
