data_PCOD9427951
_publ_section_title
;
Structure prediction by ZEFSAII (Michael W. Deem and Ramdas Pophale) SiO2 
 PCOD9427951
Probable space group: P B A M
;
_chemical_formula_sum "Si O2"
_cell_formula_units_Z 64
_cell_length_a 24.388645
_cell_length_b 14.731043
_cell_length_c 7.690253
_cell_angle_alpha 90.000000
_cell_angle_beta 90.000000
_cell_angle_gamma 90.000000
_cell_volume 2762.878566
_symmetry_space_group_name_H-M "P B A M"
_symmetry_group_IT_number 55
_symmetry_cell_setting 'orthorhombic'
loop_
_space_group_symop_operation_xyz
x,y,z
-x,-y,z
1/2+x,1/2-y,-z
1/2-x,1/2+y,-z
-x,-y,-z
x,y,-z
1/2-x,1/2+y,z
1/2+x,1/2-y,z
loop_
_atom_site_type_symbol
_atom_site_label
_atom_site_fract_x
_atom_site_fract_y
_atom_site_fract_z
Si Si1 0.398071 0.778239 0.292039
Si Si2 0.106524 0.675557 0.286263
Si Si3 0.991083 0.189610 0.709438
Si Si4 0.909038 0.049909 0.794024
Si Si5 0.617930 0.022580 0.301909
Si Si6 0.187790 0.818361 0.302199
Si Si7 0.239869 0.480859 0.201269
Si Si8 0.337289 0.610751 0.208483
O O1 0.403498 0.786357 0.500000
O O2 0.450834 0.724169 0.223097
O O3 0.395770 0.880125 0.220387
O O4 0.345749 0.714022 0.262451
O O5 0.108672 0.675110 0.500000
O O6 0.055188 0.737590 0.235061
O O7 0.099640 0.573023 0.223176
O O8 0.163379 0.724233 0.229252
O O9 0.992784 0.189140 0.500000
O O10 0.968776 0.091415 0.764977
O O11 0.866696 0.118064 0.700381
O O12 0.890086 0.950225 0.735373
O O13 0.897517 0.055682 0.000000
O O14 0.596430 0.023094 0.500000
O O15 0.683740 0.017799 0.303808
O O16 0.206142 0.804235 0.500000
O O17 0.232316 0.881224 0.210340
O O18 0.284123 0.554528 0.268241
O O19 0.227903 0.500969 0.000000
O O20 0.335373 0.609894 0.000000
#
# Coordination Sequence:
#
# PCOD9427951 Si02
#       8
#     8   8   8   8   8   8   8   8
#     4  10  22  36  53  79 109 139 178 221 264 313
#     4   8  16  32  55  78 102 133 173 216 261 309
#     4   9  18  34  54  79 108 140 176 219 267 314
#     4   9  17  31  52  80 108 138 175 213 254 309
#     4  10  21  37  54  76 104 138 179 222 263 311
#     4   9  16  30  54  82 106 131 165 212 263 311
#     4  10  21  37  55  78 106 139 174 213 262 318
#     4   9  20  37  55  76 107 142 176 213 264 322
#
# _framework density 23.164247
#
# number of rings (size 3 to 8) (size 9 to 14) (size 15 to 20)
#    0.000    2.750    0.000    2.625    0.000    6.000 
#    0.000   11.875    0.000    0.000    0.000    5.250 
#    0.000    0.000    0.000    0.000    0.000    0.000 
#
# Total GULP energy -357155.046767 kJ/mol
# GULP energy per Si atom -5580.547606 kJ/mol
# Density = 2.311152 g / cm^3
# Si number density = 23.164247 Si / 1000 Ang^3
#
#
#
# Elastic Constant Matrix: (Units=GPa)
#
#
# Indices 1 2 3 4 5 6 
#
# 1 39.4034 8.0418 -6.3897 0.0000 0.0000 0.0000
# 2 8.0418 116.3175 -5.1071 0.0000 0.0000 0.0000
# 3 -6.3897 -5.1071 49.2688 0.0000 0.0000 0.0000
# 4 0.0000 0.0000 0.0000 17.9503 0.0000 0.0000
# 5 0.0000 0.0000 0.0000 0.0000 -2.8029 0.0000
# 6 0.0000 0.0000 0.0000 0.0000 0.0000 26.2169
#
#
#
# Elastic Compliance Matrix: (Units=1/GPa)
#
#
# Indices 1 2 3 4 5 6 
#
# 1 0.026244 -0.001673 0.003230 0.000000 0.000000 0.000000
# 2 -0.001673 0.008743 0.000689 0.000000 0.000000 0.000000
# 3 0.003230 0.000689 0.020787 0.000000 0.000000 0.000000
# 4 0.000000 0.000000 0.000000 0.055709 0.000000 0.000000
# 5 0.000000 0.000000 0.000000 0.000000 -0.356770 0.000000
# 6 0.000000 0.000000 0.000000 0.000000 0.000000 0.038143
#
#
# Mechanical properties :
#
#
# Convention : Reuss Voigt Hill
#
# Bulk Modulus (GPa) = 16.59257 22.00886 19.30071
# Shear Modulus (GPa) = -26.10306 22.16918 -1.96694
#
# Velocity S-wave (km/s) = -3.36053 3.09697 -0.92248
# Velocity P-wave (km/s) = 2.80695 4.72336 2.68618
#
# Compressibility (1/GPa) = 0.06026793
#
# Stress axis : x y z
#
# Youngs Moduli (GPa) = 38.10441 114.37641 48.10653
#
# Poissons Ratio (x) = 0.19130 -0.15539
# Poissons Ratio (y) = 0.06373 -0.03316
# Poissons Ratio (z) = -0.12309 -0.07885
#
# Static dielectric constant tensor:
#      x y z
#    x 1.877730 0.000000 0.000000 
#    y 0.000000 1.908890 0.000000 
#    z 0.000000 0.000000 1.873040 
# 
# From -- ./inp_files/9715.got.cif
#   From: 2010.05.17/outbox.cif.g08.bks.cpg/sg55_5_cif.got.tgz:9715.got - 2010.06.03 13:27:54.
