data_PCOD9427606
_publ_section_title
;
Structure prediction by ZEFSAII (Michael W. Deem and Ramdas Pophale) SiO2 
 PCOD9427606
Probable space group: P B A M
;
_chemical_formula_sum "Si O2"
_cell_formula_units_Z 40
_cell_length_a 23.417748
_cell_length_b 10.432037
_cell_length_c 8.928057
_cell_angle_alpha 90.000000
_cell_angle_beta 90.000000
_cell_angle_gamma 90.000000
_cell_volume 2181.078021
_symmetry_space_group_name_H-M "P B A M"
_symmetry_group_IT_number 55
_symmetry_cell_setting 'orthorhombic'
loop_
_space_group_symop_operation_xyz
x,y,z
-x,-y,z
1/2+x,1/2-y,-z
1/2-x,1/2+y,-z
-x,-y,-z
x,y,-z
1/2-x,1/2+y,z
1/2+x,1/2-y,z
loop_
_atom_site_type_symbol
_atom_site_label
_atom_site_fract_x
_atom_site_fract_y
_atom_site_fract_z
Si Si1 0.004083 0.151244 0.320569
Si Si2 0.620347 0.252909 0.178966
Si Si3 0.821229 0.505369 0.320677
Si Si4 0.804237 0.002998 0.820838
Si Si5 0.876883 0.231969 0.679683
O O1 0.012751 0.161996 0.500000
O O2 0.057414 0.213793 0.237869
O O3 0.943506 0.215074 0.282088
O O4 0.000000 0.000000 0.284324
O O5 0.644951 0.125568 0.254007
O O6 0.661301 0.373319 0.216921
O O7 0.620006 0.238803 0.000000
O O8 0.818134 0.516973 0.500000
O O9 0.757797 0.502217 0.253491
O O10 0.853073 0.372295 0.284196
O O11 0.840197 0.123425 0.761289
O O12 0.798498 0.010626 0.000000
O O13 0.871668 0.212442 0.500000
#
# Coordination Sequence:
#
# PCOD9427606 Si02
#       5
#     8   8   8   8   8
#     4  10  20  38  65  90 117 154 202 252 296 350
#     4  11  24  40  61  90 124 160 198 242 299 359
#     4  11  24  40  60  87 121 157 198 246 296 353
#     4  11  23  39  61  88 120 157 198 244 294 355
#     4  10  22  40  63  91 118 155 202 248 298 350
#
# _framework density 18.339555000000001
#
# number of rings (size 3 to 8) (size 9 to 14) (size 15 to 20)
#    0.000    1.400    2.000    3.000    0.000    9.200 
#    0.000    4.000    0.000    0.000    0.000    0.000 
#    0.000    0.000    0.000    0.000    0.000    0.000 
#
# Total GULP energy -223678.116531 kJ/mol
# GULP energy per Si atom -5591.952913 kJ/mol
# Density = 1.829781 g / cm^3
# Si number density = 18.339555 Si / 1000 Ang^3
#
#
#
# Elastic Constant Matrix: (Units=GPa)
#
#
# Indices 1 2 3 4 5 6 
#
# 1 192.7345 113.5754 74.7202 0.0000 0.0000 0.0000
# 2 113.5754 183.4309 84.7030 0.0000 0.0000 0.0000
# 3 74.7202 84.7030 56.9925 0.0000 0.0000 0.0000
# 4 0.0000 0.0000 0.0000 22.9184 0.0000 0.0000
# 5 0.0000 0.0000 0.0000 0.0000 118.1440 0.0000
# 6 0.0000 0.0000 0.0000 0.0000 0.0000 12.4773
#
#
#
# Elastic Compliance Matrix: (Units=1/GPa)
#
#
# Indices 1 2 3 4 5 6 
#
# 1 0.010564 -0.000464 -0.013161 0.000000 0.000000 0.000000
# 2 -0.000464 0.017398 -0.025250 0.000000 0.000000 0.000000
# 3 -0.013161 -0.025250 0.072327 0.000000 0.000000 0.000000
# 4 0.000000 0.000000 0.000000 0.043633 0.000000 0.000000
# 5 0.000000 0.000000 0.000000 0.000000 0.008464 0.000000
# 6 0.000000 0.000000 0.000000 0.000000 0.000000 0.080145
#
#
# Mechanical properties :
#
#
# Convention : Reuss Voigt Hill
#
# Bulk Modulus (GPa) = 44.36354 108.79502 76.57928
# Shear Modulus (GPa) = 15.73344 41.38523 28.55934
#
# Velocity S-wave (km/s) = 2.93216 4.75553 3.95049
# Velocity P-wave (km/s) = 5.97545 9.46598 7.91552
#
# Compressibility (1/GPa) = 0.02254103
#
# Stress axis : x y z
#
# Youngs Moduli (GPa) = 94.66160 57.47696 13.82604
#
# Poissons Ratio (x) = 0.02665 0.18196
# Poissons Ratio (y) = 0.04388 0.34910
# Poissons Ratio (z) = 1.24583 1.45128
#
# Static dielectric constant tensor:
#      x y z
#    x 1.610410 0.000000 0.000000 
#    y 0.000000 1.600070 0.000000 
#    z 0.000000 0.000000 1.613660 
# 
# From -- ./inp_files/2303.got.cif
#   From: 2010.05.17/outbox.cif.g08.bks.cpg/sg55_2_cif.got.tgz:2303.got - 2010.06.03 13:27:54.
