data_PCOD9427370
_publ_section_title
;
Structure prediction by ZEFSAII (Michael W. Deem and Ramdas Pophale) SiO2 
 PCOD9427370
Probable space group: P B A M
;
_chemical_formula_sum "Si O2"
_cell_formula_units_Z 58
_cell_length_a 14.453718
_cell_length_b 23.941944
_cell_length_c 7.660797
_cell_angle_alpha 90.000000
_cell_angle_beta 90.000000
_cell_angle_gamma 90.000000
_cell_volume 2651.019621
_symmetry_space_group_name_H-M "P B A M"
_symmetry_group_IT_number 55
_symmetry_cell_setting 'orthorhombic'
loop_
_space_group_symop_operation_xyz
x,y,z
-x,-y,z
1/2+x,1/2-y,-z
1/2-x,1/2+y,-z
-x,-y,-z
x,y,-z
1/2-x,1/2+y,z
1/2+x,1/2-y,z
loop_
_atom_site_type_symbol
_atom_site_label
_atom_site_fract_x
_atom_site_fract_y
_atom_site_fract_z
Si Si1 0.938007 0.096816 0.207808
Si Si2 0.500000 0.000000 0.000000
Si Si3 0.283199 0.484575 0.702117
Si Si4 0.546370 0.918020 0.701134
Si Si5 0.846659 0.898325 0.290606
Si Si6 0.340690 0.883765 0.290541
Si Si7 0.687767 0.823762 0.795899
Si Si8 0.314591 0.301118 0.793494
O O1 0.883786 0.044810 0.290378
O O2 0.887183 0.152984 0.275060
O O3 0.046252 0.098687 0.241995
O O4 0.922650 0.092624 0.000000
O O5 0.442506 0.033852 0.156095
O O6 0.255032 0.491692 0.500000
O O7 0.294830 0.545993 0.778305
O O8 0.214040 0.438345 0.779894
O O9 0.540616 0.938132 0.500000
O O10 0.447815 0.889874 0.753034
O O11 0.624011 0.870533 0.708850
O O12 0.840679 0.898623 0.500000
O O13 0.793038 0.844476 0.222634
O O14 0.332913 0.884071 0.500000
O O15 0.286089 0.829125 0.229804
O O16 0.677302 0.761299 0.722308
O O17 0.663000 0.823399 0.000000
O O18 0.331305 0.296849 0.000000
#
# Coordination Sequence:
#
# PCOD9427370 Si02
#       8
#     8   2   8   8   8   8   8   8
#     4  10  20  37  58  88 117 155 200 246 298 362
#     4  12  26  44  68  94 128 178 218 260 334 386
#     4   9  19  36  57  83 120 156 192 240 299 362
#     4  11  25  44  66  97 132 168 220 270 320 390
#     4  11  23  37  57  85 120 158 196 247 309 366
#     4   9  20  38  63  93 120 159 209 259 313 372
#     4  11  24  43  61  89 122 165 211 261 323 379
#     4   9  21  40  64  86 121 161 207 260 315 380
#
# _framework density 21.878374000000001
#
# number of rings (size 3 to 8) (size 9 to 14) (size 15 to 20)
#    0.000    1.931    0.690    1.862    2.897    5.517 
#    0.000    4.138    0.000    0.000    0.000    0.000 
#    0.000    0.000    0.000    0.000    0.000    0.000 
#
# Total GULP energy -323622.541805 kJ/mol
# GULP energy per Si atom -5579.698997 kJ/mol
# Density = 2.182858 g / cm^3
# Si number density = 21.878374 Si / 1000 Ang^3
#
#
#
# Elastic Constant Matrix: (Units=GPa)
#
#
# Indices 1 2 3 4 5 6 
#
# 1 86.4030 18.9016 -10.1789 0.0000 0.0000 0.0000
# 2 18.9016 114.7480 7.9667 0.0000 0.0000 0.0000
# 3 -10.1789 7.9667 77.6534 0.0000 0.0000 0.0000
# 4 0.0000 0.0000 0.0000 24.9578 0.0000 0.0000
# 5 0.0000 0.0000 0.0000 0.0000 9.8223 0.0000
# 6 0.0000 0.0000 0.0000 0.0000 0.0000 23.4575
#
#
#
# Elastic Compliance Matrix: (Units=1/GPa)
#
#
# Indices 1 2 3 4 5 6 
#
# 1 0.012258 -0.002146 0.001827 0.000000 0.000000 0.000000
# 2 -0.002146 0.009153 -0.001220 0.000000 0.000000 0.000000
# 3 0.001827 -0.001220 0.013242 0.000000 0.000000 0.000000
# 4 0.000000 0.000000 0.000000 0.040068 0.000000 0.000000
# 5 0.000000 0.000000 0.000000 0.000000 0.101809 0.000000
# 6 0.000000 0.000000 0.000000 0.000000 0.000000 0.042630
#
#
# Mechanical properties :
#
#
# Convention : Reuss Voigt Hill
#
# Bulk Modulus (GPa) = 31.67063 34.68701 33.17882
# Shear Modulus (GPa) = 21.48095 29.12187 25.30141
#
# Velocity S-wave (km/s) = 3.13682 3.65235 3.40436
# Velocity P-wave (km/s) = 5.25612 5.80303 5.53633
#
# Compressibility (1/GPa) = 0.03157500
#
# Stress axis : x y z
#
# Youngs Moduli (GPa) = 81.57680 109.25401 75.51487
#
# Poissons Ratio (x) = 0.23447 -0.13797
# Poissons Ratio (y) = 0.17507 0.09215
# Poissons Ratio (z) = -0.14904 0.13333
#
# Static dielectric constant tensor:
#      x y z
#    x 1.798460 0.000000 0.000000 
#    y 0.000000 1.806710 0.000000 
#    z 0.000000 0.000000 1.816610 
# 
# From -- ./inp_files/6452.got.cif
#   From: 2010.05.17/outbox.cif.g08.bks.cpg/sg55_4_cif.got.tgz:6452.got - 2010.06.03 13:27:54.
