data_PCOD9427585
_publ_section_title
;
Structure prediction by ZEFSAII (Michael W. Deem and Ramdas Pophale) SiO2 
 PCOD9427585
Probable space group: P B A M
;
_chemical_formula_sum "Si O2"
_cell_formula_units_Z 40
_cell_length_a 23.714515
_cell_length_b 10.575551
_cell_length_c 8.120293
_cell_angle_alpha 90.000000
_cell_angle_beta 90.000000
_cell_angle_gamma 90.000000
_cell_volume 2036.521273
_symmetry_space_group_name_H-M "P B A M"
_symmetry_group_IT_number 55
_symmetry_cell_setting 'orthorhombic'
loop_
_space_group_symop_operation_xyz
x,y,z
-x,-y,z
1/2+x,1/2-y,-z
1/2-x,1/2+y,-z
-x,-y,-z
x,y,-z
1/2-x,1/2+y,z
1/2+x,1/2-y,z
loop_
_atom_site_type_symbol
_atom_site_label
_atom_site_fract_x
_atom_site_fract_y
_atom_site_fract_z
Si Si1 0.878316 0.747624 0.697043
Si Si2 0.306592 0.993848 0.801048
Si Si3 0.501564 0.145914 0.698824
Si Si4 0.120049 0.733375 0.198837
Si Si5 0.177528 0.991971 0.801509
O O1 0.879725 0.748882 0.500000
O O2 0.836510 0.636087 0.752018
O O3 0.941174 0.712656 0.757676
O O4 0.856210 0.882327 0.756520
O O5 0.242135 0.999475 0.741658
O O6 0.343474 0.113056 0.741687
O O7 0.305505 0.999508 0.000000
O O8 0.503006 0.143325 0.500000
O O9 0.444552 0.214743 0.751344
O O10 0.500000 0.000000 0.756861
O O11 0.146987 0.864603 0.258453
O O12 0.122698 0.733268 0.000000
O O13 0.179885 0.984502 0.000000
#
# Coordination Sequence:
#
# PCOD9427585 Si02
#       5
#     8   8   8   8   8
#     4  11  23  38  59  87 116 152 194 235 284 339
#     4  10  20  38  63  86 114 152 191 234 284 339
#     4  10  21  39  59  80 114 154 190 235 289 341
#     4  10  21  36  60  89 112 147 196 239 282 336
#     4  10  22  40  59  85 121 154 187 234 291 342
#
# _framework density 19.641335999999999
#
# number of rings (size 3 to 8) (size 9 to 14) (size 15 to 20)
#    0.000    1.800    2.000    1.800    0.000    7.600 
#    0.000    6.000    0.000    0.000    0.000    0.000 
#    0.000    0.000    0.000    0.000    0.000    0.000 
#
# Total GULP energy -223512.775435 kJ/mol
# GULP energy per Si atom -5587.819386 kJ/mol
# Density = 1.959663 g / cm^3
# Si number density = 19.641336 Si / 1000 Ang^3
#
#
#
# Elastic Constant Matrix: (Units=GPa)
#
#
# Indices 1 2 3 4 5 6 
#
# 1 189.2615 92.7722 7.9056 0.0000 0.0000 0.0000
# 2 92.7722 168.2459 3.1038 0.0000 0.0000 0.0000
# 3 7.9056 3.1038 5.9018 0.0000 0.0000 0.0000
# 4 0.0000 0.0000 0.0000 11.7551 0.0000 0.0000
# 5 0.0000 0.0000 0.0000 0.0000 53.5444 0.0000
# 6 0.0000 0.0000 0.0000 0.0000 0.0000 1.1442
#
#
#
# Elastic Compliance Matrix: (Units=1/GPa)
#
#
# Indices 1 2 3 4 5 6 
#
# 1 0.007602 -0.004043 -0.008057 0.000000 0.000000 0.000000
# 2 -0.004043 0.008152 0.001129 0.000000 0.000000 0.000000
# 3 -0.008057 0.001129 0.179640 0.000000 0.000000 0.000000
# 4 0.000000 0.000000 0.000000 0.085069 0.000000 0.000000
# 5 0.000000 0.000000 0.000000 0.000000 0.018676 0.000000
# 6 0.000000 0.000000 0.000000 0.000000 0.000000 0.873962
#
#
# Mechanical properties :
#
#
# Convention : Reuss Voigt Hill
#
# Bulk Modulus (GPa) = 5.76531 63.44138 34.60334
# Shear Modulus (GPa) = 3.99086 30.59726 17.29406
#
# Velocity S-wave (km/s) = 1.42698 3.95118 2.97053
# Velocity P-wave (km/s) = 2.37838 7.29286 5.42414
#
# Compressibility (1/GPa) = 0.17345129
#
# Stress axis : x y z
#
# Youngs Moduli (GPa) = 131.54148 122.66401 5.56670
#
# Poissons Ratio (x) = 0.49596 0.04485
# Poissons Ratio (y) = 0.53186 -0.00628
# Poissons Ratio (z) = 1.05982 -0.13845
#
# Static dielectric constant tensor:
#      x y z
#    x 1.671090 0.000000 0.000000 
#    y 0.000000 1.656250 0.000000 
#    z 0.000000 0.000000 1.700200 
# 
# From -- ./inp_files/2307.got.cif
#   From: 2010.05.17/outbox.cif.g08.bks.cpg/sg55_2_cif.got.tgz:2307.got - 2010.06.03 13:27:54.
