data_PCOD9427991
_publ_section_title
;
Structure prediction by ZEFSAII (Michael W. Deem and Ramdas Pophale) SiO2 
 PCOD9427991
Probable space group: P B A M
;
_chemical_formula_sum "Si O2"
_cell_formula_units_Z 56
_cell_length_a 14.018768
_cell_length_b 19.762007
_cell_length_c 9.267026
_cell_angle_alpha 90.000000
_cell_angle_beta 90.000000
_cell_angle_gamma 90.000000
_cell_volume 2567.327536
_symmetry_space_group_name_H-M "P B A M"
_symmetry_group_IT_number 55
_symmetry_cell_setting 'orthorhombic'
loop_
_space_group_symop_operation_xyz
x,y,z
-x,-y,z
1/2+x,1/2-y,-z
1/2-x,1/2+y,-z
-x,-y,-z
x,y,-z
1/2-x,1/2+y,z
1/2+x,1/2-y,z
loop_
_atom_site_type_symbol
_atom_site_label
_atom_site_fract_x
_atom_site_fract_y
_atom_site_fract_z
Si Si1 0.450175 0.786572 0.167822
Si Si2 0.065745 0.434095 0.168020
Si Si3 0.220391 0.782624 0.167372
Si Si4 0.890859 0.079251 0.827603
Si Si5 0.455276 0.651590 0.333895
Si Si6 0.766232 0.500549 0.326967
Si Si7 0.724537 0.851312 0.334034
O O1 0.483978 0.862513 0.202509
O O2 0.334665 0.790929 0.181932
O O3 0.481269 0.724900 0.267612
O O4 0.471802 0.770695 0.000000
O O5 0.154153 0.447348 0.272641
O O6 0.000000 0.500000 0.177431
O O7 0.098858 0.428105 0.000000
O O8 0.167852 0.851644 0.208239
O O9 0.191920 0.714891 0.250510
O O10 0.199856 0.771201 0.000000
O O11 0.994149 0.094502 0.761823
O O12 0.832201 0.020562 0.749292
O O13 0.893216 0.070081 0.000000
O O14 0.485942 0.645621 0.500000
O O15 0.340649 0.647796 0.329493
O O16 0.755828 0.500743 0.500000
O O17 0.800928 0.425947 0.279574
O O18 0.694388 0.845530 0.500000
#
# Coordination Sequence:
#
# PCOD9427991 Si02
#       7
#     8   8   8   8   8   8   8
#     4   9  17  35  57  80 110 144 186 234 285 338
#     4  10  21  38  60  85 117 155 193 238 293 352
#     4   9  18  34  58  81 106 144 190 239 286 337
#     4  11  22  38  59  86 117 151 196 243 291 349
#     4  10  21  37  57  84 114 151 194 238 290 342
#     4  11  23  39  59  84 117 156 194 240 295 350
#     4   9  21  39  57  82 119 154 190 238 290 347
#
# _framework density 21.812566
#
# number of rings (size 3 to 8) (size 9 to 14) (size 15 to 20)
#    0.000    2.143    1.429    1.286    0.000    5.429 
#    0.000    7.143    0.000    0.000    0.000    0.000 
#    0.000    0.000    0.000    0.000    0.000    0.000 
#
# Total GULP energy -313021.221052 kJ/mol
# GULP energy per Si atom -5589.664662 kJ/mol
# Density = 2.176292 g / cm^3
# Si number density = 21.812566 Si / 1000 Ang^3
#
#
#
# Elastic Constant Matrix: (Units=GPa)
#
#
# Indices 1 2 3 4 5 6 
#
# 1 46.2230 3.6328 13.5338 0.0000 0.0000 0.0000
# 2 3.6328 96.6279 38.8449 0.0000 0.0000 0.0000
# 3 13.5338 38.8449 52.1187 0.0000 0.0000 0.0000
# 4 0.0000 0.0000 0.0000 36.9220 0.0000 0.0000
# 5 0.0000 0.0000 0.0000 0.0000 16.4631 0.0000
# 6 0.0000 0.0000 0.0000 0.0000 0.0000 39.0906
#
#
#
# Elastic Compliance Matrix: (Units=1/GPa)
#
#
# Indices 1 2 3 4 5 6 
#
# 1 0.023757 0.002266 -0.007858 0.000000 0.000000 0.000000
# 2 0.002266 0.014992 -0.011762 0.000000 0.000000 0.000000
# 3 -0.007858 -0.011762 0.029994 0.000000 0.000000 0.000000
# 4 0.000000 0.000000 0.000000 0.027084 0.000000 0.000000
# 5 0.000000 0.000000 0.000000 0.000000 0.060742 0.000000
# 6 0.000000 0.000000 0.000000 0.000000 0.000000 0.025582
#
#
# Mechanical properties :
#
#
# Convention : Reuss Voigt Hill
#
# Bulk Modulus (GPa) = 29.38190 34.11031 31.74611
# Shear Modulus (GPa) = 21.91018 27.75901 24.83460
#
# Velocity S-wave (km/s) = 3.17278 3.57124 3.37789
# Velocity P-wave (km/s) = 5.18859 5.71637 5.45886
#
# Compressibility (1/GPa) = 0.03403455
#
# Stress axis : x y z
#
# Youngs Moduli (GPa) = 42.09317 66.70080 33.33996
#
# Poissons Ratio (x) = -0.15112 0.26197
# Poissons Ratio (y) = -0.09537 0.39216
# Poissons Ratio (z) = 0.33075 0.78456
#
# Static dielectric constant tensor:
#      x y z
#    x 1.849540 0.000000 0.000000 
#    y 0.000000 1.803420 0.000000 
#    z 0.000000 0.000000 1.737880 
# 
# From -- ./inp_files/6119.got.cif
#   From: 2010.05.17/outbox.cif.g08.bks.cpg/sg55_4_cif.got.tgz:6119.got - 2010.06.03 13:27:54.
