data_PCOD9427153
_publ_section_title
;
Structure prediction by ZEFSAII (Michael W. Deem and Ramdas Pophale) SiO2 
 PCOD9427153
Probable space group: P B A M
;
_chemical_formula_sum "Si O2"
_cell_formula_units_Z 64
_cell_length_a 14.338352
_cell_length_b 25.103431
_cell_length_c 8.363934
_cell_angle_alpha 90.000000
_cell_angle_beta 90.000000
_cell_angle_gamma 90.000000
_cell_volume 3010.529711
_symmetry_space_group_name_H-M "P B A M"
_symmetry_group_IT_number 55
_symmetry_cell_setting 'orthorhombic'
loop_
_space_group_symop_operation_xyz
x,y,z
-x,-y,z
1/2+x,1/2-y,-z
1/2-x,1/2+y,-z
-x,-y,-z
x,y,-z
1/2-x,1/2+y,z
1/2+x,1/2-y,z
loop_
_atom_site_type_symbol
_atom_site_label
_atom_site_fract_x
_atom_site_fract_y
_atom_site_fract_z
Si Si1 0.228606 0.663580 0.687246
Si Si2 0.935091 0.834841 0.814265
Si Si3 0.730475 0.049012 0.811211
Si Si4 0.053580 0.277581 0.686873
Si Si5 0.050073 0.395046 0.689032
Si Si6 0.381725 0.375807 0.311728
Si Si7 0.632009 0.941506 0.189047
Si Si8 0.738382 0.722521 0.188825
O O1 0.205275 0.661501 0.500000
O O2 0.340427 0.661092 0.713315
O O3 0.185496 0.613087 0.775124
O O4 0.197592 0.720375 0.758906
O O5 0.014792 0.875247 0.759936
O O6 0.973464 0.774811 0.784328
O O7 0.912019 0.841231 0.000000
O O8 0.643643 0.088564 0.779645
O O9 0.820763 0.072044 0.724060
O O10 0.693367 0.991581 0.755208
O O11 0.749760 0.046833 0.000000
O O12 0.032821 0.268479 0.500000
O O13 0.016574 0.335557 0.736013
O O14 0.165218 0.283091 0.713401
O O15 0.070026 0.393611 0.500000
O O16 0.967757 0.435900 0.726917
O O17 0.386592 0.366046 0.500000
O O18 0.326695 0.326897 0.229965
O O19 0.616038 0.948084 0.000000
O O20 0.759361 0.723591 0.000000
#
# Coordination Sequence:
#
# PCOD9427153 Si02
#       8
#     8   8   8   8   8   8   8   8
#     4  11  23  42  65  91 126 164 206 259 313 369
#     4  11  23  40  63  91 126 166 206 255 310 374
#     4  11  24  43  65  91 125 165 211 261 311 368
#     4  10  20  36  57  88 127 164 201 248 303 363
#     4  11  23  38  61  92 128 167 207 255 309 371
#     4  12  24  40  63  92 126 164 207 258 312 371
#     4  11  25  43  64  90 124 166 212 261 311 369
#     4  11  21  36  60  89 123 163 203 249 306 369
#
# _framework density 21.258716
#
# number of rings (size 3 to 8) (size 9 to 14) (size 15 to 20)
#    0.000    1.000    1.250    7.875    1.750    5.000 
#    0.000    0.625    0.000    3.750    0.000    0.000 
#    0.000    0.000    0.000    0.000    0.000    0.000 
#
# Total GULP energy -358179.614801 kJ/mol
# GULP energy per Si atom -5596.556481 kJ/mol
# Density = 2.121033 g / cm^3
# Si number density = 21.258716 Si / 1000 Ang^3
#
#
#
# Elastic Constant Matrix: (Units=GPa)
#
#
# Indices 1 2 3 4 5 6 
#
# 1 32.4305 -8.3243 -15.9552 0.0000 0.0000 0.0000
# 2 -8.3243 56.6793 -8.2838 0.0000 0.0000 0.0000
# 3 -15.9552 -8.2838 47.1421 0.0000 0.0000 0.0000
# 4 0.0000 0.0000 0.0000 36.0292 0.0000 0.0000
# 5 0.0000 0.0000 0.0000 0.0000 27.0441 0.0000
# 6 0.0000 0.0000 0.0000 0.0000 0.0000 30.4692
#
#
#
# Elastic Compliance Matrix: (Units=1/GPa)
#
#
# Indices 1 2 3 4 5 6 
#
# 1 0.040342 0.008129 0.015082 0.000000 0.000000 0.000000
# 2 0.008129 0.019746 0.006221 0.000000 0.000000 0.000000
# 3 0.015082 0.006221 0.027410 0.000000 0.000000 0.000000
# 4 0.000000 0.000000 0.000000 0.027755 0.000000 0.000000
# 5 0.000000 0.000000 0.000000 0.000000 0.036977 0.000000
# 6 0.000000 0.000000 0.000000 0.000000 0.000000 0.032820
#
#
# Mechanical properties :
#
#
# Convention : Reuss Voigt Hill
#
# Bulk Modulus (GPa) = 6.83231 7.90280 7.36755
# Shear Modulus (GPa) = 28.57580 29.96284 29.26932
#
# Velocity S-wave (km/s) = 3.67030 3.75832 3.71457
# Velocity P-wave (km/s) = 4.60243 4.74961 4.67660
#
# Compressibility (1/GPa) = 0.14636345
#
# Stress axis : x y z
#
# Youngs Moduli (GPa) = 24.78808 50.64245 36.48283
#
# Poissons Ratio (x) = -0.41168 -0.55024
# Poissons Ratio (y) = -0.20151 -0.22697
# Poissons Ratio (z) = -0.37386 -0.31505
#
# Static dielectric constant tensor:
#      x y z
#    x 1.777970 0.000000 0.000000 
#    y 0.000000 1.785210 0.000000 
#    z 0.000000 0.000000 1.712380 
# 
# From -- ./inp_files/6692.got.cif
#   From: 2010.05.17/outbox.cif.g08.bks.cpg/sg55_4_cif.got.tgz:6692.got - 2010.06.03 13:27:54.
