data_PCOD9427556
_publ_section_title
;
Structure prediction by ZEFSAII (Michael W. Deem and Ramdas Pophale) SiO2 
 PCOD9427556
Probable space group: P B A M
;
_chemical_formula_sum "Si O2"
_cell_formula_units_Z 40
_cell_length_a 8.503170
_cell_length_b 15.829383
_cell_length_c 15.236539
_cell_angle_alpha 90.000000
_cell_angle_beta 90.000000
_cell_angle_gamma 90.000000
_cell_volume 2050.837154
_symmetry_space_group_name_H-M "P B A M"
_symmetry_group_IT_number 55
_symmetry_cell_setting 'orthorhombic'
loop_
_space_group_symop_operation_xyz
x,y,z
-x,-y,z
1/2+x,1/2-y,-z
1/2-x,1/2+y,-z
-x,-y,-z
x,y,-z
1/2-x,1/2+y,z
1/2+x,1/2-y,z
loop_
_atom_site_type_symbol
_atom_site_label
_atom_site_fract_x
_atom_site_fract_y
_atom_site_fract_z
Si Si1 0.420650 0.406482 0.599033
Si Si2 0.386494 0.874982 0.903028
Si Si3 0.349643 0.656739 0.731635
Si Si4 0.327693 0.979443 0.272134
Si Si5 0.880268 0.238940 0.835741
O O1 0.500000 0.500000 0.596064
O O2 0.376988 0.382850 0.500000
O O3 0.552700 0.345675 0.641269
O O4 0.273551 0.418691 0.664667
O O5 0.357657 0.937818 0.822468
O O6 0.241433 0.809716 0.896392
O O7 0.540429 0.819357 0.881865
O O8 0.393802 0.912543 0.000000
O O9 0.269796 0.565477 0.740021
O O10 0.216062 0.725792 0.751333
O O11 0.482121 0.676582 0.804397
O O12 0.500000 0.000000 0.310363
#
# Coordination Sequence:
#
# PCOD9427556 Si02
#       5
#     8   8   8   8   8
#     4   9  19  37  63  87 114 152 196 243 293 355
#     4  11  22  38  59  88 120 161 207 247 301 359
#     4  10  20  38  62  82 120 155 202 245 304 354
#     4  11  21  38  60  89 122 159 199 253 295 350
#     4  10  21  38  60  83 118 165 195 250 304 360
#
# _framework density 19.50423
#
# number of rings (size 3 to 8) (size 9 to 14) (size 15 to 20)
#    0.000    1.800    4.000    0.600    0.000    0.800 
#    0.000    4.000    0.000    0.000    0.000    0.000 
#    0.000    0.000    0.000    0.000    0.000    0.000 
#
# Total GULP energy -223090.519870 kJ/mol
# GULP energy per Si atom -5577.262997 kJ/mol
# Density = 1.945984 g / cm^3
# Si number density = 19.504230 Si / 1000 Ang^3
#
#
#
# Elastic Constant Matrix: (Units=GPa)
#
#
# Indices 1 2 3 4 5 6 
#
# 1 116.8326 35.0189 41.0401 0.0000 0.0000 0.0000
# 2 35.0189 51.2901 27.3938 0.0000 0.0000 0.0000
# 3 41.0401 27.3938 114.7443 0.0000 0.0000 0.0000
# 4 0.0000 0.0000 0.0000 18.9358 0.0000 0.0000
# 5 0.0000 0.0000 0.0000 0.0000 6.2932 0.0000
# 6 0.0000 0.0000 0.0000 0.0000 0.0000 41.7355
#
#
#
# Elastic Compliance Matrix: (Units=1/GPa)
#
#
# Indices 1 2 3 4 5 6 
#
# 1 0.011371 -0.006409 -0.002537 0.000000 0.000000 0.000000
# 2 -0.006409 0.025958 -0.003905 0.000000 0.000000 0.000000
# 3 -0.002537 -0.003905 0.010555 0.000000 0.000000 0.000000
# 4 0.000000 0.000000 0.000000 0.052810 0.000000 0.000000
# 5 0.000000 0.000000 0.000000 0.000000 0.158902 0.000000
# 6 0.000000 0.000000 0.000000 0.000000 0.000000 0.023960
#
#
# Mechanical properties :
#
#
# Convention : Reuss Voigt Hill
#
# Bulk Modulus (GPa) = 45.08067 54.41919 49.74993
# Shear Modulus (GPa) = 15.79017 25.35385 20.57201
#
# Velocity S-wave (km/s) = 2.84839 3.60935 3.25121
# Velocity P-wave (km/s) = 5.82934 6.73288 6.29734
#
# Compressibility (1/GPa) = 0.02218246
#
# Stress axis : x y z
#
# Youngs Moduli (GPa) = 87.93937 38.52324 94.74416
#
# Poissons Ratio (x) = 0.24689 0.24038
# Poissons Ratio (y) = 0.56360 0.36997
# Poissons Ratio (z) = 0.22311 0.15043
#
# Static dielectric constant tensor:
#      x y z
#    x 1.697630 0.000000 0.000000 
#    y 0.000000 1.703730 0.000000 
#    z 0.000000 0.000000 1.679940 
# 
# From -- ./inp_files/14653.got.cif
#   From: 2010.05.17/outbox.cif.g08.bks.cpg/sg55_8_cif.got.tgz:14653.got - 2010.06.03 13:27:54.
