data_PCOD9427543
_publ_section_title
;
Structure prediction by ZEFSAII (Michael W. Deem and Ramdas Pophale) SiO2 
 PCOD9427543
Probable space group: P B A M
;
_chemical_formula_sum "Si O2"
_cell_formula_units_Z 58
_cell_length_a 26.398967
_cell_length_b 13.449951
_cell_length_c 7.978186
_cell_angle_alpha 90.000000
_cell_angle_beta 90.000000
_cell_angle_gamma 90.000000
_cell_volume 2832.773117
_symmetry_space_group_name_H-M "P B A M"
_symmetry_group_IT_number 55
_symmetry_cell_setting 'orthorhombic'
loop_
_space_group_symop_operation_xyz
x,y,z
-x,-y,z
1/2+x,1/2-y,-z
1/2-x,1/2+y,-z
-x,-y,-z
x,y,-z
1/2-x,1/2+y,z
1/2+x,1/2-y,z
loop_
_atom_site_type_symbol
_atom_site_label
_atom_site_fract_x
_atom_site_fract_y
_atom_site_fract_z
Si Si1 0.399514 0.034618 0.694098
Si Si2 0.500000 0.500000 0.000000
Si Si3 0.795965 0.536292 0.810923
Si Si4 0.075229 0.958465 0.295618
Si Si5 0.830200 0.745745 0.307134
Si Si6 0.954795 0.268295 0.298862
Si Si7 0.567140 0.178002 0.809577
Si Si8 0.812504 0.965900 0.299129
O O1 0.414758 0.025456 0.500000
O O2 0.418564 0.141264 0.757596
O O3 0.339039 0.020198 0.704984
O O4 0.424973 0.940397 0.784927
O O5 0.542716 0.484061 0.845943
O O6 0.807439 0.652694 0.789539
O O7 0.738273 0.515670 0.766426
O O8 0.805964 0.505490 0.000000
O O9 0.065074 0.977064 0.500000
O O10 0.063409 0.842457 0.257415
O O11 0.134346 0.980525 0.265572
O O12 0.813302 0.737567 0.500000
O O13 0.890873 0.732127 0.302281
O O14 0.815727 0.852510 0.237363
O O15 0.956982 0.272151 0.500000
O O16 0.010602 0.289422 0.230491
O O17 0.579436 0.203213 0.000000
O O18 0.808264 0.961561 0.500000
#
# Coordination Sequence:
#
# PCOD9427543 Si02
#       8
#     8   2   8   8   8   8   8   8
#     4  10  20  38  61  86 119 164 211 252 307 370
#     4  12  26  44  68  94 126 176 206 260 314 370
#     4  11  23  39  61  92 125 157 198 254 313 366
#     4  10  25  45  65  95 129 164 212 259 309 377
#     4  10  21  39  63  87 115 159 208 250 299 364
#     4  10  22  39  60  87 122 165 207 255 310 369
#     4  11  22  34  56  89 125 161 203 256 309 366
#     4  10  23  43  66  90 120 161 206 254 303 362
#
# _framework density 20.474636
#
# number of rings (size 3 to 8) (size 9 to 14) (size 15 to 20)
#    0.000    1.655    0.000    5.586    3.862    4.966 
#    0.000    2.759    0.000    0.000    0.000    0.000 
#    0.000    0.000    0.000    0.000    0.000    0.000 
#
# Total GULP energy -323349.746017 kJ/mol
# GULP energy per Si atom -5574.995621 kJ/mol
# Density = 2.042803 g / cm^3
# Si number density = 20.474636 Si / 1000 Ang^3
#
#
#
# Elastic Constant Matrix: (Units=GPa)
#
#
# Indices 1 2 3 4 5 6 
#
# 1 117.7869 47.7478 12.2979 0.0000 0.0000 0.0000
# 2 47.7478 53.8286 8.7453 0.0000 0.0000 0.0000
# 3 12.2979 8.7453 29.9982 0.0000 0.0000 0.0000
# 4 0.0000 0.0000 0.0000 53.8060 0.0000 0.0000
# 5 0.0000 0.0000 0.0000 0.0000 145.0213 0.0000
# 6 0.0000 0.0000 0.0000 0.0000 0.0000 14.7795
#
#
#
# Elastic Compliance Matrix: (Units=1/GPa)
#
#
# Indices 1 2 3 4 5 6 
#
# 1 0.013385 -0.011527 -0.002127 0.000000 0.000000 0.000000
# 2 -0.011527 0.029429 -0.003854 0.000000 0.000000 0.000000
# 3 -0.002127 -0.003854 0.035331 0.000000 0.000000 0.000000
# 4 0.000000 0.000000 0.000000 0.018585 0.000000 0.000000
# 5 0.000000 0.000000 0.000000 0.000000 0.006896 0.000000
# 6 0.000000 0.000000 0.000000 0.000000 0.000000 0.067661
#
#
# Mechanical properties :
#
#
# Convention : Reuss Voigt Hill
#
# Bulk Modulus (GPa) = 23.18625 37.68842 30.43734
# Shear Modulus (GPa) = 22.65749 51.57619 37.11684
#
# Velocity S-wave (km/s) = 3.33019 5.02444 4.26234
# Velocity P-wave (km/s) = 5.11232 7.21854 6.25472
#
# Compressibility (1/GPa) = 0.04312900
#
# Stress axis : x y z
#
# Youngs Moduli (GPa) = 74.71156 33.98048 28.30407
#
# Poissons Ratio (x) = 0.39170 0.06019
# Poissons Ratio (y) = 0.86122 0.10907
# Poissons Ratio (z) = 0.15889 0.13095
#
# Static dielectric constant tensor:
#      x y z
#    x 1.722600 0.000000 0.000000 
#    y 0.000000 1.747510 0.000000 
#    z 0.000000 0.000000 1.718050 
# 
# From -- ./inp_files/10224.got.cif
#   From: 2010.05.17/outbox.cif.g08.bks.cpg/sg55_6_cif.got.tgz:10224.got - 2010.06.03 13:27:54.
