data_PCOD9427856
_publ_section_title
;
Structure prediction by ZEFSAII (Michael W. Deem and Ramdas Pophale) SiO2 
 PCOD9427856
Probable space group: P B A M
;
_chemical_formula_sum "Si O2"
_cell_formula_units_Z 54
_cell_length_a 5.047543
_cell_length_b 16.402826
_cell_length_c 31.429586
_cell_angle_alpha 90.000000
_cell_angle_beta 90.000000
_cell_angle_gamma 90.000000
_cell_volume 2602.180186
_symmetry_space_group_name_H-M "P B A M"
_symmetry_group_IT_number 55
_symmetry_cell_setting 'orthorhombic'
loop_
_space_group_symop_operation_xyz
x,y,z
-x,-y,z
1/2+x,1/2-y,-z
1/2-x,1/2+y,-z
-x,-y,-z
x,y,-z
1/2-x,1/2+y,z
1/2+x,1/2-y,z
loop_
_atom_site_type_symbol
_atom_site_label
_atom_site_fract_x
_atom_site_fract_y
_atom_site_fract_z
Si Si1 0.867229 0.917668 0.929475
Si Si2 0.112636 0.696521 0.140532
Si Si3 0.879260 0.192232 0.000000
Si Si4 0.812295 0.303724 0.762959
Si Si5 0.660008 0.695022 0.547905
Si Si6 0.000000 0.500000 0.000000
Si Si7 0.000406 0.401923 0.317552
Si Si8 0.998814 0.901948 0.630220
O O1 0.718539 0.865826 0.894107
O O2 0.071526 0.863623 0.958250
O O3 0.658664 0.948887 0.963631
O O4 0.000000 0.000000 0.911767
O O5 0.310333 0.774411 0.135749
O O6 0.149282 0.665494 0.188791
O O7 0.097653 0.263801 0.000000
O O8 0.511495 0.273396 0.758756
O O9 0.903158 0.365097 0.726646
O O10 0.625041 0.661201 0.500000
O O11 0.456603 0.770795 0.551656
O O12 0.585508 0.634341 0.585411
O O13 0.789777 0.376247 0.353714
O O14 0.000000 0.500000 0.314632
O O15 0.288732 0.376126 0.333861
O O16 0.000000 0.000000 0.627739
#
# Coordination Sequence:
#
# PCOD9427856 Si02
#       8
#     8   8   4   8   8   2   8   8
#     4  11  25  41  64  92 128 158 199 253 295 347
#     4  10  23  44  66  90 124 163 203 241 295 361
#     4  11  24  39  64  88 118 161 198 235 293 347
#     4  10  21  39  62  89 118 154 197 244 287 351
#     4  10  21  36  54  80 113 149 197 250 296 349
#     4  10  24  40  60  86 128 150 196 248 290 336
#     4  10  21  37  56  85 120 149 193 243 298 353
#     4  10  21  36  56  82 115 155 193 242 295 359
#
# _framework density 20.751830999999999
#
# number of rings (size 3 to 8) (size 9 to 14) (size 15 to 20)
#    0.000    1.778    0.000    3.556    6.222    3.852 
#    1.333    2.222    0.000    5.333    0.000    0.000 
#    0.000    0.000    0.000    0.000    0.000    0.000 
#
# Total GULP energy -301440.787545 kJ/mol
# GULP energy per Si atom -5582.236806 kJ/mol
# Density = 2.070460 g / cm^3
# Si number density = 20.751831 Si / 1000 Ang^3
#
#
#
# Elastic Constant Matrix: (Units=GPa)
#
#
# Indices 1 2 3 4 5 6 
#
# 1 59.5725 2.0993 0.9669 0.0000 0.0000 0.0000
# 2 2.0993 29.3757 31.9749 0.0000 0.0000 0.0000
# 3 0.9669 31.9749 132.8693 0.0000 0.0000 0.0000
# 4 0.0000 0.0000 0.0000 3.6396 0.0000 0.0000
# 5 0.0000 0.0000 0.0000 0.0000 27.9807 0.0000
# 6 0.0000 0.0000 0.0000 0.0000 0.0000 26.8519
#
#
#
# Elastic Compliance Matrix: (Units=1/GPa)
#
#
# Indices 1 2 3 4 5 6 
#
# 1 0.016834 -0.001449 0.000226 0.000000 0.000000 0.000000
# 2 -0.001449 0.046248 -0.011119 0.000000 0.000000 0.000000
# 3 0.000226 -0.011119 0.010200 0.000000 0.000000 0.000000
# 4 0.000000 0.000000 0.000000 0.274757 0.000000 0.000000
# 5 0.000000 0.000000 0.000000 0.000000 0.035739 0.000000
# 6 0.000000 0.000000 0.000000 0.000000 0.000000 0.037241
#
#
# Mechanical properties :
#
#
# Convention : Reuss Voigt Hill
#
# Bulk Modulus (GPa) = 20.57692 32.43328 26.50510
# Shear Modulus (GPa) = 10.82478 24.14619 17.48549
#
# Velocity S-wave (km/s) = 2.28640 3.41481 2.90591
# Velocity P-wave (km/s) = 4.11186 5.58668 4.90502
#
# Compressibility (1/GPa) = 0.04859814
#
# Stress axis : x y z
#
# Youngs Moduli (GPa) = 59.40474 21.62242 98.03591
#
# Poissons Ratio (x) = 0.03134 -0.02218
# Poissons Ratio (y) = 0.08609 1.09007
# Poissons Ratio (z) = -0.01344 0.24042
#
# Static dielectric constant tensor:
#      x y z
#    x 1.754700 0.000000 0.000000 
#    y 0.000000 1.737280 0.000000 
#    z 0.000000 0.000000 1.710980 
# 
# From -- ./inp_files/24092.got.cif
#   From: 2010.05.17/outbox.cif.g08.bks.cpg/sg55_13_cif.got.tgz:24092.got - 2010.06.03 13:27:54.
