data_PCOD9427860
_publ_section_title
;
Structure prediction by ZEFSAII (Michael W. Deem and Ramdas Pophale) SiO2 
 PCOD9427860
Probable space group: P B A M
;
_chemical_formula_sum "Si O2"
_cell_formula_units_Z 56
_cell_length_a 22.116142
_cell_length_b 15.059269
_cell_length_c 7.655113
_cell_angle_alpha 90.000000
_cell_angle_beta 90.000000
_cell_angle_gamma 90.000000
_cell_volume 2549.557827
_symmetry_space_group_name_H-M "P B A M"
_symmetry_group_IT_number 55
_symmetry_cell_setting 'orthorhombic'
loop_
_space_group_symop_operation_xyz
x,y,z
-x,-y,z
1/2+x,1/2-y,-z
1/2-x,1/2+y,-z
-x,-y,-z
x,y,-z
1/2-x,1/2+y,z
1/2+x,1/2-y,z
loop_
_atom_site_type_symbol
_atom_site_label
_atom_site_fract_x
_atom_site_fract_y
_atom_site_fract_z
Si Si1 0.731593 0.182053 0.201562
Si Si2 0.846361 0.519355 0.287671
Si Si3 0.886172 0.786626 0.206171
Si Si4 0.537373 0.124509 0.297855
Si Si5 0.930191 0.983342 0.711423
Si Si6 0.867398 0.160616 0.298057
Si Si7 0.905422 0.347930 0.284972
O O1 0.705195 0.082324 0.214771
O O2 0.678954 0.248477 0.271282
O O3 0.796025 0.178590 0.292713
O O4 0.742347 0.205336 0.000000
O O5 0.842739 0.525207 0.500000
O O6 0.908707 0.565232 0.225298
O O7 0.852526 0.416684 0.237845
O O8 0.938241 0.725195 0.288444
O O9 0.901682 0.889363 0.232966
O O10 0.886704 0.767571 0.000000
O O11 0.532571 0.097910 0.500000
O O12 0.470630 0.117891 0.223935
O O13 0.930199 0.980539 0.500000
O O14 0.889667 0.066580 0.774602
O O15 0.000000 0.000000 0.766645
O O16 0.886956 0.158189 0.500000
O O17 0.896756 0.248622 0.219027
O O18 0.906376 0.346376 0.500000
#
# Coordination Sequence:
#
# PCOD9427860 Si02
#       7
#     8   8   8   8   8   8   8
#     4  10  22  39  54  73 106 143 180 221 266 315
#     4   9  17  31  55  83 107 135 172 211 255 312
#     4  10  21  36  55  79 108 145 184 221 264 316
#     4   9  16  30  54  82 111 139 168 208 258 311
#     4  10  21  38  60  85 111 141 180 228 281 330
#     4  10  21  36  55  78 105 138 178 223 267 317
#     4   9  17  31  53  81 108 133 166 211 261 312
#
# _framework density 21.964593000000001
#
# number of rings (size 3 to 8) (size 9 to 14) (size 15 to 20)
#    0.000    2.429    0.000    2.143    0.000    7.714 
#    0.000    7.857    0.000    3.429    0.000    0.000 
#    0.000    0.000    0.000    0.000    0.000    0.000 
#
# Total GULP energy -312469.980175 kJ/mol
# GULP energy per Si atom -5579.821075 kJ/mol
# Density = 2.191460 g / cm^3
# Si number density = 21.964593 Si / 1000 Ang^3
#
#
#
# Elastic Constant Matrix: (Units=GPa)
#
#
# Indices 1 2 3 4 5 6 
#
# 1 49.5674 -6.7628 -3.1305 0.0000 0.0000 0.0000
# 2 -6.7628 97.3965 -0.0819 0.0000 0.0000 0.0000
# 3 -3.1305 -0.0819 46.1672 0.0000 0.0000 0.0000
# 4 0.0000 0.0000 0.0000 -38.8598 0.0000 0.0000
# 5 0.0000 0.0000 0.0000 0.0000 -3.7516 0.0000
# 6 0.0000 0.0000 0.0000 0.0000 0.0000 13.6411
#
#
#
# Elastic Compliance Matrix: (Units=1/GPa)
#
#
# Indices 1 2 3 4 5 6 
#
# 1 0.020456 0.001422 0.001390 0.000000 0.000000 0.000000
# 2 0.001422 0.010366 0.000115 0.000000 0.000000 0.000000
# 3 0.001390 0.000115 0.021755 0.000000 0.000000 0.000000
# 4 0.000000 0.000000 0.000000 -0.025734 0.000000 0.000000
# 5 0.000000 0.000000 0.000000 0.000000 -0.266555 0.000000
# 6 0.000000 0.000000 0.000000 0.000000 0.000000 0.073308
#
#
# Mechanical properties :
#
#
# Convention : Reuss Voigt Hill
#
# Bulk Modulus (GPa) = 17.11475 19.24229 18.17852
# Shear Modulus (GPa) = -32.72692 7.74637 -12.49028
#
# Velocity S-wave (km/s) = -3.86422 1.88000 -2.38724
# Velocity P-wave (km/s) = 3.47861 3.67317 0.83410
#
# Compressibility (1/GPa) = 0.05842914
#
# Stress axis : x y z
#
# Youngs Moduli (GPa) = 48.88479 96.46814 45.96679
#
# Poissons Ratio (x) = -0.13714 -0.06388
# Poissons Ratio (y) = -0.06949 -0.00528
# Poissons Ratio (z) = -0.06793 -0.01107
#
# Static dielectric constant tensor:
#      x y z
#    x 1.793760 0.000000 0.000000 
#    y 0.000000 1.828610 0.000000 
#    z 0.000000 0.000000 1.838340 
# 
# From -- ./inp_files/8752.got.cif
#   From: 2010.05.17/outbox.cif.g08.bks.cpg/sg55_5_cif.got.tgz:8752.got - 2010.06.03 13:27:54.
