data_PCOD9427899
_publ_section_title
;
Structure prediction by ZEFSAII (Michael W. Deem and Ramdas Pophale) SiO2 
 PCOD9427899
Probable space group: P B A M
;
_chemical_formula_sum "Si O2"
_cell_formula_units_Z 58
_cell_length_a 14.643490
_cell_length_b 24.171463
_cell_length_c 7.588806
_cell_angle_alpha 90.000000
_cell_angle_beta 90.000000
_cell_angle_gamma 90.000000
_cell_volume 2686.092616
_symmetry_space_group_name_H-M "P B A M"
_symmetry_group_IT_number 55
_symmetry_cell_setting 'orthorhombic'
loop_
_space_group_symop_operation_xyz
x,y,z
-x,-y,z
1/2+x,1/2-y,-z
1/2-x,1/2+y,-z
-x,-y,-z
x,y,-z
1/2-x,1/2+y,z
1/2+x,1/2-y,z
loop_
_atom_site_type_symbol
_atom_site_label
_atom_site_fract_x
_atom_site_fract_y
_atom_site_fract_z
Si Si1 0.337774 0.884530 0.288748
Si Si2 0.931922 0.097895 0.207078
Si Si3 0.046305 0.588583 0.285983
Si Si4 0.500000 0.000000 0.000000
Si Si5 0.315019 0.301041 0.203158
Si Si6 0.356163 0.599033 0.285863
Si Si7 0.281899 0.484732 0.298354
Si Si8 0.298408 0.174427 0.293193
O O1 0.325764 0.883750 0.500000
O O2 0.444377 0.887650 0.251795
O O3 0.282389 0.831821 0.220090
O O4 0.288343 0.940280 0.218565
O O5 0.887284 0.154698 0.279376
O O6 0.879024 0.047142 0.295823
O O7 0.039854 0.097380 0.225737
O O8 0.908779 0.093706 0.000000
O O9 0.053047 0.576706 0.500000
O O10 0.119524 0.635109 0.232358
O O11 0.052236 0.536169 0.158044
O O12 0.313553 0.239359 0.273877
O O13 0.339009 0.294897 0.000000
O O14 0.360568 0.596651 0.500000
O O15 0.300357 0.544991 0.222741
O O16 0.298810 0.652254 0.224811
O O17 0.251355 0.493547 0.500000
O O18 0.295001 0.163326 0.500000
#
# Coordination Sequence:
#
# PCOD9427899 Si02
#       8
#     8   8   8   2   8   8   8   8
#     4   9  19  38  64  90 116 158 205 249 305 363
#     4  10  21  37  54  84 117 154 191 237 292 347
#     4  10  24  44  65  94 130 166 214 265 311 380
#     4  12  26  40  68  94 128 170 218 252 326 382
#     4  10  22  39  61  84 120 155 200 255 307 369
#     4  10  21  36  57  84 114 150 192 237 292 352
#     4   9  18  34  58  85 116 151 191 236 287 351
#     4  10  23  42  61  86 119 158 203 254 309 363
#
# _framework density 21.592703
#
# number of rings (size 3 to 8) (size 9 to 14) (size 15 to 20)
#    0.000    2.207    0.000    1.448    3.862    5.517 
#    0.000    4.138    0.000    0.000    0.000    0.000 
#    0.000    0.000    0.000    0.000    0.000    0.000 
#
# Total GULP energy -323274.065729 kJ/mol
# GULP energy per Si atom -5573.690788 kJ/mol
# Density = 2.154356 g / cm^3
# Si number density = 21.592703 Si / 1000 Ang^3
#
#
#
# Elastic Constant Matrix: (Units=GPa)
#
#
# Indices 1 2 3 4 5 6 
#
# 1 76.6022 22.0359 -0.8447 0.0000 0.0000 0.0000
# 2 22.0359 104.0229 2.2143 0.0000 0.0000 0.0000
# 3 -0.8447 2.2143 59.0444 0.0000 0.0000 0.0000
# 4 0.0000 0.0000 0.0000 29.8730 0.0000 0.0000
# 5 0.0000 0.0000 0.0000 0.0000 -37.1194 0.0000
# 6 0.0000 0.0000 0.0000 0.0000 0.0000 21.9736
#
#
#
# Elastic Compliance Matrix: (Units=1/GPa)
#
#
# Indices 1 2 3 4 5 6 
#
# 1 0.013907 -0.002953 0.000310 0.000000 0.000000 0.000000
# 2 -0.002953 0.010248 -0.000427 0.000000 0.000000 0.000000
# 3 0.000310 -0.000427 0.016957 0.000000 0.000000 0.000000
# 4 0.000000 0.000000 0.000000 0.033475 0.000000 0.000000
# 5 0.000000 0.000000 0.000000 0.000000 -0.026940 0.000000
# 6 0.000000 0.000000 0.000000 0.000000 0.000000 0.045509
#
#
# Mechanical properties :
#
#
# Convention : Reuss Voigt Hill
#
# Bulk Modulus (GPa) = 28.59359 31.83116 30.21238
# Shear Modulus (GPa) = 45.06427 17.36305 31.21366
#
# Velocity S-wave (km/s) = 4.57334 2.83877 3.80618
# Velocity P-wave (km/s) = 6.41547 5.05158 5.77394
#
# Compressibility (1/GPa) = 0.03497287
#
# Stress axis : x y z
#
# Youngs Moduli (GPa) = 71.90492 97.58159 58.97325
#
# Poissons Ratio (x) = 0.28813 -0.01826
# Poissons Ratio (y) = 0.21231 0.02516
# Poissons Ratio (z) = -0.02227 0.04162
#
# Static dielectric constant tensor:
#      x y z
#    x 1.788910 0.000000 0.000000 
#    y 0.000000 1.793460 0.000000 
#    z 0.000000 0.000000 1.824060 
# 
# From -- ./inp_files/6428.got.cif
#   From: 2010.05.17/outbox.cif.g08.bks.cpg/sg55_4_cif.got.tgz:6428.got - 2010.06.03 13:27:54.
