data_PCOD9427068
_publ_section_title
;
Structure prediction by ZEFSAII (Michael W. Deem and Ramdas Pophale) SiO2 
 PCOD9427068
Probable space group: P B A M
;
_chemical_formula_sum "Si O2"
_cell_formula_units_Z 40
_cell_length_a 8.363351
_cell_length_b 27.574416
_cell_length_c 7.725605
_cell_angle_alpha 90.000000
_cell_angle_beta 90.000000
_cell_angle_gamma 90.000000
_cell_volume 1781.636686
_symmetry_space_group_name_H-M "P B A M"
_symmetry_group_IT_number 55
_symmetry_cell_setting 'orthorhombic'
loop_
_space_group_symop_operation_xyz
x,y,z
-x,-y,z
1/2+x,1/2-y,-z
1/2-x,1/2+y,-z
-x,-y,-z
x,y,-z
1/2-x,1/2+y,z
1/2+x,1/2-y,z
loop_
_atom_site_type_symbol
_atom_site_label
_atom_site_fract_x
_atom_site_fract_y
_atom_site_fract_z
Si Si1 0.396588 0.724049 0.790852
Si Si2 0.914198 0.924974 0.000000
Si Si3 0.251193 0.629509 0.301407
Si Si4 0.263854 0.320572 0.210259
Si Si5 0.406671 0.916776 0.303281
Si Si6 0.260249 0.974409 0.000000
O O1 0.260905 0.687175 0.725728
O O2 0.362771 0.778992 0.737880
O O3 0.565087 0.701184 0.736745
O O4 0.391931 0.723725 0.000000
O O5 0.876940 0.893231 0.168213
O O6 0.092706 0.945045 0.000000
O O7 0.791837 0.970033 0.000000
O O8 0.288924 0.618000 0.500000
O O9 0.078239 0.607077 0.260450
O O10 0.217622 0.372183 0.286664
O O11 0.262423 0.325430 0.000000
O O12 0.409724 0.934695 0.500000
O O13 0.357199 0.957664 0.168044
#
# Coordination Sequence:
#
# PCOD9427068 Si02
#       6
#     8   4   8   8   8   4
#     4  10  20  35  59  90 125 167 210 252 302 360
#     4  11  25  45  68  93 122 159 203 255 315 371
#     4  11  24  41  64  94 127 164 206 253 307 367
#     4  10  20  35  59  90 125 167 210 252 302 360
#     4  11  24  41  64  94 127 164 206 253 307 367
#     4  11  25  45  68  93 122 159 203 255 315 371
#
# _framework density 22.451264999999999
#
# number of rings (size 3 to 8) (size 9 to 14) (size 15 to 20)
#    0.000    1.400    2.000    3.000    0.000    8.000 
#    0.000    4.000    0.000    0.000    0.000    0.000 
#    0.000    0.000    0.000    0.000    0.000    0.000 
#
# Total GULP energy -223998.874209 kJ/mol
# GULP energy per Si atom -5599.971855 kJ/mol
# Density = 2.240016 g / cm^3
# Si number density = 22.451265 Si / 1000 Ang^3
#
#
#
# Elastic Constant Matrix: (Units=GPa)
#
#
# Indices 1 2 3 4 5 6 
#
# 1 69.9350 2.9801 18.4428 0.0000 0.0000 0.0000
# 2 2.9801 76.5672 12.5691 0.0000 0.0000 0.0000
# 3 18.4428 12.5691 50.4237 0.0000 0.0000 0.0000
# 4 0.0000 0.0000 0.0000 -10.0096 0.0000 0.0000
# 5 0.0000 0.0000 0.0000 0.0000 6.5599 0.0000
# 6 0.0000 0.0000 0.0000 0.0000 0.0000 42.1024
#
#
#
# Elastic Compliance Matrix: (Units=1/GPa)
#
#
# Indices 1 2 3 4 5 6 
#
# 1 0.015834 0.000349 -0.005878 0.000000 0.000000 0.000000
# 2 0.000349 0.013625 -0.003524 0.000000 0.000000 0.000000
# 3 -0.005878 -0.003524 0.022860 0.000000 0.000000 0.000000
# 4 0.000000 0.000000 0.000000 -0.099904 0.000000 0.000000
# 5 0.000000 0.000000 0.000000 0.000000 0.152442 0.000000
# 6 0.000000 0.000000 0.000000 0.000000 0.000000 0.023752
#
#
# Mechanical properties :
#
#
# Convention : Reuss Voigt Hill
#
# Bulk Modulus (GPa) = 29.22883 29.43443 29.33163
# Shear Modulus (GPa) = 31.62145 18.59279 25.10712
#
# Velocity S-wave (km/s) = 3.75700 2.88086 3.34772
# Velocity P-wave (km/s) = 5.64510 4.91982 5.29489
#
# Compressibility (1/GPa) = 0.03421280
#
# Stress axis : x y z
#
# Youngs Moduli (GPa) = 63.15377 73.39269 43.74365
#
# Poissons Ratio (x) = -0.02559 0.25715
# Poissons Ratio (y) = -0.02202 0.15415
# Poissons Ratio (z) = 0.37125 0.25863
#
# Static dielectric constant tensor:
#      x y z
#    x 1.848200 0.000000 0.000000 
#    y 0.000000 1.786380 0.000000 
#    z 0.000000 0.000000 1.801260 
# 
# From -- ./inp_files/2531.got.cif
#   From: 2010.05.17/outbox.cif.g08.bks.cpg/sg55_2_cif.got.tgz:2531.got - 2010.06.03 13:27:54.
