data_PCOD9427967
_publ_section_title
;
Structure prediction by ZEFSAII (Michael W. Deem and Ramdas Pophale) SiO2 
 PCOD9427967
Probable space group: P B A M
;
_chemical_formula_sum "Si O2"
_cell_formula_units_Z 48
_cell_length_a 11.066458
_cell_length_b 23.875145
_cell_length_c 9.110618
_cell_angle_alpha 90.000000
_cell_angle_beta 90.000000
_cell_angle_gamma 90.000000
_cell_volume 2407.146350
_symmetry_space_group_name_H-M "P B A M"
_symmetry_group_IT_number 55
_symmetry_cell_setting 'orthorhombic'
loop_
_space_group_symop_operation_xyz
x,y,z
-x,-y,z
1/2+x,1/2-y,-z
1/2-x,1/2+y,-z
-x,-y,-z
x,y,-z
1/2-x,1/2+y,z
1/2+x,1/2-y,z
loop_
_atom_site_type_symbol
_atom_site_label
_atom_site_fract_x
_atom_site_fract_y
_atom_site_fract_z
Si Si1 0.314523 0.187928 0.826086
Si Si2 0.809292 0.980343 0.670803
Si Si3 0.184841 0.421937 0.175106
Si Si4 0.826266 0.184067 0.178059
Si Si5 0.066256 0.119125 0.826492
Si Si6 0.941415 0.411061 0.329445
O O1 0.314057 0.251996 0.773443
O O2 0.183020 0.159436 0.811396
O O3 0.406444 0.149017 0.737775
O O4 0.345808 0.186462 0.000000
O O5 0.833984 0.991130 0.500000
O O6 0.905939 0.937800 0.739735
O O7 0.680056 0.947946 0.682257
O O8 0.786276 0.036867 0.760280
O O9 0.219176 0.358320 0.217636
O O10 0.054378 0.435197 0.241246
O O11 0.183139 0.426972 0.000000
O O12 0.950014 0.153850 0.224400
O O13 0.828599 0.186236 0.000000
O O14 0.052407 0.106189 0.000000
O O15 0.974102 0.407615 0.500000
#
# Coordination Sequence:
#
# PCOD9427967 Si02
#       6
#     8   8   8   8   8   8
#     4   9  18  34  59  83 106 141 183 224 272 327
#     4  10  21  38  57  78 111 148 185 229 278 329
#     4  11  22  35  56  85 114 144 186 231 276 328
#     4   9  20  35  55  85 113 142 181 231 278 320
#     4   9  18  35  58  81 108 143 183 225 274 330
#     4  10  21  37  56  81 112 147 183 228 280 324
#
# _framework density 19.940622999999999
#
# number of rings (size 3 to 8) (size 9 to 14) (size 15 to 20)
#    0.000    2.333    0.000    2.000    2.333    4.667 
#    0.000    7.500    0.000    0.000    0.000    0.000 
#    0.000    0.000    0.000    0.000    0.000    0.000 
#
# Total GULP energy -268087.111995 kJ/mol
# GULP energy per Si atom -5585.148167 kJ/mol
# Density = 1.989524 g / cm^3
# Si number density = 19.940623 Si / 1000 Ang^3
#
#
#
# Elastic Constant Matrix: (Units=GPa)
#
#
# Indices 1 2 3 4 5 6 
#
# 1 41.9311 -5.2266 19.0590 0.0000 0.0000 0.0000
# 2 -5.2266 97.1980 32.1674 0.0000 0.0000 0.0000
# 3 19.0590 32.1674 65.7221 0.0000 0.0000 0.0000
# 4 0.0000 0.0000 0.0000 -9.1009 0.0000 0.0000
# 5 0.0000 0.0000 0.0000 0.0000 10.7792 0.0000
# 6 0.0000 0.0000 0.0000 0.0000 0.0000 17.3164
#
#
#
# Elastic Compliance Matrix: (Units=1/GPa)
#
#
# Indices 1 2 3 4 5 6 
#
# 1 0.029583 0.005286 -0.011166 0.000000 0.000000 0.000000
# 2 0.005286 0.013221 -0.008004 0.000000 0.000000 0.000000
# 3 -0.011166 -0.008004 0.022371 0.000000 0.000000 0.000000
# 4 0.000000 0.000000 0.000000 -0.109879 0.000000 0.000000
# 5 0.000000 0.000000 0.000000 0.000000 0.092771 0.000000
# 6 0.000000 0.000000 0.000000 0.000000 0.000000 0.057749
#
#
# Mechanical properties :
#
#
# Convention : Reuss Voigt Hill
#
# Bulk Modulus (GPa) = 26.73269 32.98343 29.85806
# Shear Modulus (GPa) = 34.23397 14.38904 24.31150
#
# Velocity S-wave (km/s) = 4.14792 2.68916 3.49549
# Velocity P-wave (km/s) = 6.03121 5.12044 5.59439
#
# Compressibility (1/GPa) = 0.03740738
#
# Stress axis : x y z
#
# Youngs Moduli (GPa) = 33.80332 75.63454 44.70016
#
# Poissons Ratio (x) = -0.39982 0.49913
# Poissons Ratio (y) = -0.17869 0.35779
# Poissons Ratio (z) = 0.37745 0.60539
#
# Static dielectric constant tensor:
#      x y z
#    x 1.708860 0.000000 0.000000 
#    y 0.000000 1.706280 0.000000 
#    z 0.000000 0.000000 1.665280 
# 
# From -- ./inp_files/4045.got.cif
#   From: 2010.05.17/outbox.cif.g08.bks.cpg/sg55_3_cif.got.tgz:4045.got - 2010.06.03 13:27:54.
