data_PCOD9427342
_publ_section_title
;
Structure prediction by ZEFSAII (Michael W. Deem and Ramdas Pophale) SiO2 
 PCOD9427342
Probable space group: P B A M
;
_chemical_formula_sum "Si O2"
_cell_formula_units_Z 64
_cell_length_a 29.111699
_cell_length_b 12.795832
_cell_length_c 9.473140
_cell_angle_alpha 90.000000
_cell_angle_beta 90.000000
_cell_angle_gamma 90.000000
_cell_volume 3528.824316
_symmetry_space_group_name_H-M "P B A M"
_symmetry_group_IT_number 55
_symmetry_cell_setting 'orthorhombic'
loop_
_space_group_symop_operation_xyz
x,y,z
-x,-y,z
1/2+x,1/2-y,-z
1/2-x,1/2+y,-z
-x,-y,-z
x,y,-z
1/2-x,1/2+y,z
1/2+x,1/2-y,z
loop_
_atom_site_type_symbol
_atom_site_label
_atom_site_fract_x
_atom_site_fract_y
_atom_site_fract_z
Si Si1 0.848027 0.508055 0.829874
Si Si2 0.253696 0.023378 0.666278
Si Si3 0.439128 0.601487 0.668457
Si Si4 0.772043 0.791715 0.154005
Si Si5 0.952433 0.132516 0.331531
Si Si6 0.387329 0.220842 0.832321
Si Si7 0.304392 0.379983 0.842452
Si Si8 0.621184 0.233647 0.837139
O O1 0.800398 0.511892 0.744428
O O2 0.872737 0.397776 0.797175
O O3 0.877989 0.611008 0.795944
O O4 0.838908 0.510585 0.000000
O O5 0.257494 0.010015 0.500000
O O6 0.208556 0.966025 0.728458
O O7 0.246278 0.141475 0.716756
O O8 0.431621 0.605297 0.500000
O O9 0.431640 0.480502 0.714113
O O10 0.492970 0.625782 0.693587
O O11 0.408151 0.686985 0.744575
O O12 0.741837 0.688276 0.148966
O O13 0.825432 0.767368 0.167521
O O14 0.763888 0.845227 0.000000
O O15 0.945552 0.141417 0.500000
O O16 0.929073 0.228726 0.252710
O O17 0.344553 0.299122 0.805838
O O18 0.396562 0.223190 0.000000
O O19 0.314042 0.423075 0.000000
O O20 0.605827 0.240801 0.000000
#
# Coordination Sequence:
#
# PCOD9427342 Si02
#       8
#     8   8   8   8   8   8   8   8
#     4  10  20  40  59  77 112 154 191 226 278 335
#     4  12  24  34  50  79 114 149 188 237 282 324
#     4   9  20  40  62  83 113 149 179 220 283 342
#     4  10  20  37  57  76 107 152 193 228 271 328
#     4   9  20  40  62  83 113 149 179 220 283 342
#     4  10  21  36  60  86 108 144 191 235 275 324
#     4  10  20  37  57  76 107 152 193 228 271 328
#     4  10  21  36  60  86 108 144 191 235 275 324
#
# _framework density 18.136351999999999
#
# number of rings (size 3 to 8) (size 9 to 14) (size 15 to 20)
#    0.000    2.000    2.500    1.875    1.750    3.500 
#    0.000    1.875    0.000    3.750    0.000    0.000 
#    0.000    0.000    0.000    0.000    0.000    0.000 
#
# Total GULP energy -356966.262882 kJ/mol
# GULP energy per Si atom -5577.597858 kJ/mol
# Density = 1.809507 g / cm^3
# Si number density = 18.136352 Si / 1000 Ang^3
#
#
#
# Elastic Constant Matrix: (Units=GPa)
#
#
# Indices 1 2 3 4 5 6 
#
# 1 32.6568 3.8097 12.1991 0.0000 0.0000 0.0000
# 2 3.8097 39.3352 14.7882 0.0000 0.0000 0.0000
# 3 12.1991 14.7882 40.1667 0.0000 0.0000 0.0000
# 4 0.0000 0.0000 0.0000 3.9483 0.0000 0.0000
# 5 0.0000 0.0000 0.0000 0.0000 23.3733 0.0000
# 6 0.0000 0.0000 0.0000 0.0000 0.0000 32.9230
#
#
#
# Elastic Compliance Matrix: (Units=1/GPa)
#
#
# Indices 1 2 3 4 5 6 
#
# 1 0.034557 0.000695 -0.010751 0.000000 0.000000 0.000000
# 2 0.000695 0.029521 -0.011080 0.000000 0.000000 0.000000
# 3 -0.010751 -0.011080 0.032241 0.000000 0.000000 0.000000
# 4 0.000000 0.000000 0.000000 0.253272 0.000000 0.000000
# 5 0.000000 0.000000 0.000000 0.000000 0.042784 0.000000
# 6 0.000000 0.000000 0.000000 0.000000 0.000000 0.030374
#
#
# Mechanical properties :
#
#
# Convention : Reuss Voigt Hill
#
# Bulk Modulus (GPa) = 18.50267 19.30587 18.90427
# Shear Modulus (GPa) = 10.35122 17.47303 13.91213
#
# Velocity S-wave (km/s) = 2.39162 3.10728 2.77263
# Velocity P-wave (km/s) = 4.22499 4.85196 4.54929
#
# Compressibility (1/GPa) = 0.05404624
#
# Stress axis : x y z
#
# Youngs Moduli (GPa) = 28.93804 33.87456 31.01662
#
# Poissons Ratio (x) = -0.02354 0.33347
# Poissons Ratio (y) = -0.02011 0.34366
# Poissons Ratio (z) = 0.31112 0.37532
#
# Static dielectric constant tensor:
#      x y z
#    x 1.610250 0.000000 0.000000 
#    y 0.000000 1.646480 0.000000 
#    z 0.000000 0.000000 1.626290 
# 
# From -- ./inp_files/10739.got.cif
#   From: 2010.05.17/outbox.cif.g08.bks.cpg/sg55_6_cif.got.tgz:10739.got - 2010.06.03 13:27:54.
