data_PCOD9427493
_publ_section_title
;
Structure prediction by ZEFSAII (Michael W. Deem and Ramdas Pophale) SiO2 
 PCOD9427493
Probable space group: P B A M
;
_chemical_formula_sum "Si O2"
_cell_formula_units_Z 32
_cell_length_a 9.117845
_cell_length_b 21.050075
_cell_length_c 8.208629
_cell_angle_alpha 90.000000
_cell_angle_beta 90.000000
_cell_angle_gamma 90.000000
_cell_volume 1575.493008
_symmetry_space_group_name_H-M "P B A M"
_symmetry_group_IT_number 55
_symmetry_cell_setting 'orthorhombic'
loop_
_space_group_symop_operation_xyz
x,y,z
-x,-y,z
1/2+x,1/2-y,-z
1/2-x,1/2+y,-z
-x,-y,-z
x,y,-z
1/2-x,1/2+y,z
1/2+x,1/2-y,z
loop_
_atom_site_type_symbol
_atom_site_label
_atom_site_fract_x
_atom_site_fract_y
_atom_site_fract_z
Si Si1 0.420614 0.934751 0.697513
Si Si2 0.101659 0.186683 0.309371
Si Si3 0.918246 0.064151 0.698870
Si Si4 0.071129 0.694374 0.811712
O O1 0.423676 0.932037 0.500000
O O2 0.250946 0.934355 0.750762
O O3 0.504470 0.873465 0.763095
O O4 0.500000 0.000000 0.747005
O O5 0.135367 0.176216 0.500000
O O6 0.255450 0.193692 0.219148
O O7 0.007763 0.126399 0.249502
O O8 0.005742 0.249907 0.289883
O O9 0.917055 0.064233 0.500000
O O10 0.000000 0.000000 0.751323
O O11 0.040055 0.707314 0.000000
#
# Coordination Sequence:
#
# PCOD9427493 Si02
#       4
#     8   8   8   8
#     4  10  20  37  63  91 119 156 204 252 299 359
#     4  11  22  39  63  87 116 158 206 249 297 364
#     4   9  18  34  59  90 117 145 191 250 301 347
#     4  12  25  40  59  87 124 159 197 251 313 365
#
# _framework density 20.311102999999999
#
# number of rings (size 3 to 8) (size 9 to 14) (size 15 to 20)
#    0.000    1.500    0.000    6.000    0.000    6.500 
#    0.000    1.250    0.000    5.250    0.000    0.000 
#    0.000    0.000    0.000    0.000    0.000    0.000 
#
# Total GULP energy -178988.155654 kJ/mol
# GULP energy per Si atom -5593.379864 kJ/mol
# Density = 2.026487 g / cm^3
# Si number density = 20.311103 Si / 1000 Ang^3
#
#
#
# Elastic Constant Matrix: (Units=GPa)
#
#
# Indices 1 2 3 4 5 6 
#
# 1 148.2151 57.6572 -8.5035 0.0000 0.0000 0.0000
# 2 57.6572 139.2659 -10.1737 0.0000 0.0000 0.0000
# 3 -8.5035 -10.1737 20.4492 0.0000 0.0000 0.0000
# 4 0.0000 0.0000 0.0000 -7.0140 0.0000 0.0000
# 5 0.0000 0.0000 0.0000 0.0000 31.0579 0.0000
# 6 0.0000 0.0000 0.0000 0.0000 0.0000 43.3358
#
#
#
# Elastic Compliance Matrix: (Units=1/GPa)
#
#
# Indices 1 2 3 4 5 6 
#
# 1 0.008103 -0.003226 0.001765 0.000000 0.000000 0.000000
# 2 -0.003226 0.008736 0.003005 0.000000 0.000000 0.000000
# 3 0.001765 0.003005 0.051130 0.000000 0.000000 0.000000
# 4 0.000000 0.000000 0.000000 -0.142573 0.000000 0.000000
# 5 0.000000 0.000000 0.000000 0.000000 0.032198 0.000000
# 6 0.000000 0.000000 0.000000 0.000000 0.000000 0.023076
#
#
# Mechanical properties :
#
#
# Convention : Reuss Voigt Hill
#
# Bulk Modulus (GPa) = 14.07343 42.87669 28.47506
# Shear Modulus (GPa) = 3943.16760 31.40597 1987.28678
#
# Velocity S-wave (km/s) = 44.10895 3.93650 31.31370
# Velocity P-wave (km/s) = 51.00076 6.46662 36.35171
#
# Compressibility (1/GPa) = 0.07105590
#
# Stress axis : x y z
#
# Youngs Moduli (GPa) = 123.40999 114.47524 19.55783
#
# Poissons Ratio (x) = 0.36928 -0.03451
# Poissons Ratio (y) = 0.39810 -0.05876
# Poissons Ratio (z) = -0.21778 -0.34395
#
# Static dielectric constant tensor:
#      x y z
#    x 1.675110 0.000000 0.000000 
#    y 0.000000 1.675560 0.000000 
#    z 0.000000 0.000000 1.699850 
# 
# From -- ./inp_files/1991.got.cif
#   From: 2010.05.17/outbox.cif.g08.bks.cpg/sg55_1_cif.got.tgz:1991.got - 2010.06.03 13:27:54.
