data_PCOD9427302
_publ_section_title
;
Structure prediction by ZEFSAII (Michael W. Deem and Ramdas Pophale) SiO2 
 PCOD9427302
Probable space group: P B A M
;
_chemical_formula_sum "Si O2"
_cell_formula_units_Z 60
_cell_length_a 27.750469
_cell_length_b 12.370792
_cell_length_c 7.980248
_cell_angle_alpha 90.000000
_cell_angle_beta 90.000000
_cell_angle_gamma 90.000000
_cell_volume 2739.581471
_symmetry_space_group_name_H-M "P B A M"
_symmetry_group_IT_number 55
_symmetry_cell_setting 'orthorhombic'
loop_
_space_group_symop_operation_xyz
x,y,z
-x,-y,z
1/2+x,1/2-y,-z
1/2-x,1/2+y,-z
-x,-y,-z
x,y,-z
1/2-x,1/2+y,z
1/2+x,1/2-y,z
loop_
_atom_site_type_symbol
_atom_site_label
_atom_site_fract_x
_atom_site_fract_y
_atom_site_fract_z
Si Si1 0.913773 0.192064 0.303189
Si Si2 0.219310 0.278997 0.500000
Si Si3 0.593942 0.448476 0.195124
Si Si4 0.946163 0.541613 0.799292
Si Si5 0.300861 0.564861 0.679384
Si Si6 0.781114 0.560532 0.182876
Si Si7 0.141773 0.601506 0.694671
Si Si8 0.979422 0.773034 0.797924
O O1 0.905083 0.175525 0.500000
O O2 0.875411 0.280895 0.242555
O O3 0.967691 0.236873 0.278296
O O4 0.911844 0.076228 0.216588
O O5 0.223176 0.180104 0.357335
O O6 0.211741 0.367094 0.347780
O O7 0.643667 0.414933 0.279575
O O8 0.548198 0.380729 0.259351
O O9 0.597609 0.421761 0.000000
O O10 0.905577 0.474216 0.706518
O O11 0.946917 0.668753 0.758631
O O12 0.000000 0.500000 0.762467
O O13 0.938502 0.528677 0.000000
O O14 0.299748 0.504063 0.500000
O O15 0.272291 0.490526 0.806294
O O16 0.817424 0.459567 0.203489
O O17 0.789231 0.612072 0.000000
O O18 0.156520 0.612408 0.500000
O O19 0.986150 0.775279 0.000000
#
# Coordination Sequence:
#
# PCOD9427302 Si02
#       8
#     8   4   8   8   8   8   8   8
#     4  11  24  41  62  91 130 180 231 286 348 410
#     4  10  24  48  72 104 142 182 223 299 341 417
#     4  11  24  41  65  96 131 180 235 281 344 419
#     4  10  20  36  61  92 128 167 217 279 348 415
#     4  10  24  46  71  98 141 177 221 288 348 407
#     4  12  25  46  75 106 141 184 234 285 354 424
#     4  11  24  41  64  96 135 177 228 289 350 416
#     4  10  22  39  61  91 131 172 222 289 343 412
#
# _framework density 21.901156
#
# number of rings (size 3 to 8) (size 9 to 14) (size 15 to 20)
#    0.400    0.933    2.667    2.000    1.867    7.200 
#    2.400    0.000    0.000    0.000    0.000    0.000 
#    0.000    0.000    0.000    0.000    0.000    0.000 
#
# Total GULP energy -334121.664958 kJ/mol
# GULP energy per Si atom -5568.694416 kJ/mol
# Density = 2.185131 g / cm^3
# Si number density = 21.901156 Si / 1000 Ang^3
#
#
#
# Elastic Constant Matrix: (Units=GPa)
#
#
# Indices 1 2 3 4 5 6 
#
# 1 28.8535 -14.8752 7.0452 0.0000 0.0000 0.0000
# 2 -14.8752 73.2865 12.9325 0.0000 0.0000 0.0000
# 3 7.0452 12.9325 84.3161 0.0000 0.0000 0.0000
# 4 0.0000 0.0000 0.0000 23.5183 0.0000 0.0000
# 5 0.0000 0.0000 0.0000 0.0000 28.8110 0.0000
# 6 0.0000 0.0000 0.0000 0.0000 0.0000 -20.2440
#
#
#
# Elastic Compliance Matrix: (Units=1/GPa)
#
#
# Indices 1 2 3 4 5 6 
#
# 1 0.040495 0.009062 -0.004774 0.000000 0.000000 0.000000
# 2 0.009062 0.016052 -0.003219 0.000000 0.000000 0.000000
# 3 -0.004774 -0.003219 0.012753 0.000000 0.000000 0.000000
# 4 0.000000 0.000000 0.000000 0.042520 0.000000 0.000000
# 5 0.000000 0.000000 0.000000 0.000000 0.034709 0.000000
# 6 0.000000 0.000000 0.000000 0.000000 0.000000 -0.049397
#
#
# Mechanical properties :
#
#
# Convention : Reuss Voigt Hill
#
# Bulk Modulus (GPa) = 13.99809 21.85122 17.92465
# Shear Modulus (GPa) = 42.08507 18.50731 30.29619
#
# Velocity S-wave (km/s) = 4.38835 2.91011 3.72333
# Velocity P-wave (km/s) = 5.66412 4.61416 5.16588
#
# Compressibility (1/GPa) = 0.07143831
#
# Stress axis : x y z
#
# Youngs Moduli (GPa) = 24.69430 62.29569 78.41432
#
# Poissons Ratio (x) = -0.56451 0.37431
# Poissons Ratio (y) = -0.22377 0.25244
# Poissons Ratio (z) = 0.11788 0.20055
#
# Static dielectric constant tensor:
#      x y z
#    x 1.799260 0.000000 0.000000 
#    y 0.000000 1.803160 0.000000 
#    z 0.000000 0.000000 1.805840 
# 
# From -- ./inp_files/10674.got.cif
#   From: 2010.05.17/outbox.cif.g08.bks.cpg/sg55_6_cif.got.tgz:10674.got - 2010.06.03 13:27:54.
