data_PCOD9427616
_publ_section_title
;
Structure prediction by ZEFSAII (Michael W. Deem and Ramdas Pophale) SiO2 
 PCOD9427616
Probable space group: P B A M
;
_chemical_formula_sum "Si O2"
_cell_formula_units_Z 48
_cell_length_a 8.820855
_cell_length_b 20.715137
_cell_length_c 13.740209
_cell_angle_alpha 90.000000
_cell_angle_beta 90.000000
_cell_angle_gamma 90.000000
_cell_volume 2510.682709
_symmetry_space_group_name_H-M "P B A M"
_symmetry_group_IT_number 55
_symmetry_cell_setting 'orthorhombic'
loop_
_space_group_symop_operation_xyz
x,y,z
-x,-y,z
1/2+x,1/2-y,-z
1/2-x,1/2+y,-z
-x,-y,-z
x,y,-z
1/2-x,1/2+y,z
1/2+x,1/2-y,z
loop_
_atom_site_type_symbol
_atom_site_label
_atom_site_fract_x
_atom_site_fract_y
_atom_site_fract_z
Si Si1 0.922662 0.657160 0.111026
Si Si2 0.426291 0.929918 0.296191
Si Si3 0.906138 0.312302 0.614006
Si Si4 0.573027 0.314362 0.693190
Si Si5 0.098544 0.936953 0.386002
Si Si6 0.915925 0.210736 0.888223
O O1 0.943940 0.602048 0.190039
O O2 0.759288 0.691942 0.128714
O O3 0.049252 0.712956 0.119382
O O4 0.922038 0.633362 0.000000
O O5 0.505517 0.878889 0.368411
O O6 0.250428 0.934435 0.323494
O O7 0.500000 0.000000 0.302367
O O8 0.872348 0.303285 0.500000
O O9 0.751132 0.313998 0.674600
O O10 0.006255 0.252899 0.652697
O O11 0.498826 0.373227 0.634647
O O12 0.519576 0.320663 0.804986
O O13 0.138976 0.940055 0.500000
O O14 0.000000 0.000000 0.362228
O O15 0.954332 0.192405 0.000000
#
# Coordination Sequence:
#
# PCOD9427616 Si02
#       6
#     8   8   8   8   8   8
#     4  10  21  40  65  95 126 160 203 258 317 378
#     4  12  25  42  62  89 126 172 212 260 317 375
#     4  12  25  39  62  94 127 166 210 261 313 372
#     4  12  22  41  64  94 126 161 206 262 318 371
#     4  11  24  43  65  89 122 167 215 262 315 378
#     4  10  20  38  66  95 124 156 200 253 313 371
#
# _framework density 19.118304999999999
#
# number of rings (size 3 to 8) (size 9 to 14) (size 15 to 20)
#    0.000    0.833    3.333    5.000    0.000    3.000 
#    0.000    0.000    0.000    4.000    0.000    0.000 
#    0.000    0.000    0.000    0.000    0.000    0.000 
#
# Total GULP energy -268472.010310 kJ/mol
# GULP energy per Si atom -5593.166881 kJ/mol
# Density = 1.907479 g / cm^3
# Si number density = 19.118305 Si / 1000 Ang^3
#
#
#
# Elastic Constant Matrix: (Units=GPa)
#
#
# Indices 1 2 3 4 5 6 
#
# 1 67.1972 30.1856 4.3966 0.0000 0.0000 0.0000
# 2 30.1856 108.3569 11.9349 0.0000 0.0000 0.0000
# 3 4.3966 11.9349 71.3026 0.0000 0.0000 0.0000
# 4 0.0000 0.0000 0.0000 -213.2010 0.0000 0.0000
# 5 0.0000 0.0000 0.0000 0.0000 29.5477 0.0000
# 6 0.0000 0.0000 0.0000 0.0000 0.0000 29.6366
#
#
#
# Elastic Compliance Matrix: (Units=1/GPa)
#
#
# Indices 1 2 3 4 5 6 
#
# 1 0.017015 -0.004711 -0.000261 0.000000 0.000000 0.000000
# 2 -0.004711 0.010707 -0.001502 0.000000 0.000000 0.000000
# 3 -0.000261 -0.001502 0.014292 0.000000 0.000000 0.000000
# 4 0.000000 0.000000 0.000000 -0.004690 0.000000 0.000000
# 5 0.000000 0.000000 0.000000 0.000000 0.033844 0.000000
# 6 0.000000 0.000000 0.000000 0.000000 0.000000 0.033742
#
#
# Mechanical properties :
#
#
# Convention : Reuss Voigt Hill
#
# Bulk Modulus (GPa) = 34.40348 37.76565 36.08457
# Shear Modulus (GPa) = 39.20190 -17.44739 10.87725
#
# Velocity S-wave (km/s) = 4.53315 -3.02421 2.38784
# Velocity P-wave (km/s) = 6.74043 2.75719 5.14954
#
# Compressibility (1/GPa) = 0.02906682
#
# Stress axis : x y z
#
# Youngs Moduli (GPa) = 58.77177 93.40034 69.96855
#
# Poissons Ratio (x) = 0.44003 0.01823
# Poissons Ratio (y) = 0.27689 0.10507
# Poissons Ratio (z) = 0.01531 0.14025
#
# Static dielectric constant tensor:
#      x y z
#    x 1.649020 0.000000 0.000000 
#    y 0.000000 1.699620 0.000000 
#    z 0.000000 0.000000 1.683460 
# 
# From -- ./inp_files/17332.got.cif
#   From: 2010.05.17/outbox.cif.g08.bks.cpg/sg55_9_cif.got.tgz:17332.got - 2010.06.03 13:27:54.
