data_PCOD9427214
_publ_section_title
;
Structure prediction by ZEFSAII (Michael W. Deem and Ramdas Pophale) SiO2 
 PCOD9427214
Probable space group: P B A M
;
_chemical_formula_sum "Si O2"
_cell_formula_units_Z 64
_cell_length_a 13.042453
_cell_length_b 28.790097
_cell_length_c 8.038690
_cell_angle_alpha 90.000000
_cell_angle_beta 90.000000
_cell_angle_gamma 90.000000
_cell_volume 3018.475739
_symmetry_space_group_name_H-M "P B A M"
_symmetry_group_IT_number 55
_symmetry_cell_setting 'orthorhombic'
loop_
_space_group_symop_operation_xyz
x,y,z
-x,-y,z
1/2+x,1/2-y,-z
1/2-x,1/2+y,-z
-x,-y,-z
x,y,-z
1/2-x,1/2+y,z
1/2+x,1/2-y,z
loop_
_atom_site_type_symbol
_atom_site_label
_atom_site_fract_x
_atom_site_fract_y
_atom_site_fract_z
Si Si1 0.936443 0.195737 0.201318
Si Si2 0.653146 0.792398 0.196117
Si Si3 0.907747 0.937995 0.189435
Si Si4 0.876381 0.091549 0.798826
Si Si5 0.651013 0.060226 0.300432
Si Si6 0.358610 0.661167 0.311579
Si Si7 0.187817 0.539620 0.697303
Si Si8 0.960145 0.379067 0.702267
O O1 0.873136 0.240652 0.254860
O O2 0.891792 0.145489 0.251003
O O3 0.050338 0.196811 0.274945
O O4 0.942694 0.196590 0.000000
O O5 0.750572 0.814857 0.284557
O O6 0.560421 0.828179 0.227205
O O7 0.675293 0.790458 0.000000
O O8 0.878651 0.883116 0.194976
O O9 0.809775 0.961296 0.273613
O O10 0.023811 0.938004 0.259386
O O11 0.910747 0.954870 0.000000
O O12 0.766695 0.074811 0.739056
O O13 0.879327 0.089755 0.000000
O O14 0.639170 0.058313 0.500000
O O15 0.565463 0.096507 0.242293
O O16 0.638358 0.007692 0.235014
O O17 0.364986 0.643183 0.500000
O O18 0.170731 0.540075 0.500000
O O19 0.131870 0.586205 0.758436
O O20 0.958568 0.375838 0.500000
#
# Coordination Sequence:
#
# PCOD9427214 Si02
#       8
#     8   8   8   8   8   8   8   8
#     4   9  21  40  59  81 112 152 193 234 288 349
#     4  11  22  37  60  87 115 150 193 238 288 346
#     4  10  20  36  59  84 113 148 192 240 286 340
#     4   9  20  39  58  79 112 153 192 236 290 347
#     4  10  22  38  57  83 118 157 193 236 293 353
#     4  11  21  35  57  84 114 147 185 236 290 339
#     4  10  20  36  59  85 114 153 195 239 293 347
#     4  10  21  38  58  83 117 153 195 242 290 343
#
# _framework density 21.202753999999999
#
# number of rings (size 3 to 8) (size 9 to 14) (size 15 to 20)
#    0.000    2.000    1.250    3.000    0.000    7.500 
#    0.000    6.250    0.000    2.250    0.000    0.000 
#    0.000    0.000    0.000    0.000    0.000    0.000 
#
# Total GULP energy -357409.375662 kJ/mol
# GULP energy per Si atom -5584.521495 kJ/mol
# Density = 2.115450 g / cm^3
# Si number density = 21.202754 Si / 1000 Ang^3
#
#
#
# Elastic Constant Matrix: (Units=GPa)
#
#
# Indices 1 2 3 4 5 6 
#
# 1 79.5817 6.2530 -4.5587 0.0000 0.0000 0.0000
# 2 6.2530 55.7924 -1.9568 0.0000 0.0000 0.0000
# 3 -4.5587 -1.9568 20.1163 0.0000 0.0000 0.0000
# 4 0.0000 0.0000 0.0000 14.6278 0.0000 0.0000
# 5 0.0000 0.0000 0.0000 0.0000 33.2835 0.0000
# 6 0.0000 0.0000 0.0000 0.0000 0.0000 23.4518
#
#
#
# Elastic Compliance Matrix: (Units=1/GPa)
#
#
# Indices 1 2 3 4 5 6 
#
# 1 0.012830 -0.001341 0.002777 0.000000 0.000000 0.000000
# 2 -0.001341 0.018125 0.001459 0.000000 0.000000 0.000000
# 3 0.002777 0.001459 0.050482 0.000000 0.000000 0.000000
# 4 0.000000 0.000000 0.000000 0.068363 0.000000 0.000000
# 5 0.000000 0.000000 0.000000 0.000000 0.030045 0.000000
# 6 0.000000 0.000000 0.000000 0.000000 0.000000 0.042641
#
#
# Mechanical properties :
#
#
# Convention : Reuss Voigt Hill
#
# Bulk Modulus (GPa) = 11.46406 17.21838 14.34122
# Shear Modulus (GPa) = 20.34417 24.65614 22.50016
#
# Velocity S-wave (km/s) = 3.10095 3.41379 3.26113
# Velocity P-wave (km/s) = 4.27081 4.86591 4.57804
#
# Compressibility (1/GPa) = 0.08722913
#
# Stress axis : x y z
#
# Youngs Moduli (GPa) = 77.94166 55.17238 19.80896
#
# Poissons Ratio (x) = 0.07396 -0.05501
# Poissons Ratio (y) = 0.10448 -0.02891
# Poissons Ratio (z) = -0.21645 -0.08052
#
# Static dielectric constant tensor:
#      x y z
#    x 1.766790 0.000000 0.000000 
#    y 0.000000 1.773020 0.000000 
#    z 0.000000 0.000000 1.770900 
# 
# From -- ./inp_files/4615.got.cif
#   From: 2010.05.17/outbox.cif.g08.bks.cpg/sg55_3_cif.got.tgz:4615.got - 2010.06.03 13:27:54.
