data_PCOD9427482
_publ_section_title
;
Structure prediction by ZEFSAII (Michael W. Deem and Ramdas Pophale) SiO2 
 PCOD9427482
Probable space group: P B A M
;
_chemical_formula_sum "Si O2"
_cell_formula_units_Z 48
_cell_length_a 15.162982
_cell_length_b 21.033756
_cell_length_c 7.586042
_cell_angle_alpha 90.000000
_cell_angle_beta 90.000000
_cell_angle_gamma 90.000000
_cell_volume 2419.450236
_symmetry_space_group_name_H-M "P B A M"
_symmetry_group_IT_number 55
_symmetry_cell_setting 'orthorhombic'
loop_
_space_group_symop_operation_xyz
x,y,z
-x,-y,z
1/2+x,1/2-y,-z
1/2-x,1/2+y,-z
-x,-y,-z
x,y,-z
1/2-x,1/2+y,z
1/2+x,1/2-y,z
loop_
_atom_site_type_symbol
_atom_site_label
_atom_site_fract_x
_atom_site_fract_y
_atom_site_fract_z
Si Si1 0.275720 0.258121 0.214368
Si Si2 0.755749 0.596259 0.796881
Si Si3 0.953135 0.563083 0.704136
Si Si4 0.908656 0.801475 0.790038
Si Si5 0.458584 0.598818 0.500000
Si Si6 0.146626 0.970241 0.500000
Si Si7 0.046751 0.690086 0.211136
O O1 0.263968 0.331611 0.267672
O O2 0.190330 0.217320 0.262124
O O3 0.364095 0.223499 0.276354
O O4 0.278135 0.260051 0.000000
O O5 0.860620 0.583173 0.790455
O O6 0.704320 0.548346 0.670079
O O7 0.726381 0.590879 0.000000
O O8 0.931459 0.550140 0.500000
O O9 0.000000 0.500000 0.777871
O O10 0.020226 0.622021 0.714500
O O11 0.944184 0.858254 0.672217
O O12 0.967980 0.739430 0.756422
O O13 0.912416 0.815023 0.000000
O O14 0.556881 0.570893 0.500000
O O15 0.387382 0.542227 0.500000
O O16 0.054579 0.682187 0.000000
#
# Coordination Sequence:
#
# PCOD9427482 Si02
#       7
#     8   8   8   8   4   4   8
#     4   9  19  36  62  96 127 162 214 269 318 380
#     4  11  22  43  70  92 126 174 213 260 326 385
#     4  11  24  41  61  93 135 171 216 267 320 392
#     4  10  21  40  64  93 127 163 211 268 322 381
#     4  11  26  43  64  90 129 167 209 269 326 363
#     4  11  26  45  61  94 128 163 220 265 302 397
#     4  10  20  37  62  94 128 163 216 270 321 386
#
# _framework density 19.839217999999999
#
# number of rings (size 3 to 8) (size 9 to 14) (size 15 to 20)
#    0.000    1.667    2.500    1.500    1.167    6.000 
#    3.000    3.333    0.000    0.000    0.000    0.000 
#    0.000    0.000    0.000    0.000    0.000    0.000 
#
# Total GULP energy -268264.516355 kJ/mol
# GULP energy per Si atom -5588.844091 kJ/mol
# Density = 1.979406 g / cm^3
# Si number density = 19.839218 Si / 1000 Ang^3
#
#
#
# Elastic Constant Matrix: (Units=GPa)
#
#
# Indices 1 2 3 4 5 6 
#
# 1 112.2913 44.0755 17.6658 0.0000 0.0000 0.0000
# 2 44.0755 129.2202 36.0141 0.0000 0.0000 0.0000
# 3 17.6658 36.0141 67.9926 0.0000 0.0000 0.0000
# 4 0.0000 0.0000 0.0000 29.2037 0.0000 0.0000
# 5 0.0000 0.0000 0.0000 0.0000 16.5919 0.0000
# 6 0.0000 0.0000 0.0000 0.0000 0.0000 37.9087
#
#
#
# Elastic Compliance Matrix: (Units=1/GPa)
#
#
# Indices 1 2 3 4 5 6 
#
# 1 0.010335 -0.003258 -0.000960 0.000000 0.000000 0.000000
# 2 -0.003258 0.010106 -0.004506 0.000000 0.000000 0.000000
# 3 -0.000960 -0.004506 0.017344 0.000000 0.000000 0.000000
# 4 0.000000 0.000000 0.000000 0.034242 0.000000 0.000000
# 5 0.000000 0.000000 0.000000 0.000000 0.060270 0.000000
# 6 0.000000 0.000000 0.000000 0.000000 0.000000 0.026379
#
#
# Mechanical properties :
#
#
# Convention : Reuss Voigt Hill
#
# Bulk Modulus (GPa) = 49.17139 56.11274 52.64206
# Shear Modulus (GPa) = 27.33685 30.85743 29.09714
#
# Velocity S-wave (km/s) = 3.71606 3.94810 3.83384
# Velocity P-wave (km/s) = 6.57654 7.00917 6.79630
#
# Compressibility (1/GPa) = 0.02033703
#
# Stress axis : x y z
#
# Youngs Moduli (GPa) = 96.75789 98.95269 57.65755
#
# Poissons Ratio (x) = 0.32236 0.05534
# Poissons Ratio (y) = 0.31521 0.25983
# Poissons Ratio (z) = 0.09286 0.44592
#
# Static dielectric constant tensor:
#      x y z
#    x 1.683020 0.000000 0.000000 
#    y 0.000000 1.664600 0.000000 
#    z 0.000000 0.000000 1.722000 
# 
# From -- ./inp_files/5698.got.cif
#   From: 2010.05.17/outbox.cif.g08.bks.cpg/sg55_3_cif.got.tgz:5698.got - 2010.06.03 13:27:54.
