data_PCOD9427195
_publ_section_title
;
Structure prediction by ZEFSAII (Michael W. Deem and Ramdas Pophale) SiO2 
 PCOD9427195
Probable space group: P B A M
;
_chemical_formula_sum "Si O2"
_cell_formula_units_Z 56
_cell_length_a 21.884727
_cell_length_b 14.883204
_cell_length_c 8.604416
_cell_angle_alpha 90.000000
_cell_angle_beta 90.000000
_cell_angle_gamma 90.000000
_cell_volume 2802.586122
_symmetry_space_group_name_H-M "P B A M"
_symmetry_group_IT_number 55
_symmetry_cell_setting 'orthorhombic'
loop_
_space_group_symop_operation_xyz
x,y,z
-x,-y,z
1/2+x,1/2-y,-z
1/2-x,1/2+y,-z
-x,-y,-z
x,y,-z
1/2-x,1/2+y,z
1/2+x,1/2-y,z
loop_
_atom_site_type_symbol
_atom_site_label
_atom_site_fract_x
_atom_site_fract_y
_atom_site_fract_z
Si Si1 0.431137 0.591641 0.814606
Si Si2 0.801434 0.418697 0.812525
Si Si3 0.088138 0.712054 0.814506
Si Si4 0.663977 0.109481 0.314441
Si Si5 0.522483 0.100945 0.313015
Si Si6 0.566657 0.599141 0.316655
Si Si7 0.812722 0.798789 0.187311
O O1 0.411437 0.489935 0.772879
O O2 0.494868 0.608104 0.727765
O O3 0.378278 0.660205 0.766673
O O4 0.441425 0.598375 0.000000
O O5 0.860432 0.359745 0.765778
O O6 0.806396 0.518216 0.746478
O O7 0.740973 0.365640 0.762419
O O8 0.801402 0.424016 0.000000
O O9 0.097606 0.808793 0.737156
O O10 0.022859 0.671469 0.765532
O O11 0.090486 0.722505 0.000000
O O12 0.664659 0.108860 0.500000
O O13 0.592671 0.111132 0.263431
O O14 0.695052 0.199436 0.252582
O O15 0.518791 0.112111 0.500000
O O16 0.500000 0.000000 0.275893
O O17 0.572910 0.585698 0.500000
O O18 0.811608 0.794876 0.000000
#
# Coordination Sequence:
#
# PCOD9427195 Si02
#       7
#     8   8   8   8   8   8   8
#     4  10  20  38  62  87 114 148 196 244 285 342
#     4  10  23  42  61  83 115 155 197 241 287 340
#     4  11  22  36  58  87 117 153 199 243 286 346
#     4  11  23  39  62  90 120 154 193 242 296 353
#     4  10  20  36  58  86 122 156 186 235 304 359
#     4  11  22  36  58  86 121 155 186 236 298 351
#     4  10  23  42  63  85 115 157 199 242 291 345
#
# _framework density 19.981546000000002
#
# number of rings (size 3 to 8) (size 9 to 14) (size 15 to 20)
#    0.000    1.571    1.429    4.286    0.000    7.143 
#    0.000    5.714    0.000    0.000    0.000    0.000 
#    0.000    0.000    0.000    0.000    0.000    0.000 
#
# Total GULP energy -313150.884996 kJ/mol
# GULP energy per Si atom -5591.980089 kJ/mol
# Density = 1.993607 g / cm^3
# Si number density = 19.981546 Si / 1000 Ang^3
#
#
#
# Elastic Constant Matrix: (Units=GPa)
#
#
# Indices 1 2 3 4 5 6 
#
# 1 55.1747 35.8871 7.2474 0.0000 0.0000 0.0000
# 2 35.8871 139.5932 9.7870 0.0000 0.0000 0.0000
# 3 7.2474 9.7870 18.4479 0.0000 0.0000 0.0000
# 4 0.0000 0.0000 0.0000 -1.9169 0.0000 0.0000
# 5 0.0000 0.0000 0.0000 0.0000 8.3524 0.0000
# 6 0.0000 0.0000 0.0000 0.0000 0.0000 23.4081
#
#
#
# Elastic Compliance Matrix: (Units=1/GPa)
#
#
# Indices 1 2 3 4 5 6 
#
# 1 0.022377 -0.005335 -0.005961 0.000000 0.000000 0.000000
# 2 -0.005335 0.008712 -0.002526 0.000000 0.000000 0.000000
# 3 -0.005961 -0.002526 0.057889 0.000000 0.000000 0.000000
# 4 0.000000 0.000000 0.000000 -0.521680 0.000000 0.000000
# 5 0.000000 0.000000 0.000000 0.000000 0.119727 0.000000
# 6 0.000000 0.000000 0.000000 0.000000 0.000000 0.042720
#
#
# Mechanical properties :
#
#
# Convention : Reuss Voigt Hill
#
# Bulk Modulus (GPa) = 16.30407 35.45097 25.87752
# Shear Modulus (GPa) = -22.50566 16.65502 -2.92532
#
# Velocity S-wave (km/s) = -3.35971 2.89021 -1.21128
# Velocity P-wave (km/s) = 2.62163 5.37755 3.32003
#
# Compressibility (1/GPa) = 0.06133440
#
# Stress axis : x y z
#
# Youngs Moduli (GPa) = 44.68842 114.78032 17.27457
#
# Poissons Ratio (x) = 0.61234 0.10297
# Poissons Ratio (y) = 0.23841 0.04364
# Poissons Ratio (z) = 0.26637 0.28996
#
# Static dielectric constant tensor:
#      x y z
#    x 1.701270 0.000000 0.000000 
#    y 0.000000 1.690390 0.000000 
#    z 0.000000 0.000000 1.667830 
# 
# From -- ./inp_files/8774.got.cif
#   From: 2010.05.17/outbox.cif.g08.bks.cpg/sg55_5_cif.got.tgz:8774.got - 2010.06.03 13:27:54.
