data_PCOD9427185
_publ_section_title
;
Structure prediction by ZEFSAII (Michael W. Deem and Ramdas Pophale) SiO2 
 PCOD9427185
Probable space group: P B A M
;
_chemical_formula_sum "Si O2"
_cell_formula_units_Z 56
_cell_length_a 9.090681
_cell_length_b 13.361480
_cell_length_c 22.444457
_cell_angle_alpha 90.000000
_cell_angle_beta 90.000000
_cell_angle_gamma 90.000000
_cell_volume 2726.214900
_symmetry_space_group_name_H-M "P B A M"
_symmetry_group_IT_number 55
_symmetry_cell_setting 'orthorhombic'
loop_
_space_group_symop_operation_xyz
x,y,z
-x,-y,z
1/2+x,1/2-y,-z
1/2-x,1/2+y,-z
-x,-y,-z
x,y,-z
1/2-x,1/2+y,z
1/2+x,1/2-y,z
loop_
_atom_site_type_symbol
_atom_site_label
_atom_site_fract_x
_atom_site_fract_y
_atom_site_fract_z
Si Si1 0.513527 0.743084 0.570932
Si Si2 0.589626 0.896140 0.069643
Si Si3 0.278919 0.875871 0.771559
Si Si4 0.711793 0.125012 0.369564
Si Si5 0.850296 0.945328 0.152166
Si Si6 0.983752 0.252984 0.174688
Si Si7 0.337741 0.549543 0.565958
O O1 0.536349 0.760519 0.500000
O O2 0.656383 0.689504 0.599044
O O3 0.445458 0.836522 0.606241
O O4 0.379331 0.663263 0.576785
O O5 0.747956 0.922686 0.096418
O O6 0.533239 0.802939 0.109489
O O7 0.500000 0.000000 0.077848
O O8 0.589886 0.871566 0.000000
O O9 0.267066 0.869990 0.700865
O O10 0.443932 0.842724 0.788034
O O11 0.165515 0.795923 0.800863
O O12 0.232866 0.982242 0.800796
O O13 0.739764 0.010649 0.388633
O O14 0.904212 0.839981 0.177815
O O15 0.000000 0.000000 0.133804
O O16 0.500000 0.500000 0.565575
O O17 0.273865 0.536961 0.500000
#
# Coordination Sequence:
#
# PCOD9427185 Si02
#       7
#     8   8   8   8   8   8   8
#     4  10  20  36  58  84 117 154 204 263 317 367
#     4  11  23  42  69  97 126 167 216 260 317 384
#     4  11  23  38  62  89 128 170 218 267 322 395
#     4  11  21  35  58  89 114 159 208 254 309 384
#     4  10  23  42  65  95 131 170 211 265 321 378
#     4  11  22  42  62  91 128 172 206 266 330 371
#     4   8  16  32  53  76 109 150 191 241 300 361
#
# _framework density 20.5413
#
# number of rings (size 3 to 8) (size 9 to 14) (size 15 to 20)
#    0.000    1.714    2.857    3.000    0.000    7.143 
#    0.000    2.857    0.000    2.571    0.000    0.000 
#    0.000    0.000    0.000    0.000    0.000    0.000 
#
# Total GULP energy -312409.814093 kJ/mol
# GULP energy per Si atom -5578.746680 kJ/mol
# Density = 2.049455 g / cm^3
# Si number density = 20.541300 Si / 1000 Ang^3
#
#
#
# Elastic Constant Matrix: (Units=GPa)
#
#
# Indices 1 2 3 4 5 6 
#
# 1 29.9395 21.6610 12.9714 0.0000 0.0000 0.0000
# 2 21.6610 81.4760 41.8160 0.0000 0.0000 0.0000
# 3 12.9714 41.8160 110.8437 0.0000 0.0000 0.0000
# 4 0.0000 0.0000 0.0000 0.6659 0.0000 0.0000
# 5 0.0000 0.0000 0.0000 0.0000 19.8333 0.0000
# 6 0.0000 0.0000 0.0000 0.0000 0.0000 35.7263
#
#
#
# Elastic Compliance Matrix: (Units=1/GPa)
#
#
# Indices 1 2 3 4 5 6 
#
# 1 0.041421 -0.010571 -0.000859 0.000000 0.000000 0.000000
# 2 -0.010571 0.017918 -0.005523 0.000000 0.000000 0.000000
# 3 -0.000859 -0.005523 0.011206 0.000000 0.000000 0.000000
# 4 0.000000 0.000000 0.000000 1.501693 0.000000 0.000000
# 5 0.000000 0.000000 0.000000 0.000000 0.050420 0.000000
# 6 0.000000 0.000000 0.000000 0.000000 0.000000 0.027991
#
#
# Mechanical properties :
#
#
# Convention : Reuss Voigt Hill
#
# Bulk Modulus (GPa) = 27.29329 41.68400 34.48865
# Shear Modulus (GPa) = 2.94678 20.96582 11.95630
#
# Velocity S-wave (km/s) = 1.19903 3.19825 2.41521
# Velocity P-wave (km/s) = 3.90292 5.82883 4.96024
#
# Compressibility (1/GPa) = 0.03663904
#
# Stress axis : x y z
#
# Youngs Moduli (GPa) = 24.14229 55.80867 89.24023
#
# Poissons Ratio (x) = 0.58996 0.07669
# Poissons Ratio (y) = 0.25521 0.49284
# Poissons Ratio (z) = 0.02075 0.30821
#
# Static dielectric constant tensor:
#      x y z
#    x 1.774870 0.000000 0.000000 
#    y 0.000000 1.798650 0.000000 
#    z 0.000000 0.000000 1.679660 
# 
# From -- ./inp_files/22624.got.cif
#   From: 2010.05.17/outbox.cif.g08.bks.cpg/sg55_12_cif.got.tgz:22624.got - 2010.06.03 13:27:54.
