data_PCOD9427714
_publ_section_title
;
Structure prediction by ZEFSAII (Michael W. Deem and Ramdas Pophale) SiO2 
 PCOD9427714
Probable space group: P B A M
;
_chemical_formula_sum "Si O2"
_cell_formula_units_Z 40
_cell_length_a 18.601656
_cell_length_b 8.300830
_cell_length_c 12.825067
_cell_angle_alpha 90.000000
_cell_angle_beta 90.000000
_cell_angle_gamma 90.000000
_cell_volume 1980.308132
_symmetry_space_group_name_H-M "P B A M"
_symmetry_group_IT_number 55
_symmetry_cell_setting 'orthorhombic'
loop_
_space_group_symop_operation_xyz
x,y,z
-x,-y,z
1/2+x,1/2-y,-z
1/2-x,1/2+y,-z
-x,-y,-z
x,y,-z
1/2-x,1/2+y,z
1/2+x,1/2-y,z
loop_
_atom_site_type_symbol
_atom_site_label
_atom_site_fract_x
_atom_site_fract_y
_atom_site_fract_z
Si Si1 0.670523 0.640974 0.877249
Si Si2 0.171955 0.479888 0.821068
Si Si3 0.583882 0.948744 0.381838
Si Si4 0.050862 0.870205 0.282120
Si Si5 0.035505 0.322483 0.111133
O O1 0.747522 0.579297 0.837483
O O2 0.665131 0.835953 0.862597
O O3 0.611286 0.568121 0.798580
O O4 0.661240 0.603329 0.000000
O O5 0.137818 0.480427 0.704635
O O6 0.119491 0.358250 0.881285
O O7 0.603595 0.989931 0.500000
O O8 0.584604 0.757207 0.361020
O O9 0.500000 0.000000 0.366538
O O10 0.997136 0.774627 0.205356
O O11 0.000000 0.000000 0.335409
O O12 0.000000 0.500000 0.114605
O O13 0.016472 0.246630 0.000000
#
# Coordination Sequence:
#
# PCOD9427714 Si02
#       5
#     8   8   8   8   8
#     4  11  23  37  56  85 125 164 198 238 298 368
#     4  11  22  39  56  87 120 158 201 249 300 359
#     4  10  20  41  68  87 109 153 206 254 305 356
#     4  11  23  38  58  90 126 155 203 257 302 355
#     4  11  19  35  59  81 116 162 204 239 293 364
#
# _framework density 20.198878000000001
#
# number of rings (size 3 to 8) (size 9 to 14) (size 15 to 20)
#    0.000    1.200    6.000    2.400    2.800    2.000 
#    0.000    4.000    0.000    0.000    0.000    0.000 
#    0.000    0.000    0.000    0.000    0.000    0.000 
#
# Total GULP energy -223331.967666 kJ/mol
# GULP energy per Si atom -5583.299192 kJ/mol
# Density = 2.015290 g / cm^3
# Si number density = 20.198878 Si / 1000 Ang^3
#
#
#
# Elastic Constant Matrix: (Units=GPa)
#
#
# Indices 1 2 3 4 5 6 
#
# 1 111.5197 7.1063 13.9997 0.0000 0.0000 0.0000
# 2 7.1063 4.7525 -2.2761 0.0000 0.0000 0.0000
# 3 13.9997 -2.2761 113.1124 0.0000 0.0000 0.0000
# 4 0.0000 0.0000 0.0000 4.1178 0.0000 0.0000
# 5 0.0000 0.0000 0.0000 0.0000 14.3671 0.0000
# 6 0.0000 0.0000 0.0000 0.0000 0.0000 41.2528
#
#
#
# Elastic Compliance Matrix: (Units=1/GPa)
#
#
# Indices 1 2 3 4 5 6 
#
# 1 0.010184 -0.015986 -0.001582 0.000000 0.000000 0.000000
# 2 -0.015986 0.237556 0.006759 0.000000 0.000000 0.000000
# 3 -0.001582 0.006759 0.009173 0.000000 0.000000 0.000000
# 4 0.000000 0.000000 0.000000 0.242850 0.000000 0.000000
# 5 0.000000 0.000000 0.000000 0.000000 0.069604 0.000000
# 6 0.000000 0.000000 0.000000 0.000000 0.000000 0.024241
#
#
# Mechanical properties :
#
#
# Convention : Reuss Voigt Hill
#
# Bulk Modulus (GPa) = 4.25000 29.67159 16.96079
# Shear Modulus (GPa) = 7.20817 25.98450 16.59634
#
# Velocity S-wave (km/s) = 1.89112 3.59058 2.86955
# Velocity P-wave (km/s) = 2.62242 5.64901 4.40388
#
# Compressibility (1/GPa) = 0.23529410
#
# Stress axis : x y z
#
# Youngs Moduli (GPa) = 98.19031 4.20953 109.02046
#
# Poissons Ratio (x) = 0.06729 0.17249
# Poissons Ratio (y) = 1.56967 -0.73685
# Poissons Ratio (z) = 0.15535 -0.02845
#
# Static dielectric constant tensor:
#      x y z
#    x 1.740420 0.000000 0.000000 
#    y 0.000000 1.764110 0.000000 
#    z 0.000000 0.000000 1.709040 
# 
# From -- ./inp_files/19245.got.cif
#   From: 2010.05.17/outbox.cif.g08.bks.cpg/sg55_10_cif.got.tgz:19245.got - 2010.06.03 13:27:54.
