data_PCOD9427183
_publ_section_title
;
Structure prediction by ZEFSAII (Michael W. Deem and Ramdas Pophale) SiO2 
 PCOD9427183
Probable space group: P B A M
;
_chemical_formula_sum "Si O2"
_cell_formula_units_Z 56
_cell_length_a 22.106595
_cell_length_b 15.214074
_cell_length_c 7.703057
_cell_angle_alpha 90.000000
_cell_angle_beta 90.000000
_cell_angle_gamma 90.000000
_cell_volume 2590.779731
_symmetry_space_group_name_H-M "P B A M"
_symmetry_group_IT_number 55
_symmetry_cell_setting 'orthorhombic'
loop_
_space_group_symop_operation_xyz
x,y,z
-x,-y,z
1/2+x,1/2-y,-z
1/2-x,1/2+y,-z
-x,-y,-z
x,y,-z
1/2-x,1/2+y,z
1/2+x,1/2-y,z
loop_
_atom_site_type_symbol
_atom_site_label
_atom_site_fract_x
_atom_site_fract_y
_atom_site_fract_z
Si Si1 0.565603 0.525395 0.296134
Si Si2 0.407766 0.963798 0.211271
Si Si3 0.183995 0.050974 0.797431
Si Si4 0.223721 0.404635 0.788350
Si Si5 0.976682 0.360750 0.789828
Si Si6 0.109456 0.788934 0.703001
Si Si7 0.266313 0.213915 0.298774
O O1 0.500000 0.500000 0.222310
O O2 0.555661 0.543949 0.500000
O O3 0.617108 0.450951 0.282175
O O4 0.594284 0.615474 0.220860
O O5 0.340325 0.944159 0.268142
O O6 0.456050 0.889451 0.263816
O O7 0.433690 0.058111 0.265576
O O8 0.407948 0.964934 0.000000
O O9 0.225555 0.136962 0.779561
O O10 0.222920 0.968821 0.727264
O O11 0.174297 0.036232 0.000000
O O12 0.232671 0.306803 0.720824
O O13 0.224669 0.402419 0.000000
O O14 0.949412 0.271527 0.718945
O O15 0.975572 0.356264 0.000000
O O16 0.125065 0.801390 0.500000
O O17 0.166972 0.735371 0.778557
O O18 0.273446 0.189522 0.500000
#
# Coordination Sequence:
#
# PCOD9427183 Si02
#       7
#     8   8   8   8   8   8   8
#     4  10  22  42  64  84 117 162 203 247 301 364
#     4   8  16  32  53  81 113 146 184 231 288 344
#     4  11  23  39  62  91 121 153 198 256 306 360
#     4  10  20  36  58  84 115 148 189 242 293 346
#     4   9  17  32  56  80 109 149 188 228 283 348
#     4  10  21  37  56  82 114 150 196 243 291 352
#     4  11  23  38  59  84 115 155 197 243 297 362
#
# _framework density 21.615113000000001
#
# number of rings (size 3 to 8) (size 9 to 14) (size 15 to 20)
#    0.000    2.143    1.429    2.571    0.000    4.857 
#    0.000    5.714    0.000    0.000    0.000    0.000 
#    0.000    0.000    0.000    0.000    0.000    0.000 
#
# Total GULP energy -312677.703228 kJ/mol
# GULP energy per Si atom -5583.530415 kJ/mol
# Density = 2.156592 g / cm^3
# Si number density = 21.615113 Si / 1000 Ang^3
#
#
#
# Elastic Constant Matrix: (Units=GPa)
#
#
# Indices 1 2 3 4 5 6 
#
# 1 148.5502 45.8783 2.9613 0.0000 0.0000 0.0000
# 2 45.8783 90.1599 -1.6525 0.0000 0.0000 0.0000
# 3 2.9613 -1.6525 34.7812 0.0000 0.0000 0.0000
# 4 0.0000 0.0000 0.0000 16.4975 0.0000 0.0000
# 5 0.0000 0.0000 0.0000 0.0000 11.4991 0.0000
# 6 0.0000 0.0000 0.0000 0.0000 0.0000 26.8696
#
#
#
# Elastic Compliance Matrix: (Units=1/GPa)
#
#
# Indices 1 2 3 4 5 6 
#
# 1 0.008014 -0.004094 -0.000877 0.000000 0.000000 0.000000
# 2 -0.004094 0.013192 0.000975 0.000000 0.000000 0.000000
# 3 -0.000877 0.000975 0.028872 0.000000 0.000000 0.000000
# 4 0.000000 0.000000 0.000000 0.060615 0.000000 0.000000
# 5 0.000000 0.000000 0.000000 0.000000 0.086963 0.000000
# 6 0.000000 0.000000 0.000000 0.000000 0.000000 0.037217
#
#
# Mechanical properties :
#
#
# Convention : Reuss Voigt Hill
#
# Bulk Modulus (GPa) = 23.75997 40.87393 32.31695
# Shear Modulus (GPa) = 19.46334 26.06019 22.76176
#
# Velocity S-wave (km/s) = 3.00401 3.47601 3.24859
# Velocity P-wave (km/s) = 4.80086 5.92124 5.39024
#
# Compressibility (1/GPa) = 0.04208760
#
# Stress axis : x y z
#
# Youngs Moduli (GPa) = 124.78886 75.80102 34.63550
#
# Poissons Ratio (x) = 0.31031 0.03037
# Poissons Ratio (y) = 0.51086 -0.03378
# Poissons Ratio (z) = 0.10941 -0.07393
#
# Static dielectric constant tensor:
#      x y z
#    x 1.800310 0.000000 0.000000 
#    y 0.000000 1.763890 0.000000 
#    z 0.000000 0.000000 1.741280 
# 
# From -- ./inp_files/8780.got.cif
#   From: 2010.05.17/outbox.cif.g08.bks.cpg/sg55_5_cif.got.tgz:8780.got - 2010.06.03 13:27:54.
