data_PCOD9427257
_publ_section_title
;
Structure prediction by ZEFSAII (Michael W. Deem and Ramdas Pophale) SiO2 
 PCOD9427257
Probable space group: P B A M
;
_chemical_formula_sum "Si O2"
_cell_formula_units_Z 56
_cell_length_a 23.509789
_cell_length_b 13.582339
_cell_length_c 9.314850
_cell_angle_alpha 90.000000
_cell_angle_beta 90.000000
_cell_angle_gamma 90.000000
_cell_volume 2974.398565
_symmetry_space_group_name_H-M "P B A M"
_symmetry_group_IT_number 55
_symmetry_cell_setting 'orthorhombic'
loop_
_space_group_symop_operation_xyz
x,y,z
-x,-y,z
1/2+x,1/2-y,-z
1/2-x,1/2+y,-z
-x,-y,-z
x,y,-z
1/2-x,1/2+y,z
1/2+x,1/2-y,z
loop_
_atom_site_type_symbol
_atom_site_label
_atom_site_fract_x
_atom_site_fract_y
_atom_site_fract_z
Si Si1 0.175480 0.006451 0.168765
Si Si2 0.626531 0.795222 0.330490
Si Si3 0.964938 0.405636 0.831529
Si Si4 0.543552 0.289508 0.165849
Si Si5 0.931830 0.116069 0.831450
Si Si6 0.233337 0.825385 0.670692
Si Si7 0.839756 0.796950 0.329388
O O1 0.108216 0.978338 0.184344
O O2 0.210745 0.916709 0.237474
O O3 0.185102 0.106552 0.252794
O O4 0.187422 0.015258 0.000000
O O5 0.619336 0.806984 0.500000
O O6 0.593704 0.882399 0.249917
O O7 0.595321 0.696808 0.273426
O O8 0.692270 0.769077 0.300636
O O9 0.005503 0.309544 0.820374
O O10 0.000000 0.500000 0.778126
O O11 0.952560 0.420598 0.000000
O O12 0.499150 0.378698 0.194564
O O13 0.597238 0.283314 0.267987
O O14 0.562758 0.297710 0.000000
O O15 0.925100 0.147358 0.000000
O O16 0.272629 0.347289 0.500000
O O17 0.297639 0.793819 0.701540
O O18 0.840797 0.811310 0.500000
#
# Coordination Sequence:
#
# PCOD9427257 Si02
#       7
#     8   8   8   8   8   8   8
#     4  10  20  36  60  85 106 137 185 232 275 327
#     4   9  16  29  52  77  99 131 178 223 261 312
#     4   9  18  34  54  77 109 145 177 220 279 331
#     4   9  18  34  54  77 109 143 180 225 272 325
#     4   8  16  32  54  78 106 137 167 212 272 324
#     4   9  20  39  57  75 107 148 183 224 275 328
#     4  11  23  38  55  78 115 153 183 223 278 331
#
# _framework density 18.827335000000001
#
# number of rings (size 3 to 8) (size 9 to 14) (size 15 to 20)
#    0.000    2.714    0.000    2.143    0.000    5.429 
#    2.571    2.857    0.000    0.000    0.000    0.000 
#    0.000    0.000    0.000    0.000    0.000    0.000 
#
# Total GULP energy -312154.154316 kJ/mol
# GULP energy per Si atom -5574.181327 kJ/mol
# Density = 1.878448 g / cm^3
# Si number density = 18.827335 Si / 1000 Ang^3
#
#
#
# Elastic Constant Matrix: (Units=GPa)
#
#
# Indices 1 2 3 4 5 6 
#
# 1 80.5308 7.8695 43.4090 0.0000 0.0000 0.0000
# 2 7.8695 40.5366 17.2013 0.0000 0.0000 0.0000
# 3 43.4090 17.2013 57.5383 0.0000 0.0000 0.0000
# 4 0.0000 0.0000 0.0000 23.2781 0.0000 0.0000
# 5 0.0000 0.0000 0.0000 0.0000 27.6482 0.0000
# 6 0.0000 0.0000 0.0000 0.0000 0.0000 24.8131
#
#
#
# Elastic Compliance Matrix: (Units=1/GPa)
#
#
# Indices 1 2 3 4 5 6 
#
# 1 0.021257 0.003068 -0.016954 0.000000 0.000000 0.000000
# 2 0.003068 0.028696 -0.010893 0.000000 0.000000 0.000000
# 3 -0.016954 -0.010893 0.033427 0.000000 0.000000 0.000000
# 4 0.000000 0.000000 0.000000 0.042959 0.000000 0.000000
# 5 0.000000 0.000000 0.000000 0.000000 0.036169 0.000000
# 6 0.000000 0.000000 0.000000 0.000000 0.000000 0.040301
#
#
# Mechanical properties :
#
#
# Convention : Reuss Voigt Hill
#
# Bulk Modulus (GPa) = 29.56764 35.06281 32.31522
# Shear Modulus (GPa) = 18.96526 22.48960 20.72743
#
# Velocity S-wave (km/s) = 3.17728 3.45993 3.32161
# Velocity P-wave (km/s) = 5.40360 5.88432 5.64908
#
# Compressibility (1/GPa) = 0.03382076
#
# Stress axis : x y z
#
# Youngs Moduli (GPa) = 47.04442 34.84817 29.91618
#
# Poissons Ratio (x) = -0.10690 0.50719
# Poissons Ratio (y) = -0.14431 0.32588
# Poissons Ratio (z) = 0.79758 0.37960
#
# Static dielectric constant tensor:
#      x y z
#    x 1.680600 0.000000 0.000000 
#    y 0.000000 1.663360 0.000000 
#    z 0.000000 0.000000 1.621990 
# 
# From -- ./inp_files/8700.got.cif
#   From: 2010.05.17/outbox.cif.g08.bks.cpg/sg55_5_cif.got.tgz:8700.got - 2010.06.03 13:27:54.
