data_PCOD9427864
_publ_section_title
;
Structure prediction by ZEFSAII (Michael W. Deem and Ramdas Pophale) SiO2 
 PCOD9427864
Probable space group: P B A M
;
_chemical_formula_sum "Si O2"
_cell_formula_units_Z 56
_cell_length_a 5.006430
_cell_length_b 16.740376
_cell_length_c 33.683481
_cell_angle_alpha 90.000000
_cell_angle_beta 90.000000
_cell_angle_gamma 90.000000
_cell_volume 2822.996395
_symmetry_space_group_name_H-M "P B A M"
_symmetry_group_IT_number 55
_symmetry_cell_setting 'orthorhombic'
loop_
_space_group_symop_operation_xyz
x,y,z
-x,-y,z
1/2+x,1/2-y,-z
1/2-x,1/2+y,-z
-x,-y,-z
x,y,-z
1/2-x,1/2+y,z
1/2+x,1/2-y,z
loop_
_atom_site_type_symbol
_atom_site_label
_atom_site_fract_x
_atom_site_fract_y
_atom_site_fract_z
Si Si1 0.446372 0.197422 0.189412
Si Si2 0.742337 0.555642 0.955046
Si Si3 0.033408 0.406432 0.732971
Si Si4 0.760179 0.555130 0.454711
Si Si5 0.931868 0.195756 0.398056
Si Si6 0.444514 0.805327 0.898215
Si Si7 0.471139 0.594122 0.679878
O O1 0.139257 0.225018 0.190631
O O2 0.491923 0.143982 0.227685
O O3 0.537266 0.161616 0.147014
O O4 0.500000 0.500000 0.939978
O O5 0.833196 0.628111 0.927536
O O6 0.000000 0.500000 0.957853
O O7 0.668775 0.582710 0.000000
O O8 0.822390 0.389092 0.697428
O O9 0.000000 0.500000 0.742003
O O10 0.326704 0.392563 0.716000
O O11 0.500000 0.500000 0.456303
O O12 0.837096 0.577851 0.500000
O O13 0.674679 0.631410 0.429559
O O14 0.000000 0.500000 0.437957
O O15 0.730269 0.270113 0.402079
O O16 0.938900 0.150430 0.355891
O O17 0.739367 0.768679 0.903511
O O18 0.500000 0.500000 0.668215
#
# Coordination Sequence:
#
# PCOD9427864 Si02
#       7
#     8   8   8   8   8   8   8
#     4  10  21  36  55  79 110 145 180 229 286 339
#     4  10  21  37  57  83 114 148 188 237 291 341
#     4  10  21  37  57  81 107 144 193 237 280 336
#     4  10  22  42  66  88 116 160 202 234 284 352
#     4  12  25  38  59  92 122 150 190 242 294 339
#     4  10  21  37  56  82 113 148 190 230 281 347
#     4  10  22  39  57  79 113 153 191 233 282 344
#
# _framework density 19.837078000000002
#
# number of rings (size 3 to 8) (size 9 to 14) (size 15 to 20)
#    0.000    1.714    0.000    3.857    0.000    6.857 
#    0.000    2.143    0.000    0.000    0.000    0.000 
#    0.000    0.000    0.000    0.000    0.000    0.000 
#
# Total GULP energy -312539.165478 kJ/mol
# GULP energy per Si atom -5581.056526 kJ/mol
# Density = 1.979193 g / cm^3
# Si number density = 19.837078 Si / 1000 Ang^3
#
#
#
# Elastic Constant Matrix: (Units=GPa)
#
#
# Indices 1 2 3 4 5 6 
#
# 1 76.8786 -3.3834 -18.1164 0.0000 0.0000 0.0000
# 2 -3.3834 54.4186 47.8876 0.0000 0.0000 0.0000
# 3 -18.1164 47.8876 72.6032 0.0000 0.0000 0.0000
# 4 0.0000 0.0000 0.0000 39.6069 0.0000 0.0000
# 5 0.0000 0.0000 0.0000 0.0000 17.0865 0.0000
# 6 0.0000 0.0000 0.0000 0.0000 0.0000 32.9177
#
#
#
# Elastic Compliance Matrix: (Units=1/GPa)
#
#
# Indices 1 2 3 4 5 6 
#
# 1 0.014462 -0.005426 0.007187 0.000000 0.000000 0.000000
# 2 -0.005426 0.045832 -0.031584 0.000000 0.000000 0.000000
# 3 0.007187 -0.031584 0.036399 0.000000 0.000000 0.000000
# 4 0.000000 0.000000 0.000000 0.025248 0.000000 0.000000
# 5 0.000000 0.000000 0.000000 0.000000 0.058526 0.000000
# 6 0.000000 0.000000 0.000000 0.000000 0.000000 0.030379
#
#
# Mechanical properties :
#
#
# Convention : Reuss Voigt Hill
#
# Bulk Modulus (GPa) = 26.99094 28.51956 27.75525
# Shear Modulus (GPa) = 17.67788 29.75638 23.71713
#
# Velocity S-wave (km/s) = 2.98846 3.87723 3.46149
# Velocity P-wave (km/s) = 5.05408 5.86959 5.47703
#
# Compressibility (1/GPa) = 0.03704948
#
# Stress axis : x y z
#
# Youngs Moduli (GPa) = 69.14458 21.81888 27.47340
#
# Poissons Ratio (x) = 0.11838 -0.19746
# Poissons Ratio (y) = 0.37515 0.86771
# Poissons Ratio (z) = -0.49697 0.68912
#
# Static dielectric constant tensor:
#      x y z
#    x 1.746560 0.000000 0.000000 
#    y 0.000000 1.680780 0.000000 
#    z 0.000000 0.000000 1.706370 
# 
# From -- ./inp_files/24077.got.cif
#   From: 2010.05.17/outbox.cif.g08.bks.cpg/sg55_13_cif.got.tgz:24077.got - 2010.06.03 13:27:54.
