data_PCOD9427161
_publ_section_title
;
Structure prediction by ZEFSAII (Michael W. Deem and Ramdas Pophale) SiO2 
 PCOD9427161
Probable space group: P B A M
;
_chemical_formula_sum "Si O2"
_cell_formula_units_Z 64
_cell_length_a 18.995224
_cell_length_b 20.426367
_cell_length_c 7.538174
_cell_angle_alpha 90.000000
_cell_angle_beta 90.000000
_cell_angle_gamma 90.000000
_cell_volume 2924.837267
_symmetry_space_group_name_H-M "P B A M"
_symmetry_group_IT_number 55
_symmetry_cell_setting 'orthorhombic'
loop_
_space_group_symop_operation_xyz
x,y,z
-x,-y,z
1/2+x,1/2-y,-z
1/2-x,1/2+y,-z
-x,-y,-z
x,y,-z
1/2-x,1/2+y,z
1/2+x,1/2-y,z
loop_
_atom_site_type_symbol
_atom_site_label
_atom_site_fract_x
_atom_site_fract_y
_atom_site_fract_z
Si Si1 0.237429 0.615735 0.205238
Si Si2 0.402302 0.180459 0.206780
Si Si3 0.945487 0.055828 0.782993
Si Si4 0.829657 0.628179 0.713687
Si Si5 0.019303 0.426585 0.715316
Si Si6 0.492708 0.300263 0.215396
Si Si7 0.344754 0.725430 0.292260
Si Si8 0.289173 0.477233 0.788603
O O1 0.169817 0.652296 0.286049
O O2 0.302886 0.665250 0.208401
O O3 0.258374 0.545568 0.284308
O O4 0.218079 0.602288 0.000000
O O5 0.461175 0.124378 0.219756
O O6 0.437402 0.246074 0.281844
O O7 0.387770 0.195400 0.000000
O O8 0.866799 0.039719 0.720709
O O9 0.971117 0.127348 0.726618
O O10 0.945032 0.056452 0.000000
O O11 0.000000 0.000000 0.727609
O O12 0.833765 0.631676 0.500000
O O13 0.903278 0.596188 0.774718
O O14 0.823492 0.702886 0.778801
O O15 0.765019 0.581665 0.760279
O O16 0.018280 0.425211 0.500000
O O17 0.000000 0.500000 0.771732
O O18 0.571613 0.282387 0.271579
O O19 0.492653 0.298849 0.000000
O O20 0.327307 0.723239 0.500000
O O21 0.297492 0.486442 0.000000
#
# Coordination Sequence:
#
# PCOD9427161 Si02
#       8
#     8   8   8   8   8   8   8   8
#     4  10  22  39  59  87 119 149 191 242 291 349
#     4  10  21  35  55  85 116 147 187 239 288 336
#     4   9  18  34  58  85 113 146 188 235 287 345
#     4  10  22  38  54  81 118 152 191 237 283 344
#     4  10  20  36  58  80 110 153 191 227 280 340
#     4  10  20  36  58  83 111 148 190 239 293 339
#     4  11  23  39  59  84 115 156 197 236 289 349
#     4  10  21  37  61  89 115 151 194 239 293 351
#
# _framework density 21.881557999999998
#
# number of rings (size 3 to 8) (size 9 to 14) (size 15 to 20)
#    0.000    2.000    1.250    1.875    1.750    4.750 
#    0.000    0.625    0.000    1.500    0.000    0.000 
#    0.000    0.000    0.000    0.000    0.000    0.000 
#
# Total GULP energy -357748.713159 kJ/mol
# GULP energy per Si atom -5589.823643 kJ/mol
# Density = 2.183175 g / cm^3
# Si number density = 21.881558 Si / 1000 Ang^3
#
#
#
# Elastic Constant Matrix: (Units=GPa)
#
#
# Indices 1 2 3 4 5 6 
#
# 1 143.8505 83.0433 -8.4616 0.0000 0.0000 0.0000
# 2 83.0433 199.1788 -6.1039 0.0000 0.0000 0.0000
# 3 -8.4616 -6.1039 50.9471 0.0000 0.0000 0.0000
# 4 0.0000 0.0000 0.0000 -12.3831 0.0000 0.0000
# 5 0.0000 0.0000 0.0000 0.0000 20.4235 0.0000
# 6 0.0000 0.0000 0.0000 0.0000 0.0000 38.3301
#
#
#
# Elastic Compliance Matrix: (Units=1/GPa)
#
#
# Indices 1 2 3 4 5 6 
#
# 1 0.009213 -0.003808 0.001074 0.000000 0.000000 0.000000
# 2 -0.003808 0.006613 0.000160 0.000000 0.000000 0.000000
# 3 0.001074 0.000160 0.019826 0.000000 0.000000 0.000000
# 4 0.000000 0.000000 0.000000 -0.080755 0.000000 0.000000
# 5 0.000000 0.000000 0.000000 0.000000 0.048963 0.000000
# 6 0.000000 0.000000 0.000000 0.000000 0.000000 0.026089
#
#
# Mechanical properties :
#
#
# Convention : Reuss Voigt Hill
#
# Bulk Modulus (GPa) = 32.78353 58.99246 45.88799
# Shear Modulus (GPa) = 110.45708 30.97402 70.71555
#
# Velocity S-wave (km/s) = 7.11260 3.76644 5.69101
# Velocity P-wave (km/s) = 9.08113 6.77740 8.01249
#
# Compressibility (1/GPa) = 0.03050312
#
# Stress axis : x y z
#
# Youngs Moduli (GPa) = 108.53771 151.20937 50.43954
#
# Poissons Ratio (x) = 0.57587 -0.05417
# Poissons Ratio (y) = 0.41336 -0.00806
# Poissons Ratio (z) = -0.11656 -0.02416
#
# Static dielectric constant tensor:
#      x y z
#    x 1.747200 0.000000 0.000000 
#    y 0.000000 1.764380 0.000000 
#    z 0.000000 0.000000 1.910520 
# 
# From -- ./inp_files/8043.got.cif
#   From: 2010.05.17/outbox.cif.g08.bks.cpg/sg55_5_cif.got.tgz:8043.got - 2010.06.03 13:27:54.
