data_PCOD9427507
_publ_section_title
;
Structure prediction by ZEFSAII (Michael W. Deem and Ramdas Pophale) SiO2 
 PCOD9427507
Probable space group: P B A M
;
_chemical_formula_sum "Si O2"
_cell_formula_units_Z 56
_cell_length_a 19.246903
_cell_length_b 11.163994
_cell_length_c 12.689292
_cell_angle_alpha 90.000000
_cell_angle_beta 90.000000
_cell_angle_gamma 90.000000
_cell_volume 2726.577479
_symmetry_space_group_name_H-M "P B A M"
_symmetry_group_IT_number 55
_symmetry_cell_setting 'orthorhombic'
loop_
_space_group_symop_operation_xyz
x,y,z
-x,-y,z
1/2+x,1/2-y,-z
1/2-x,1/2+y,-z
-x,-y,-z
x,y,-z
1/2-x,1/2+y,z
1/2+x,1/2-y,z
loop_
_atom_site_type_symbol
_atom_site_label
_atom_site_fract_x
_atom_site_fract_y
_atom_site_fract_z
Si Si1 0.057422 0.603995 0.170010
Si Si2 0.131783 0.638281 0.616741
Si Si3 0.854815 0.802146 0.122011
Si Si4 0.726603 0.446736 0.284328
Si Si5 0.189283 0.461285 0.112673
Si Si6 0.495867 0.369289 0.180351
Si Si7 0.898672 0.086886 0.380850
O O1 0.075325 0.602783 0.295127
O O2 0.132294 0.565960 0.123414
O O3 0.037037 0.741745 0.140207
O O4 0.000000 0.500000 0.145629
O O5 0.111378 0.597989 0.500000
O O6 0.208179 0.590511 0.645354
O O7 0.135985 0.781901 0.617395
O O8 0.793012 0.848385 0.195877
O O9 0.853680 0.660208 0.114876
O O10 0.923554 0.838194 0.184191
O O11 0.854127 0.846318 0.000000
O O12 0.756874 0.548407 0.207391
O O13 0.659979 0.491751 0.347397
O O14 0.225499 0.470992 0.000000
O O15 0.500000 0.500000 0.123059
O O16 0.456379 0.398446 0.289721
O O17 0.924082 0.062579 0.500000
#
# Coordination Sequence:
#
# PCOD9427507 Si02
#       7
#     8   8   8   8   8   8   8
#     4  10  20  37  64  87 117 158 199 247 296 352
#     4   9  20  36  57  86 118 151 193 245 297 350
#     4  11  23  39  60  87 120 156 201 253 300 357
#     4  11  20  38  60  85 119 158 198 245 302 355
#     4  10  22  39  62  90 120 158 204 247 299 364
#     4  11  22  41  60  88 123 159 200 255 303 349
#     4  10  21  38  60  85 119 159 198 244 301 366
#
# _framework density 20.538568000000001
#
# number of rings (size 3 to 8) (size 9 to 14) (size 15 to 20)
#    0.000    1.714    2.857    1.714    0.000    1.714 
#    0.000    0.000    0.000    0.857    0.000    0.000 
#    0.000    0.000    0.000    0.000    0.000    0.000 
#
# Total GULP energy -311759.984477 kJ/mol
# GULP energy per Si atom -5567.142580 kJ/mol
# Density = 2.049182 g / cm^3
# Si number density = 20.538568 Si / 1000 Ang^3
#
#
#
# Elastic Constant Matrix: (Units=GPa)
#
#
# Indices 1 2 3 4 5 6 
#
# 1 42.3740 22.6499 4.5407 0.0000 0.0000 0.0000
# 2 22.6499 96.9488 14.2795 0.0000 0.0000 0.0000
# 3 4.5407 14.2795 85.0336 0.0000 0.0000 0.0000
# 4 0.0000 0.0000 0.0000 74.0607 0.0000 0.0000
# 5 0.0000 0.0000 0.0000 0.0000 -50.2351 0.0000
# 6 0.0000 0.0000 0.0000 0.0000 0.0000 39.7554
#
#
#
# Elastic Compliance Matrix: (Units=1/GPa)
#
#
# Indices 1 2 3 4 5 6 
#
# 1 0.026980 -0.006245 -0.000392 0.000000 0.000000 0.000000
# 2 -0.006245 0.012022 -0.001685 0.000000 0.000000 0.000000
# 3 -0.000392 -0.001685 0.012064 0.000000 0.000000 0.000000
# 4 0.000000 0.000000 0.000000 0.013502 0.000000 0.000000
# 5 0.000000 0.000000 0.000000 0.000000 -0.019906 0.000000
# 6 0.000000 0.000000 0.000000 0.000000 0.000000 0.025154
#
#
# Mechanical properties :
#
#
# Convention : Reuss Voigt Hill
#
# Bulk Modulus (GPa) = 29.05256 34.14406 31.59831
# Shear Modulus (GPa) = 51.05449 24.90862 37.98155
#
# Velocity S-wave (km/s) = 4.99117 3.48627 4.30499
# Velocity P-wave (km/s) = 6.88417 5.73288 6.33473
#
# Compressibility (1/GPa) = 0.03442038
#
# Stress axis : x y z
#
# Youngs Moduli (GPa) = 37.06485 83.18033 82.89127
#
# Poissons Ratio (x) = 0.51950 0.03248
# Poissons Ratio (y) = 0.23149 0.13970
# Poissons Ratio (z) = 0.01453 0.14019
#
# Static dielectric constant tensor:
#      x y z
#    x 1.747900 0.000000 0.000000 
#    y 0.000000 1.778120 0.000000 
#    z 0.000000 0.000000 1.771390 
# 
# From -- ./inp_files/15327.got.cif
#   From: 2010.05.17/outbox.cif.g08.bks.cpg/sg55_8_cif.got.tgz:15327.got - 2010.06.03 13:27:54.
