data_PCOD9427751
_publ_section_title
;
Structure prediction by ZEFSAII (Michael W. Deem and Ramdas Pophale) SiO2 
 PCOD9427751
Probable space group: P B A M
;
_chemical_formula_sum "Si O2"
_cell_formula_units_Z 44
_cell_length_a 22.285178
_cell_length_b 5.290191
_cell_length_c 20.032846
_cell_angle_alpha 90.000000
_cell_angle_beta 90.000000
_cell_angle_gamma 90.000000
_cell_volume 2361.729270
_symmetry_space_group_name_H-M "P B A M"
_symmetry_group_IT_number 55
_symmetry_cell_setting 'orthorhombic'
loop_
_space_group_symop_operation_xyz
x,y,z
-x,-y,z
1/2+x,1/2-y,-z
1/2-x,1/2+y,-z
-x,-y,-z
x,y,-z
1/2-x,1/2+y,z
1/2+x,1/2-y,z
loop_
_atom_site_type_symbol
_atom_site_label
_atom_site_fract_x
_atom_site_fract_y
_atom_site_fract_z
Si Si1 0.000000 0.000000 0.170391
Si Si2 0.118644 0.759828 0.170528
Si Si3 0.789216 0.990183 0.921634
Si Si4 0.709184 0.921838 0.281461
Si Si5 0.435834 0.869261 0.073034
Si Si6 0.709825 0.853794 0.427871
O O1 0.052643 0.828538 0.202422
O O2 0.955599 0.849566 0.121982
O O3 0.159319 0.972231 0.133717
O O4 0.159711 0.628425 0.225827
O O5 0.106044 0.565993 0.110155
O O6 0.743205 0.222722 0.911696
O O7 0.807631 0.011180 0.000000
O O8 0.758374 0.694276 0.275810
O O9 0.680347 0.893780 0.355730
O O10 0.500000 0.000000 0.064125
O O11 0.413748 0.794317 0.000000
O O12 0.677844 0.881059 0.500000
O O13 0.739731 0.575728 0.427531
#
# Coordination Sequence:
#
# PCOD9427751 Si02
#       6
#     4   8   8   8   8   8
#     4  10  23  36  54  74  97 136 180 230 279 310
#     4  11  22  35  53  74 103 135 176 224 268 323
#     4  10  22  37  53  74  99 131 167 209 264 322
#     4  10  21  34  55  82 111 146 176 211 266 322
#     4   9  19  35  51  70  91 121 169 221 270 311
#     4   8  14  27  47  75 109 140 171 207 250 308
#
# _framework density 18.630417999999999
#
# number of rings (size 3 to 8) (size 9 to 14) (size 15 to 20)
#    0.000    2.364    0.000    1.909    5.091    2.182 
#    0.000    0.000    0.000    0.000    0.000    0.636 
#    0.000    6.545    0.000    0.182    0.000    0.000 
#
# Total GULP energy -244986.969622 kJ/mol
# GULP energy per Si atom -5567.885673 kJ/mol
# Density = 1.858801 g / cm^3
# Si number density = 18.630418 Si / 1000 Ang^3
#
#
#
# Elastic Constant Matrix: (Units=GPa)
#
#
# Indices 1 2 3 4 5 6 
#
# 1 67.6203 16.4084 32.7457 0.0000 0.0000 0.0000
# 2 16.4084 64.8877 -21.1843 0.0000 0.0000 0.0000
# 3 32.7457 -21.1843 67.7903 0.0000 0.0000 0.0000
# 4 0.0000 0.0000 0.0000 12.5091 0.0000 0.0000
# 5 0.0000 0.0000 0.0000 0.0000 16.1734 0.0000
# 6 0.0000 0.0000 0.0000 0.0000 0.0000 29.7191
#
#
#
# Elastic Compliance Matrix: (Units=1/GPa)
#
#
# Indices 1 2 3 4 5 6 
#
# 1 0.025239 -0.011540 -0.015798 0.000000 0.000000 0.000000
# 2 -0.011540 0.022438 0.012586 0.000000 0.000000 0.000000
# 3 -0.015798 0.012586 0.026315 0.000000 0.000000 0.000000
# 4 0.000000 0.000000 0.000000 0.079942 0.000000 0.000000
# 5 0.000000 0.000000 0.000000 0.000000 0.061830 0.000000
# 6 0.000000 0.000000 0.000000 0.000000 0.000000 0.033648
#
#
# Mechanical properties :
#
#
# Convention : Reuss Voigt Hill
#
# Bulk Modulus (GPa) = 22.47679 28.47087 25.47383
# Shear Modulus (GPa) = 17.02153 23.16887 20.09520
#
# Velocity S-wave (km/s) = 3.02593 3.53030 3.28780
# Velocity P-wave (km/s) = 4.92941 5.65088 5.30243
#
# Compressibility (1/GPa) = 0.04449034
#
# Stress axis : x y z
#
# Youngs Moduli (GPa) = 39.62157 44.56634 38.00045
#
# Poissons Ratio (x) = 0.51429 0.60032
# Poissons Ratio (y) = 0.45722 -0.47828
# Poissons Ratio (z) = 0.62593 -0.56092
#
# Static dielectric constant tensor:
#      x y z
#    x 1.895910 0.000000 0.000000 
#    y 0.000000 0.493510 0.000000 
#    z 0.000000 0.000000 1.756210 
# 
# From -- ./inp_files/23105.got.cif
#   From: 2010.05.17/outbox.cif.g08.bks.cpg/sg55_12_cif.got.tgz:23105.got - 2010.06.03 13:27:54.
