data_PCOD9427006
_publ_section_title
;
Structure prediction by ZEFSAII (Michael W. Deem and Ramdas Pophale) SiO2 
 PCOD9427006
Probable space group: P B A M
;
_chemical_formula_sum "Si O2"
_cell_formula_units_Z 64
_cell_length_a 31.985399
_cell_length_b 8.683542
_cell_length_c 12.727261
_cell_angle_alpha 90.000000
_cell_angle_beta 90.000000
_cell_angle_gamma 90.000000
_cell_volume 3534.952905
_symmetry_space_group_name_H-M "P B A M"
_symmetry_group_IT_number 55
_symmetry_cell_setting 'orthorhombic'
loop_
_space_group_symop_operation_xyz
x,y,z
-x,-y,z
1/2+x,1/2-y,-z
1/2-x,1/2+y,-z
-x,-y,-z
x,y,-z
1/2-x,1/2+y,z
1/2+x,1/2-y,z
loop_
_atom_site_type_symbol
_atom_site_label
_atom_site_fract_x
_atom_site_fract_y
_atom_site_fract_z
Si Si1 0.554450 0.653905 0.124596
Si Si2 0.889014 0.371799 0.269294
Si Si3 0.750145 0.077810 0.254418
Si Si4 0.043910 0.410812 0.379521
Si Si5 0.960343 0.798572 0.182188
Si Si6 0.799378 0.830354 0.124768
Si Si7 0.803272 0.324320 0.624832
Si Si8 0.377621 0.854710 0.882543
O O1 0.586212 0.750179 0.196758
O O2 0.551372 0.476924 0.163698
O O3 0.507527 0.721125 0.140696
O O4 0.564721 0.657504 0.000000
O O5 0.921254 0.467081 0.341921
O O6 0.850731 0.304201 0.335108
O O7 0.870584 0.502941 0.193050
O O8 0.726184 0.186283 0.171769
O O9 0.775356 0.181604 0.336746
O O10 0.782626 0.974946 0.188859
O O11 0.717718 0.970296 0.316770
O O12 0.051047 0.365243 0.500000
O O13 0.042447 0.265102 0.301178
O O14 0.000000 0.500000 0.371675
O O15 0.925698 0.696544 0.123621
O O16 0.847884 0.789016 0.144399
O O17 0.792937 0.848504 0.000000
O O18 0.802221 0.343052 0.500000
O O19 0.366471 0.901764 0.000000
#
# Coordination Sequence:
#
# PCOD9427006 Si02
#       8
#     8   8   8   8   8   8   8   8
#     4  11  22  38  59  88 122 157 191 241 298 348
#     4  11  22  38  59  90 117 152 195 246 289 353
#     4  10  22  40  62  87 116 151 194 238 292 359
#     4  10  20  39  61  83 116 159 201 244 292 339
#     4  10  21  38  59  84 119 158 202 242 286 345
#     4  10  20  37  59  89 121 153 185 231 292 355
#     4  11  23  42  64  86 115 152 196 248 296 343
#     4  10  20  35  57  86 119 155 192 235 287 350
#
# _framework density 18.104908999999999
#
# number of rings (size 3 to 8) (size 9 to 14) (size 15 to 20)
#    0.000    1.625    2.500    3.000    1.750    0.000 
#    0.000    5.625    0.000    0.000    0.000    0.000 
#    0.000    0.000    0.000    0.000    0.000    0.000 
#
# Total GULP energy -357182.829365 kJ/mol
# GULP energy per Si atom -5580.981709 kJ/mol
# Density = 1.806370 g / cm^3
# Si number density = 18.104909 Si / 1000 Ang^3
#
#
#
# Elastic Constant Matrix: (Units=GPa)
#
#
# Indices 1 2 3 4 5 6 
#
# 1 80.4583 16.1667 27.4147 0.0000 0.0000 0.0000
# 2 16.1667 55.7688 30.8090 0.0000 0.0000 0.0000
# 3 27.4147 30.8090 111.8376 0.0000 0.0000 0.0000
# 4 0.0000 0.0000 0.0000 118.3029 0.0000 0.0000
# 5 0.0000 0.0000 0.0000 0.0000 15.6977 0.0000
# 6 0.0000 0.0000 0.0000 0.0000 0.0000 22.6920
#
#
#
# Elastic Compliance Matrix: (Units=1/GPa)
#
#
# Indices 1 2 3 4 5 6 
#
# 1 0.013856 -0.002525 -0.002701 0.000000 0.000000 0.000000
# 2 -0.002525 0.021610 -0.005334 0.000000 0.000000 0.000000
# 3 -0.002701 -0.005334 0.011073 0.000000 0.000000 0.000000
# 4 0.000000 0.000000 0.000000 0.008453 0.000000 0.000000
# 5 0.000000 0.000000 0.000000 0.000000 0.063704 0.000000
# 6 0.000000 0.000000 0.000000 0.000000 0.000000 0.044068
#
#
# Mechanical properties :
#
#
# Convention : Reuss Voigt Hill
#
# Bulk Modulus (GPa) = 39.33985 44.09394 41.71689
# Shear Modulus (GPa) = 25.99328 42.91681 34.45504
#
# Velocity S-wave (km/s) = 3.79318 4.87401 4.36716
# Velocity P-wave (km/s) = 6.40002 7.48880 6.96572
#
# Compressibility (1/GPa) = 0.02541952
#
# Stress axis : x y z
#
# Youngs Moduli (GPa) = 72.16867 46.27512 90.30859
#
# Poissons Ratio (x) = 0.11683 0.24394
# Poissons Ratio (y) = 0.18220 0.48173
# Poissons Ratio (z) = 0.19494 0.24684
#
# Static dielectric constant tensor:
#      x y z
#    x 1.629800 0.000000 0.000000 
#    y 0.000000 1.604280 0.000000 
#    z 0.000000 0.000000 1.599520 
# 
# From -- ./inp_files/12606.got.cif
#   From: 2010.05.17/outbox.cif.g08.bks.cpg/sg55_7_cif.got.tgz:12606.got - 2010.06.03 13:27:54.
