data_PCOD9427462
_publ_section_title
;
Structure prediction by ZEFSAII (Michael W. Deem and Ramdas Pophale) SiO2 
 PCOD9427462
Probable space group: P B A M
;
_chemical_formula_sum "Si O2"
_cell_formula_units_Z 48
_cell_length_a 11.217965
_cell_length_b 23.982105
_cell_length_c 8.611097
_cell_angle_alpha 90.000000
_cell_angle_beta 90.000000
_cell_angle_gamma 90.000000
_cell_volume 2316.646995
_symmetry_space_group_name_H-M "P B A M"
_symmetry_group_IT_number 55
_symmetry_cell_setting 'orthorhombic'
loop_
_space_group_symop_operation_xyz
x,y,z
-x,-y,z
1/2+x,1/2-y,-z
1/2-x,1/2+y,-z
-x,-y,-z
x,y,-z
1/2-x,1/2+y,z
1/2+x,1/2-y,z
loop_
_atom_site_type_symbol
_atom_site_label
_atom_site_fract_x
_atom_site_fract_y
_atom_site_fract_z
Si Si1 0.201844 0.581616 0.312907
Si Si2 0.068633 0.415589 0.683750
Si Si3 0.697766 0.526204 0.817425
Si Si4 0.179008 0.311439 0.818446
Si Si5 0.409717 0.368811 0.682841
Si Si6 0.336079 0.689256 0.315456
O O1 0.210179 0.578404 0.500000
O O2 0.291504 0.536556 0.242776
O O3 0.236697 0.644292 0.267404
O O4 0.065247 0.568799 0.269812
O O5 0.083012 0.426853 0.500000
O O6 0.173132 0.447007 0.774641
O O7 0.090492 0.350341 0.718690
O O8 0.603891 0.567053 0.734809
O O9 0.677850 0.527685 0.000000
O O10 0.310517 0.334054 0.776028
O O11 0.168868 0.247116 0.773731
O O12 0.155877 0.320166 0.000000
O O13 0.380675 0.365412 0.500000
O O14 0.538351 0.342103 0.707195
O O15 0.322530 0.700645 0.500000
#
# Coordination Sequence:
#
# PCOD9427462 Si02
#       6
#     8   8   8   8   8   8
#     4  10  22  39  60  87 117 151 197 244 288 341
#     4  10  20  37  62  88 115 154 200 242 287 344
#     4  11  22  37  59  87 121 155 191 239 297 350
#     4  11  23  38  59  87 121 153 189 241 299 354
#     4  10  21  40  64  84 112 154 201 241 283 346
#     4  10  23  41  61  86 114 154 201 244 287 342
#
# _framework density 20.719601000000001
#
# number of rings (size 3 to 8) (size 9 to 14) (size 15 to 20)
#    0.000    1.667    0.000    6.500    2.333    6.000 
#    0.000    3.333    0.000    0.000    0.000    0.000 
#    0.000    0.000    0.000    0.000    0.000    0.000 
#
# Total GULP energy -268389.317470 kJ/mol
# GULP energy per Si atom -5591.444114 kJ/mol
# Density = 2.067244 g / cm^3
# Si number density = 20.719601 Si / 1000 Ang^3
#
#
#
# Elastic Constant Matrix: (Units=GPa)
#
#
# Indices 1 2 3 4 5 6 
#
# 1 27.2225 -13.2923 -1.7366 0.0000 0.0000 0.0000
# 2 -13.2923 80.3734 -0.7424 0.0000 0.0000 0.0000
# 3 -1.7366 -0.7424 28.2200 0.0000 0.0000 0.0000
# 4 0.0000 0.0000 0.0000 74.5226 0.0000 0.0000
# 5 0.0000 0.0000 0.0000 0.0000 -79.0062 0.0000
# 6 0.0000 0.0000 0.0000 0.0000 0.0000 17.6195
#
#
#
# Elastic Compliance Matrix: (Units=1/GPa)
#
#
# Indices 1 2 3 4 5 6 
#
# 1 0.040158 0.006666 0.002647 0.000000 0.000000 0.000000
# 2 0.006666 0.013551 0.000767 0.000000 0.000000 0.000000
# 3 0.002647 0.000767 0.035619 0.000000 0.000000 0.000000
# 4 0.000000 0.000000 0.000000 0.013419 0.000000 0.000000
# 5 0.000000 0.000000 0.000000 0.000000 -0.012657 0.000000
# 6 0.000000 0.000000 0.000000 0.000000 0.000000 0.056755
#
#
# Mechanical properties :
#
#
# Convention : Reuss Voigt Hill
#
# Bulk Modulus (GPa) = 9.13354 11.58592 10.35973
# Shear Modulus (GPa) = 30.64058 12.73300 21.68679
#
# Velocity S-wave (km/s) = 3.84972 2.48168 3.23875
# Velocity P-wave (km/s) = 4.91713 3.71693 4.35854
#
# Compressibility (1/GPa) = 0.10948660
#
# Stress axis : x y z
#
# Youngs Moduli (GPa) = 24.90165 73.79299 28.07499
#
# Poissons Ratio (x) = -0.49189 -0.07430
# Poissons Ratio (y) = -0.16599 -0.02153
# Poissons Ratio (z) = -0.06590 -0.05658
#
# Static dielectric constant tensor:
#      x y z
#    x 1.740370 0.000000 0.000000 
#    y 0.000000 1.751010 0.000000 
#    z 0.000000 0.000000 1.696820 
# 
# From -- ./inp_files/4052.got.cif
#   From: 2010.05.17/outbox.cif.g08.bks.cpg/sg55_3_cif.got.tgz:4052.got - 2010.06.03 13:27:54.
