data_PCOD9427794
_publ_section_title
;
Structure prediction by ZEFSAII (Michael W. Deem and Ramdas Pophale) SiO2 
 PCOD9427794
Probable space group: P B A M
;
_chemical_formula_sum "Si O2"
_cell_formula_units_Z 64
_cell_length_a 11.195160
_cell_length_b 31.300485
_cell_length_c 9.997329
_cell_angle_alpha 90.000000
_cell_angle_beta 90.000000
_cell_angle_gamma 90.000000
_cell_volume 3503.203421
_symmetry_space_group_name_H-M "P B A M"
_symmetry_group_IT_number 55
_symmetry_cell_setting 'orthorhombic'
loop_
_space_group_symop_operation_xyz
x,y,z
-x,-y,z
1/2+x,1/2-y,-z
1/2-x,1/2+y,-z
-x,-y,-z
x,y,-z
1/2-x,1/2+y,z
1/2+x,1/2-y,z
loop_
_atom_site_type_symbol
_atom_site_label
_atom_site_fract_x
_atom_site_fract_y
_atom_site_fract_z
Si Si1 0.772837 0.606873 0.151152
Si Si2 0.558391 0.189759 0.848381
Si Si3 0.106756 0.844674 0.654653
Si Si4 0.653255 0.827530 0.651483
Si Si5 0.228430 0.264694 0.347459
Si Si6 0.868928 0.888578 0.654881
Si Si7 0.130924 0.484344 0.161752
Si Si8 0.883411 0.970293 0.160679
O O1 0.669360 0.620741 0.250918
O O2 0.844783 0.565129 0.195794
O O3 0.858263 0.647893 0.146097
O O4 0.727082 0.598452 0.000000
O O5 0.443550 0.176025 0.765975
O O6 0.628354 0.224689 0.760896
O O7 0.533525 0.203718 0.000000
O O8 0.134755 0.854432 0.500000
O O9 0.162098 0.797825 0.679673
O O10 0.966144 0.850790 0.672452
O O11 0.602415 0.830354 0.500000
O O12 0.727452 0.783531 0.657149
O O13 0.739977 0.867489 0.672781
O O14 0.185928 0.273320 0.500000
O O15 0.879475 0.903203 0.500000
O O16 0.893303 0.926677 0.756568
O O17 0.254062 0.508943 0.198977
O O18 0.000000 0.500000 0.211365
O O19 0.125418 0.487244 0.000000
O O20 0.881792 0.963145 0.000000
O O21 0.000000 0.000000 0.188186
#
# Coordination Sequence:
#
# PCOD9427794 Si02
#       8
#     8   8   8   8   8   8   8   8
#     4   9  18  34  56  80 106 139 180 221 269 326
#     4  10  21  35  55  83 115 143 176 228 287 335
#     4   9  18  34  56  81 106 138 180 224 269 320
#     4  10  22  37  57  80 109 150 192 230 270 330
#     4   9  19  36  60  81 103 144 192 230 266 321
#     4  10  22  37  55  83 115 145 183 231 283 332
#     4   9  18  32  54  79 105 141 183 224 267 330
#     4  10  21  37  59  85 110 143 190 235 282 346
#
# _framework density 18.268993999999999
#
# number of rings (size 3 to 8) (size 9 to 14) (size 15 to 20)
#    0.000    2.500    0.000    1.125    3.500    3.250 
#    0.000    0.625    0.000    0.750    0.000    0.000 
#    0.000    0.000    0.000    0.000    0.000    0.000 
#
# Total GULP energy -356709.817456 kJ/mol
# GULP energy per Si atom -5573.590898 kJ/mol
# Density = 1.822741 g / cm^3
# Si number density = 18.268994 Si / 1000 Ang^3
#
#
#
# Elastic Constant Matrix: (Units=GPa)
#
#
# Indices 1 2 3 4 5 6 
#
# 1 78.7608 2.2162 41.0012 0.0000 0.0000 0.0000
# 2 2.2162 44.0268 16.2075 0.0000 0.0000 0.0000
# 3 41.0012 16.2075 79.7855 0.0000 0.0000 0.0000
# 4 0.0000 0.0000 0.0000 13.3124 0.0000 0.0000
# 5 0.0000 0.0000 0.0000 0.0000 7.2468 0.0000
# 6 0.0000 0.0000 0.0000 0.0000 0.0000 1.8213
#
#
#
# Elastic Compliance Matrix: (Units=1/GPa)
#
#
# Indices 1 2 3 4 5 6 
#
# 1 0.017614 0.002643 -0.009589 0.000000 0.000000 0.000000
# 2 0.002643 0.024946 -0.006426 0.000000 0.000000 0.000000
# 3 -0.009589 -0.006426 0.018766 0.000000 0.000000 0.000000
# 4 0.000000 0.000000 0.000000 0.075118 0.000000 0.000000
# 5 0.000000 0.000000 0.000000 0.000000 0.137992 0.000000
# 6 0.000000 0.000000 0.000000 0.000000 0.000000 0.549061
#
#
# Mechanical properties :
#
#
# Convention : Reuss Voigt Hill
#
# Bulk Modulus (GPa) = 28.91522 35.71367 32.31444
# Shear Modulus (GPa) = 5.80203 14.01930 9.91066
#
# Velocity S-wave (km/s) = 1.78404 2.77317 2.33166
# Velocity P-wave (km/s) = 4.48392 5.46308 4.99754
#
# Compressibility (1/GPa) = 0.03458387
#
# Stress axis : x y z
#
# Youngs Moduli (GPa) = 56.77324 40.08672 53.28651
#
# Poissons Ratio (x) = -0.10596 0.51094
# Poissons Ratio (y) = -0.15006 0.34241
# Poissons Ratio (z) = 0.54438 0.25759
#
# Static dielectric constant tensor:
#      x y z
#    x 1.654220 0.000000 0.000000 
#    y 0.000000 1.612510 0.000000 
#    z 0.000000 0.000000 1.622330 
# 
# From -- ./inp_files/4541.got.cif
#   From: 2010.05.17/outbox.cif.g08.bks.cpg/sg55_3_cif.got.tgz:4541.got - 2010.06.03 13:27:54.
