data_PCOD9427599
_publ_section_title
;
Structure prediction by ZEFSAII (Michael W. Deem and Ramdas Pophale) SiO2 
 PCOD9427599
Probable space group: P B A M
;
_chemical_formula_sum "Si O2"
_cell_formula_units_Z 64
_cell_length_a 29.532667
_cell_length_b 9.947428
_cell_length_c 11.546438
_cell_angle_alpha 90.000000
_cell_angle_beta 90.000000
_cell_angle_gamma 90.000000
_cell_volume 3392.044185
_symmetry_space_group_name_H-M "P B A M"
_symmetry_group_IT_number 55
_symmetry_cell_setting 'orthorhombic'
loop_
_space_group_symop_operation_xyz
x,y,z
-x,-y,z
1/2+x,1/2-y,-z
1/2-x,1/2+y,-z
-x,-y,-z
x,y,-z
1/2-x,1/2+y,z
1/2+x,1/2-y,z
loop_
_atom_site_type_symbol
_atom_site_label
_atom_site_fract_x
_atom_site_fract_y
_atom_site_fract_z
Si Si1 0.619931 0.963721 0.798707
Si Si2 0.513040 0.656514 0.365790
Si Si3 0.340554 0.494969 0.134463
Si Si4 0.179187 0.293963 0.871228
Si Si5 0.073240 0.803956 0.867366
Si Si6 0.803143 0.376256 0.624753
Si Si7 0.259500 0.387955 0.707183
Si Si8 0.545194 0.088498 0.632807
O O1 0.645255 0.080722 0.867876
O O2 0.583910 0.038199 0.717030
O O3 0.594738 0.845145 0.865739
O O4 0.659249 0.893922 0.722759
O O5 0.500000 0.500000 0.363149
O O6 0.531221 0.683371 0.500000
O O7 0.542864 0.685191 0.249940
O O8 0.470383 0.757145 0.354400
O O9 0.345720 0.654121 0.156461
O O10 0.386470 0.411706 0.150365
O O11 0.299878 0.442749 0.213141
O O12 0.327558 0.477144 0.000000
O O13 0.219865 0.321553 0.783922
O O14 0.198628 0.281005 0.000000
O O15 0.054228 0.826085 0.000000
O O16 0.824968 0.397008 0.500000
O O17 0.764561 0.488655 0.643003
O O18 0.780604 0.230608 0.631932
O O19 0.559249 0.066791 0.500000
O O20 0.500000 0.000000 0.652941
#
# Coordination Sequence:
#
# PCOD9427599 Si02
#       8
#     8   8   8   8   8   8   8   8
#     4  11  22  38  61  88 123 154 199 246 306 360
#     4  10  23  43  66  91 122 160 205 247 296 366
#     4  10  21  38  58  84 117 154 196 247 299 356
#     4  10  22  38  59  84 115 155 198 245 296 355
#     4  11  23  40  63  93 126 158 201 251 305 361
#     4  11  23  37  57  83 119 159 200 252 302 355
#     4  11  20  39  58  82 114 153 205 243 297 356
#     4  10  20  38  64  90 117 156 200 246 295 361
#
# _framework density 18.867678999999999
#
# number of rings (size 3 to 8) (size 9 to 14) (size 15 to 20)
#    0.000    1.500    3.750    1.500    1.750    0.750 
#    0.000    1.875    0.000    0.000    0.000    0.000 
#    0.000    0.000    0.000    0.000    0.000    0.000 
#
# Total GULP energy -356885.615350 kJ/mol
# GULP energy per Si atom -5576.337740 kJ/mol
# Density = 1.882474 g / cm^3
# Si number density = 18.867679 Si / 1000 Ang^3
#
#
#
# Elastic Constant Matrix: (Units=GPa)
#
#
# Indices 1 2 3 4 5 6 
#
# 1 38.3496 11.7512 38.9100 0.0000 0.0000 0.0000
# 2 11.7512 103.3215 24.8822 0.0000 0.0000 0.0000
# 3 38.9100 24.8822 107.5038 0.0000 0.0000 0.0000
# 4 0.0000 0.0000 0.0000 11.3960 0.0000 0.0000
# 5 0.0000 0.0000 0.0000 0.0000 158.4844 0.0000
# 6 0.0000 0.0000 0.0000 0.0000 0.0000 23.8344
#
#
#
# Elastic Compliance Matrix: (Units=1/GPa)
#
#
# Indices 1 2 3 4 5 6 
#
# 1 0.041341 -0.001163 -0.014694 0.000000 0.000000 0.000000
# 2 -0.001163 0.010283 -0.001959 0.000000 0.000000 0.000000
# 3 -0.014694 -0.001959 0.015074 0.000000 0.000000 0.000000
# 4 0.000000 0.000000 0.000000 0.087750 0.000000 0.000000
# 5 0.000000 0.000000 0.000000 0.000000 0.006310 0.000000
# 6 0.000000 0.000000 0.000000 0.000000 0.000000 0.041956
#
#
# Mechanical properties :
#
#
# Convention : Reuss Voigt Hill
#
# Bulk Modulus (GPa) = 32.19033 44.47354 38.33194
# Shear Modulus (GPa) = 20.10456 50.31839 35.21148
#
# Velocity S-wave (km/s) = 3.26783 5.16982 4.32468
# Velocity P-wave (km/s) = 5.59789 7.69795 6.73034
#
# Compressibility (1/GPa) = 0.03106523
#
# Stress axis : x y z
#
# Youngs Moduli (GPa) = 24.18925 97.25186 66.34105
#
# Poissons Ratio (x) = 0.11313 0.97479
# Poissons Ratio (y) = 0.02814 0.12996
# Poissons Ratio (z) = 0.35543 0.19051
#
# Static dielectric constant tensor:
#      x y z
#    x 1.615870 0.000000 0.000000 
#    y 0.000000 1.656320 0.000000 
#    z 0.000000 0.000000 1.673090 
# 
# From -- ./inp_files/16228.got.cif
#   From: 2010.05.17/outbox.cif.g08.bks.cpg/sg55_9_cif.got.tgz:16228.got - 2010.06.03 13:27:54.
