data_PCOD9427750
_publ_section_title
;
Structure prediction by ZEFSAII (Michael W. Deem and Ramdas Pophale) SiO2 
 PCOD9427750
Probable space group: P B A M
;
_chemical_formula_sum "Si O2"
_cell_formula_units_Z 56
_cell_length_a 21.371592
_cell_length_b 10.171559
_cell_length_c 14.156342
_cell_angle_alpha 90.000000
_cell_angle_beta 90.000000
_cell_angle_gamma 90.000000
_cell_volume 3077.339726
_symmetry_space_group_name_H-M "P B A M"
_symmetry_group_IT_number 55
_symmetry_cell_setting 'orthorhombic'
loop_
_space_group_symop_operation_xyz
x,y,z
-x,-y,z
1/2+x,1/2-y,-z
1/2-x,1/2+y,-z
-x,-y,-z
x,y,-z
1/2-x,1/2+y,z
1/2+x,1/2-y,z
loop_
_atom_site_type_symbol
_atom_site_label
_atom_site_fract_x
_atom_site_fract_y
_atom_site_fract_z
Si Si1 0.486574 0.843413 0.607782
Si Si2 0.811253 0.515835 0.699017
Si Si3 0.398981 0.233705 0.722258
Si Si4 0.894273 0.727520 0.220556
Si Si5 0.989939 0.343692 0.107686
Si Si6 0.789579 0.636168 0.500000
Si Si7 0.177010 0.063908 0.500000
Si Si8 0.338135 0.514838 0.293234
O O1 0.467725 0.815976 0.500000
O O2 0.551130 0.772776 0.636811
O O3 0.436556 0.802006 0.686285
O O4 0.500000 0.000000 0.616867
O O5 0.847921 0.379303 0.704745
O O6 0.841090 0.615593 0.774818
O O7 0.820738 0.583022 0.595898
O O8 0.737256 0.493406 0.710209
O O9 0.438540 0.201009 0.816438
O O10 0.366966 0.374314 0.729224
O O11 0.943159 0.717320 0.135603
O O12 0.863316 0.869265 0.228121
O O13 0.000000 0.500000 0.118308
O O14 0.972404 0.314542 0.000000
O O15 0.787477 0.794486 0.500000
O O16 0.722717 0.563018 0.500000
O O17 0.142653 0.054281 0.599446
#
# Coordination Sequence:
#
# PCOD9427750 Si02
#       8
#     8   8   8   8   8   4   4   8
#     4  10  21  34  55  79 107 152 199 247 289 338
#     4  11  21  37  59  82 123 166 202 238 282 355
#     4  11  22  39  59  90 115 155 201 246 301 357
#     4  11  20  39  60  87 116 155 195 244 301 351
#     4  10  21  42  71  94 110 145 202 256 304 368
#     4  10  22  32  52  79 117 173 212 236 275 332
#     4  10  22  36  48  81 120 172 213 235 272 337
#     4  11  25  35  56  86 131 160 201 241 292 351
#
# _framework density 18.197535999999999
#
# number of rings (size 3 to 8) (size 9 to 14) (size 15 to 20)
#    0.000    1.429    4.286    1.714   10.000    2.286 
#    0.000    2.143    0.000    5.143    0.000    0.000 
#    0.000    0.000    0.000    0.000    0.000    0.000 
#
# Total GULP energy -312706.807222 kJ/mol
# GULP energy per Si atom -5584.050129 kJ/mol
# Density = 1.815612 g / cm^3
# Si number density = 18.197536 Si / 1000 Ang^3
#
#
#
# Elastic Constant Matrix: (Units=GPa)
#
#
# Indices 1 2 3 4 5 6 
#
# 1 78.8131 23.7323 13.0662 0.0000 0.0000 0.0000
# 2 23.7323 90.7052 6.6861 0.0000 0.0000 0.0000
# 3 13.0662 6.6861 63.5838 0.0000 0.0000 0.0000
# 4 0.0000 0.0000 0.0000 10.2883 0.0000 0.0000
# 5 0.0000 0.0000 0.0000 0.0000 11.6251 0.0000
# 6 0.0000 0.0000 0.0000 0.0000 0.0000 -13.3841
#
#
#
# Elastic Compliance Matrix: (Units=1/GPa)
#
#
# Indices 1 2 3 4 5 6 
#
# 1 0.014170 -0.003520 -0.002542 0.000000 0.000000 0.000000
# 2 -0.003520 0.011985 -0.000537 0.000000 0.000000 0.000000
# 3 -0.002542 -0.000537 0.016306 0.000000 0.000000 0.000000
# 4 0.000000 0.000000 0.000000 0.097198 0.000000 0.000000
# 5 0.000000 0.000000 0.000000 0.000000 0.086021 0.000000
# 6 0.000000 0.000000 0.000000 0.000000 0.000000 -0.074715
#
#
# Mechanical properties :
#
#
# Convention : Reuss Voigt Hill
#
# Bulk Modulus (GPa) = 34.17205 35.56348 34.86777
# Shear Modulus (GPa) = 28.74946 14.34702 21.54824
#
# Velocity S-wave (km/s) = 3.97905 2.81090 3.44485
# Velocity P-wave (km/s) = 6.31899 5.48820 5.91819
#
# Compressibility (1/GPa) = 0.02926368
#
# Stress axis : x y z
#
# Youngs Moduli (GPa) = 70.57386 83.43567 61.32700
#
# Poissons Ratio (x) = 0.29369 0.15587
# Poissons Ratio (y) = 0.24842 0.03293
# Poissons Ratio (z) = 0.17937 0.04480
#
# Static dielectric constant tensor:
#      x y z
#    x 1.651800 0.000000 0.000000 
#    y 0.000000 1.611010 0.000000 
#    z 0.000000 0.000000 1.626100 
# 
# From -- ./inp_files/17678.got.cif
#   From: 2010.05.17/outbox.cif.g08.bks.cpg/sg55_9_cif.got.tgz:17678.got - 2010.06.03 13:27:54.
