data_PCOD9427349
_publ_section_title
;
Structure prediction by ZEFSAII (Michael W. Deem and Ramdas Pophale) SiO2 
 PCOD9427349
Probable space group: P B A M
;
_chemical_formula_sum "Si O2"
_cell_formula_units_Z 64
_cell_length_a 24.650688
_cell_length_b 10.460120
_cell_length_c 12.749579
_cell_angle_alpha 90.000000
_cell_angle_beta 90.000000
_cell_angle_gamma 90.000000
_cell_volume 3287.468166
_symmetry_space_group_name_H-M "P B A M"
_symmetry_group_IT_number 55
_symmetry_cell_setting 'orthorhombic'
loop_
_space_group_symop_operation_xyz
x,y,z
-x,-y,z
1/2+x,1/2-y,-z
1/2-x,1/2+y,-z
-x,-y,-z
x,y,-z
1/2-x,1/2+y,z
1/2+x,1/2-y,z
loop_
_atom_site_type_symbol
_atom_site_label
_atom_site_fract_x
_atom_site_fract_y
_atom_site_fract_z
Si Si1 0.552520 0.593560 0.122223
Si Si2 0.929020 0.275245 0.308860
Si Si3 0.211644 0.193480 0.876994
Si Si4 0.045830 0.278066 0.617364
Si Si5 0.253484 0.936737 0.763413
Si Si6 0.888083 0.880430 0.239155
Si Si7 0.154853 0.926552 0.618449
Si Si8 0.640604 0.009408 0.623907
O O1 0.500000 0.500000 0.132161
O O2 0.555319 0.719244 0.194737
O O3 0.599808 0.502633 0.167110
O O4 0.558695 0.624130 0.000000
O O5 0.899752 0.155962 0.366640
O O6 0.885329 0.387321 0.317891
O O7 0.984078 0.321492 0.364963
O O8 0.238221 0.328988 0.850917
O O9 0.150894 0.205728 0.829697
O O10 0.238680 0.073797 0.815167
O O11 0.211163 0.167125 0.000000
O O12 0.048806 0.221252 0.500000
O O13 0.058837 0.182595 0.712651
O O14 0.093017 0.383836 0.624977
O O15 0.203173 0.886037 0.694268
O O16 0.305585 0.949795 0.686878
O O17 0.857824 0.930124 0.343259
O O18 0.172760 0.920332 0.500000
O O19 0.651902 0.981502 0.500000
#
# Coordination Sequence:
#
# PCOD9427349 Si02
#       8
#     8   8   8   8   8   8   8   8
#     4  10  20  37  61  85 116 161 205 255 312 361
#     4  11  22  38  61  92 129 163 210 262 312 380
#     4  11  23  41  64  89 120 160 209 267 323 374
#     4  11  21  36  60  89 125 166 204 248 309 379
#     4  11  23  42  64  93 124 163 216 266 319 388
#     4  10  20  37  57  89 117 154 201 250 300 378
#     4  10  21  36  58  89 124 158 198 255 317 371
#     4  11  23  40  62  90 127 172 209 253 317 383
#
# _framework density 19.467869
#
# number of rings (size 3 to 8) (size 9 to 14) (size 15 to 20)
#    0.000    1.375    2.500    3.750    0.000    1.000 
#    0.000    8.750    0.000    0.750    0.000    0.000 
#    0.000    0.000    0.000    0.000    0.000    0.000 
#
# Total GULP energy -356844.276526 kJ/mol
# GULP energy per Si atom -5575.691821 kJ/mol
# Density = 1.942356 g / cm^3
# Si number density = 19.467869 Si / 1000 Ang^3
#
#
#
# Elastic Constant Matrix: (Units=GPa)
#
#
# Indices 1 2 3 4 5 6 
#
# 1 73.9723 5.2004 26.1560 0.0000 0.0000 0.0000
# 2 5.2004 45.5595 33.8283 0.0000 0.0000 0.0000
# 3 26.1560 33.8283 125.9504 0.0000 0.0000 0.0000
# 4 0.0000 0.0000 0.0000 24.2043 0.0000 0.0000
# 5 0.0000 0.0000 0.0000 0.0000 19.7052 0.0000
# 6 0.0000 0.0000 0.0000 0.0000 0.0000 32.2596
#
#
#
# Elastic Compliance Matrix: (Units=1/GPa)
#
#
# Indices 1 2 3 4 5 6 
#
# 1 0.014609 0.000731 -0.003230 0.000000 0.000000 0.000000
# 2 0.000731 0.027454 -0.007525 0.000000 0.000000 0.000000
# 3 -0.003230 -0.007525 0.010632 0.000000 0.000000 0.000000
# 4 0.000000 0.000000 0.000000 0.041315 0.000000 0.000000
# 5 0.000000 0.000000 0.000000 0.000000 0.050748 0.000000
# 6 0.000000 0.000000 0.000000 0.000000 0.000000 0.030999
#
#
# Mechanical properties :
#
#
# Convention : Reuss Voigt Hill
#
# Bulk Modulus (GPa) = 30.63243 41.76127 36.19685
# Shear Modulus (GPa) = 24.19115 27.25366 25.72240
#
# Velocity S-wave (km/s) = 3.52890 3.74562 3.63888
# Velocity P-wave (km/s) = 5.68975 6.34068 6.02401
#
# Compressibility (1/GPa) = 0.03264514
#
# Stress axis : x y z
#
# Youngs Moduli (GPa) = 68.44921 36.42520 94.05889
#
# Poissons Ratio (x) = -0.02662 0.30383
# Poissons Ratio (y) = -0.05003 0.70783
# Poissons Ratio (z) = 0.22111 0.27411
#
# Static dielectric constant tensor:
#      x y z
#    x 1.710880 0.000000 0.000000 
#    y 0.000000 1.705840 0.000000 
#    z 0.000000 0.000000 1.651740 
# 
# From -- ./inp_files/15781.got.cif
#   From: 2010.05.17/outbox.cif.g08.bks.cpg/sg55_8_cif.got.tgz:15781.got - 2010.06.03 13:27:54.
