data_PCOD9427156
_publ_section_title
;
Structure prediction by ZEFSAII (Michael W. Deem and Ramdas Pophale) SiO2 
 PCOD9427156
Probable space group: P B A M
;
_chemical_formula_sum "Si O2"
_cell_formula_units_Z 48
_cell_length_a 18.264483
_cell_length_b 5.044438
_cell_length_c 26.294048
_cell_angle_alpha 90.000000
_cell_angle_beta 90.000000
_cell_angle_gamma 90.000000
_cell_volume 2422.577188
_symmetry_space_group_name_H-M "P B A M"
_symmetry_group_IT_number 55
_symmetry_cell_setting 'orthorhombic'
loop_
_space_group_symop_operation_xyz
x,y,z
-x,-y,z
1/2+x,1/2-y,-z
1/2-x,1/2+y,-z
-x,-y,-z
x,y,-z
1/2-x,1/2+y,z
1/2+x,1/2-y,z
loop_
_atom_site_type_symbol
_atom_site_label
_atom_site_fract_x
_atom_site_fract_y
_atom_site_fract_z
Si Si1 0.210240 0.757028 0.061333
Si Si2 0.950195 0.735465 0.837558
Si Si3 0.197916 0.135774 0.444926
Si Si4 0.422310 0.640096 0.056015
Si Si5 0.197234 0.183127 0.774921
Si Si6 0.299242 0.765602 0.339136
O O1 0.272168 0.964126 0.080353
O O2 0.135522 0.911717 0.070597
O O3 0.215646 0.738899 0.000000
O O4 0.930722 0.668896 0.896355
O O5 0.873566 0.782247 0.809647
O O6 0.000000 0.500000 0.815972
O O7 0.000000 0.000000 0.836928
O O8 0.160234 0.170045 0.500000
O O9 0.234963 0.847074 0.444207
O O10 0.158563 0.194045 0.391270
O O11 0.500000 0.500000 0.050541
O O12 0.402460 0.753927 0.000000
O O13 0.258813 0.409936 0.782350
O O14 0.169203 0.207269 0.716326
O O15 0.271268 0.067428 0.340655
#
# Coordination Sequence:
#
# PCOD9427156 Si02
#       6
#     8   8   8   8   8   8
#     4   9  18  32  50  73  99 124 152 189 230 275
#     4  11  24  40  57  80 109 136 167 212 261 308
#     4   8  12  18  30  52  86 124 156 192 244 296
#     4   9  20  38  58  78 101 131 164 198 244 303
#     4  10  20  36  58  80 104 138 178 216 256 306
#     4   8  14  24  40  64  92 124 164 206 246 292
#
# _framework density 19.813611000000002
#
# number of rings (size 3 to 8) (size 9 to 14) (size 15 to 20)
#    0.000    2.833    0.000    1.000    0.000    4.333 
#    0.000    5.000    0.000    0.000    0.000    0.000 
#    0.000    1.333    0.000    0.000    0.000   10.667 
#
# Total GULP energy -267490.996387 kJ/mol
# GULP energy per Si atom -5572.729091 kJ/mol
# Density = 1.976851 g / cm^3
# Si number density = 19.813611 Si / 1000 Ang^3
#
#
#
# Elastic Constant Matrix: (Units=GPa)
#
#
# Indices 1 2 3 4 5 6 
#
# 1 78.5516 9.8349 29.5604 0.0000 0.0000 0.0000
# 2 9.8349 91.0616 -3.4773 0.0000 0.0000 0.0000
# 3 29.5604 -3.4773 132.0005 0.0000 0.0000 0.0000
# 4 0.0000 0.0000 0.0000 -5.3386 0.0000 0.0000
# 5 0.0000 0.0000 0.0000 0.0000 2.6622 0.0000
# 6 0.0000 0.0000 0.0000 0.0000 0.0000 24.3164
#
#
#
# Elastic Compliance Matrix: (Units=1/GPa)
#
#
# Indices 1 2 3 4 5 6 
#
# 1 0.014146 -0.001650 -0.003211 0.000000 0.000000 0.000000
# 2 -0.001650 0.011185 0.000664 0.000000 0.000000 0.000000
# 3 -0.003211 0.000664 0.008312 0.000000 0.000000 0.000000
# 4 0.000000 0.000000 0.000000 -0.187315 0.000000 0.000000
# 5 0.000000 0.000000 0.000000 0.000000 0.375628 0.000000
# 6 0.000000 0.000000 0.000000 0.000000 0.000000 0.041124
#
#
# Mechanical properties :
#
#
# Convention : Reuss Voigt Hill
#
# Bulk Modulus (GPa) = 39.60658 41.49440 40.55049
# Shear Modulus (GPa) = 17.86403 22.04106 19.95254
#
# Velocity S-wave (km/s) = 3.00593 3.33891 3.17679
# Velocity P-wave (km/s) = 5.66396 5.98768 5.82807
#
# Compressibility (1/GPa) = 0.02524833
#
# Stress axis : x y z
#
# Youngs Moduli (GPa) = 70.69353 89.40390 120.30278
#
# Poissons Ratio (x) = 0.14755 0.38632
# Poissons Ratio (y) = 0.11667 -0.07991
# Poissons Ratio (z) = 0.22702 -0.05939
#
# Static dielectric constant tensor:
#      x y z
#    x 1.685230 0.000000 0.000000 
#    y 0.000000 1.715060 0.000000 
#    z 0.000000 0.000000 1.821200 
# 
# From -- ./inp_files/23996.got.cif
#   From: 2010.05.17/outbox.cif.g08.bks.cpg/sg55_12_cif.got.tgz:23996.got - 2010.06.03 13:27:54.
