data_PCOD9427660
_publ_section_title
;
Structure prediction by ZEFSAII (Michael W. Deem and Ramdas Pophale) SiO2 
 PCOD9427660
Probable space group: P B A M
;
_chemical_formula_sum "Si O2"
_cell_formula_units_Z 56
_cell_length_a 17.167637
_cell_length_b 10.729497
_cell_length_c 13.144258
_cell_angle_alpha 90.000000
_cell_angle_beta 90.000000
_cell_angle_gamma 90.000000
_cell_volume 2421.173765
_symmetry_space_group_name_H-M "P B A M"
_symmetry_group_IT_number 55
_symmetry_cell_setting 'orthorhombic'
loop_
_space_group_symop_operation_xyz
x,y,z
-x,-y,z
1/2+x,1/2-y,-z
1/2-x,1/2+y,-z
-x,-y,-z
x,y,-z
1/2-x,1/2+y,z
1/2+x,1/2-y,z
loop_
_atom_site_type_symbol
_atom_site_label
_atom_site_fract_x
_atom_site_fract_y
_atom_site_fract_z
Si Si1 0.439195 0.602694 0.331053
Si Si2 0.948275 0.795257 0.882864
Si Si3 0.264583 0.573159 0.388256
Si Si4 0.067572 0.593626 0.822836
Si Si5 0.692734 0.093493 0.884024
Si Si6 0.060424 0.708652 0.381345
Si Si7 0.288256 0.324127 0.298958
O O1 0.500000 0.500000 0.365704
O O2 0.435162 0.607095 0.207967
O O3 0.357159 0.578820 0.380420
O O4 0.475110 0.734617 0.364380
O O5 0.876610 0.696213 0.870149
O O6 0.031196 0.724769 0.860846
O O7 0.947110 0.838431 0.000000
O O8 0.236987 0.608273 0.500000
O O9 0.244524 0.429851 0.365139
O O10 0.239814 0.683124 0.313439
O O11 0.148926 0.537871 0.861095
O O12 0.070364 0.598211 0.699957
O O13 0.000000 0.500000 0.857796
O O14 0.765132 0.127621 0.812230
O O15 0.717507 0.094710 0.000000
O O16 0.071896 0.682920 0.500000
O O17 0.123302 0.809617 0.338110
#
# Coordination Sequence:
#
# PCOD9427660 Si02
#       7
#     8   8   8   8   8   8   8
#     4  11  22  40  65  93 127 172 222 271 323 403
#     4   9  18  36  63  94 127 166 210 267 330 387
#     4  12  25  44  69  95 132 177 221 271 333 391
#     4   9  19  37  65  97 129 163 215 274 329 400
#     4  10  20  39  64  91 128 172 212 266 330 394
#     4  11  23  40  62  91 132 174 220 275 331 391
#     4  12  25  43  65  97 131 172 223 273 325 396
#
# _framework density 23.129276999999998
#
# number of rings (size 3 to 8) (size 9 to 14) (size 15 to 20)
#    0.000    1.429    2.857    3.000    0.000    2.857 
#    0.000    7.857    0.000    0.000    0.000    0.000 
#    0.000    0.000    0.000    0.000    0.000    0.000 
#
# Total GULP energy -312560.981911 kJ/mol
# GULP energy per Si atom -5581.446106 kJ/mol
# Density = 2.307663 g / cm^3
# Si number density = 23.129277 Si / 1000 Ang^3
#
#
#
# Elastic Constant Matrix: (Units=GPa)
#
#
# Indices 1 2 3 4 5 6 
#
# 1 39.0101 -4.1251 -1.9856 0.0000 0.0000 0.0000
# 2 -4.1251 34.9798 -19.2248 0.0000 0.0000 0.0000
# 3 -1.9856 -19.2248 128.5202 0.0000 0.0000 0.0000
# 4 0.0000 0.0000 0.0000 13.1364 0.0000 0.0000
# 5 0.0000 0.0000 0.0000 0.0000 41.0870 0.0000
# 6 0.0000 0.0000 0.0000 0.0000 0.0000 22.6098
#
#
#
# Elastic Compliance Matrix: (Units=1/GPa)
#
#
# Indices 1 2 3 4 5 6 
#
# 1 0.026062 0.003590 0.000940 0.000000 0.000000 0.000000
# 2 0.003590 0.031643 0.004789 0.000000 0.000000 0.000000
# 3 0.000940 0.004789 0.008512 0.000000 0.000000 0.000000
# 4 0.000000 0.000000 0.000000 0.076124 0.000000 0.000000
# 5 0.000000 0.000000 0.000000 0.000000 0.024339 0.000000
# 6 0.000000 0.000000 0.000000 0.000000 0.000000 0.044229
#
#
# Mechanical properties :
#
#
# Convention : Reuss Voigt Hill
#
# Bulk Modulus (GPa) = 11.78503 16.87100 14.32802
# Shear Modulus (GPa) = 22.66998 30.55636 26.61317
#
# Velocity S-wave (km/s) = 3.13412 3.63865 3.39577
# Velocity P-wave (km/s) = 4.26653 4.99631 4.64577
#
# Compressibility (1/GPa) = 0.08485340
#
# Stress axis : x y z
#
# Youngs Moduli (GPa) = 38.37033 31.60240 117.48485
#
# Poissons Ratio (x) = -0.11345 -0.11039
# Poissons Ratio (y) = -0.13774 -0.56262
# Poissons Ratio (z) = -0.03605 -0.15134
#
# Static dielectric constant tensor:
#      x y z
#    x 1.903720 0.000000 0.000000 
#    y 0.000000 1.900110 0.000000 
#    z 0.000000 0.000000 1.862230 
# 
# From -- ./inp_files/15332.got.cif
#   From: 2010.05.17/outbox.cif.g08.bks.cpg/sg55_8_cif.got.tgz:15332.got - 2010.06.03 13:27:54.
