data_PCOD9427381
_publ_section_title
;
Structure prediction by ZEFSAII (Michael W. Deem and Ramdas Pophale) SiO2 
 PCOD9427381
Probable space group: P B A M
;
_chemical_formula_sum "Si O2"
_cell_formula_units_Z 64
_cell_length_a 12.126455
_cell_length_b 27.852324
_cell_length_c 9.537845
_cell_angle_alpha 90.000000
_cell_angle_beta 90.000000
_cell_angle_gamma 90.000000
_cell_volume 3221.406706
_symmetry_space_group_name_H-M "P B A M"
_symmetry_group_IT_number 55
_symmetry_cell_setting 'orthorhombic'
loop_
_space_group_symop_operation_xyz
x,y,z
-x,-y,z
1/2+x,1/2-y,-z
1/2-x,1/2+y,-z
-x,-y,-z
x,y,-z
1/2-x,1/2+y,z
1/2+x,1/2-y,z
loop_
_atom_site_type_symbol
_atom_site_label
_atom_site_fract_x
_atom_site_fract_y
_atom_site_fract_z
Si Si1 0.296753 0.713790 0.333008
Si Si2 0.021674 0.555321 0.349204
Si Si3 0.697721 0.923216 0.148231
Si Si4 0.161784 0.308082 0.161612
Si Si5 0.424781 0.454017 0.170451
Si Si6 0.189726 0.417218 0.166947
Si Si7 0.923404 0.868206 0.163199
Si Si8 0.599849 0.818197 0.152230
O O1 0.307844 0.710959 0.500000
O O2 0.310339 0.766959 0.271394
O O3 0.382159 0.676719 0.255924
O O4 0.174945 0.699594 0.278593
O O5 0.020134 0.580914 0.500000
O O6 0.922899 0.573028 0.249897
O O7 0.000000 0.500000 0.366991
O O8 0.142844 0.554518 0.281860
O O9 0.822159 0.906152 0.161215
O O10 0.628910 0.873956 0.140288
O O11 0.683951 0.950140 0.000000
O O12 0.214171 0.360380 0.188347
O O13 0.029398 0.312851 0.169146
O O14 0.188814 0.294491 0.000000
O O15 0.500000 0.500000 0.216850
O O16 0.294910 0.450284 0.208442
O O17 0.477305 0.402353 0.212068
O O18 0.428580 0.454952 0.000000
O O19 0.170543 0.423207 0.000000
O O20 0.940219 0.852724 0.000000
O O21 0.632520 0.796309 0.000000
#
# Coordination Sequence:
#
# PCOD9427381 Si02
#       8
#     8   8   8   8   8   8   8   8
#     4  11  23  36  55  87 120 156 197 240 297 362
#     4  11  24  37  52  81 120 154 187 232 292 358
#     4   9  17  33  58  84 108 141 189 238 284 335
#     4  10  20  37  59  84 114 151 195 244 297 351
#     4   9  19  36  62  93 120 151 198 254 302 349
#     4  10  21  39  63  89 116 149 196 246 296 352
#     4   9  19  37  59  86 118 154 197 246 296 349
#     4   9  18  36  58  80 109 144 188 240 290 342
#
# _framework density 19.867096
#
# number of rings (size 3 to 8) (size 9 to 14) (size 15 to 20)
#    0.000    2.250    1.250    2.250    1.750    5.000 
#    0.000    3.125    0.000    0.750    0.000    0.000 
#    0.000    0.000    0.000    0.000    0.000    0.000 
#
# Total GULP energy -356466.686482 kJ/mol
# GULP energy per Si atom -5569.791976 kJ/mol
# Density = 1.982188 g / cm^3
# Si number density = 19.867096 Si / 1000 Ang^3
#
#
#
# Elastic Constant Matrix: (Units=GPa)
#
#
# Indices 1 2 3 4 5 6 
#
# 1 44.1585 17.2279 22.5422 0.0000 0.0000 0.0000
# 2 17.2279 61.0708 32.5090 0.0000 0.0000 0.0000
# 3 22.5422 32.5090 91.6659 0.0000 0.0000 0.0000
# 4 0.0000 0.0000 0.0000 15.7172 0.0000 0.0000
# 5 0.0000 0.0000 0.0000 0.0000 60.0274 0.0000
# 6 0.0000 0.0000 0.0000 0.0000 0.0000 15.1120
#
#
#
# Elastic Compliance Matrix: (Units=1/GPa)
#
#
# Indices 1 2 3 4 5 6 
#
# 1 0.027105 -0.005052 -0.004874 0.000000 0.000000 0.000000
# 2 -0.005052 0.021127 -0.006250 0.000000 0.000000 0.000000
# 3 -0.004874 -0.006250 0.014324 0.000000 0.000000 0.000000
# 4 0.000000 0.000000 0.000000 0.063624 0.000000 0.000000
# 5 0.000000 0.000000 0.000000 0.000000 0.016659 0.000000
# 6 0.000000 0.000000 0.000000 0.000000 0.000000 0.066172
#
#
# Mechanical properties :
#
#
# Convention : Reuss Voigt Hill
#
# Bulk Modulus (GPa) = 33.10819 37.93927 35.52373
# Shear Modulus (GPa) = 19.88618 26.47909 23.18264
#
# Velocity S-wave (km/s) = 3.16723 3.65473 3.41968
# Velocity P-wave (km/s) = 5.48417 6.07844 5.78893
#
# Compressibility (1/GPa) = 0.03020401
#
# Stress axis : x y z
#
# Youngs Moduli (GPa) = 36.89412 47.33379 69.81119
#
# Poissons Ratio (x) = 0.23911 0.34025
# Poissons Ratio (y) = 0.18638 0.43633
# Poissons Ratio (z) = 0.17982 0.29584
#
# Static dielectric constant tensor:
#      x y z
#    x 1.787660 0.000000 0.000000 
#    y 0.000000 1.754090 0.000000 
#    z 0.000000 0.000000 1.857970 
# 
# From -- ./inp_files/4554.got.cif
#   From: 2010.05.17/outbox.cif.g08.bks.cpg/sg55_3_cif.got.tgz:4554.got - 2010.06.03 13:27:54.
