data_PCOD9427048
_publ_section_title
;
Structure prediction by ZEFSAII (Michael W. Deem and Ramdas Pophale) SiO2 
 PCOD9427048
Probable space group: P B A M
;
_chemical_formula_sum "Si O2"
_cell_formula_units_Z 64
_cell_length_a 28.509422
_cell_length_b 12.823029
_cell_length_c 8.810548
_cell_angle_alpha 90.000000
_cell_angle_beta 90.000000
_cell_angle_gamma 90.000000
_cell_volume 3220.934984
_symmetry_space_group_name_H-M "P B A M"
_symmetry_group_IT_number 55
_symmetry_cell_setting 'orthorhombic'
loop_
_space_group_symop_operation_xyz
x,y,z
-x,-y,z
1/2+x,1/2-y,-z
1/2-x,1/2+y,-z
-x,-y,-z
x,y,-z
1/2-x,1/2+y,z
1/2+x,1/2-y,z
loop_
_atom_site_type_symbol
_atom_site_label
_atom_site_fract_x
_atom_site_fract_y
_atom_site_fract_z
Si Si1 0.641294 0.143850 0.174796
Si Si2 0.299319 0.267241 0.679832
Si Si3 0.848157 0.030801 0.180886
Si Si4 0.526777 0.891983 0.680843
Si Si5 0.446435 0.527291 0.680485
Si Si6 0.634216 0.930027 0.321490
Si Si7 0.698856 0.324201 0.320183
Si Si8 0.545426 0.253215 0.824857
O O1 0.665089 0.228130 0.282268
O O2 0.585742 0.165758 0.186981
O O3 0.652499 0.027396 0.225997
O O4 0.654973 0.162638 0.000000
O O5 0.294955 0.292576 0.500000
O O6 0.318630 0.369118 0.763671
O O7 0.336233 0.174015 0.697291
O O8 0.249832 0.217832 0.730588
O O9 0.901669 0.030490 0.245645
O O10 0.821529 0.926840 0.239660
O O11 0.850728 0.028007 0.000000
O O12 0.523008 0.871705 0.500000
O O13 0.580761 0.906273 0.720761
O O14 0.502342 0.798418 0.769219
O O15 0.500000 0.000000 0.712387
O O16 0.500000 0.500000 0.730544
O O17 0.444097 0.510735 0.500000
O O18 0.440837 0.648593 0.723123
O O19 0.635094 0.959770 0.500000
O O20 0.700910 0.345377 0.500000
O O21 0.543133 0.287178 0.000000
#
# Coordination Sequence:
#
# PCOD9427048 Si02
#       8
#     8   8   8   8   8   8   8   8
#     4  11  23  39  62  95 130 165 210 267 330 388
#     4  10  25  46  68  95 127 171 222 268 322 386
#     4  12  26  45  69 100 138 173 213 271 338 398
#     4  10  20  35  58  88 123 164 209 254 305 369
#     4  11  25  44  68  94 125 172 225 272 320 385
#     4  10  22  41  64  91 127 170 217 268 318 380
#     4  11  24  44  71  95 124 170 222 272 321 385
#     4  11  23  38  59  90 129 168 208 259 321 386
#
# _framework density 19.870004999999999
#
# number of rings (size 3 to 8) (size 9 to 14) (size 15 to 20)
#    0.000    1.250    2.500    2.625    3.500    4.250 
#    0.000    0.000    0.000    0.000    0.000    0.000 
#    0.000    0.000    0.000    0.000    0.000    0.000 
#
# Total GULP energy -357666.329702 kJ/mol
# GULP energy per Si atom -5588.536402 kJ/mol
# Density = 1.982478 g / cm^3
# Si number density = 19.870005 Si / 1000 Ang^3
#
#
#
# Elastic Constant Matrix: (Units=GPa)
#
#
# Indices 1 2 3 4 5 6 
#
# 1 121.4494 35.4108 43.7282 0.0000 0.0000 0.0000
# 2 35.4108 52.0966 29.2193 0.0000 0.0000 0.0000
# 3 43.7282 29.2193 57.5163 0.0000 0.0000 0.0000
# 4 0.0000 0.0000 0.0000 -61.3262 0.0000 0.0000
# 5 0.0000 0.0000 0.0000 0.0000 -0.2693 0.0000
# 6 0.0000 0.0000 0.0000 0.0000 0.0000 16.4134
#
#
#
# Elastic Compliance Matrix: (Units=1/GPa)
#
#
# Indices 1 2 3 4 5 6 
#
# 1 0.011972 -0.004241 -0.006947 0.000000 0.000000 0.000000
# 2 -0.004241 0.028346 -0.011176 0.000000 0.000000 0.000000
# 3 -0.006947 -0.011176 0.028346 0.000000 0.000000 0.000000
# 4 0.000000 0.000000 0.000000 -0.016306 0.000000 0.000000
# 5 0.000000 0.000000 0.000000 0.000000 -3.713531 0.000000
# 6 0.000000 0.000000 0.000000 0.000000 0.000000 0.060926
#
#
# Mechanical properties :
#
#
# Convention : Reuss Voigt Hill
#
# Bulk Modulus (GPa) = 41.77968 49.75320 45.76644
# Shear Modulus (GPa) = -1.40943 -0.85615 -1.13279
#
# Velocity S-wave (km/s) = -0.84313 -0.65712 -0.75587
# Velocity P-wave (km/s) = 4.48602 4.95156 4.72453
#
# Compressibility (1/GPa) = 0.02393508
#
# Stress axis : x y z
#
# Youngs Moduli (GPa) = 83.52943 35.27848 35.27831
#
# Poissons Ratio (x) = 0.14961 0.24510
# Poissons Ratio (y) = 0.35423 0.39427
# Poissons Ratio (z) = 0.58032 0.39427
#
# Static dielectric constant tensor:
#      x y z
#    x 1.754060 0.000000 0.000000 
#    y 0.000000 1.658890 0.000000 
#    z 0.000000 0.000000 1.685100 
# 
# From -- ./inp_files/10857.got.cif
#   From: 2010.05.17/outbox.cif.g08.bks.cpg/sg55_6_cif.got.tgz:10857.got - 2010.06.03 13:27:54.
