data_PCOD9427540
_publ_section_title
;
Structure prediction by ZEFSAII (Michael W. Deem and Ramdas Pophale) SiO2 
 PCOD9427540
Probable space group: P B A M
;
_chemical_formula_sum "Si O2"
_cell_formula_units_Z 64
_cell_length_a 29.216299
_cell_length_b 12.383879
_cell_length_c 9.436665
_cell_angle_alpha 90.000000
_cell_angle_beta 90.000000
_cell_angle_gamma 90.000000
_cell_volume 3414.290254
_symmetry_space_group_name_H-M "P B A M"
_symmetry_group_IT_number 55
_symmetry_cell_setting 'orthorhombic'
loop_
_space_group_symop_operation_xyz
x,y,z
-x,-y,z
1/2+x,1/2-y,-z
1/2-x,1/2+y,-z
-x,-y,-z
x,y,-z
1/2-x,1/2+y,z
1/2+x,1/2-y,z
loop_
_atom_site_type_symbol
_atom_site_label
_atom_site_fract_x
_atom_site_fract_y
_atom_site_fract_z
Si Si1 0.262977 0.086053 0.845585
Si Si2 0.822490 0.195920 0.161401
Si Si3 0.181030 0.233734 0.838258
Si Si4 0.576018 0.226647 0.167985
Si Si5 0.003340 0.127173 0.332133
Si Si6 0.554941 0.007842 0.332265
Si Si7 0.588966 0.766156 0.332374
Si Si8 0.741216 0.103488 0.665619
O O1 0.293979 0.192291 0.845683
O O2 0.210566 0.124834 0.831858
O O3 0.276341 0.012435 0.715294
O O4 0.268725 0.031790 0.000000
O O5 0.869831 0.220938 0.238795
O O6 0.789119 0.120776 0.252914
O O7 0.828752 0.157144 0.000000
O O8 0.127306 0.227608 0.813916
O O9 0.205020 0.311789 0.726698
O O10 0.187942 0.275256 0.000000
O O11 0.540622 0.307611 0.242250
O O12 0.572635 0.108640 0.240874
O O13 0.566715 0.217247 0.000000
O O14 0.014915 0.133736 0.500000
O O15 0.955461 0.190395 0.313044
O O16 0.000000 0.000000 0.295154
O O17 0.563367 0.027990 0.500000
O O18 0.576360 0.890777 0.296019
O O19 0.500000 0.000000 0.313708
O O20 0.600775 0.764002 0.500000
O O21 0.747119 0.114529 0.500000
#
# Coordination Sequence:
#
# PCOD9427540 Si02
#       8
#     8   8   8   8   8   8   8   8
#     4   9  19  38  59  78 110 152 190 229 282 340
#     4  10  22  39  59  83 115 154 192 234 287 346
#     4   9  21  40  58  82 116 153 190 233 287 343
#     4  11  23  38  60  90 121 152 197 246 292 352
#     4  10  22  42  64  85 116 158 199 241 294 351
#     4  10  20  38  61  85 120 159 193 239 298 350
#     4  10  21  38  60  88 120 152 195 246 294 348
#     4  11  22  36  58  86 115 148 191 239 285 336
#
# _framework density 18.744745000000002
#
# number of rings (size 3 to 8) (size 9 to 14) (size 15 to 20)
#    0.000    2.000    1.250    2.625    1.750    6.000 
#    0.000    2.500    0.000    0.000    0.000    0.000 
#    0.000    0.000    0.000    0.000    0.000    0.000 
#
# Total GULP energy -357183.520646 kJ/mol
# GULP energy per Si atom -5580.992510 kJ/mol
# Density = 1.870208 g / cm^3
# Si number density = 18.744745 Si / 1000 Ang^3
#
#
#
# Elastic Constant Matrix: (Units=GPa)
#
#
# Indices 1 2 3 4 5 6 
#
# 1 76.3739 17.9334 52.6940 0.0000 0.0000 0.0000
# 2 17.9334 80.7483 42.6101 0.0000 0.0000 0.0000
# 3 52.6940 42.6101 110.9686 0.0000 0.0000 0.0000
# 4 0.0000 0.0000 0.0000 56.1452 0.0000 0.0000
# 5 0.0000 0.0000 0.0000 0.0000 31.7619 0.0000
# 6 0.0000 0.0000 0.0000 0.0000 0.0000 6.2462
#
#
#
# Elastic Compliance Matrix: (Units=1/GPa)
#
#
# Indices 1 2 3 4 5 6 
#
# 1 0.019505 0.000697 -0.009529 0.000000 0.000000 0.000000
# 2 0.000697 0.015556 -0.006304 0.000000 0.000000 0.000000
# 3 -0.009529 -0.006304 0.015957 0.000000 0.000000 0.000000
# 4 0.000000 0.000000 0.000000 0.017811 0.000000 0.000000
# 5 0.000000 0.000000 0.000000 0.000000 0.031484 0.000000
# 6 0.000000 0.000000 0.000000 0.000000 0.000000 0.160096
#
#
# Mechanical properties :
#
#
# Convention : Reuss Voigt Hill
#
# Bulk Modulus (GPa) = 48.20557 54.95175 51.57866
# Shear Modulus (GPa) = 16.80120 29.15422 22.97771
#
# Velocity S-wave (km/s) = 2.99710 3.94804 3.50497
# Velocity P-wave (km/s) = 6.14406 7.08253 6.62992
#
# Compressibility (1/GPa) = 0.02074449
#
# Stress axis : x y z
#
# Youngs Moduli (GPa) = 51.26976 64.28373 62.66705
#
# Poissons Ratio (x) = -0.04479 0.59718
# Poissons Ratio (y) = -0.03573 0.39506
# Poissons Ratio (z) = 0.48857 0.40525
#
# Static dielectric constant tensor:
#      x y z
#    x 1.630430 0.000000 0.000000 
#    y 0.000000 1.668330 0.000000 
#    z 0.000000 0.000000 1.641050 
# 
# From -- ./inp_files/10759.got.cif
#   From: 2010.05.17/outbox.cif.g08.bks.cpg/sg55_6_cif.got.tgz:10759.got - 2010.06.03 13:27:54.
