data_PCOD9427076
_publ_section_title
;
Structure prediction by ZEFSAII (Michael W. Deem and Ramdas Pophale) SiO2 
 PCOD9427076
Probable space group: P B A M
;
_chemical_formula_sum "Si O2"
_cell_formula_units_Z 56
_cell_length_a 15.238618
_cell_length_b 21.531406
_cell_length_c 7.546933
_cell_angle_alpha 90.000000
_cell_angle_beta 90.000000
_cell_angle_gamma 90.000000
_cell_volume 2476.215666
_symmetry_space_group_name_H-M "P B A M"
_symmetry_group_IT_number 55
_symmetry_cell_setting 'orthorhombic'
loop_
_space_group_symop_operation_xyz
x,y,z
-x,-y,z
1/2+x,1/2-y,-z
1/2-x,1/2+y,-z
-x,-y,-z
x,y,-z
1/2-x,1/2+y,z
1/2+x,1/2-y,z
loop_
_atom_site_type_symbol
_atom_site_label
_atom_site_fract_x
_atom_site_fract_y
_atom_site_fract_z
Si Si1 0.719926 0.518035 0.217537
Si Si2 0.588355 0.026428 0.201287
Si Si3 0.608111 0.766809 0.214843
Si Si4 0.596693 0.624327 0.215955
Si Si5 0.405113 0.593649 0.216436
Si Si6 0.572498 0.164810 0.702250
Si Si7 0.306525 0.717603 0.213208
O O1 0.818441 0.508286 0.281963
O O2 0.679613 0.584001 0.272994
O O3 0.654177 0.463766 0.272664
O O4 0.722114 0.518349 0.000000
O O5 0.584628 0.101003 0.193556
O O6 0.500000 0.000000 0.286260
O O7 0.589868 0.000831 0.000000
O O8 0.595860 0.695506 0.273233
O O9 0.525062 0.807320 0.272171
O O10 0.705678 0.786006 0.274520
O O11 0.607194 0.767888 0.000000
O O12 0.506293 0.591616 0.270737
O O13 0.597936 0.625406 0.000000
O O14 0.362653 0.658660 0.275126
O O15 0.404979 0.593353 0.000000
O O16 0.583969 0.146736 0.500000
O O17 0.642841 0.218683 0.744249
O O18 0.303792 0.714381 0.000000
#
# Coordination Sequence:
#
# PCOD9427076 Si02
#       7
#     8   8   8   8   8   8   8
#     4   9  17  29  50  84 117 144 179 233 301 349
#     4  10  22  39  61  85 113 149 199 252 294 349
#     4  10  20  35  60  87 114 151 199 251 300 347
#     4   9  15  27  48  80 116 144 174 227 294 353
#     4   9  16  27  49  83 116 143 178 234 296 346
#     4  12  25  40  59  84 122 162 196 240 297 369
#     4  10  20  36  61  89 118 151 199 255 297 346
#
# _framework density 22.615155000000001
#
# number of rings (size 3 to 8) (size 9 to 14) (size 15 to 20)
#    0.000    2.143    1.429    2.571    2.000    4.857 
#    0.000    0.000    0.000    0.000    0.000    1.000 
#    0.000    0.000    0.000    0.000    0.000    0.000 
#
# Total GULP energy -312989.370374 kJ/mol
# GULP energy per Si atom -5589.095900 kJ/mol
# Density = 2.256368 g / cm^3
# Si number density = 22.615155 Si / 1000 Ang^3
#
#
#
# Elastic Constant Matrix: (Units=GPa)
#
#
# Indices 1 2 3 4 5 6 
#
# 1 120.0301 -16.7408 -2.3498 0.0000 0.0000 0.0000
# 2 -16.7408 26.9327 -9.7814 0.0000 0.0000 0.0000
# 3 -2.3498 -9.7814 60.2542 0.0000 0.0000 0.0000
# 4 0.0000 0.0000 0.0000 -44.6740 0.0000 0.0000
# 5 0.0000 0.0000 0.0000 0.0000 3.7059 0.0000
# 6 0.0000 0.0000 0.0000 0.0000 0.0000 33.1950
#
#
#
# Elastic Compliance Matrix: (Units=1/GPa)
#
#
# Indices 1 2 3 4 5 6 
#
# 1 0.009228 0.006234 0.001372 0.000000 0.000000 0.000000
# 2 0.006234 0.043667 0.007332 0.000000 0.000000 0.000000
# 3 0.001372 0.007332 0.017840 0.000000 0.000000 0.000000
# 4 0.000000 0.000000 0.000000 -0.022384 0.000000 0.000000
# 5 0.000000 0.000000 0.000000 0.000000 0.269836 0.000000
# 6 0.000000 0.000000 0.000000 0.000000 0.000000 0.030125
#
#
# Mechanical properties :
#
#
# Convention : Reuss Voigt Hill
#
# Bulk Modulus (GPa) = 9.93938 16.60812 13.27375
# Shear Modulus (GPa) = 14.20562 14.18465 14.19513
#
# Velocity S-wave (km/s) = 2.50900 2.50715 2.50808
# Velocity P-wave (km/s) = 3.57743 3.96747 3.77749
#
# Compressibility (1/GPa) = 0.10060991
#
# Stress axis : x y z
#
# Youngs Moduli (GPa) = 108.37108 22.90047 56.05363
#
# Poissons Ratio (x) = -0.14276 -0.07690
# Poissons Ratio (y) = -0.67557 -0.41098
# Poissons Ratio (z) = -0.14867 -0.16790
#
# Static dielectric constant tensor:
#      x y z
#    x 1.821600 0.000000 0.000000 
#    y 0.000000 1.794220 0.000000 
#    z 0.000000 0.000000 1.914530 
# 
# From -- ./inp_files/6138.got.cif
#   From: 2010.05.17/outbox.cif.g08.bks.cpg/sg55_4_cif.got.tgz:6138.got - 2010.06.03 13:27:54.
