data_PCOD9427166
_publ_section_title
;
Structure prediction by ZEFSAII (Michael W. Deem and Ramdas Pophale) SiO2 
 PCOD9427166
Probable space group: P B A M
;
_chemical_formula_sum "Si O2"
_cell_formula_units_Z 40
_cell_length_a 18.304744
_cell_length_b 5.229767
_cell_length_c 20.554764
_cell_angle_alpha 90.000000
_cell_angle_beta 90.000000
_cell_angle_gamma 90.000000
_cell_volume 1967.698228
_symmetry_space_group_name_H-M "P B A M"
_symmetry_group_IT_number 55
_symmetry_cell_setting 'orthorhombic'
loop_
_space_group_symop_operation_xyz
x,y,z
-x,-y,z
1/2+x,1/2-y,-z
1/2-x,1/2+y,-z
-x,-y,-z
x,y,-z
1/2-x,1/2+y,z
1/2+x,1/2-y,z
loop_
_atom_site_type_symbol
_atom_site_label
_atom_site_fract_x
_atom_site_fract_y
_atom_site_fract_z
Si Si1 0.950076 0.746230 0.301806
Si Si2 0.551518 0.247874 0.154759
Si Si3 0.708922 0.839003 0.421988
Si Si4 0.702991 0.264561 0.078363
Si Si5 0.086737 0.030901 0.427653
O O1 0.918786 0.724805 0.229225
O O2 0.901187 0.791060 0.365373
O O3 0.000000 0.500000 0.312385
O O4 0.000000 0.000000 0.298469
O O5 0.500000 0.500000 0.148760
O O6 0.622347 0.260782 0.109189
O O7 0.500000 0.000000 0.142704
O O8 0.716375 0.857227 0.500000
O O9 0.757635 0.601416 0.397166
O O10 0.626762 0.736343 0.412991
O O11 0.749304 0.516071 0.096941
O O12 0.695460 0.264195 0.000000
O O13 0.112077 0.120581 0.500000
O O14 0.000000 0.000000 0.432682
#
# Coordination Sequence:
#
# PCOD9427166 Si02
#       5
#     8   8   8   8   8
#     4   9  19  34  51  75 106 136 172 224 275 311
#     4  10  20  36  58  81 109 149 193 230 267 325
#     4   9  18  32  47  65  93 124 153 195 253 308
#     4  10  21  37  57  85 121 152 180 226 282 325
#     4   9  18  33  54  77 100 132 176 221 267 323
#
# _framework density 20.328320999999999
#
# number of rings (size 3 to 8) (size 9 to 14) (size 15 to 20)
#    0.000    2.600    0.000    1.200    0.000    4.400 
#    0.000    8.000    0.000    0.000    0.000    0.000 
#    0.000    0.000    0.000    0.000    0.000    0.000 
#
# Total GULP energy -222959.625393 kJ/mol
# GULP energy per Si atom -5573.990635 kJ/mol
# Density = 2.028205 g / cm^3
# Si number density = 20.328321 Si / 1000 Ang^3
#
#
#
# Elastic Constant Matrix: (Units=GPa)
#
#
# Indices 1 2 3 4 5 6 
#
# 1 132.4466 49.7031 42.8399 0.0000 0.0000 0.0000
# 2 49.7031 150.2041 32.7100 0.0000 0.0000 0.0000
# 3 42.8399 32.7100 75.1602 0.0000 0.0000 0.0000
# 4 0.0000 0.0000 0.0000 35.1805 0.0000 0.0000
# 5 0.0000 0.0000 0.0000 0.0000 8.1857 0.0000
# 6 0.0000 0.0000 0.0000 0.0000 0.0000 34.2856
#
#
#
# Elastic Compliance Matrix: (Units=1/GPa)
#
#
# Indices 1 2 3 4 5 6 
#
# 1 0.009907 -0.002263 -0.004662 0.000000 0.000000 0.000000
# 2 -0.002263 0.007872 -0.002136 0.000000 0.000000 0.000000
# 3 -0.004662 -0.002136 0.016892 0.000000 0.000000 0.000000
# 4 0.000000 0.000000 0.000000 0.028425 0.000000 0.000000
# 5 0.000000 0.000000 0.000000 0.000000 0.122164 0.000000
# 6 0.000000 0.000000 0.000000 0.000000 0.000000 0.029167
#
#
# Mechanical properties :
#
#
# Convention : Reuss Voigt Hill
#
# Bulk Modulus (GPa) = 60.42789 67.59077 64.00933
# Shear Modulus (GPa) = 21.00265 31.03423 26.01844
#
# Velocity S-wave (km/s) = 3.21779 3.91148 3.58147
# Velocity P-wave (km/s) = 6.60273 7.32948 6.97557
#
# Compressibility (1/GPa) = 0.01654865
#
# Stress axis : x y z
#
# Youngs Moduli (GPa) = 100.93400 127.03890 59.20049
#
# Poissons Ratio (x) = 0.28751 0.27600
# Poissons Ratio (y) = 0.22843 0.12644
# Poissons Ratio (z) = 0.47057 0.27133
#
# Static dielectric constant tensor:
#      x y z
#    x 1.733240 0.000000 0.000000 
#    y 0.000000 1.755740 0.000000 
#    z 0.000000 0.000000 1.759990 
# 
# From -- ./inp_files/21870.got.cif
#   From: 2010.05.17/outbox.cif.g08.bks.cpg/sg55_11_cif.got.tgz:21870.got - 2010.06.03 13:27:54.
