data_PCOD9427647
_publ_section_title
;
Structure prediction by ZEFSAII (Michael W. Deem and Ramdas Pophale) SiO2 
 PCOD9427647
Probable space group: P B A M
;
_chemical_formula_sum "Si O2"
_cell_formula_units_Z 58
_cell_length_a 22.520987
_cell_length_b 15.042322
_cell_length_c 9.391319
_cell_angle_alpha 90.000000
_cell_angle_beta 90.000000
_cell_angle_gamma 90.000000
_cell_volume 3181.477775
_symmetry_space_group_name_H-M "P B A M"
_symmetry_group_IT_number 55
_symmetry_cell_setting 'orthorhombic'
loop_
_space_group_symop_operation_xyz
x,y,z
-x,-y,z
1/2+x,1/2-y,-z
1/2-x,1/2+y,-z
-x,-y,-z
x,y,-z
1/2-x,1/2+y,z
1/2+x,1/2-y,z
loop_
_atom_site_type_symbol
_atom_site_label
_atom_site_fract_x
_atom_site_fract_y
_atom_site_fract_z
Si Si1 0.500000 0.000000 0.000000
Si Si2 0.232909 0.581914 0.167178
Si Si3 0.372668 0.568154 0.167436
Si Si4 0.902096 0.109689 0.666956
Si Si5 0.796794 0.246663 0.331876
Si Si6 0.032176 0.185782 0.668639
Si Si7 0.934542 0.654516 0.843880
Si Si8 0.203442 0.377723 0.170145
O O1 0.533630 0.061681 0.878212
O O2 0.303697 0.593792 0.183370
O O3 0.201405 0.656902 0.259840
O O4 0.217375 0.480452 0.206283
O O5 0.217756 0.593298 0.000000
O O6 0.382154 0.470911 0.234124
O O7 0.415325 0.634276 0.251687
O O8 0.386510 0.567383 0.000000
O O9 0.898222 0.082672 0.500000
O O10 0.857879 0.192426 0.687280
O O11 0.969512 0.137925 0.696726
O O12 0.784883 0.254169 0.500000
O O13 0.745599 0.188464 0.256162
O O14 0.042072 0.185370 0.500000
O O15 0.032305 0.284847 0.731003
O O16 0.865877 0.641120 0.804127
O O17 0.935049 0.702016 0.000000
O O18 0.214459 0.366944 0.000000
#
# Coordination Sequence:
#
# PCOD9427647 Si02
#       8
#     2   8   8   8   8   8   8   8
#     4   8  20  40  62  88 114 156 194 254 304 330
#     4  10  22  38  59  88 120 155 194 243 301 359
#     4  11  22  38  61  90 121 155 202 248 296 358
#     4  10  23  41  57  82 124 163 196 246 299 356
#     4  11  23  38  59  88 121 158 202 248 299 360
#     4  11  23  39  60  87 120 161 201 242 305 362
#     4   9  20  39  63  88 117 151 202 251 292 355
#     4  10  20  39  62  86 119 155 196 246 299 354
#
# _framework density 18.230522000000001
#
# number of rings (size 3 to 8) (size 9 to 14) (size 15 to 20)
#    0.414    1.379    1.379    2.483    0.000    9.931 
#    0.000    0.345    0.000    0.000    0.000    0.000 
#    0.000    0.000    0.000    0.000    0.000    0.000 
#
# Total GULP energy -323288.864977 kJ/mol
# GULP energy per Si atom -5573.945948 kJ/mol
# Density = 1.818903 g / cm^3
# Si number density = 18.230522 Si / 1000 Ang^3
#
#
#
# Elastic Constant Matrix: (Units=GPa)
#
#
# Indices 1 2 3 4 5 6 
#
# 1 15.7930 -6.4532 15.0585 0.0000 0.0000 0.0000
# 2 -6.4532 48.2023 21.8164 0.0000 0.0000 0.0000
# 3 15.0585 21.8164 43.2012 0.0000 0.0000 0.0000
# 4 0.0000 0.0000 0.0000 -6.1938 0.0000 0.0000
# 5 0.0000 0.0000 0.0000 0.0000 25.2865 0.0000
# 6 0.0000 0.0000 0.0000 0.0000 0.0000 25.0331
#
#
#
# Elastic Compliance Matrix: (Units=1/GPa)
#
#
# Indices 1 2 3 4 5 6 
#
# 1 0.191217 0.072289 -0.103157 0.000000 0.000000 0.000000
# 2 0.072289 0.054221 -0.052579 0.000000 0.000000 0.000000
# 3 -0.103157 -0.052579 0.085657 0.000000 0.000000 0.000000
# 4 0.000000 0.000000 0.000000 -0.161451 0.000000 0.000000
# 5 0.000000 0.000000 0.000000 0.000000 0.039547 0.000000
# 6 0.000000 0.000000 0.000000 0.000000 0.000000 0.039947
#
#
# Mechanical properties :
#
#
# Convention : Reuss Voigt Hill
#
# Bulk Modulus (GPa) = 6.09013 18.67110 12.38061
# Shear Modulus (GPa) = 10.62101 13.94348 12.28224
#
# Velocity S-wave (km/s) = 2.41632 2.76858 2.59843
# Velocity P-wave (km/s) = 3.33657 4.52592 3.97597
#
# Compressibility (1/GPa) = 0.16420012
#
# Stress axis : x y z
#
# Youngs Moduli (GPa) = 5.22966 18.44306 11.67452
#
# Poissons Ratio (x) = -1.33323 1.20431
# Poissons Ratio (y) = -0.37805 0.61383
# Poissons Ratio (z) = 0.53948 0.96971
#
# Static dielectric constant tensor:
#      x y z
#    x 1.605030 0.000000 0.000000 
#    y 0.000000 1.633150 0.000000 
#    z 0.000000 0.000000 1.610340 
# 
# From -- ./inp_files/9576.got.cif
#   From: 2010.05.17/outbox.cif.g08.bks.cpg/sg55_5_cif.got.tgz:9576.got - 2010.06.03 13:27:54.
