data_PCOD9427964
_publ_section_title
;
Structure prediction by ZEFSAII (Michael W. Deem and Ramdas Pophale) SiO2 
 PCOD9427964
Probable space group: P B A M
;
_chemical_formula_sum "Si O2"
_cell_formula_units_Z 56
_cell_length_a 20.625815
_cell_length_b 16.599185
_cell_length_c 9.040629
_cell_angle_alpha 90.000000
_cell_angle_beta 90.000000
_cell_angle_gamma 90.000000
_cell_volume 3095.255691
_symmetry_space_group_name_H-M "P B A M"
_symmetry_group_IT_number 55
_symmetry_cell_setting 'orthorhombic'
loop_
_space_group_symop_operation_xyz
x,y,z
-x,-y,z
1/2+x,1/2-y,-z
1/2-x,1/2+y,-z
-x,-y,-z
x,y,-z
1/2-x,1/2+y,z
1/2+x,1/2-y,z
loop_
_atom_site_type_symbol
_atom_site_label
_atom_site_fract_x
_atom_site_fract_y
_atom_site_fract_z
Si Si1 0.171041 0.528362 0.322180
Si Si2 0.181324 0.000361 0.677146
Si Si3 0.889120 0.317041 0.177370
Si Si4 0.447271 0.566231 0.821616
Si Si5 0.529190 0.250240 0.178185
Si Si6 0.851864 0.657508 0.677564
Si Si7 0.704434 0.686686 0.322438
O O1 0.166393 0.537763 0.500000
O O2 0.247437 0.533630 0.282780
O O3 0.130365 0.596645 0.242165
O O4 0.148636 0.437633 0.285637
O O5 0.174688 0.008274 0.500000
O O6 0.181931 0.904715 0.711284
O O7 0.122530 0.044224 0.756438
O O8 0.838769 0.251580 0.239921
O O9 0.961426 0.290324 0.222870
O O10 0.886169 0.318207 0.000000
O O11 0.500000 0.500000 0.773185
O O12 0.468612 0.655929 0.777460
O O13 0.443832 0.563492 0.000000
O O14 0.590247 0.204243 0.245753
O O15 0.533105 0.247105 0.000000
O O16 0.857816 0.663855 0.500000
O O17 0.780595 0.691304 0.717135
O O18 0.699295 0.697797 0.500000
#
# Coordination Sequence:
#
# PCOD9427964 Si02
#       7
#     8   8   8   8   8   8   8
#     4   9  20  39  59  82 112 144 184 237 288 332
#     4   9  19  36  58  83 110 142 184 233 281 332
#     4  11  23  37  56  83 114 151 191 228 279 339
#     4  10  21  37  56  79 115 155 187 226 279 335
#     4  10  23  39  54  80 117 152 188 233 281 333
#     4   9  20  39  61  83 109 147 190 233 287 340
#     4   9  19  37  59  83 113 146 184 234 283 331
#
# _framework density 18.092205
#
# number of rings (size 3 to 8) (size 9 to 14) (size 15 to 20)
#    0.000    2.429    0.000    3.000    2.000    6.000 
#    0.000    5.714    0.000    0.000    0.000    0.000 
#    0.000    0.000    0.000    0.000    0.000    0.000 
#
# Total GULP energy -312656.609149 kJ/mol
# GULP energy per Si atom -5583.153735 kJ/mol
# Density = 1.805103 g / cm^3
# Si number density = 18.092205 Si / 1000 Ang^3
#
#
#
# Elastic Constant Matrix: (Units=GPa)
#
#
# Indices 1 2 3 4 5 6 
#
# 1 121.1617 66.4536 28.4112 0.0000 0.0000 0.0000
# 2 66.4536 57.0965 20.6423 0.0000 0.0000 0.0000
# 3 28.4112 20.6423 11.6048 0.0000 0.0000 0.0000
# 4 0.0000 0.0000 0.0000 31.6664 0.0000 0.0000
# 5 0.0000 0.0000 0.0000 0.0000 36.4208 0.0000
# 6 0.0000 0.0000 0.0000 0.0000 0.0000 33.2725
#
#
#
# Elastic Compliance Matrix: (Units=1/GPa)
#
#
# Indices 1 2 3 4 5 6 
#
# 1 0.025528 -0.019938 -0.027032 0.000000 0.000000 0.000000
# 2 -0.019938 0.064644 -0.066174 0.000000 0.000000 0.000000
# 3 -0.027032 -0.066174 0.270060 0.000000 0.000000 0.000000
# 4 0.000000 0.000000 0.000000 0.031579 0.000000 0.000000
# 5 0.000000 0.000000 0.000000 0.000000 0.027457 0.000000
# 6 0.000000 0.000000 0.000000 0.000000 0.000000 0.030055
#
#
# Mechanical properties :
#
#
# Convention : Reuss Voigt Hill
#
# Bulk Modulus (GPa) = 7.46583 46.76415 27.11499
# Shear Modulus (GPa) = 6.94196 25.22901 16.08548
#
# Velocity S-wave (km/s) = 1.96095 3.73831 2.98499
# Velocity P-wave (km/s) = 3.04345 6.67361 5.18650
#
# Compressibility (1/GPa) = 0.13394356
#
# Stress axis : x y z
#
# Youngs Moduli (GPa) = 39.17309 15.46934 3.70289
#
# Poissons Ratio (x) = 0.30843 0.10010
# Poissons Ratio (y) = 0.78104 0.24503
# Poissons Ratio (z) = 1.05893 1.02366
#
# Static dielectric constant tensor:
#      x y z
#    x 1.593890 0.000000 0.000000 
#    y 0.000000 1.609100 0.000000 
#    z 0.000000 0.000000 1.602100 
# 
# From -- ./inp_files/8734.got.cif
#   From: 2010.05.17/outbox.cif.g08.bks.cpg/sg55_5_cif.got.tgz:8734.got - 2010.06.03 13:27:54.
