data_PCOD9427874
_publ_section_title
;
Structure prediction by ZEFSAII (Michael W. Deem and Ramdas Pophale) SiO2 
 PCOD9427874
Probable space group: P B A M
;
_chemical_formula_sum "Si O2"
_cell_formula_units_Z 42
_cell_length_a 23.485836
_cell_length_b 10.347744
_cell_length_c 7.135480
_cell_angle_alpha 90.000000
_cell_angle_beta 90.000000
_cell_angle_gamma 90.000000
_cell_volume 1734.103014
_symmetry_space_group_name_H-M "P B A M"
_symmetry_group_IT_number 55
_symmetry_cell_setting 'orthorhombic'
loop_
_space_group_symop_operation_xyz
x,y,z
-x,-y,z
1/2+x,1/2-y,-z
1/2-x,1/2+y,-z
-x,-y,-z
x,y,-z
1/2-x,1/2+y,z
1/2+x,1/2-y,z
loop_
_atom_site_type_symbol
_atom_site_label
_atom_site_fract_x
_atom_site_fract_y
_atom_site_fract_z
Si Si1 0.875556 0.273552 0.225858
Si Si2 0.500000 0.000000 0.500000
Si Si3 0.205275 0.949287 0.771943
Si Si4 0.163808 0.452017 0.772473
Si Si5 0.119434 0.171897 0.773420
Si Si6 0.499013 0.755778 0.225863
O O1 0.823042 0.185703 0.286653
O O2 0.870583 0.421520 0.291176
O O3 0.936653 0.213588 0.273004
O O4 0.872717 0.277111 0.000000
O O5 0.490592 0.888300 0.336733
O O6 0.270430 0.965188 0.715249
O O7 0.163210 0.063063 0.710073
O O8 0.206058 0.950222 0.000000
O O9 0.139518 0.314388 0.713254
O O10 0.162040 0.451936 0.000000
O O11 0.052900 0.160656 0.726169
O O12 0.122674 0.168860 0.000000
O O13 0.496691 0.777465 0.000000
#
# Coordination Sequence:
#
# PCOD9427874 Si02
#       6
#     8   2   8   8   8   8
#     4   9  17  29  47  73 109 145 179 228 275 320
#     4  12  22  36  60  84 112 152 182 218 276 328
#     4   9  16  26  44  73 107 147 187 220 271 331
#     4   9  15  24  41  70 107 143 184 231 271 316
#     4   9  17  29  47  73 109 145 179 228 275 320
#     4  10  21  36  55  84 114 140 181 228 272 323
#
# _framework density 24.220012000000001
#
# number of rings (size 3 to 8) (size 9 to 14) (size 15 to 20)
#    0.000    2.667    0.000    2.571    0.000    8.381 
#    0.000    3.810    0.000    2.286    0.000   21.333 
#    0.000    0.000    0.000    0.000    0.000    0.000 
#
# Total GULP energy -234326.621026 kJ/mol
# GULP energy per Si atom -5579.205263 kJ/mol
# Density = 2.416489 g / cm^3
# Si number density = 24.220012 Si / 1000 Ang^3
#
#
#
# Elastic Constant Matrix: (Units=GPa)
#
#
# Indices 1 2 3 4 5 6 
#
# 1 106.6126 10.9728 -7.2514 0.0000 0.0000 0.0000
# 2 10.9728 59.6034 -16.2531 0.0000 0.0000 0.0000
# 3 -7.2514 -16.2531 142.1961 0.0000 0.0000 0.0000
# 4 0.0000 0.0000 0.0000 -78.1137 0.0000 0.0000
# 5 0.0000 0.0000 0.0000 0.0000 -42.2840 0.0000
# 6 0.0000 0.0000 0.0000 0.0000 0.0000 19.8903
#
#
#
# Elastic Compliance Matrix: (Units=1/GPa)
#
#
# Indices 1 2 3 4 5 6 
#
# 1 0.009573 -0.001682 0.000296 0.000000 0.000000 0.000000
# 2 -0.001682 0.017613 0.001927 0.000000 0.000000 0.000000
# 3 0.000296 0.001927 0.007268 0.000000 0.000000 0.000000
# 4 0.000000 0.000000 0.000000 -0.012802 0.000000 0.000000
# 5 0.000000 0.000000 0.000000 0.000000 -0.023650 0.000000
# 6 0.000000 0.000000 0.000000 0.000000 0.000000 0.050276
#
#
# Mechanical properties :
#
#
# Convention : Reuss Voigt Hill
#
# Bulk Modulus (GPa) = 28.13964 31.48319 29.81141
# Shear Modulus (GPa) = 84.68819 1.29478 42.99148
#
# Velocity S-wave (km/s) = 5.91964 0.73195 4.21769
# Velocity P-wave (km/s) = 7.63979 3.70694 6.00449
#
# Compressibility (1/GPa) = 0.03553706
#
# Stress axis : x y z
#
# Youngs Moduli (GPa) = 104.46090 56.77707 137.59059
#
# Poissons Ratio (x) = 0.09548 -0.04072
# Poissons Ratio (y) = 0.17567 -0.26519
# Poissons Ratio (z) = -0.03092 -0.10943
#
# Static dielectric constant tensor:
#      x y z
#    x 1.916910 0.000000 0.000000 
#    y 0.000000 1.845420 0.000000 
#    z 0.000000 0.000000 1.950670 
# 
# From -- ./inp_files/9404.got.cif
#   From: 2010.05.17/outbox.cif.g08.bks.cpg/sg55_5_cif.got.tgz:9404.got - 2010.06.03 13:27:54.
