data_PCOD9427904
_publ_section_title
;
Structure prediction by ZEFSAII (Michael W. Deem and Ramdas Pophale) SiO2 
 PCOD9427904
Probable space group: P B A M
;
_chemical_formula_sum "Si O2"
_cell_formula_units_Z 36
_cell_length_a 11.997269
_cell_length_b 5.016647
_cell_length_c 24.882022
_cell_angle_alpha 90.000000
_cell_angle_beta 90.000000
_cell_angle_gamma 90.000000
_cell_volume 1497.550957
_symmetry_space_group_name_H-M "P B A M"
_symmetry_group_IT_number 55
_symmetry_cell_setting 'orthorhombic'
loop_
_space_group_symop_operation_xyz
x,y,z
-x,-y,z
1/2+x,1/2-y,-z
1/2-x,1/2+y,-z
-x,-y,-z
x,y,-z
1/2-x,1/2+y,z
1/2+x,1/2-y,z
loop_
_atom_site_type_symbol
_atom_site_label
_atom_site_fract_x
_atom_site_fract_y
_atom_site_fract_z
Si Si1 0.080866 0.750024 0.057241
Si Si2 0.000000 0.500000 0.635173
Si Si3 0.676411 0.298178 0.563221
Si Si4 0.828839 0.222224 0.713179
Si Si5 0.685763 0.849328 0.171699
O O1 0.144469 0.727884 0.112965
O O2 0.000000 0.500000 0.055463
O O3 0.145632 0.759927 0.000000
O O4 0.000000 0.000000 0.059188
O O5 0.923939 0.690671 0.598535
O O6 0.922007 0.315578 0.672186
O O7 0.648084 0.276421 0.500000
O O8 0.720162 0.595650 0.573399
O O9 0.725109 0.430958 0.707131
O O10 0.875350 0.258406 0.774059
O O11 0.796947 0.665544 0.175507
#
# Coordination Sequence:
#
# PCOD9427904 Si02
#       5
#     8   4   8   8   8
#     4  10  21  36  57  86 116 147 193 248 299 360
#     4  12  23  40  68  92 121 174 208 248 314 374
#     4  10  23  42  64  94 130 162 204 260 306 363
#     4  10  24  42  58  89 126 157 207 260 299 358
#     4  10  21  39  58  81 115 153 194 245 300 356
#
# _framework density 24.039249999999999
#
# number of rings (size 3 to 8) (size 9 to 14) (size 15 to 20)
#    0.000    1.778    0.000    3.000    1.556    4.444 
#    0.000    3.333    0.000    0.000    0.000    0.000 
#    0.000    0.000    0.000    0.000    0.000    0.000 
#
# Total GULP energy -201473.324174 kJ/mol
# GULP energy per Si atom -5596.481227 kJ/mol
# Density = 2.398454 g / cm^3
# Si number density = 24.039250 Si / 1000 Ang^3
#
#
#
# Elastic Constant Matrix: (Units=GPa)
#
#
# Indices 1 2 3 4 5 6 
#
# 1 50.0139 5.7470 60.0904 0.0000 0.0000 0.0000
# 2 5.7470 123.1854 8.1599 0.0000 0.0000 0.0000
# 3 60.0904 8.1599 180.7149 0.0000 0.0000 0.0000
# 4 0.0000 0.0000 0.0000 28.1288 0.0000 0.0000
# 5 0.0000 0.0000 0.0000 0.0000 120.8926 0.0000
# 6 0.0000 0.0000 0.0000 0.0000 0.0000 22.2081
#
#
#
# Elastic Compliance Matrix: (Units=1/GPa)
#
#
# Indices 1 2 3 4 5 6 
#
# 1 0.033380 -0.000825 -0.011062 0.000000 0.000000 0.000000
# 2 -0.000825 0.008163 -0.000094 0.000000 0.000000 0.000000
# 3 -0.011062 -0.000094 0.009216 0.000000 0.000000 0.000000
# 4 0.000000 0.000000 0.000000 0.035551 0.000000 0.000000
# 5 0.000000 0.000000 0.000000 0.000000 0.008272 0.000000
# 6 0.000000 0.000000 0.000000 0.000000 0.000000 0.045029
#
#
# Mechanical properties :
#
#
# Convention : Reuss Voigt Hill
#
# Bulk Modulus (GPa) = 37.31807 55.76763 46.54285
# Shear Modulus (GPa) = 28.98482 52.90704 40.94593
#
# Velocity S-wave (km/s) = 3.47613 4.69642 4.13158
# Velocity P-wave (km/s) = 5.62750 7.25655 6.49331
#
# Compressibility (1/GPa) = 0.02679667
#
# Stress axis : x y z
#
# Youngs Moduli (GPa) = 29.95804 122.51049 108.50505
#
# Poissons Ratio (x) = 0.10101 1.20030
# Poissons Ratio (y) = 0.02470 0.01024
# Poissons Ratio (z) = 0.33140 0.01157
#
# Static dielectric constant tensor:
#      x y z
#    x 1.900390 0.000000 0.000000 
#    y 0.000000 1.870520 0.000000 
#    z 0.000000 0.000000 2.001190 
# 
# From -- ./inp_files/23525.got.cif
#   From: 2010.05.17/outbox.cif.g08.bks.cpg/sg55_12_cif.got.tgz:23525.got - 2010.06.03 13:27:54.
