data_PCOD9427578
_publ_section_title
;
Structure prediction by ZEFSAII (Michael W. Deem and Ramdas Pophale) SiO2 
 PCOD9427578
Probable space group: P B A M
;
_chemical_formula_sum "Si O2"
_cell_formula_units_Z 48
_cell_length_a 8.033409
_cell_length_b 18.978769
_cell_length_c 13.664878
_cell_angle_alpha 90.000000
_cell_angle_beta 90.000000
_cell_angle_gamma 90.000000
_cell_volume 2083.404879
_symmetry_space_group_name_H-M "P B A M"
_symmetry_group_IT_number 55
_symmetry_cell_setting 'orthorhombic'
loop_
_space_group_symop_operation_xyz
x,y,z
-x,-y,z
1/2+x,1/2-y,-z
1/2-x,1/2+y,-z
-x,-y,-z
x,y,-z
1/2-x,1/2+y,z
1/2+x,1/2-y,z
loop_
_atom_site_type_symbol
_atom_site_label
_atom_site_fract_x
_atom_site_fract_y
_atom_site_fract_z
Si Si1 0.585866 0.685908 0.390619
Si Si2 0.740152 0.482686 0.111602
Si Si3 0.520557 0.153453 0.389708
Si Si4 0.954656 0.600692 0.185088
Si Si5 0.933841 0.853221 0.193771
Si Si6 0.250232 0.270136 0.885444
O O1 0.527252 0.668498 0.500000
O O2 0.564018 0.770010 0.378596
O O3 0.780352 0.667276 0.382540
O O4 0.481961 0.647798 0.307033
O O5 0.794324 0.549279 0.176323
O O6 0.600013 0.430259 0.151690
O O7 0.905521 0.433558 0.117350
O O8 0.709394 0.504464 0.000000
O O9 0.483971 0.127323 0.500000
O O10 0.481188 0.105309 0.296564
O O11 0.894452 0.676054 0.147554
O O12 0.777371 0.801595 0.174092
O O13 0.082252 0.812351 0.138577
O O14 0.240225 0.254731 0.000000
#
# Coordination Sequence:
#
# PCOD9427578 Si02
#       6
#     8   8   8   8   8   8
#     4  10  20  38  62  93 124 156 199 252 313 362
#     4  11  25  43  62  86 126 170 209 253 311 369
#     4  10  21  39  64  93 124 160 201 257 314 370
#     4  11  22  42  63  87 120 166 208 254 308 366
#     4  12  23  40  60  93 123 158 207 252 313 367
#     4  12  23  37  61  90 123 158 206 260 304 361
#
# _framework density 23.039209
#
# number of rings (size 3 to 8) (size 9 to 14) (size 15 to 20)
#    0.000    1.000    3.333    4.500    2.333    0.667 
#    0.000    4.167    0.000    2.000    0.000    0.000 
#    0.000    0.000    0.000    0.000    0.000    0.000 
#
# Total GULP energy -268849.910243 kJ/mol
# GULP energy per Si atom -5601.039797 kJ/mol
# Density = 2.298677 g / cm^3
# Si number density = 23.039209 Si / 1000 Ang^3
#
#
#
# Elastic Constant Matrix: (Units=GPa)
#
#
# Indices 1 2 3 4 5 6 
#
# 1 57.7032 -3.8269 0.7601 0.0000 0.0000 0.0000
# 2 -3.8269 77.0385 11.5613 0.0000 0.0000 0.0000
# 3 0.7601 11.5613 165.8737 0.0000 0.0000 0.0000
# 4 0.0000 0.0000 0.0000 28.9508 0.0000 0.0000
# 5 0.0000 0.0000 0.0000 0.0000 26.3184 0.0000
# 6 0.0000 0.0000 0.0000 0.0000 0.0000 31.0291
#
#
#
# Elastic Compliance Matrix: (Units=1/GPa)
#
#
# Indices 1 2 3 4 5 6 
#
# 1 0.017391 0.000885 -0.000141 0.000000 0.000000 0.000000
# 2 0.000885 0.013163 -0.000921 0.000000 0.000000 0.000000
# 3 -0.000141 -0.000921 0.006094 0.000000 0.000000 0.000000
# 4 0.000000 0.000000 0.000000 0.034541 0.000000 0.000000
# 5 0.000000 0.000000 0.000000 0.000000 0.037996 0.000000
# 6 0.000000 0.000000 0.000000 0.000000 0.000000 0.032228
#
#
# Mechanical properties :
#
#
# Convention : Reuss Voigt Hill
#
# Bulk Modulus (GPa) = 27.55474 35.28939 31.42206
# Shear Modulus (GPa) = 32.49601 36.73439 34.61520
#
# Velocity S-wave (km/s) = 3.75969 3.99736 3.88035
# Velocity P-wave (km/s) = 5.55274 6.05438 5.80898
#
# Compressibility (1/GPa) = 0.03629140
#
# Stress axis : x y z
#
# Youngs Moduli (GPa) = 57.50224 75.97181 164.10776
#
# Poissons Ratio (x) = -0.06724 0.02320
# Poissons Ratio (y) = -0.05089 0.15122
# Poissons Ratio (z) = 0.00813 0.07001
#
# Static dielectric constant tensor:
#      x y z
#    x 1.973910 0.000000 0.000000 
#    y 0.000000 1.830760 0.000000 
#    z 0.000000 0.000000 1.840610 
# 
# From -- ./inp_files/17330.got.cif
#   From: 2010.05.17/outbox.cif.g08.bks.cpg/sg55_9_cif.got.tgz:17330.got - 2010.06.03 13:27:54.
