data_PCOD9427445
_publ_section_title
;
Structure prediction by ZEFSAII (Michael W. Deem and Ramdas Pophale) SiO2 
 PCOD9427445
Probable space group: P B A M
;
_chemical_formula_sum "Si O2"
_cell_formula_units_Z 64
_cell_length_a 18.605630
_cell_length_b 19.969216
_cell_length_c 8.893341
_cell_angle_alpha 90.000000
_cell_angle_beta 90.000000
_cell_angle_gamma 90.000000
_cell_volume 3304.230530
_symmetry_space_group_name_H-M "P B A M"
_symmetry_group_IT_number 55
_symmetry_cell_setting 'orthorhombic'
loop_
_space_group_symop_operation_xyz
x,y,z
-x,-y,z
1/2+x,1/2-y,-z
1/2-x,1/2+y,-z
-x,-y,-z
x,y,-z
1/2-x,1/2+y,z
1/2+x,1/2-y,z
loop_
_atom_site_type_symbol
_atom_site_label
_atom_site_fract_x
_atom_site_fract_y
_atom_site_fract_z
Si Si1 0.239956 0.613781 0.178876
Si Si2 0.399608 0.175869 0.321958
Si Si3 0.933952 0.049856 0.821310
Si Si4 0.825312 0.628944 0.820706
Si Si5 0.029951 0.426886 0.679038
Si Si6 0.481548 0.310837 0.320303
Si Si7 0.363864 0.719611 0.180800
Si Si8 0.281098 0.474976 0.678847
O O1 0.168369 0.652405 0.227801
O O2 0.308268 0.660417 0.218201
O O3 0.244115 0.542593 0.260857
O O4 0.240816 0.602940 0.000000
O O5 0.382269 0.172008 0.500000
O O6 0.466775 0.126486 0.295025
O O7 0.427052 0.250183 0.286961
O O8 0.955949 0.122408 0.761294
O O9 0.862144 0.025866 0.739512
O O10 0.921097 0.051511 0.000000
O O11 0.000000 0.000000 0.792015
O O12 0.899353 0.594164 0.768395
O O13 0.831255 0.707563 0.780716
O O14 0.760884 0.589413 0.742147
O O15 0.817394 0.623735 0.000000
O O16 0.046861 0.427145 0.500000
O O17 0.000000 0.500000 0.719321
O O18 0.483241 0.320437 0.500000
O O19 0.560631 0.290871 0.262912
O O20 0.375641 0.718498 0.000000
O O21 0.279718 0.474037 0.500000
#
# Coordination Sequence:
#
# PCOD9427445 Si02
#       8
#     8   8   8   8   8   8   8   8
#     4  11  24  42  65  93 126 167 214 263 320 384
#     4  10  22  39  59  93 132 167 209 258 315 376
#     4  11  25  45  69  95 128 169 215 271 327 383
#     4  11  23  40  63  93 127 167 213 260 313 380
#     4  10  20  37  61  88 124 166 205 253 308 365
#     4  11  23  40  65  97 130 168 213 263 319 383
#     4  10  23  42  64  93 128 168 212 262 321 381
#     4  12  26  44  66  95 130 169 213 268 326 386
#
# _framework density 19.369108000000001
#
# number of rings (size 3 to 8) (size 9 to 14) (size 15 to 20)
#    0.000    1.250    1.250    4.125    1.750    8.250 
#    0.000    0.000    0.000    0.000    0.000    0.000 
#    0.000    0.000    0.000    0.000    0.000    0.000 
#
# Total GULP energy -358080.831636 kJ/mol
# GULP energy per Si atom -5595.012994 kJ/mol
# Density = 1.932502 g / cm^3
# Si number density = 19.369108 Si / 1000 Ang^3
#
#
#
# Elastic Constant Matrix: (Units=GPa)
#
#
# Indices 1 2 3 4 5 6 
#
# 1 62.1307 -3.7305 35.7977 0.0000 0.0000 0.0000
# 2 -3.7305 74.9295 27.1179 0.0000 0.0000 0.0000
# 3 35.7977 27.1179 55.4818 0.0000 0.0000 0.0000
# 4 0.0000 0.0000 0.0000 15.2917 0.0000 0.0000
# 5 0.0000 0.0000 0.0000 0.0000 42.5975 0.0000
# 6 0.0000 0.0000 0.0000 0.0000 0.0000 31.0394
#
#
#
# Elastic Compliance Matrix: (Units=1/GPa)
#
#
# Indices 1 2 3 4 5 6 
#
# 1 0.031519 0.010848 -0.025639 0.000000 0.000000 0.000000
# 2 0.010848 0.019948 -0.016749 0.000000 0.000000 0.000000
# 3 -0.025639 -0.016749 0.042753 0.000000 0.000000 0.000000
# 4 0.000000 0.000000 0.000000 0.065395 0.000000 0.000000
# 5 0.000000 0.000000 0.000000 0.000000 0.023476 0.000000
# 6 0.000000 0.000000 0.000000 0.000000 0.000000 0.032217
#
#
# Mechanical properties :
#
#
# Convention : Reuss Voigt Hill
#
# Bulk Modulus (GPa) = 32.11323 34.54581 33.32952
# Shear Modulus (GPa) = 17.31504 26.67617 21.99561
#
# Velocity S-wave (km/s) = 2.99315 3.71516 3.37353
# Velocity P-wave (km/s) = 5.34423 6.02308 5.69378
#
# Compressibility (1/GPa) = 0.03113982
#
# Stress axis : x y z
#
# Youngs Moduli (GPa) = 31.72736 50.13094 23.39021
#
# Poissons Ratio (x) = -0.54383 0.59969
# Poissons Ratio (y) = -0.34418 0.39177
# Poissons Ratio (z) = 0.81344 0.83966
#
# Static dielectric constant tensor:
#      x y z
#    x 1.639840 0.000000 0.000000 
#    y 0.000000 1.678570 0.000000 
#    z 0.000000 0.000000 1.647820 
# 
# From -- ./inp_files/8040.got.cif
#   From: 2010.05.17/outbox.cif.g08.bks.cpg/sg55_5_cif.got.tgz:8040.got - 2010.06.03 13:27:54.
