data_PCOD9427849
_publ_section_title
;
Structure prediction by ZEFSAII (Michael W. Deem and Ramdas Pophale) SiO2 
 PCOD9427849
Probable space group: P B A M
;
_chemical_formula_sum "Si O2"
_cell_formula_units_Z 56
_cell_length_a 21.106641
_cell_length_b 15.103298
_cell_length_c 7.458588
_cell_angle_alpha 90.000000
_cell_angle_beta 90.000000
_cell_angle_gamma 90.000000
_cell_volume 2377.647853
_symmetry_space_group_name_H-M "P B A M"
_symmetry_group_IT_number 55
_symmetry_cell_setting 'orthorhombic'
loop_
_space_group_symop_operation_xyz
x,y,z
-x,-y,z
1/2+x,1/2-y,-z
1/2-x,1/2+y,-z
-x,-y,-z
x,y,-z
1/2-x,1/2+y,z
1/2+x,1/2-y,z
loop_
_atom_site_type_symbol
_atom_site_label
_atom_site_fract_x
_atom_site_fract_y
_atom_site_fract_z
Si Si1 0.184633 0.507225 0.787187
Si Si2 0.177884 0.021925 0.791002
Si Si3 0.822645 0.694973 0.703052
Si Si4 0.088521 0.661831 0.715710
Si Si5 0.183234 0.814252 0.282034
Si Si6 0.459177 0.776709 0.707102
Si Si7 0.543266 0.417982 0.217805
O O1 0.252346 0.544434 0.718743
O O2 0.174664 0.411841 0.700489
O O3 0.127670 0.574094 0.757069
O O4 0.191246 0.491498 0.000000
O O5 0.115003 0.066365 0.715388
O O6 0.171382 0.915272 0.776000
O O7 0.178451 0.046257 0.000000
O O8 0.821551 0.730883 0.500000
O O9 0.753470 0.715087 0.782237
O O10 0.889023 0.722433 0.790653
O O11 0.084596 0.669416 0.500000
O O12 0.130176 0.745484 0.778885
O O13 0.016541 0.665925 0.784527
O O14 0.184850 0.815148 0.500000
O O15 0.450195 0.804734 0.500000
O O16 0.481749 0.675430 0.714192
O O17 0.500000 0.500000 0.273384
O O18 0.542872 0.415768 0.000000
#
# Coordination Sequence:
#
# PCOD9427849 Si02
#       7
#     8   8   8   8   8   8   8
#     4  10  21  36  55  80 106 139 183 225 268 319
#     4   9  19  35  53  78 109 139 176 221 268 318
#     4   9  19  37  56  77 106 140 178 223 273 320
#     4  10  21  36  54  79 110 141 177 223 272 320
#     4   9  18  33  55  79 104 138 180 220 263 319
#     4  10  22  37  55  81 110 142 181 224 272 322
#     4  10  21  36  55  80 113 148 179 216 269 329
#
# _framework density 23.552688
#
# number of rings (size 3 to 8) (size 9 to 14) (size 15 to 20)
#    0.000    2.429    0.000    1.286    2.000    3.714 
#    0.000    2.857    0.000    0.000    0.000    0.000 
#    0.000    0.000    0.000    0.000    0.000    0.000 
#
# Total GULP energy -312868.625109 kJ/mol
# GULP energy per Si atom -5586.939734 kJ/mol
# Density = 2.349908 g / cm^3
# Si number density = 23.552688 Si / 1000 Ang^3
#
#
#
# Elastic Constant Matrix: (Units=GPa)
#
#
# Indices 1 2 3 4 5 6 
#
# 1 105.1209 10.1276 13.1042 0.0000 0.0000 0.0000
# 2 10.1276 30.2980 -10.5175 0.0000 0.0000 0.0000
# 3 13.1042 -10.5175 79.0374 0.0000 0.0000 0.0000
# 4 0.0000 0.0000 0.0000 23.8812 0.0000 0.0000
# 5 0.0000 0.0000 0.0000 0.0000 -7.0101 0.0000
# 6 0.0000 0.0000 0.0000 0.0000 0.0000 37.4486
#
#
#
# Elastic Compliance Matrix: (Units=1/GPa)
#
#
# Indices 1 2 3 4 5 6 
#
# 1 0.010197 -0.004189 -0.002248 0.000000 0.000000 0.000000
# 2 -0.004189 0.036325 0.005528 0.000000 0.000000 0.000000
# 3 -0.002248 0.005528 0.013761 0.000000 0.000000 0.000000
# 4 0.000000 0.000000 0.000000 0.041874 0.000000 0.000000
# 5 0.000000 0.000000 0.000000 0.000000 -0.142651 0.000000
# 6 0.000000 0.000000 0.000000 0.000000 0.000000 0.026703
#
#
# Mechanical properties :
#
#
# Convention : Reuss Voigt Hill
#
# Bulk Modulus (GPa) = 17.10427 26.65388 21.87908
# Shear Modulus (GPa) = 665.44414 24.31340 344.87877
#
# Velocity S-wave (km/s) = 16.82699 3.21643 12.11390
# Velocity P-wave (km/s) = 19.61653 5.01349 14.31683
#
# Compressibility (1/GPa) = 0.05846492
#
# Stress axis : x y z
#
# Youngs Moduli (GPa) = 98.07161 27.52947 72.67135
#
# Poissons Ratio (x) = 0.11531 0.16336
# Poissons Ratio (y) = 0.41080 -0.40174
# Poissons Ratio (z) = 0.22046 -0.15219
#
# Static dielectric constant tensor:
#      x y z
#    x 1.939860 0.000000 0.000000 
#    y 0.000000 1.828260 0.000000 
#    z 0.000000 0.000000 1.899480 
# 
# From -- ./inp_files/5972.got.cif
#   From: 2010.05.17/outbox.cif.g08.bks.cpg/sg55_3_cif.got.tgz:5972.got - 2010.06.03 13:27:54.
