data_PCOD9427088
_publ_section_title
;
Structure prediction by ZEFSAII (Michael W. Deem and Ramdas Pophale) SiO2 
 PCOD9427088
Probable space group: P B A M
;
_chemical_formula_sum "Si O2"
_cell_formula_units_Z 48
_cell_length_a 13.882039
_cell_length_b 10.593771
_cell_length_c 12.552833
_cell_angle_alpha 90.000000
_cell_angle_beta 90.000000
_cell_angle_gamma 90.000000
_cell_volume 1846.059064
_symmetry_space_group_name_H-M "P B A M"
_symmetry_group_IT_number 55
_symmetry_cell_setting 'orthorhombic'
loop_
_space_group_symop_operation_xyz
x,y,z
-x,-y,z
1/2+x,1/2-y,-z
1/2-x,1/2+y,-z
-x,-y,-z
x,y,-z
1/2-x,1/2+y,z
1/2+x,1/2-y,z
loop_
_atom_site_type_symbol
_atom_site_label
_atom_site_fract_x
_atom_site_fract_y
_atom_site_fract_z
Si Si1 0.900961 0.786126 0.320226
Si Si2 0.657257 0.550539 0.616204
Si Si3 0.426021 0.164945 0.618147
Si Si4 0.694278 0.970588 0.201212
Si Si5 0.254243 0.286275 0.171684
Si Si6 0.024845 0.852096 0.117858
O O1 0.905387 0.921384 0.377903
O O2 0.791824 0.751594 0.289202
O O3 0.958151 0.675976 0.379257
O O4 0.956953 0.796780 0.208434
O O5 0.704113 0.552922 0.500000
O O6 0.604809 0.685723 0.626885
O O7 0.727693 0.521598 0.713424
O O8 0.394388 0.122348 0.500000
O O9 0.386950 0.089204 0.721089
O O10 0.738850 0.858404 0.131015
O O11 0.683227 0.100559 0.136434
O O12 0.362768 0.331693 0.144932
O O13 0.006586 0.800700 0.000000
O O14 0.000000 0.000000 0.117954
#
# Coordination Sequence:
#
# PCOD9427088 Si02
#       6
#     8   8   8   8   8   8
#     4  11  22  40  66  97 137 176 217 275 347 403
#     4  10  20  35  61  96 136 180 231 274 321 400
#     4  11  21  36  61  96 138 184 230 277 332 401
#     4  11  20  40  61  94 132 183 226 277 326 393
#     4  11  24  42  70  96 136 178 225 273 340 401
#     4  11  23  44  74 104 132 172 228 280 334 412
#
# _framework density 26.001335999999998
#
# number of rings (size 3 to 8) (size 9 to 14) (size 15 to 20)
#    0.000    1.167    3.333    4.500    0.000    2.667 
#    0.000    4.167    0.000    1.000    0.000    0.000 
#    0.000    0.000    0.000    0.000    0.000    0.000 
#
# Total GULP energy -267559.319171 kJ/mol
# GULP energy per Si atom -5574.152483 kJ/mol
# Density = 2.594216 g / cm^3
# Si number density = 26.001336 Si / 1000 Ang^3
#
#
#
# Elastic Constant Matrix: (Units=GPa)
#
#
# Indices 1 2 3 4 5 6 
#
# 1 77.2483 25.9751 11.4557 0.0000 0.0000 0.0000
# 2 25.9751 186.1553 8.1984 0.0000 0.0000 0.0000
# 3 11.4557 8.1984 126.5725 0.0000 0.0000 0.0000
# 4 0.0000 0.0000 0.0000 -1.5972 0.0000 0.0000
# 5 0.0000 0.0000 0.0000 0.0000 -2.7901 0.0000
# 6 0.0000 0.0000 0.0000 0.0000 0.0000 49.3977
#
#
#
# Elastic Compliance Matrix: (Units=1/GPa)
#
#
# Indices 1 2 3 4 5 6 
#
# 1 0.013740 -0.001868 -0.001123 0.000000 0.000000 0.000000
# 2 -0.001868 0.005641 -0.000196 0.000000 0.000000 0.000000
# 3 -0.001123 -0.000196 0.008015 0.000000 0.000000 0.000000
# 4 0.000000 0.000000 0.000000 -0.626097 0.000000 0.000000
# 5 0.000000 0.000000 0.000000 0.000000 -0.358410 0.000000
# 6 0.000000 0.000000 0.000000 0.000000 0.000000 0.020244
#
#
# Mechanical properties :
#
#
# Convention : Reuss Voigt Hill
#
# Bulk Modulus (GPa) = 47.56801 53.47050 50.51926
# Shear Modulus (GPa) = -5.41426 31.95854 13.27214
#
# Velocity S-wave (km/s) = -1.44458 3.50967 2.26174
# Velocity P-wave (km/s) = 3.94357 6.08547 5.12760
#
# Compressibility (1/GPa) = 0.02102253
#
# Stress axis : x y z
#
# Youngs Moduli (GPa) = 72.78134 177.26982 124.76719
#
# Poissons Ratio (x) = 0.33109 0.14006
# Poissons Ratio (y) = 0.13594 0.02450
# Poissons Ratio (z) = 0.08170 0.03481
#
# Static dielectric constant tensor:
#      x y z
#    x 2.105530 0.000000 0.000000 
#    y 0.000000 2.266060 0.000000 
#    z 0.000000 0.000000 2.184760 
# 
# From -- ./inp_files/18876.got.cif
#   From: 2010.05.17/outbox.cif.g08.bks.cpg/sg55_10_cif.got.tgz:18876.got - 2010.06.03 13:27:54.
