data_PCOD9427797
_publ_section_title
;
Structure prediction by ZEFSAII (Michael W. Deem and Ramdas Pophale) SiO2 
 PCOD9427797
Probable space group: P B A M
;
_chemical_formula_sum "Si O2"
_cell_formula_units_Z 64
_cell_length_a 13.108379
_cell_length_b 28.547097
_cell_length_c 8.962503
_cell_angle_alpha 90.000000
_cell_angle_beta 90.000000
_cell_angle_gamma 90.000000
_cell_volume 3353.823893
_symmetry_space_group_name_H-M "P B A M"
_symmetry_group_IT_number 55
_symmetry_cell_setting 'orthorhombic'
loop_
_space_group_symop_operation_xyz
x,y,z
-x,-y,z
1/2+x,1/2-y,-z
1/2-x,1/2+y,-z
-x,-y,-z
x,y,-z
1/2-x,1/2+y,z
1/2+x,1/2-y,z
loop_
_atom_site_type_symbol
_atom_site_label
_atom_site_fract_x
_atom_site_fract_y
_atom_site_fract_z
Si Si1 0.278119 0.721429 0.323260
Si Si2 0.965240 0.552823 0.169383
Si Si3 0.669740 0.909410 0.166913
Si Si4 0.150697 0.317017 0.177630
Si Si5 0.455933 0.448912 0.318345
Si Si6 0.234075 0.410826 0.320571
Si Si7 0.864160 0.881105 0.321259
Si Si8 0.585812 0.806759 0.165541
O O1 0.290864 0.727279 0.500000
O O2 0.318572 0.766018 0.235123
O O3 0.339047 0.673200 0.280507
O O4 0.157430 0.719204 0.283180
O O5 0.861905 0.560163 0.257499
O O6 0.000000 0.500000 0.154348
O O7 0.065909 0.574317 0.244060
O O8 0.953348 0.573190 0.000000
O O9 0.772803 0.913091 0.257623
O O10 0.647426 0.854783 0.148709
O O11 0.678061 0.930717 0.000000
O O12 0.213459 0.358561 0.256937
O O13 0.029109 0.319781 0.209579
O O14 0.164530 0.320809 0.000000
O O15 0.500000 0.500000 0.269577
O O16 0.455806 0.450312 0.500000
O O17 0.340802 0.434946 0.272935
O O18 0.531484 0.406306 0.272927
O O19 0.232277 0.409184 0.500000
O O20 0.860554 0.882285 0.500000
O O21 0.582157 0.783890 0.000000
#
# Coordination Sequence:
#
# PCOD9427797 Si02
#       8
#     8   8   8   8   8   8   8   8
#     4  10  21  35  55  88 119 150 197 252 305 357
#     4  10  21  37  57  83 119 156 187 234 300 360
#     4   9  17  33  55  80 110 145 185 231 285 343
#     4  11  22  39  61  84 117 159 198 240 301 368
#     4   9  20  39  60  84 121 164 201 244 301 359
#     4  11  23  38  60  90 120 155 201 250 299 355
#     4   9  19  36  58  82 113 153 197 247 298 348
#     4   9  18  35  56  77 108 150 190 231 288 354
#
# _framework density 19.082695000000001
#
# number of rings (size 3 to 8) (size 9 to 14) (size 15 to 20)
#    0.000    2.250    1.250    1.125    1.750    3.250 
#    0.000    2.500    0.000    1.875    0.000    0.000 
#    0.000    0.000    0.000    0.000    0.000    0.000 
#
# Total GULP energy -356284.941954 kJ/mol
# GULP energy per Si atom -5566.952218 kJ/mol
# Density = 1.903926 g / cm^3
# Si number density = 19.082695 Si / 1000 Ang^3
#
#
#
# Elastic Constant Matrix: (Units=GPa)
#
#
# Indices 1 2 3 4 5 6 
#
# 1 125.7737 55.6702 28.2983 0.0000 0.0000 0.0000
# 2 55.6702 92.8828 31.8504 0.0000 0.0000 0.0000
# 3 28.2983 31.8504 29.8400 0.0000 0.0000 0.0000
# 4 0.0000 0.0000 0.0000 567.8369 0.0000 0.0000
# 5 0.0000 0.0000 0.0000 0.0000 35.8706 0.0000
# 6 0.0000 0.0000 0.0000 0.0000 0.0000 13.9964
#
#
#
# Elastic Compliance Matrix: (Units=1/GPa)
#
#
# Indices 1 2 3 4 5 6 
#
# 1 0.011373 -0.004918 -0.005536 0.000000 0.000000 0.000000
# 2 -0.004918 0.019109 -0.015732 0.000000 0.000000 0.000000
# 3 -0.005536 -0.015732 0.055554 0.000000 0.000000 0.000000
# 4 0.000000 0.000000 0.000000 0.001761 0.000000 0.000000
# 5 0.000000 0.000000 0.000000 0.000000 0.027878 0.000000
# 6 0.000000 0.000000 0.000000 0.000000 0.000000 0.071447
#
#
# Mechanical properties :
#
#
# Convention : Reuss Voigt Hill
#
# Bulk Modulus (GPa) = 29.70583 53.34825 41.52704
# Shear Modulus (GPa) = 19.94292 132.38594 76.16443
#
# Velocity S-wave (km/s) = 3.23628 8.33819 6.32451
# Velocity P-wave (km/s) = 5.43740 10.98716 8.66842
#
# Compressibility (1/GPa) = 0.03366343
#
# Stress axis : x y z
#
# Youngs Moduli (GPa) = 87.92488 52.33210 18.00056
#
# Poissons Ratio (x) = 0.25739 0.09965
# Poissons Ratio (y) = 0.43245 0.28318
# Poissons Ratio (z) = 0.48675 0.82328
#
# Static dielectric constant tensor:
#      x y z
#    x 1.681180 0.000000 0.000000 
#    y 0.000000 1.922810 0.000000 
#    z 0.000000 0.000000 1.675210 
# 
# From -- ./inp_files/4551.got.cif
#   From: 2010.05.17/outbox.cif.g08.bks.cpg/sg55_3_cif.got.tgz:4551.got - 2010.06.03 13:27:54.
