data_PCOD9427033
_publ_section_title
;
Structure prediction by ZEFSAII (Michael W. Deem and Ramdas Pophale) SiO2 
 PCOD9427033
Probable space group: P B A M
;
_chemical_formula_sum "Si O2"
_cell_formula_units_Z 64
_cell_length_a 28.919432
_cell_length_b 13.008748
_cell_length_c 8.665731
_cell_angle_alpha 90.000000
_cell_angle_beta 90.000000
_cell_angle_gamma 90.000000
_cell_volume 3260.096558
_symmetry_space_group_name_H-M "P B A M"
_symmetry_group_IT_number 55
_symmetry_cell_setting 'orthorhombic'
loop_
_space_group_symop_operation_xyz
x,y,z
-x,-y,z
1/2+x,1/2-y,-z
1/2-x,1/2+y,-z
-x,-y,-z
x,y,-z
1/2-x,1/2+y,z
1/2+x,1/2-y,z
loop_
_atom_site_type_symbol
_atom_site_label
_atom_site_fract_x
_atom_site_fract_y
_atom_site_fract_z
Si Si1 0.706022 0.145396 0.817185
Si Si2 0.538791 0.201797 0.315092
Si Si3 0.402602 0.372169 0.814428
Si Si4 0.664784 0.350620 0.678545
Si Si5 0.302159 0.424134 0.679690
Si Si6 0.932371 0.908734 0.181376
Si Si7 0.618191 0.045559 0.687105
Si Si8 0.561910 0.843259 0.686414
O O1 0.691173 0.250722 0.734469
O O2 0.757540 0.116109 0.767620
O O3 0.668298 0.062655 0.759384
O O4 0.702859 0.156941 0.000000
O O5 0.540399 0.202367 0.500000
O O6 0.537843 0.319368 0.259087
O O7 0.491777 0.144477 0.268134
O O8 0.584101 0.138924 0.263489
O O9 0.350627 0.387298 0.751372
O O10 0.432630 0.472601 0.763734
O O11 0.421379 0.264752 0.753498
O O12 0.401880 0.373331 0.000000
O O13 0.649278 0.337801 0.500000
O O14 0.696079 0.452017 0.686319
O O15 0.620125 0.372729 0.782927
O O16 0.300208 0.393348 0.500000
O O17 0.942148 0.907974 0.000000
O O18 0.621888 0.048197 0.500000
O O19 0.593661 0.939153 0.732651
O O20 0.563594 0.838220 0.500000
#
# Coordination Sequence:
#
# PCOD9427033 Si02
#       8
#     8   8   8   8   8   8   8   8
#     4  12  24  37  59  90 121 153 192 239 296 358
#     4  10  20  36  61  89 117 155 202 252 301 350
#     4  10  22  40  59  84 121 160 195 243 304 359
#     4  10  20  37  60  84 112 149 193 241 291 344
#     4  10  22  40  63  87 113 151 198 244 293 350
#     4  10  20  35  58  86 117 152 194 243 297 352
#     4  10  21  39  61  85 118 156 201 251 298 348
#     4  10  22  39  60  87 120 161 205 248 297 355
#
# _framework density 19.631321
#
# number of rings (size 3 to 8) (size 9 to 14) (size 15 to 20)
#    0.000    1.750    1.250    3.000    0.000    7.000 
#    0.000    3.750    0.000    2.250    0.000    0.000 
#    0.000    0.000    0.000    0.000    0.000    0.000 
#
# Total GULP energy -357517.171599 kJ/mol
# GULP energy per Si atom -5586.205806 kJ/mol
# Density = 1.958664 g / cm^3
# Si number density = 19.631321 Si / 1000 Ang^3
#
#
#
# Elastic Constant Matrix: (Units=GPa)
#
#
# Indices 1 2 3 4 5 6 
#
# 1 34.5215 3.3382 -2.8131 0.0000 0.0000 0.0000
# 2 3.3382 81.4851 3.6138 0.0000 0.0000 0.0000
# 3 -2.8131 3.6138 17.9121 0.0000 0.0000 0.0000
# 4 0.0000 0.0000 0.0000 18.8257 0.0000 0.0000
# 5 0.0000 0.0000 0.0000 0.0000 -84.2123 0.0000
# 6 0.0000 0.0000 0.0000 0.0000 0.0000 19.1298
#
#
#
# Elastic Compliance Matrix: (Units=1/GPa)
#
#
# Indices 1 2 3 4 5 6 
#
# 1 0.029507 -0.001427 0.004922 0.000000 0.000000 0.000000
# 2 -0.001427 0.012452 -0.002736 0.000000 0.000000 0.000000
# 3 0.004922 -0.002736 0.057153 0.000000 0.000000 0.000000
# 4 0.000000 0.000000 0.000000 0.053119 0.000000 0.000000
# 5 0.000000 0.000000 0.000000 0.000000 -0.011875 0.000000
# 6 0.000000 0.000000 0.000000 0.000000 0.000000 0.052275
#
#
# Mechanical properties :
#
#
# Convention : Reuss Voigt Hill
#
# Bulk Modulus (GPa) = 9.93751 15.79961 12.86856
# Shear Modulus (GPa) = 22.25621 -0.59939 10.82841
#
# Velocity S-wave (km/s) = 3.37071 -0.55316 2.35114
# Velocity P-wave (km/s) = 4.49689 2.76725 3.73361
#
# Compressibility (1/GPa) = 0.10062884
#
# Stress axis : x y z
#
# Youngs Moduli (GPa) = 33.89074 80.30832 17.49684
#
# Poissons Ratio (x) = 0.11461 -0.08612
# Poissons Ratio (y) = 0.04837 0.04788
# Poissons Ratio (z) = -0.16681 0.21975
#
# Static dielectric constant tensor:
#      x y z
#    x 1.671770 0.000000 0.000000 
#    y 0.000000 1.687470 0.000000 
#    z 0.000000 0.000000 1.666010 
# 
# From -- ./inp_files/10830.got.cif
#   From: 2010.05.17/outbox.cif.g08.bks.cpg/sg55_6_cif.got.tgz:10830.got - 2010.06.03 13:27:54.
