data_PCOD9427938
_publ_section_title
;
Structure prediction by ZEFSAII (Michael W. Deem and Ramdas Pophale) SiO2 
 PCOD9427938
Probable space group: P B A M
;
_chemical_formula_sum "Si O2"
_cell_formula_units_Z 48
_cell_length_a 29.026294
_cell_length_b 9.690094
_cell_length_c 8.232801
_cell_angle_alpha 90.000000
_cell_angle_beta 90.000000
_cell_angle_gamma 90.000000
_cell_volume 2315.619498
_symmetry_space_group_name_H-M "P B A M"
_symmetry_group_IT_number 55
_symmetry_cell_setting 'orthorhombic'
loop_
_space_group_symop_operation_xyz
x,y,z
-x,-y,z
1/2+x,1/2-y,-z
1/2-x,1/2+y,-z
-x,-y,-z
x,y,-z
1/2-x,1/2+y,z
1/2+x,1/2-y,z
loop_
_atom_site_type_symbol
_atom_site_label
_atom_site_fract_x
_atom_site_fract_y
_atom_site_fract_z
Si Si1 0.014220 0.350838 0.803587
Si Si2 0.196362 0.510408 0.307739
Si Si3 0.776740 0.184375 0.806033
Si Si4 0.140027 0.016340 0.196346
Si Si5 0.957752 0.097046 0.197809
Si Si6 0.618536 0.184628 0.306090
O O1 0.065978 0.311863 0.754307
O O2 0.000000 0.500000 0.743266
O O3 0.974666 0.246110 0.748529
O O4 0.013919 0.349683 0.000000
O O5 0.192948 0.533142 0.500000
O O6 0.232607 0.387426 0.274293
O O7 0.213149 0.655496 0.233369
O O8 0.147535 0.448455 0.246022
O O9 0.819618 0.087479 0.754431
O O10 0.771187 0.173018 0.000000
O O11 0.091176 0.956377 0.256237
O O12 0.143444 0.173606 0.254003
O O13 0.139563 0.019254 0.000000
O O14 0.955479 0.095296 0.000000
O O15 0.000000 0.000000 0.245529
O O16 0.618082 0.179261 0.500000
#
# Coordination Sequence:
#
# PCOD9427938 Si02
#       6
#     8   8   8   8   8   8
#     4  10  21  36  60  87 116 158 203 249 303 357
#     4  11  25  44  64  87 125 168 200 241 310 382
#     4  11  24  41  67  98 122 152 203 264 306 351
#     4  10  21  38  62  90 121 154 197 253 305 355
#     4   9  16  32  57  85 116 151 193 239 294 355
#     4  11  24  40  59  86 122 164 204 245 297 362
#
# _framework density 20.728795000000002
#
# number of rings (size 3 to 8) (size 9 to 14) (size 15 to 20)
#    0.000    1.667    1.667    2.500    2.333    7.000 
#    0.000    1.667    0.000    0.000    0.000    0.000 
#    0.000    0.000    0.000    0.000    0.000    0.000 
#
# Total GULP energy -268096.346993 kJ/mol
# GULP energy per Si atom -5585.340562 kJ/mol
# Density = 2.068162 g / cm^3
# Si number density = 20.728795 Si / 1000 Ang^3
#
#
#
# Elastic Constant Matrix: (Units=GPa)
#
#
# Indices 1 2 3 4 5 6 
#
# 1 62.0295 3.7159 -3.3126 0.0000 0.0000 0.0000
# 2 3.7159 114.8086 -2.5002 0.0000 0.0000 0.0000
# 3 -3.3126 -2.5002 12.0856 0.0000 0.0000 0.0000
# 4 0.0000 0.0000 0.0000 30.4143 0.0000 0.0000
# 5 0.0000 0.0000 0.0000 0.0000 -27.3448 0.0000
# 6 0.0000 0.0000 0.0000 0.0000 0.0000 39.2982
#
#
#
# Elastic Compliance Matrix: (Units=1/GPa)
#
#
# Indices 1 2 3 4 5 6 
#
# 1 0.016382 -0.000434 0.004400 0.000000 0.000000 0.000000
# 2 -0.000434 0.008761 0.001693 0.000000 0.000000 0.000000
# 3 0.004400 0.001693 0.084299 0.000000 0.000000 0.000000
# 4 0.000000 0.000000 0.000000 0.032879 0.000000 0.000000
# 5 0.000000 0.000000 0.000000 0.000000 -0.036570 0.000000
# 6 0.000000 0.000000 0.000000 0.000000 0.000000 0.025446
#
#
# Mechanical properties :
#
#
# Convention : Reuss Voigt Hill
#
# Bulk Modulus (GPa) = 8.28078 20.52554 14.40316
# Shear Modulus (GPa) = 31.22398 21.20825 26.21612
#
# Velocity S-wave (km/s) = 3.88533 3.20211 3.56015
# Velocity P-wave (km/s) = 4.91235 4.85745 4.88498
#
# Compressibility (1/GPa) = 0.12076155
#
# Stress axis : x y z
#
# Youngs Moduli (GPa) = 61.04115 114.14111 11.86251
#
# Poissons Ratio (x) = 0.04958 -0.05220
# Poissons Ratio (y) = 0.02652 -0.02009
# Poissons Ratio (z) = -0.26861 -0.19329
#
# Static dielectric constant tensor:
#      x y z
#    x 1.748500 0.000000 0.000000 
#    y 0.000000 1.786820 0.000000 
#    z 0.000000 0.000000 1.718150 
# 
# From -- ./inp_files/2892.got.cif
#   From: 2010.05.17/outbox.cif.g08.bks.cpg/sg55_2_cif.got.tgz:2892.got - 2010.06.03 13:27:54.
