data_PCOD9427816
_publ_section_title
;
Structure prediction by ZEFSAII (Michael W. Deem and Ramdas Pophale) SiO2 
 PCOD9427816
Probable space group: P B A M
;
_chemical_formula_sum "Si O2"
_cell_formula_units_Z 58
_cell_length_a 12.082419
_cell_length_b 29.435399
_cell_length_c 7.605017
_cell_angle_alpha 90.000000
_cell_angle_beta 90.000000
_cell_angle_gamma 90.000000
_cell_volume 2704.730564
_symmetry_space_group_name_H-M "P B A M"
_symmetry_group_IT_number 55
_symmetry_cell_setting 'orthorhombic'
loop_
_space_group_symop_operation_xyz
x,y,z
-x,-y,z
1/2+x,1/2-y,-z
1/2-x,1/2+y,-z
-x,-y,-z
x,y,-z
1/2-x,1/2+y,z
1/2+x,1/2-y,z
loop_
_atom_site_type_symbol
_atom_site_label
_atom_site_fract_x
_atom_site_fract_y
_atom_site_fract_z
Si Si1 0.098367 0.154082 0.784290
Si Si2 0.351469 0.471385 0.202714
Si Si3 0.947708 0.372354 0.293843
Si Si4 0.691852 0.109071 0.293854
Si Si5 0.000000 0.000000 0.500000
Si Si6 0.358711 0.312581 0.786297
Si Si7 0.739878 0.431134 0.211386
Si Si8 0.698246 0.787088 0.205363
O O1 0.149026 0.105732 0.728663
O O2 0.187888 0.191601 0.723057
O O3 0.975261 0.166062 0.726858
O O4 0.098735 0.153742 0.000000
O O5 0.265285 0.430327 0.209454
O O6 0.448531 0.466843 0.343270
O O7 0.291574 0.518135 0.264414
O O8 0.388783 0.475712 0.000000
O O9 0.961192 0.363258 0.500000
O O10 0.858503 0.412481 0.270768
O O11 0.892822 0.326840 0.217213
O O12 0.067725 0.385413 0.221612
O O13 0.683654 0.097700 0.500000
O O14 0.757907 0.155881 0.271218
O O15 0.341829 0.260994 0.722363
O O16 0.361991 0.312729 0.000000
O O17 0.741135 0.430561 0.000000
O O18 0.720108 0.778872 0.000000
#
# Coordination Sequence:
#
# PCOD9427816 Si02
#       8
#     8   8   8   8   2   8   8   8
#     4   8  16  33  54  84 118 146 195 258 313 375
#     4  11  25  44  69  99 132 177 224 268 329 389
#     4  10  22  39  63  87 126 168 211 268 333 392
#     4  11  25  43  58  90 132 171 213 272 330 391
#     4  12  26  44  68  96 140 172 218 264 322 382
#     4  10  21  35  60  87 117 161 209 264 326 392
#     4   9  20  39  64  92 122 163 216 270 315 383
#     4   9  19  36  59  87 117 157 207 263 323 388
#
# _framework density 21.443911
#
# number of rings (size 3 to 8) (size 9 to 14) (size 15 to 20)
#    0.000    2.207    0.690    1.862    4.828    3.310 
#    0.000    5.517    0.000    0.000    0.000    0.000 
#    0.000    0.000    0.000    0.000    0.000    0.000 
#
# Total GULP energy -323502.767031 kJ/mol
# GULP energy per Si atom -5577.633914 kJ/mol
# Density = 2.139510 g / cm^3
# Si number density = 21.443911 Si / 1000 Ang^3
#
#
#
# Elastic Constant Matrix: (Units=GPa)
#
#
# Indices 1 2 3 4 5 6 
#
# 1 117.4138 32.0781 12.4736 0.0000 0.0000 0.0000
# 2 32.0781 94.0959 4.1054 0.0000 0.0000 0.0000
# 3 12.4736 4.1054 69.5233 0.0000 0.0000 0.0000
# 4 0.0000 0.0000 0.0000 14.4161 0.0000 0.0000
# 5 0.0000 0.0000 0.0000 0.0000 8.9637 0.0000
# 6 0.0000 0.0000 0.0000 0.0000 0.0000 22.3000
#
#
#
# Elastic Compliance Matrix: (Units=1/GPa)
#
#
# Indices 1 2 3 4 5 6 
#
# 1 0.009550 -0.003189 -0.001525 0.000000 0.000000 0.000000
# 2 -0.003189 0.011720 -0.000120 0.000000 0.000000 0.000000
# 3 -0.001525 -0.000120 0.014664 0.000000 0.000000 0.000000
# 4 0.000000 0.000000 0.000000 0.069367 0.000000 0.000000
# 5 0.000000 0.000000 0.000000 0.000000 0.111562 0.000000
# 6 0.000000 0.000000 0.000000 0.000000 0.000000 0.044843
#
#
# Mechanical properties :
#
#
# Convention : Reuss Voigt Hill
#
# Bulk Modulus (GPa) = 38.07192 42.03858 40.05525
# Shear Modulus (GPa) = 17.84886 24.62767 21.23827
#
# Velocity S-wave (km/s) = 2.88818 3.39258 3.15049
# Velocity P-wave (km/s) = 5.37725 5.91546 5.65277
#
# Compressibility (1/GPa) = 0.02626608
#
# Stress axis : x y z
#
# Youngs Moduli (GPa) = 104.70956 85.32483 68.19242
#
# Poissons Ratio (x) = 0.27212 0.10400
# Poissons Ratio (y) = 0.33394 0.00817
# Poissons Ratio (z) = 0.15970 0.01023
#
# Static dielectric constant tensor:
#      x y z
#    x 1.781040 0.000000 0.000000 
#    y 0.000000 1.765460 0.000000 
#    z 0.000000 0.000000 1.858590 
# 
# From -- ./inp_files/4469.got.cif
#   From: 2010.05.17/outbox.cif.g08.bks.cpg/sg55_3_cif.got.tgz:4469.got - 2010.06.03 13:27:54.
