data_PCOD9427028
_publ_section_title
;
Structure prediction by ZEFSAII (Michael W. Deem and Ramdas Pophale) SiO2 
 PCOD9427028
Probable space group: P B A M
;
_chemical_formula_sum "Si O2"
_cell_formula_units_Z 64
_cell_length_a 33.208170
_cell_length_b 10.911819
_cell_length_c 9.322131
_cell_angle_alpha 90.000000
_cell_angle_beta 90.000000
_cell_angle_gamma 90.000000
_cell_volume 3377.981749
_symmetry_space_group_name_H-M "P B A M"
_symmetry_group_IT_number 55
_symmetry_cell_setting 'orthorhombic'
loop_
_space_group_symop_operation_xyz
x,y,z
-x,-y,z
1/2+x,1/2-y,-z
1/2-x,1/2+y,-z
-x,-y,-z
x,y,-z
1/2-x,1/2+y,z
1/2+x,1/2-y,z
loop_
_atom_site_type_symbol
_atom_site_label
_atom_site_fract_x
_atom_site_fract_y
_atom_site_fract_z
Si Si1 0.878055 0.629578 0.668834
Si Si2 0.780616 0.039159 0.668472
Si Si3 0.697538 0.020756 0.162992
Si Si4 0.638136 0.415974 0.667316
Si Si5 0.675581 0.738285 0.158528
Si Si6 0.407710 0.372778 0.166529
Si Si7 0.468739 0.893122 0.674609
Si Si8 0.510976 0.640324 0.672904
O O1 0.873580 0.597776 0.500000
O O2 0.840424 0.578872 0.756376
O O3 0.875920 0.777002 0.679614
O O4 0.922335 0.586398 0.718987
O O5 0.772164 0.036402 0.500000
O O6 0.739457 0.036437 0.755088
O O7 0.814268 0.934464 0.700553
O O8 0.803453 0.161891 0.717183
O O9 0.689569 0.876143 0.158873
O O10 0.700375 0.067896 0.000000
O O11 0.632848 0.454094 0.500000
O O12 0.612208 0.504615 0.767482
O O13 0.627756 0.726889 0.175612
O O14 0.684934 0.682964 0.000000
O O15 0.445704 0.335567 0.259335
O O16 0.418444 0.390598 0.000000
O O17 0.468681 0.894620 0.500000
O O18 0.482623 0.754901 0.716163
O O19 0.500000 0.000000 0.720996
O O20 0.500000 0.500000 0.716086
O O21 0.512598 0.640744 0.500000
#
# Coordination Sequence:
#
# PCOD9427028 Si02
#       8
#     8   8   8   8   8   8   8   8
#     4  10  21  38  60  85 114 149 194 242 287 340
#     4  10  21  37  59  86 112 144 191 241 286 331
#     4  11  24  39  57  82 116 154 191 229 285 352
#     4   9  19  37  59  85 117 151 187 236 289 338
#     4   9  21  40  57  79 115 154 190 231 282 342
#     4  10  20  35  58  86 116 150 191 236 283 337
#     4   9  19  35  56  84 116 150 192 242 294 351
#     4  10  20  35  58  85 114 150 191 241 298 349
#
# _framework density 18.946223
#
# number of rings (size 3 to 8) (size 9 to 14) (size 15 to 20)
#    0.000    2.250    0.000    1.875    3.500    4.750 
#    0.000    0.625    0.000    0.750    0.000    0.000 
#    0.000    0.000    0.000    0.000    0.000    0.000 
#
# Total GULP energy -356991.312548 kJ/mol
# GULP energy per Si atom -5577.989259 kJ/mol
# Density = 1.890310 g / cm^3
# Si number density = 18.946223 Si / 1000 Ang^3
#
#
#
# Elastic Constant Matrix: (Units=GPa)
#
#
# Indices 1 2 3 4 5 6 
#
# 1 105.3372 12.7202 31.0210 0.0000 0.0000 0.0000
# 2 12.7202 29.7296 4.7344 0.0000 0.0000 0.0000
# 3 31.0210 4.7344 34.1756 0.0000 0.0000 0.0000
# 4 0.0000 0.0000 0.0000 17.4521 0.0000 0.0000
# 5 0.0000 0.0000 0.0000 0.0000 17.7821 0.0000
# 6 0.0000 0.0000 0.0000 0.0000 0.0000 15.6993
#
#
#
# Elastic Compliance Matrix: (Units=1/GPa)
#
#
# Indices 1 2 3 4 5 6 
#
# 1 0.013380 -0.003876 -0.011608 0.000000 0.000000 0.000000
# 2 -0.003876 0.035518 -0.001402 0.000000 0.000000 0.000000
# 3 -0.011608 -0.001402 0.039991 0.000000 0.000000 0.000000
# 4 0.000000 0.000000 0.000000 0.057300 0.000000 0.000000
# 5 0.000000 0.000000 0.000000 0.000000 0.056236 0.000000
# 6 0.000000 0.000000 0.000000 0.000000 0.000000 0.063697
#
#
# Mechanical properties :
#
#
# Convention : Reuss Voigt Hill
#
# Bulk Modulus (GPa) = 18.14310 29.57706 23.86008
# Shear Modulus (GPa) = 15.71008 18.23781 16.97394
#
# Velocity S-wave (km/s) = 2.88270 3.10596 2.99641
# Velocity P-wave (km/s) = 4.54718 5.33925 4.95905
#
# Compressibility (1/GPa) = 0.05511737
#
# Stress axis : x y z
#
# Youngs Moduli (GPa) = 74.73948 28.15451 25.00552
#
# Poissons Ratio (x) = 0.10913 0.29026
# Poissons Ratio (y) = 0.28971 0.03506
# Poissons Ratio (z) = 0.86756 0.03947
#
# Static dielectric constant tensor:
#      x y z
#    x 1.659060 0.000000 0.000000 
#    y 0.000000 1.660300 0.000000 
#    z 0.000000 0.000000 1.664100 
# 
# From -- ./inp_files/10867.got.cif
#   From: 2010.05.17/outbox.cif.g08.bks.cpg/sg55_6_cif.got.tgz:10867.got - 2010.06.03 13:27:54.
