data_PCOD9427326
_publ_section_title
;
Structure prediction by ZEFSAII (Michael W. Deem and Ramdas Pophale) SiO2 
 PCOD9427326
Probable space group: P B A M
;
_chemical_formula_sum "Si O2"
_cell_formula_units_Z 56
_cell_length_a 21.667110
_cell_length_b 14.977253
_cell_length_c 8.649508
_cell_angle_alpha 90.000000
_cell_angle_beta 90.000000
_cell_angle_gamma 90.000000
_cell_volume 2806.884608
_symmetry_space_group_name_H-M "P B A M"
_symmetry_group_IT_number 55
_symmetry_cell_setting 'orthorhombic'
loop_
_space_group_symop_operation_xyz
x,y,z
-x,-y,z
1/2+x,1/2-y,-z
1/2-x,1/2+y,-z
-x,-y,-z
x,y,-z
1/2-x,1/2+y,z
1/2+x,1/2-y,z
loop_
_atom_site_type_symbol
_atom_site_label
_atom_site_fract_x
_atom_site_fract_y
_atom_site_fract_z
Si Si1 0.034251 0.590204 0.815193
Si Si2 0.259431 0.889760 0.313144
Si Si3 0.328934 0.070857 0.312994
Si Si4 0.121235 0.897753 0.816407
Si Si5 0.714297 0.308591 0.312182
Si Si6 0.408731 0.586628 0.687158
Si Si7 0.018025 0.778559 0.684778
O O1 0.104967 0.586680 0.760668
O O2 0.000000 0.500000 0.762841
O O3 0.004910 0.679936 0.746490
O O4 0.031449 0.594434 0.000000
O O5 0.254555 0.890285 0.500000
O O6 0.190755 0.899051 0.247281
O O7 0.286778 0.794374 0.263397
O O8 0.301423 0.973976 0.270166
O O9 0.334692 0.074745 0.500000
O O10 0.277738 0.143621 0.264853
O O11 0.082622 0.815139 0.749368
O O12 0.088884 0.988849 0.759274
O O13 0.121695 0.893650 0.000000
O O14 0.713357 0.309496 0.500000
O O15 0.655087 0.365757 0.263630
O O16 0.408477 0.577175 0.500000
O O17 0.465084 0.650973 0.730030
O O18 0.021024 0.776090 0.500000
#
# Coordination Sequence:
#
# PCOD9427326 Si02
#       7
#     8   8   8   8   8   8   8
#     4  11  26  45  63  88 130 172 206 254 313 376
#     4  10  20  36  63  91 121 158 205 259 308 360
#     4  10  20  37  64  92 121 159 206 260 304 359
#     4  12  24  39  61  92 131 169 203 249 315 384
#     4   9  18  35  60  91 120 151 197 258 315 354
#     4  10  21  40  64  91 122 158 208 265 314 367
#     4  11  24  41  67  93 119 162 214 264 308 363
#
# _framework density 19.950945000000001
#
# number of rings (size 3 to 8) (size 9 to 14) (size 15 to 20)
#    0.000    1.571    1.429    3.429    2.000    5.714 
#    0.000    0.714    0.000    0.000    0.000    0.000 
#    0.000    0.000    0.000    0.000    0.000    0.000 
#
# Total GULP energy -313145.400807 kJ/mol
# GULP energy per Si atom -5591.882157 kJ/mol
# Density = 1.990554 g / cm^3
# Si number density = 19.950945 Si / 1000 Ang^3
#
#
#
# Elastic Constant Matrix: (Units=GPa)
#
#
# Indices 1 2 3 4 5 6 
#
# 1 49.5972 -3.1850 6.3885 0.0000 0.0000 0.0000
# 2 -3.1850 110.9578 17.2389 0.0000 0.0000 0.0000
# 3 6.3885 17.2389 22.0019 0.0000 0.0000 0.0000
# 4 0.0000 0.0000 0.0000 -136.9468 0.0000 0.0000
# 5 0.0000 0.0000 0.0000 0.0000 -26.1930 0.0000
# 6 0.0000 0.0000 0.0000 0.0000 0.0000 29.6520
#
#
#
# Elastic Compliance Matrix: (Units=1/GPa)
#
#
# Indices 1 2 3 4 5 6 
#
# 1 0.021252 0.001786 -0.007570 0.000000 0.000000 0.000000
# 2 0.001786 0.010412 -0.008676 0.000000 0.000000 0.000000
# 3 -0.007570 -0.008676 0.054447 0.000000 0.000000 0.000000
# 4 0.000000 0.000000 0.000000 -0.007302 0.000000 0.000000
# 5 0.000000 0.000000 0.000000 0.000000 -0.038178 0.000000
# 6 0.000000 0.000000 0.000000 0.000000 0.000000 0.033724
#
#
# Mechanical properties :
#
#
# Convention : Reuss Voigt Hill
#
# Bulk Modulus (GPa) = 17.48563 24.82684 21.15624
# Shear Modulus (GPa) = 40.86983 -15.88992 12.48995
#
# Velocity S-wave (km/s) = 4.53096 -2.82520 2.50478
# Velocity P-wave (km/s) = 6.01300 1.35225 4.35802
#
# Compressibility (1/GPa) = 0.05718981
#
# Stress axis : x y z
#
# Youngs Moduli (GPa) = 47.05387 96.04564 18.36649
#
# Poissons Ratio (x) = -0.17156 0.13904
# Poissons Ratio (y) = -0.08405 0.15936
# Poissons Ratio (z) = 0.35621 0.83333
#
# Static dielectric constant tensor:
#      x y z
#    x 1.676380 0.000000 0.000000 
#    y 0.000000 1.704220 0.000000 
#    z 0.000000 0.000000 1.674890 
# 
# From -- ./inp_files/8756.got.cif
#   From: 2010.05.17/outbox.cif.g08.bks.cpg/sg55_5_cif.got.tgz:8756.got - 2010.06.03 13:27:54.
