data_PCOD9427496
_publ_section_title
;
Structure prediction by ZEFSAII (Michael W. Deem and Ramdas Pophale) SiO2 
 PCOD9427496
Probable space group: P B A M
;
_chemical_formula_sum "Si O2"
_cell_formula_units_Z 56
_cell_length_a 11.851322
_cell_length_b 17.385771
_cell_length_c 14.571532
_cell_angle_alpha 90.000000
_cell_angle_beta 90.000000
_cell_angle_gamma 90.000000
_cell_volume 3002.382136
_symmetry_space_group_name_H-M "P B A M"
_symmetry_group_IT_number 55
_symmetry_cell_setting 'orthorhombic'
loop_
_space_group_symop_operation_xyz
x,y,z
-x,-y,z
1/2+x,1/2-y,-z
1/2-x,1/2+y,-z
-x,-y,-z
x,y,-z
1/2-x,1/2+y,z
1/2+x,1/2-y,z
loop_
_atom_site_type_symbol
_atom_site_label
_atom_site_fract_x
_atom_site_fract_y
_atom_site_fract_z
Si Si1 0.281396 0.134652 0.750000
Si Si2 0.069943 0.923701 0.891871
Si Si3 0.953217 0.662945 0.750000
Si Si4 0.741733 0.048543 0.250000
Si Si5 0.069942 0.923701 0.608129
Si Si6 0.886291 0.791137 0.608983
Si Si7 0.386291 0.708863 0.108983
O O1 0.413681 0.150729 0.750001
O O2 0.220445 0.172029 0.661424
O O3 0.220444 0.172028 0.838576
O O4 0.261150 0.043424 0.749999
O O5 0.185020 0.922188 0.836145
O O6 0.990022 0.850532 0.875602
O O7 0.092243 0.929268 0.000000
O O8 0.000000 0.000000 0.864243
O O9 0.881360 0.585161 0.750000
O O10 0.917105 0.713094 0.661412
O O11 0.917104 0.713095 0.838588
O O12 0.814981 0.077813 0.336145
O O13 0.092243 0.929268 0.500000
O O14 0.990021 0.850532 0.624398
O O15 0.000000 0.000000 0.635757
O O16 0.868771 0.782847 0.500000
O O17 0.368772 0.717152 0.000000
#
# Coordination Sequence:
#
# PCOD9427496 Si02
#       7
#     8   8   8   8   8   8   8
#     4  11  23  42  63  88 124 164 201 247 300 364
#     4  10  20  37  63  92 116 152 205 255 300 347
#     4  11  27  40  58  92 126 167 202 238 308 373
#     4  12  22  39  63  89 127 159 200 249 300 364
#     4  10  20  37  63  92 116 152 205 255 300 347
#     4  10  23  42  64  89 120 158 206 258 304 352
#     4  10  23  42  64  89 120 158 206 258 304 352
#
# _framework density 18.651857
#
# number of rings (size 3 to 8) (size 9 to 14) (size 15 to 20)
#    0.000    1.429    2.857    2.571    8.000    2.286 
#    0.000    0.000    0.000    5.143    0.000    0.000 
#    0.000    0.000    0.000    0.000    0.000    0.000 
#
# Total GULP energy -313030.856769 kJ/mol
# GULP energy per Si atom -5589.836728 kJ/mol
# Density = 1.860940 g / cm^3
# Si number density = 18.651857 Si / 1000 Ang^3
#
#
#
# Elastic Constant Matrix: (Units=GPa)
#
#
# Indices 1 2 3 4 5 6 
#
# 1 151.5346 31.9066 62.0400 0.0000 0.0000 0.0000
# 2 31.9066 27.6038 25.7441 0.0000 0.0000 0.0000
# 3 62.0400 25.7441 118.6282 0.0000 0.0000 0.0000
# 4 0.0000 0.0000 0.0000 12.2613 0.0000 0.0000
# 5 0.0000 0.0000 0.0000 0.0000 -39.1117 0.0000
# 6 0.0000 0.0000 0.0000 0.0000 0.0000 30.7982
#
#
#
# Elastic Compliance Matrix: (Units=1/GPa)
#
#
# Indices 1 2 3 4 5 6 
#
# 1 0.009649 -0.008083 -0.003292 0.000000 0.000000 0.000000
# 2 -0.008083 0.052190 -0.007099 0.000000 0.000000 0.000000
# 3 -0.003292 -0.007099 0.011692 0.000000 0.000000 0.000000
# 4 0.000000 0.000000 0.000000 0.081557 0.000000 0.000000
# 5 0.000000 0.000000 0.000000 0.000000 -0.025568 0.000000
# 6 0.000000 0.000000 0.000000 0.000000 0.000000 0.032469
#
#
# Mechanical properties :
#
#
# Convention : Reuss Voigt Hill
#
# Bulk Modulus (GPa) = 27.33467 59.68311 43.50889
# Shear Modulus (GPa) = 23.68193 12.66132 18.17162
#
# Velocity S-wave (km/s) = 3.56713 2.60825 3.12469
# Velocity P-wave (km/s) = 5.62609 6.41394 6.03289
#
# Compressibility (1/GPa) = 0.03658357
#
# Stress axis : x y z
#
# Youngs Moduli (GPa) = 103.63980 19.16072 85.52876
#
# Poissons Ratio (x) = 0.15487 0.28157
# Poissons Ratio (y) = 0.83768 0.60717
# Poissons Ratio (z) = 0.34119 0.13602
#
# Static dielectric constant tensor:
#      x y z
#    x 1.612530 0.000000 0.000000 
#    y 0.000000 1.644550 0.000000 
#    z 0.000000 0.000000 1.643800 
# 
# From -- ./inp_files/18413.got.cif
#   From: 2010.05.17/outbox.cif.g08.bks.cpg/sg55_10_cif.got.tgz:18413.got - 2010.06.03 13:27:54.
