data_PCOD9427328
_publ_section_title
;
Structure prediction by ZEFSAII (Michael W. Deem and Ramdas Pophale) SiO2 
 PCOD9427328
Probable space group: P B A M
;
_chemical_formula_sum "Si O2"
_cell_formula_units_Z 56
_cell_length_a 34.822012
_cell_length_b 5.327190
_cell_length_c 13.142029
_cell_angle_alpha 90.000000
_cell_angle_beta 90.000000
_cell_angle_gamma 90.000000
_cell_volume 2437.892036
_symmetry_space_group_name_H-M "P B A M"
_symmetry_group_IT_number 55
_symmetry_cell_setting 'orthorhombic'
loop_
_space_group_symop_operation_xyz
x,y,z
-x,-y,z
1/2+x,1/2-y,-z
1/2-x,1/2+y,-z
-x,-y,-z
x,y,-z
1/2-x,1/2+y,z
1/2+x,1/2-y,z
loop_
_atom_site_type_symbol
_atom_site_label
_atom_site_fract_x
_atom_site_fract_y
_atom_site_fract_z
Si Si1 0.665766 0.428803 0.736778
Si Si2 0.116806 0.735681 0.389800
Si Si3 0.404378 0.865902 0.217968
Si Si4 0.225029 0.818032 0.882148
Si Si5 0.225158 0.376602 0.381921
Si Si6 0.457792 0.494026 0.316548
Si Si7 0.538020 0.828378 0.110265
O O1 0.649372 0.562532 0.635842
O O2 0.627727 0.344379 0.798870
O O3 0.691097 0.611278 0.805896
O O4 0.692099 0.201902 0.696247
O O5 0.122356 0.618030 0.500000
O O6 0.116463 0.554837 0.293860
O O7 0.074962 0.865299 0.383422
O O8 0.440004 0.759221 0.284145
O O9 0.424191 0.999379 0.123711
O O10 0.243959 0.544292 0.868356
O O11 0.212175 0.832854 0.000000
O O12 0.212476 0.361819 0.500000
O O13 0.243387 0.652356 0.368224
O O14 0.500000 0.500000 0.362669
O O15 0.461524 0.349268 0.208317
O O16 0.500000 0.000000 0.114078
O O17 0.538634 0.698704 0.000000
#
# Coordination Sequence:
#
# PCOD9427328 Si02
#       7
#     8   8   8   8   8   8   8
#     4  11  23  39  65  90 125 169 206 264 321 386
#     4  10  24  41  59  89 122 164 212 262 324 383
#     4  10  23  39  59  89 126 166 207 264 323 389
#     4  10  23  43  70 101 133 173 221 269 325 396
#     4  10  22  38  60  93 125 162 214 268 322 388
#     4  10  20  39  62  87 123 160 209 262 316 382
#     4  10  20  36  63  92 121 160 207 263 322 383
#
# _framework density 22.970663999999999
#
# number of rings (size 3 to 8) (size 9 to 14) (size 15 to 20)
#    0.000    1.857    1.429    1.286    4.000    4.571 
#    0.000    6.429    0.000    0.000    0.000    0.000 
#    0.000    0.000    0.000    0.000    0.000    0.000 
#
# Total GULP energy -313055.983609 kJ/mol
# GULP energy per Si atom -5590.285422 kJ/mol
# Density = 2.291838 g / cm^3
# Si number density = 22.970664 Si / 1000 Ang^3
#
#
#
# Elastic Constant Matrix: (Units=GPa)
#
#
# Indices 1 2 3 4 5 6 
#
# 1 121.3774 22.5893 28.4259 0.0000 0.0000 0.0000
# 2 22.5893 65.8830 0.0360 0.0000 0.0000 0.0000
# 3 28.4259 0.0360 100.2897 0.0000 0.0000 0.0000
# 4 0.0000 0.0000 0.0000 3.0494 0.0000 0.0000
# 5 0.0000 0.0000 0.0000 0.0000 -1.4405 0.0000
# 6 0.0000 0.0000 0.0000 0.0000 0.0000 37.8807
#
#
#
# Elastic Compliance Matrix: (Units=1/GPa)
#
#
# Indices 1 2 3 4 5 6 
#
# 1 0.009471 -0.003246 -0.002683 0.000000 0.000000 0.000000
# 2 -0.003246 0.016291 0.000914 0.000000 0.000000 0.000000
# 3 -0.002683 0.000914 0.010731 0.000000 0.000000 0.000000
# 4 0.000000 0.000000 0.000000 0.327935 0.000000 0.000000
# 5 0.000000 0.000000 0.000000 0.000000 -0.694193 0.000000
# 6 0.000000 0.000000 0.000000 0.000000 0.000000 0.026399
#
#
# Mechanical properties :
#
#
# Convention : Reuss Voigt Hill
#
# Bulk Modulus (GPa) = 37.78827 43.29471 40.54149
# Shear Modulus (GPa) = -17.57382 23.66450 3.04534
#
# Velocity S-wave (km/s) = -2.76896 3.21316 1.15266
# Velocity P-wave (km/s) = 2.50270 5.71442 4.41124
#
# Compressibility (1/GPa) = 0.02646324
#
# Stress axis : x y z
#
# Youngs Moduli (GPa) = 105.58222 61.38410 93.18492
#
# Poissons Ratio (x) = 0.19925 0.25005
# Poissons Ratio (y) = 0.34271 -0.08519
# Poissons Ratio (z) = 0.28331 -0.05612
#
# Static dielectric constant tensor:
#      x y z
#    x 1.866420 0.000000 0.000000 
#    y 0.000000 1.926600 0.000000 
#    z 0.000000 0.000000 1.861120 
# 
# From -- ./inp_files/20150.got.cif
#   From: 2010.05.17/outbox.cif.g08.bks.cpg/sg55_11_cif.got.tgz:20150.got - 2010.06.03 13:27:54.
