data_PCOD9427924
_publ_section_title
;
Structure prediction by ZEFSAII (Michael W. Deem and Ramdas Pophale) SiO2 
 PCOD9427924
Probable space group: P B A M
;
_chemical_formula_sum "Si O2"
_cell_formula_units_Z 64
_cell_length_a 14.444400
_cell_length_b 25.634586
_cell_length_c 7.840147
_cell_angle_alpha 90.000000
_cell_angle_beta 90.000000
_cell_angle_gamma 90.000000
_cell_volume 2903.019949
_symmetry_space_group_name_H-M "P B A M"
_symmetry_group_IT_number 55
_symmetry_cell_setting 'orthorhombic'
loop_
_space_group_symop_operation_xyz
x,y,z
-x,-y,z
1/2+x,1/2-y,-z
1/2-x,1/2+y,-z
-x,-y,-z
x,y,-z
1/2-x,1/2+y,z
1/2+x,1/2-y,z
loop_
_atom_site_type_symbol
_atom_site_label
_atom_site_fract_x
_atom_site_fract_y
_atom_site_fract_z
Si Si1 0.775406 0.053416 0.698782
Si Si2 0.381394 0.875575 0.801360
Si Si3 0.033034 0.898593 0.292624
Si Si4 0.733805 0.335036 0.197847
Si Si5 0.845880 0.942235 0.797792
Si Si6 0.459236 0.284851 0.301129
Si Si7 0.744384 0.220595 0.208558
Si Si8 0.558100 0.827622 0.699347
O O1 0.767961 0.066060 0.500000
O O2 0.680662 0.073269 0.780081
O O3 0.865150 0.084542 0.768443
O O4 0.798496 0.992823 0.719806
O O5 0.318751 0.827376 0.735948
O O6 0.481135 0.871798 0.715939
O O7 0.397997 0.866710 0.000000
O O8 0.034977 0.898087 0.500000
O O9 0.955281 0.938941 0.235274
O O10 0.008074 0.840245 0.228080
O O11 0.692787 0.387569 0.275797
O O12 0.708593 0.277615 0.266511
O O13 0.845259 0.338275 0.209568
O O14 0.705840 0.334686 0.000000
O O15 0.828591 0.944408 0.000000
O O16 0.485148 0.285345 0.500000
O O17 0.347566 0.286342 0.280965
O O18 0.483650 0.227549 0.231369
O O19 0.750865 0.220755 0.000000
O O20 0.580155 0.819714 0.500000
#
# Coordination Sequence:
#
# PCOD9427924 Si02
#       8
#     8   8   8   8   8   8   8   8
#     4  11  23  41  62  83 117 156 198 246 291 345
#     4  11  22  36  59  88 119 154 194 240 293 350
#     4  10  21  37  57  84 118 157 194 234 288 345
#     4   9  20  40  59  82 117 154 192 240 293 343
#     4  11  24  39  60  86 116 153 198 246 293 348
#     4   9  18  34  54  82 118 153 189 230 281 339
#     4   9  18  33  55  82 113 150 188 229 283 343
#     4  10  21  36  58  87 119 155 194 239 289 346
#
# _framework density 22.046009000000002
#
# number of rings (size 3 to 8) (size 9 to 14) (size 15 to 20)
#    0.000    2.000    1.250    1.875    1.750    5.000 
#    0.000    0.625    0.000    3.750    0.000    0.000 
#    0.000    0.000    0.000    0.000    0.000    0.000 
#
# Total GULP energy -357512.525877 kJ/mol
# GULP energy per Si atom -5586.133217 kJ/mol
# Density = 2.199583 g / cm^3
# Si number density = 22.046009 Si / 1000 Ang^3
#
#
#
# Elastic Constant Matrix: (Units=GPa)
#
#
# Indices 1 2 3 4 5 6 
#
# 1 33.6905 6.7288 -5.3739 0.0000 0.0000 0.0000
# 2 6.7288 84.1783 -2.1025 0.0000 0.0000 0.0000
# 3 -5.3739 -2.1025 40.0302 0.0000 0.0000 0.0000
# 4 0.0000 0.0000 0.0000 19.0188 0.0000 0.0000
# 5 0.0000 0.0000 0.0000 0.0000 25.9485 0.0000
# 6 0.0000 0.0000 0.0000 0.0000 0.0000 36.0569
#
#
#
# Elastic Compliance Matrix: (Units=1/GPa)
#
#
# Indices 1 2 3 4 5 6 
#
# 1 0.030793 -0.002361 0.004010 0.000000 0.000000 0.000000
# 2 -0.002361 0.012076 0.000317 0.000000 0.000000 0.000000
# 3 0.004010 0.000317 0.025536 0.000000 0.000000 0.000000
# 4 0.000000 0.000000 0.000000 0.052579 0.000000 0.000000
# 5 0.000000 0.000000 0.000000 0.000000 0.038538 0.000000
# 6 0.000000 0.000000 0.000000 0.000000 0.000000 0.027734
#
#
# Mechanical properties :
#
#
# Convention : Reuss Voigt Hill
#
# Bulk Modulus (GPa) = 13.82417 17.37822 15.60120
# Shear Modulus (GPa) = 24.10364 26.78129 25.44247
#
# Velocity S-wave (km/s) = 3.31015 3.48917 3.40083
# Velocity P-wave (km/s) = 4.57096 4.91245 4.74478
#
# Compressibility (1/GPa) = 0.07233707
#
# Stress axis : x y z
#
# Youngs Moduli (GPa) = 32.47471 82.80739 39.16028
#
# Poissons Ratio (x) = 0.19553 -0.15703
# Poissons Ratio (y) = 0.07668 -0.01242
# Poissons Ratio (z) = -0.13022 -0.02627
#
# Static dielectric constant tensor:
#      x y z
#    x 1.797930 0.000000 0.000000 
#    y 0.000000 1.845860 0.000000 
#    z 0.000000 0.000000 1.853690 
# 
# From -- ./inp_files/6698.got.cif
#   From: 2010.05.17/outbox.cif.g08.bks.cpg/sg55_4_cif.got.tgz:6698.got - 2010.06.03 13:27:54.
