data_PCOD9427479
_publ_section_title
;
Structure prediction by ZEFSAII (Michael W. Deem and Ramdas Pophale) SiO2 
 PCOD9427479
Probable space group: P B A M
;
_chemical_formula_sum "Si O2"
_cell_formula_units_Z 40
_cell_length_a 14.528416
_cell_length_b 14.232446
_cell_length_c 8.910040
_cell_angle_alpha 90.000000
_cell_angle_beta 90.000000
_cell_angle_gamma 90.000000
_cell_volume 1842.372596
_symmetry_space_group_name_H-M "P B A M"
_symmetry_group_IT_number 55
_symmetry_cell_setting 'orthorhombic'
loop_
_space_group_symop_operation_xyz
x,y,z
-x,-y,z
1/2+x,1/2-y,-z
1/2-x,1/2+y,-z
-x,-y,-z
x,y,-z
1/2-x,1/2+y,z
1/2+x,1/2-y,z
loop_
_atom_site_type_symbol
_atom_site_label
_atom_site_fract_x
_atom_site_fract_y
_atom_site_fract_z
Si Si1 0.450862 0.902618 0.174914
Si Si2 0.727901 0.797757 0.321228
Si Si3 0.886194 0.126750 0.820323
Si Si4 0.732538 0.990398 0.175745
Si Si5 0.056153 0.209245 0.322597
O O1 0.342834 0.927055 0.186067
O O2 0.475057 0.813892 0.274804
O O3 0.500000 0.000000 0.214838
O O4 0.473141 0.881737 0.000000
O O5 0.719173 0.786133 0.500000
O O6 0.670556 0.716436 0.241001
O O7 0.836490 0.795431 0.280331
O O8 0.699130 0.901397 0.268906
O O9 0.829265 0.034263 0.772670
O O10 0.989183 0.136778 0.759779
O O11 0.885899 0.128655 0.000000
O O12 0.738238 0.963246 0.000000
O O13 0.047928 0.196723 0.500000
#
# Coordination Sequence:
#
# PCOD9427479 Si02
#       5
#     8   8   8   8   8
#     4  10  20  37  62  92 122 157 207 262 312 365
#     4  11  24  41  63  92 128 167 206 258 318 377
#     4  11  23  41  65  91 124 166 212 262 310 369
#     4  10  22  39  62  92 124 164 211 259 312 369
#     4  11  24  40  61  91 126 166 207 253 315 376
#
# _framework density 21.711134999999999
#
# number of rings (size 3 to 8) (size 9 to 14) (size 15 to 20)
#    0.000    1.400    2.000    3.000    0.000    7.600 
#    0.000    4.000    0.000    0.000    0.000    0.000 
#    0.000    0.000    0.000    0.000    0.000    0.000 
#
# Total GULP energy -223759.824881 kJ/mol
# GULP energy per Si atom -5593.995622 kJ/mol
# Density = 2.166172 g / cm^3
# Si number density = 21.711135 Si / 1000 Ang^3
#
#
#
# Elastic Constant Matrix: (Units=GPa)
#
#
# Indices 1 2 3 4 5 6 
#
# 1 63.9773 -6.5152 15.1780 0.0000 0.0000 0.0000
# 2 -6.5152 38.0832 -1.5788 0.0000 0.0000 0.0000
# 3 15.1780 -1.5788 18.4415 0.0000 0.0000 0.0000
# 4 0.0000 0.0000 0.0000 28.2523 0.0000 0.0000
# 5 0.0000 0.0000 0.0000 0.0000 34.3907 0.0000
# 6 0.0000 0.0000 0.0000 0.0000 0.0000 34.4584
#
#
#
# Elastic Compliance Matrix: (Units=1/GPa)
#
#
# Indices 1 2 3 4 5 6 
#
# 1 0.019697 0.002707 -0.015980 0.000000 0.000000 0.000000
# 2 0.002707 0.026724 0.000060 0.000000 0.000000 0.000000
# 3 -0.015980 0.000060 0.067382 0.000000 0.000000 0.000000
# 4 0.000000 0.000000 0.000000 0.035395 0.000000 0.000000
# 5 0.000000 0.000000 0.000000 0.000000 0.029078 0.000000
# 6 0.000000 0.000000 0.000000 0.000000 0.000000 0.029021
#
#
# Mechanical properties :
#
#
# Convention : Reuss Voigt Hill
#
# Bulk Modulus (GPa) = 11.44452 14.96333 13.20393
# Shear Modulus (GPa) = 19.02234 26.98148 23.00191
#
# Velocity S-wave (km/s) = 2.96320 3.52909 3.25845
# Velocity P-wave (km/s) = 4.12191 4.84901 4.50017
#
# Compressibility (1/GPa) = 0.08737803
#
# Stress axis : x y z
#
# Youngs Moduli (GPa) = 50.76841 37.41963 14.84066
#
# Poissons Ratio (x) = -0.10131 0.23715
# Poissons Ratio (y) = -0.13745 -0.00088
# Poissons Ratio (z) = 0.81127 -0.00223
#
# Static dielectric constant tensor:
#      x y z
#    x 1.865870 0.000000 0.000000 
#    y 0.000000 1.756440 0.000000 
#    z 0.000000 0.000000 1.729940 
# 
# From -- ./inp_files/5182.got.cif
#   From: 2010.05.17/outbox.cif.g08.bks.cpg/sg55_3_cif.got.tgz:5182.got - 2010.06.03 13:27:54.
