data_PCOD9427188
_publ_section_title
;
Structure prediction by ZEFSAII (Michael W. Deem and Ramdas Pophale) SiO2 
 PCOD9427188
Probable space group: P B A M
;
_chemical_formula_sum "Si O2"
_cell_formula_units_Z 64
_cell_length_a 24.379175
_cell_length_b 15.784262
_cell_length_c 7.686364
_cell_angle_alpha 90.000000
_cell_angle_beta 90.000000
_cell_angle_gamma 90.000000
_cell_volume 2957.768867
_symmetry_space_group_name_H-M "P B A M"
_symmetry_group_IT_number 55
_symmetry_cell_setting 'orthorhombic'
loop_
_space_group_symop_operation_xyz
x,y,z
-x,-y,z
1/2+x,1/2-y,-z
1/2-x,1/2+y,-z
-x,-y,-z
x,y,-z
1/2-x,1/2+y,z
1/2+x,1/2-y,z
loop_
_atom_site_type_symbol
_atom_site_label
_atom_site_fract_x
_atom_site_fract_y
_atom_site_fract_z
Si Si1 0.547139 0.268988 0.702172
Si Si2 0.750189 0.343797 0.793664
Si Si3 0.924489 0.257388 0.288711
Si Si4 0.360563 0.072810 0.206325
Si Si5 0.763422 0.651659 0.299035
Si Si6 0.129614 0.089202 0.289200
Si Si7 0.146994 0.903132 0.712559
Si Si8 0.615874 0.109110 0.199015
O O1 0.538843 0.291633 0.500000
O O2 0.486451 0.256325 0.775655
O O3 0.585147 0.343476 0.778174
O O4 0.581000 0.181861 0.710102
O O5 0.800118 0.401782 0.726422
O O6 0.751209 0.251015 0.709568
O O7 0.690684 0.383211 0.763101
O O8 0.758255 0.331583 0.000000
O O9 0.924356 0.257972 0.500000
O O10 0.899062 0.346425 0.232112
O O11 0.886406 0.179289 0.230507
O O12 0.385178 0.985314 0.277267
O O13 0.354107 0.057060 0.000000
O O14 0.772503 0.627861 0.500000
O O15 0.710262 0.602694 0.229640
O O16 0.820162 0.635332 0.202946
O O17 0.128420 0.091777 0.500000
O O18 0.120857 0.992234 0.234454
O O19 0.148286 0.900954 0.500000
O O20 0.596064 0.107511 0.000000
#
# Coordination Sequence:
#
# PCOD9427188 Si02
#       8
#     8   8   8   8   8   8   8   8
#     4  10  22  38  58  84 114 150 194 240 283 332
#     4  11  21  35  57  85 116 149 187 229 282 342
#     4  10  21  39  60  83 113 150 194 241 285 332
#     4  10  23  40  58  84 115 151 191 234 286 342
#     4  11  20  34  58  87 117 147 185 230 282 340
#     4  10  20  36  58  85 117 150 186 228 280 339
#     4   9  19  35  58  87 115 147 186 230 281 337
#     4  11  23  39  59  83 116 153 189 232 286 343
#
# _framework density 21.637933
#
# number of rings (size 3 to 8) (size 9 to 14) (size 15 to 20)
#    0.000    1.750    2.500    1.875    0.000    3.000 
#    0.000    6.250    0.000    0.000    0.000    2.625 
#    0.000    0.000    0.000    0.000    0.000    0.000 
#
# Total GULP energy -357676.430105 kJ/mol
# GULP energy per Si atom -5588.694220 kJ/mol
# Density = 2.158868 g / cm^3
# Si number density = 21.637933 Si / 1000 Ang^3
#
#
#
# Elastic Constant Matrix: (Units=GPa)
#
#
# Indices 1 2 3 4 5 6 
#
# 1 103.1661 13.3970 -10.9818 0.0000 0.0000 0.0000
# 2 13.3970 89.1877 -13.9138 0.0000 0.0000 0.0000
# 3 -10.9818 -13.9138 41.0594 0.0000 0.0000 0.0000
# 4 0.0000 0.0000 0.0000 149.7933 0.0000 0.0000
# 5 0.0000 0.0000 0.0000 0.0000 -135.8825 0.0000
# 6 0.0000 0.0000 0.0000 0.0000 0.0000 -0.0332
#
#
#
# Elastic Compliance Matrix: (Units=1/GPa)
#
#
# Indices 1 2 3 4 5 6 
#
# 1 0.010089 -0.001156 0.002307 0.000000 0.000000 0.000000
# 2 -0.001156 0.011971 0.003747 0.000000 0.000000 0.000000
# 3 0.002307 0.003747 0.026242 0.000000 0.000000 0.000000
# 4 0.000000 0.000000 0.000000 0.006676 0.000000 0.000000
# 5 0.000000 0.000000 0.000000 0.000000 -0.007359 0.000000
# 6 0.000000 0.000000 0.000000 0.000000 0.000000-30.078170
#
#
# Mechanical properties :
#
#
# Convention : Reuss Voigt Hill
#
# Bulk Modulus (GPa) = 17.21225 23.37955 20.29590
# Shear Modulus (GPa) = -0.16655 19.10296 9.46820
#
# Velocity S-wave (km/s) = -0.27774 2.97450 2.09410
# Velocity P-wave (km/s) = 2.80519 4.75659 3.90476
#
# Compressibility (1/GPa) = 0.05809816
#
# Stress axis : x y z
#
# Youngs Moduli (GPa) = 99.12063 83.53862 38.10712
#
# Poissons Ratio (x) = 0.09654 -0.08790
# Poissons Ratio (y) = 0.11454 -0.14280
# Poissons Ratio (z) = -0.22865 -0.31305
#
# Static dielectric constant tensor:
#      x y z
#    x 1.754870 0.000000 0.000000 
#    y 0.000000 1.781600 0.000000 
#    z 0.000000 0.000000 1.803900 
# 
# From -- ./inp_files/6720.got.cif
#   From: 2010.05.17/outbox.cif.g08.bks.cpg/sg55_4_cif.got.tgz:6720.got - 2010.06.03 13:27:54.
