data_PCOD9427945
_publ_section_title
;
Structure prediction by ZEFSAII (Michael W. Deem and Ramdas Pophale) SiO2 
 PCOD9427945
Probable space group: P B A M
;
_chemical_formula_sum "Si O2"
_cell_formula_units_Z 56
_cell_length_a 16.025235
_cell_length_b 8.562392
_cell_length_c 19.969563
_cell_angle_alpha 90.000000
_cell_angle_beta 90.000000
_cell_angle_gamma 90.000000
_cell_volume 2740.110486
_symmetry_space_group_name_H-M "P B A M"
_symmetry_group_IT_number 55
_symmetry_cell_setting 'orthorhombic'
loop_
_space_group_symop_operation_xyz
x,y,z
-x,-y,z
1/2+x,1/2-y,-z
1/2-x,1/2+y,-z
-x,-y,-z
x,y,-z
1/2-x,1/2+y,z
1/2+x,1/2-y,z
loop_
_atom_site_type_symbol
_atom_site_label
_atom_site_fract_x
_atom_site_fract_y
_atom_site_fract_z
Si Si1 0.638108 0.064750 0.425660
Si Si2 0.712335 0.363059 0.373196
Si Si3 0.671686 0.366342 0.077322
Si Si4 0.206297 0.883776 0.725600
Si Si5 0.500000 0.000000 0.684198
Si Si6 0.500000 0.500000 0.882581
Si Si7 0.941251 0.285568 0.201276
Si Si8 0.821964 0.540582 0.846527
O O1 0.605348 0.032183 0.500000
O O2 0.655664 0.249292 0.416797
O O3 0.578360 0.015695 0.365097
O O4 0.724318 0.969506 0.415502
O O5 0.669625 0.475649 0.318701
O O6 0.764913 0.245245 0.326977
O O7 0.587688 0.471521 0.079965
O O8 0.660815 0.206182 0.119021
O O9 0.748988 0.455968 0.111482
O O10 0.690290 0.329938 0.000000
O O11 0.139556 0.808989 0.774027
O O12 0.284237 0.936702 0.771538
O O13 0.511410 0.854176 0.734229
O O14 0.491673 0.342248 0.839446
O O15 0.903205 0.431104 0.159712
#
# Coordination Sequence:
#
# PCOD9427945 Si02
#       8
#     8   8   8   8   4   4   8   8
#     4  11  23  41  62  88 129 174 214 255 310 388
#     4  10  21  36  65  93 119 158 217 264 306 367
#     4  12  25  43  65  95 133 176 218 261 314 394
#     4  11  18  37  64  97 116 151 204 275 315 356
#     4  12  25  42  60  98 131 168 206 264 342 388
#     4  12  27  42  64  96 137 170 206 270 338 378
#     4  12  24  41  66  97 128 161 210 273 332 379
#     4  12  22  43  70  96 124 170 223 268 319 382
#
# _framework density 20.437132999999999
#
# number of rings (size 3 to 8) (size 9 to 14) (size 15 to 20)
#    0.000    0.571    5.714    3.000    2.000    0.000 
#    0.000    2.857    0.000    0.857    0.000    0.000 
#    0.000    0.000    0.000    0.000    0.000    0.000 
#
# Total GULP energy -312923.191727 kJ/mol
# GULP energy per Si atom -5587.914138 kJ/mol
# Density = 2.039062 g / cm^3
# Si number density = 20.437133 Si / 1000 Ang^3
#
#
#
# Elastic Constant Matrix: (Units=GPa)
#
#
# Indices 1 2 3 4 5 6 
#
# 1 55.0880 14.0121 26.8579 0.0000 0.0000 0.0000
# 2 14.0121 100.7734 40.2084 0.0000 0.0000 0.0000
# 3 26.8579 40.2084 110.3733 0.0000 0.0000 0.0000
# 4 0.0000 0.0000 0.0000 19.4149 0.0000 0.0000
# 5 0.0000 0.0000 0.0000 0.0000 3.9333 0.0000
# 6 0.0000 0.0000 0.0000 0.0000 0.0000 33.0152
#
#
#
# Elastic Compliance Matrix: (Units=1/GPa)
#
#
# Indices 1 2 3 4 5 6 
#
# 1 0.020685 -0.001015 -0.004663 0.000000 0.000000 0.000000
# 2 -0.001015 0.011661 -0.004001 0.000000 0.000000 0.000000
# 3 -0.004663 -0.004001 0.011652 0.000000 0.000000 0.000000
# 4 0.000000 0.000000 0.000000 0.051507 0.000000 0.000000
# 5 0.000000 0.000000 0.000000 0.000000 0.254242 0.000000
# 6 0.000000 0.000000 0.000000 0.000000 0.000000 0.030289
#
#
# Mechanical properties :
#
#
# Convention : Reuss Voigt Hill
#
# Bulk Modulus (GPa) = 40.58693 47.59905 44.09299
# Shear Modulus (GPa) = 12.26667 23.61643 17.94155
#
# Velocity S-wave (km/s) = 2.45259 3.40305 2.96613
# Velocity P-wave (km/s) = 5.28420 6.22752 5.77515
#
# Compressibility (1/GPa) = 0.02463848
#
# Stress axis : x y z
#
# Youngs Moduli (GPa) = 48.34492 85.75755 85.81888
#
# Poissons Ratio (x) = 0.08708 0.40021
# Poissons Ratio (y) = 0.04909 0.34335
# Poissons Ratio (z) = 0.22545 0.34311
#
# Static dielectric constant tensor:
#      x y z
#    x 1.753640 0.000000 0.000000 
#    y 0.000000 1.741830 0.000000 
#    z 0.000000 0.000000 1.712630 
# 
# From -- ./inp_files/23010.got.cif
#   From: 2010.05.17/outbox.cif.g08.bks.cpg/sg55_12_cif.got.tgz:23010.got - 2010.06.03 13:27:54.
