data_PCOD9427768
_publ_section_title
;
Structure prediction by ZEFSAII (Michael W. Deem and Ramdas Pophale) SiO2 
 PCOD9427768
Probable space group: P B A M
;
_chemical_formula_sum "Si O2"
_cell_formula_units_Z 48
_cell_length_a 23.809407
_cell_length_b 8.574243
_cell_length_c 12.111544
_cell_angle_alpha 90.000000
_cell_angle_beta 90.000000
_cell_angle_gamma 90.000000
_cell_volume 2472.543140
_symmetry_space_group_name_H-M "P B A M"
_symmetry_group_IT_number 55
_symmetry_cell_setting 'orthorhombic'
loop_
_space_group_symop_operation_xyz
x,y,z
-x,-y,z
1/2+x,1/2-y,-z
1/2-x,1/2+y,-z
-x,-y,-z
x,y,-z
1/2-x,1/2+y,z
1/2+x,1/2-y,z
loop_
_atom_site_type_symbol
_atom_site_label
_atom_site_fract_x
_atom_site_fract_y
_atom_site_fract_z
Si Si1 0.025980 0.247972 0.500000
Si Si2 0.333530 0.679295 0.129133
Si Si3 0.324525 0.711218 0.500000
Si Si4 0.908406 0.427245 0.500000
Si Si5 0.592380 0.408193 0.682871
Si Si6 0.650837 0.729790 0.323367
Si Si7 0.278133 0.337099 0.129836
Si Si8 0.265370 0.418007 0.500000
O O1 0.069392 0.395722 0.500000
O O2 0.039367 0.148121 0.389201
O O3 0.964580 0.319709 0.500000
O O4 0.390636 0.664546 0.199535
O O5 0.299924 0.514522 0.142902
O O6 0.286626 0.806874 0.162965
O O7 0.346163 0.699546 0.000000
O O8 0.358357 0.660306 0.605735
O O9 0.269975 0.602651 0.500000
O O10 0.299629 0.879679 0.500000
O O11 0.874810 0.372266 0.608738
O O12 0.603307 0.593750 0.687267
O O13 0.679747 0.761978 0.206344
O O14 0.700330 0.649232 0.395808
O O15 0.282125 0.296002 0.000000
#
# Coordination Sequence:
#
# PCOD9427768 Si02
#       8
#     4   8   4   4   8   8   8   4
#     4  10  21  35  51  71  90 110 146 198 248 289
#     4   9  17  29  46  70 100 131 161 190 219 259
#     4   9  16  24  36  58  87 116 146 178 213 258
#     4  10  21  35  51  71  90 110 146 198 248 289
#     4   9  18  31  46  66  92 122 154 186 225 275
#     4   9  18  31  46  66  92 122 154 186 225 275
#     4   9  17  29  46  70 100 131 161 190 219 259
#     4   9  16  24  36  58  87 116 146 178 213 258
#
# _framework density 19.413211
#
# number of rings (size 3 to 8) (size 9 to 14) (size 15 to 20)
#    0.000    2.833    0.000    2.500    0.000    5.333 
#    0.000    0.000    0.000    1.000    0.000    7.000 
#    0.000    0.000    0.000    0.000    0.000    0.000 
#
# Total GULP energy -267495.386809 kJ/mol
# GULP energy per Si atom -5572.820559 kJ/mol
# Density = 1.936903 g / cm^3
# Si number density = 19.413211 Si / 1000 Ang^3
#
#
#
# Elastic Constant Matrix: (Units=GPa)
#
#
# Indices 1 2 3 4 5 6 
#
# 1 36.5965 19.4282 15.7606 0.0000 0.0000 0.0000
# 2 19.4282 44.8391 13.1376 0.0000 0.0000 0.0000
# 3 15.7606 13.1376 73.4384 0.0000 0.0000 0.0000
# 4 0.0000 0.0000 0.0000 17.6800 0.0000 0.0000
# 5 0.0000 0.0000 0.0000 0.0000 10.2698 0.0000
# 6 0.0000 0.0000 0.0000 0.0000 0.0000 36.5261
#
#
#
# Elastic Compliance Matrix: (Units=1/GPa)
#
#
# Indices 1 2 3 4 5 6 
#
# 1 0.037423 -0.014628 -0.005414 0.000000 0.000000 0.000000
# 2 -0.014628 0.029254 -0.002094 0.000000 0.000000 0.000000
# 3 -0.005414 -0.002094 0.015153 0.000000 0.000000 0.000000
# 4 0.000000 0.000000 0.000000 0.056561 0.000000 0.000000
# 5 0.000000 0.000000 0.000000 0.000000 0.097373 0.000000
# 6 0.000000 0.000000 0.000000 0.000000 0.000000 0.027378
#
#
# Mechanical properties :
#
#
# Convention : Reuss Voigt Hill
#
# Bulk Modulus (GPa) = 26.62651 27.94741 27.28696
# Shear Modulus (GPa) = 15.62822 19.99833 17.81327
#
# Velocity S-wave (km/s) = 2.84038 3.21306 3.03245
# Velocity P-wave (km/s) = 4.95000 5.30965 5.13297
#
# Compressibility (1/GPa) = 0.03755655
#
# Stress axis : x y z
#
# Youngs Moduli (GPa) = 26.72177 34.18360 65.99179
#
# Poissons Ratio (x) = 0.50005 0.35730
# Poissons Ratio (y) = 0.39090 0.13818
# Poissons Ratio (z) = 0.14468 0.07158
#
# Static dielectric constant tensor:
#      x y z
#    x 1.711670 0.000000 0.000000 
#    y 0.000000 1.717310 0.000000 
#    z 0.000000 0.000000 1.663320 
# 
# From -- ./inp_files/15925.got.cif
#   From: 2010.05.17/outbox.cif.g08.bks.cpg/sg55_8_cif.got.tgz:15925.got - 2010.06.03 13:27:54.
