data_PCOD9427315
_publ_section_title
;
Structure prediction by ZEFSAII (Michael W. Deem and Ramdas Pophale) SiO2 
 PCOD9427315
Probable space group: P B A M
;
_chemical_formula_sum "Si O2"
_cell_formula_units_Z 58
_cell_length_a 7.210599
_cell_length_b 24.408987
_cell_length_c 12.495518
_cell_angle_alpha 90.000000
_cell_angle_beta 90.000000
_cell_angle_gamma 90.000000
_cell_volume 2199.253868
_symmetry_space_group_name_H-M "P B A M"
_symmetry_group_IT_number 55
_symmetry_cell_setting 'orthorhombic'
loop_
_space_group_symop_operation_xyz
x,y,z
-x,-y,z
1/2+x,1/2-y,-z
1/2-x,1/2+y,-z
-x,-y,-z
x,y,-z
1/2-x,1/2+y,z
1/2+x,1/2-y,z
loop_
_atom_site_type_symbol
_atom_site_label
_atom_site_fract_x
_atom_site_fract_y
_atom_site_fract_z
Si Si1 0.176099 0.540040 0.116974
Si Si2 0.000000 0.000000 0.500000
Si Si3 0.212844 0.963071 0.284143
Si Si4 0.848701 0.136681 0.122341
Si Si5 0.206248 0.189487 0.665035
Si Si6 0.228120 0.809659 0.673122
Si Si7 0.012413 0.598495 0.386871
Si Si8 0.785272 0.334940 0.887114
O O1 0.292464 0.519885 0.218774
O O2 0.129284 0.604360 0.124392
O O3 0.000000 0.500000 0.109806
O O4 0.274199 0.534952 0.000000
O O5 0.883115 0.031845 0.400690
O O6 0.152394 0.917697 0.196024
O O7 0.425465 0.944773 0.307185
O O8 0.741513 0.180443 0.198078
O O9 0.063054 0.154822 0.112163
O O10 0.779113 0.129609 0.000000
O O11 0.232195 0.250599 0.622692
O O12 0.302811 0.134049 0.626794
O O13 0.309333 0.197832 0.779577
O O14 0.988950 0.178846 0.661097
O O15 0.356045 0.854212 0.616942
O O16 0.034302 0.569952 0.500000
O O17 0.842969 0.309944 0.000000
#
# Coordination Sequence:
#
# PCOD9427315 Si02
#       8
#     8   2   8   8   8   8   8   8
#     4  10  20  36  62  93 125 166 217 276 341 410
#     4  12  24  40  64  92 128 184 220 280 344 392
#     4  11  22  40  65  92 133 174 230 285 340 406
#     4   9  19  37  63  94 127 166 215 277 340 403
#     4  11  21  41  64  92 130 170 211 267 332 399
#     4  10  22  39  64  95 129 168 214 272 336 409
#     4  11  24  43  65  91 128 169 224 278 330 396
#     4   9  19  35  58  90 128 164 202 257 324 392
#
# _framework density 26.372579000000002
#
# number of rings (size 3 to 8) (size 9 to 14) (size 15 to 20)
#    0.000    1.793    2.069    2.069    0.000    1.655 
#    0.000    5.862   10.621    0.000    0.000    0.000 
#    0.000    0.000    0.000    0.000    0.000    0.000 
#
# Total GULP energy -323534.377456 kJ/mol
# GULP energy per Si atom -5578.178922 kJ/mol
# Density = 2.631255 g / cm^3
# Si number density = 26.372579 Si / 1000 Ang^3
#
#
#
# Elastic Constant Matrix: (Units=GPa)
#
#
# Indices 1 2 3 4 5 6 
#
# 1 87.1294 1.7454 -2.1048 0.0000 0.0000 0.0000
# 2 1.7454 85.8949 23.2446 0.0000 0.0000 0.0000
# 3 -2.1048 23.2446 194.2405 0.0000 0.0000 0.0000
# 4 0.0000 0.0000 0.0000 -97.2394 0.0000 0.0000
# 5 0.0000 0.0000 0.0000 0.0000 57.5555 0.0000
# 6 0.0000 0.0000 0.0000 0.0000 0.0000 36.1270
#
#
#
# Elastic Compliance Matrix: (Units=1/GPa)
#
#
# Indices 1 2 3 4 5 6 
#
# 1 0.011487 -0.000276 0.000158 0.000000 0.000000 0.000000
# 2 -0.000276 0.012038 -0.001444 0.000000 0.000000 0.000000
# 3 0.000158 -0.001444 0.005323 0.000000 0.000000 0.000000
# 4 0.000000 0.000000 0.000000 -0.010284 0.000000 0.000000
# 5 0.000000 0.000000 0.000000 0.000000 0.017375 0.000000
# 6 0.000000 0.000000 0.000000 0.000000 0.000000 0.027680
#
#
# Mechanical properties :
#
#
# Convention : Reuss Voigt Hill
#
# Bulk Modulus (GPa) = 38.87518 45.89280 42.38399
# Shear Modulus (GPa) = 66.38587 22.24722 44.31655
#
# Velocity S-wave (km/s) = 5.02264 2.90759 4.10372
# Velocity P-wave (km/s) = 6.95764 5.35832 6.20968
#
# Compressibility (1/GPa) = 0.02572335
#
# Stress axis : x y z
#
# Youngs Moduli (GPa) = 87.05857 83.06741 187.87382
#
# Poissons Ratio (x) = 0.02293 -0.02959
# Poissons Ratio (y) = 0.02403 0.27122
# Poissons Ratio (z) = -0.01371 0.11992
#
# Static dielectric constant tensor:
#      x y z
#    x 2.110950 0.000000 0.000000 
#    y 0.000000 2.024590 0.000000 
#    z 0.000000 0.000000 2.424960 
# 
# From -- ./inp_files/12464.got.cif
#   From: 2010.05.17/outbox.cif.g08.bks.cpg/sg55_7_cif.got.tgz:12464.got - 2010.06.03 13:27:54.
