data_PCOD9427227
_publ_section_title
;
Structure prediction by ZEFSAII (Michael W. Deem and Ramdas Pophale) SiO2 
 PCOD9427227
Probable space group: P B A M
;
_chemical_formula_sum "Si O2"
_cell_formula_units_Z 58
_cell_length_a 9.714977
_cell_length_b 27.405715
_cell_length_c 12.579320
_cell_angle_alpha 90.000000
_cell_angle_beta 90.000000
_cell_angle_gamma 90.000000
_cell_volume 3349.192260
_symmetry_space_group_name_H-M "P B A M"
_symmetry_group_IT_number 55
_symmetry_cell_setting 'orthorhombic'
loop_
_space_group_symop_operation_xyz
x,y,z
-x,-y,z
1/2+x,1/2-y,-z
1/2-x,1/2+y,-z
-x,-y,-z
x,y,-z
1/2-x,1/2+y,z
1/2+x,1/2-y,z
loop_
_atom_site_type_symbol
_atom_site_label
_atom_site_fract_x
_atom_site_fract_y
_atom_site_fract_z
Si Si1 0.130654 0.606584 0.779174
Si Si2 0.333642 0.005596 0.119207
Si Si3 0.149702 0.439068 0.686286
Si Si4 0.204595 0.260491 0.249784
Si Si5 0.435973 0.208553 0.122499
Si Si6 0.659678 0.650355 0.375538
Si Si7 0.000000 0.500000 0.500000
Si Si8 0.661276 0.339199 0.625838
O O1 0.191719 0.560803 0.843032
O O2 0.098435 0.651993 0.855567
O O3 0.234555 0.626166 0.689575
O O4 0.988524 0.588920 0.725333
O O5 0.500000 0.000000 0.114994
O O6 0.291351 0.968880 0.212754
O O7 0.280924 0.995888 0.000000
O O8 0.258850 0.399346 0.647360
O O9 0.098607 0.475268 0.593873
O O10 0.304875 0.240006 0.158600
O O11 0.274553 0.306261 0.307098
O O12 0.183496 0.215791 0.331574
O O13 0.060895 0.276298 0.198750
O O14 0.470431 0.216521 0.000000
O O15 0.674413 0.662596 0.500000
O O16 0.497065 0.646574 0.352980
O O17 0.687173 0.341841 0.500000
#
# Coordination Sequence:
#
# PCOD9427227 Si02
#       8
#     8   8   8   8   8   8   2   8
#     4  10  20  36  59  86 112 148 192 240 281 347
#     4   9  18  35  58  85 115 146 187 239 287 337
#     4  11  21  35  61  88 117 149 192 245 292 349
#     4  11  21  40  56  81 118 150 195 241 287 353
#     4  11  22  36  58  83 112 152 194 240 290 341
#     4  11  22  38  57  84 117 155 190 237 298 353
#     4  12  20  36  58  94 120 144 188 252 296 340
#     4  10  23  38  57  83 119 153 191 235 293 355
#
# _framework density 17.317608
#
# number of rings (size 3 to 8) (size 9 to 14) (size 15 to 20)
#    0.000    1.517    5.517    1.241    0.966    0.552 
#    0.000    0.690    0.000    3.310    0.000    0.000 
#    0.000    0.000    0.000    0.000    0.000    0.000 
#
# Total GULP energy -323158.230583 kJ/mol
# GULP energy per Si atom -5571.693631 kJ/mol
# Density = 1.727819 g / cm^3
# Si number density = 17.317608 Si / 1000 Ang^3
#
#
#
# Elastic Constant Matrix: (Units=GPa)
#
#
# Indices 1 2 3 4 5 6 
#
# 1 52.5118 33.0806 22.6087 0.0000 0.0000 0.0000
# 2 33.0806 101.4655 44.9304 0.0000 0.0000 0.0000
# 3 22.6087 44.9304 97.6716 0.0000 0.0000 0.0000
# 4 0.0000 0.0000 0.0000 9.9297 0.0000 0.0000
# 5 0.0000 0.0000 0.0000 0.0000 12.5742 0.0000
# 6 0.0000 0.0000 0.0000 0.0000 0.0000 18.1159
#
#
#
# Elastic Compliance Matrix: (Units=1/GPa)
#
#
# Indices 1 2 3 4 5 6 
#
# 1 0.024443 -0.006861 -0.002502 0.000000 0.000000 0.000000
# 2 -0.006861 0.014303 -0.004991 0.000000 0.000000 0.000000
# 3 -0.002502 -0.004991 0.013114 0.000000 0.000000 0.000000
# 4 0.000000 0.000000 0.000000 0.100708 0.000000 0.000000
# 5 0.000000 0.000000 0.000000 0.000000 0.079528 0.000000
# 6 0.000000 0.000000 0.000000 0.000000 0.000000 0.055200
#
#
# Mechanical properties :
#
#
# Convention : Reuss Voigt Hill
#
# Bulk Modulus (GPa) = 43.19527 50.32093 46.75810
# Shear Modulus (GPa) = 15.44546 18.19259 16.81903
#
# Velocity S-wave (km/s) = 2.98970 3.24470 3.11980
# Velocity P-wave (km/s) = 6.07576 6.56949 6.32744
#
# Compressibility (1/GPa) = 0.02315068
#
# Stress axis : x y z
#
# Youngs Moduli (GPa) = 40.91192 69.91670 76.25725
#
# Poissons Ratio (x) = 0.47972 0.19077
# Poissons Ratio (y) = 0.28071 0.38062
# Poissons Ratio (z) = 0.10235 0.34897
#
# Static dielectric constant tensor:
#      x y z
#    x 1.564290 0.000000 0.000000 
#    y 0.000000 1.579340 0.000000 
#    z 0.000000 0.000000 1.580930 
# 
# From -- ./inp_files/12458.got.cif
#   From: 2010.05.17/outbox.cif.g08.bks.cpg/sg55_7_cif.got.tgz:12458.got - 2010.06.03 13:27:54.
