data_PCOD9427014
_publ_section_title
;
Structure prediction by ZEFSAII (Michael W. Deem and Ramdas Pophale) SiO2 
 PCOD9427014
Probable space group: P B A M
;
_chemical_formula_sum "Si O2"
_cell_formula_units_Z 48
_cell_length_a 16.573191
_cell_length_b 10.071392
_cell_length_c 13.152286
_cell_angle_alpha 90.000000
_cell_angle_beta 90.000000
_cell_angle_gamma 90.000000
_cell_volume 2195.315176
_symmetry_space_group_name_H-M "P B A M"
_symmetry_group_IT_number 55
_symmetry_cell_setting 'orthorhombic'
loop_
_space_group_symop_operation_xyz
x,y,z
-x,-y,z
1/2+x,1/2-y,-z
1/2-x,1/2+y,-z
-x,-y,-z
x,y,-z
1/2-x,1/2+y,z
1/2+x,1/2-y,z
loop_
_atom_site_type_symbol
_atom_site_label
_atom_site_fract_x
_atom_site_fract_y
_atom_site_fract_z
Si Si1 0.598287 0.757400 0.112557
Si Si2 0.492219 0.342870 0.385032
Si Si3 0.428589 0.789864 0.192162
Si Si4 0.678511 0.774614 0.674774
Si Si5 0.789917 0.547970 0.720462
Si Si6 0.155234 0.027688 0.114292
O O1 0.511178 0.819738 0.133312
O O2 0.658003 0.789614 0.204374
O O3 0.592120 0.595704 0.118542
O O4 0.628068 0.790841 0.000000
O O5 0.500000 0.500000 0.365470
O O6 0.519227 0.317346 0.500000
O O7 0.542985 0.265545 0.301407
O O8 0.399836 0.294343 0.372749
O O9 0.383910 0.669602 0.135242
O O10 0.367754 0.908581 0.214852
O O11 0.754729 0.678732 0.665659
O O12 0.692921 0.926377 0.644858
O O13 0.719696 0.503210 0.798337
O O14 0.189720 0.024095 0.000000
#
# Coordination Sequence:
#
# PCOD9427014 Si02
#       6
#     8   8   8   8   8   8
#     4   9  19  34  55  84 119 159 207 258 306 364
#     4  10  22  42  69  95 121 157 206 261 317 378
#     4  11  20  36  62  86 121 162 210 256 309 367
#     4  10  22  41  62  88 123 163 205 254 308 375
#     4  11  22  38  60  88 126 167 205 252 315 367
#     4  10  20  35  57  89 126 168 213 252 302 373
#
# _framework density 21.864740999999999
#
# number of rings (size 3 to 8) (size 9 to 14) (size 15 to 20)
#    0.000    1.833    1.667    4.000    0.000    6.000 
#    0.000    4.167    0.000    1.000    0.000    0.000 
#    0.000    0.000    0.000    0.000    0.000    0.000 
#
# Total GULP energy -268233.365256 kJ/mol
# GULP energy per Si atom -5588.195109 kJ/mol
# Density = 2.181498 g / cm^3
# Si number density = 21.864741 Si / 1000 Ang^3
#
#
#
# Elastic Constant Matrix: (Units=GPa)
#
#
# Indices 1 2 3 4 5 6 
#
# 1 68.3243 35.9220 -14.4578 0.0000 0.0000 0.0000
# 2 35.9220 108.6432 -13.2605 0.0000 0.0000 0.0000
# 3 -14.4578 -13.2605 61.2651 0.0000 0.0000 0.0000
# 4 0.0000 0.0000 0.0000 4.8281 0.0000 0.0000
# 5 0.0000 0.0000 0.0000 0.0000 -0.7630 0.0000
# 6 0.0000 0.0000 0.0000 0.0000 0.0000 36.0271
#
#
#
# Elastic Compliance Matrix: (Units=1/GPa)
#
#
# Indices 1 2 3 4 5 6 
#
# 1 0.018266 -0.005663 0.003085 0.000000 0.000000 0.000000
# 2 -0.005663 0.011210 0.001090 0.000000 0.000000 0.000000
# 3 0.003085 0.001090 0.017286 0.000000 0.000000 0.000000
# 4 0.000000 0.000000 0.000000 0.207121 0.000000 0.000000
# 5 0.000000 0.000000 0.000000 0.000000 -1.310585 0.000000
# 6 0.000000 0.000000 0.000000 0.000000 0.000000 0.027757
#
#
# Mechanical properties :
#
#
# Convention : Reuss Voigt Hill
#
# Bulk Modulus (GPa) = 22.83835 28.29334 25.56585
# Shear Modulus (GPa) = -4.94378 23.35370 9.20496
#
# Velocity S-wave (km/s) = -1.50532 3.27172 2.05404
# Velocity P-wave (km/s) = 2.72886 5.21924 4.16456
#
# Compressibility (1/GPa) = 0.04378599
#
# Stress axis : x y z
#
# Youngs Moduli (GPa) = 54.74579 89.20666 57.84891
#
# Poissons Ratio (x) = 0.50518 -0.17846
# Poissons Ratio (y) = 0.31003 -0.06305
# Poissons Ratio (z) = -0.16888 -0.09723
#
# Static dielectric constant tensor:
#      x y z
#    x 1.788690 0.000000 0.000000 
#    y 0.000000 1.845800 0.000000 
#    z 0.000000 0.000000 1.785490 
# 
# From -- ./inp_files/19340.got.cif
#   From: 2010.05.17/outbox.cif.g08.bks.cpg/sg55_10_cif.got.tgz:19340.got - 2010.06.03 13:27:54.
