data_PCOD9427515
_publ_section_title
;
Structure prediction by ZEFSAII (Michael W. Deem and Ramdas Pophale) SiO2 
 PCOD9427515
Probable space group: P B A M
;
_chemical_formula_sum "Si O2"
_cell_formula_units_Z 48
_cell_length_a 8.213282
_cell_length_b 17.123013
_cell_length_c 15.773366
_cell_angle_alpha 90.000000
_cell_angle_beta 90.000000
_cell_angle_gamma 90.000000
_cell_volume 2218.305222
_symmetry_space_group_name_H-M "P B A M"
_symmetry_group_IT_number 55
_symmetry_cell_setting 'orthorhombic'
loop_
_space_group_symop_operation_xyz
x,y,z
-x,-y,z
1/2+x,1/2-y,-z
1/2-x,1/2+y,-z
-x,-y,-z
x,y,-z
1/2-x,1/2+y,z
1/2+x,1/2-y,z
loop_
_atom_site_type_symbol
_atom_site_label
_atom_site_fract_x
_atom_site_fract_y
_atom_site_fract_z
Si Si1 0.112994 0.371529 0.593899
Si Si2 0.901798 0.235559 0.653211
Si Si3 0.581713 0.380361 0.250429
Si Si4 0.768478 0.534367 0.248780
Si Si5 0.898821 0.628525 0.904909
Si Si6 0.209299 0.724584 0.845870
O O1 0.107797 0.405490 0.500000
O O2 0.960956 0.314955 0.611344
O O3 0.268027 0.313326 0.603357
O O4 0.139545 0.432719 0.669162
O O5 0.054831 0.177137 0.669913
O O6 0.843919 0.253283 0.749652
O O7 0.724345 0.443865 0.258013
O O8 0.408878 0.423657 0.242923
O O9 0.630776 0.328606 0.169539
O O10 0.863491 0.563417 0.165884
O O11 0.764265 0.697118 0.892568
O O12 0.069144 0.672777 0.887384
O O13 0.893333 0.597554 0.000000
#
# Coordination Sequence:
#
# PCOD9427515 Si02
#       6
#     8   8   8   8   8   8
#     4  11  21  36  60  88 119 153 194 245 291 345
#     4  11  18  37  61  86 113 151 203 240 289 340
#     4  10  20  37  66  83 115 162 193 238 299 344
#     4  10  21  41  59  86 123 158 192 236 297 361
#     4  12  23  38  61  89 119 155 198 245 295 348
#     4  12  19  39  63  87 115 155 201 245 288 342
#
# _framework density 21.638141000000001
#
# number of rings (size 3 to 8) (size 9 to 14) (size 15 to 20)
#    0.000    1.000    8.333    1.000    0.000    0.667 
#    0.000   12.500    0.000    1.000    0.000    0.000 
#    0.000    0.000    0.000    0.000    0.000    0.000 
#
# Total GULP energy -268282.822231 kJ/mol
# GULP energy per Si atom -5589.225463 kJ/mol
# Density = 2.158889 g / cm^3
# Si number density = 21.638141 Si / 1000 Ang^3
#
#
#
# Elastic Constant Matrix: (Units=GPa)
#
#
# Indices 1 2 3 4 5 6 
#
# 1 72.9397 8.2840 17.4428 0.0000 0.0000 0.0000
# 2 8.2840 66.8103 19.3551 0.0000 0.0000 0.0000
# 3 17.4428 19.3551 149.9671 0.0000 0.0000 0.0000
# 4 0.0000 0.0000 0.0000 -3.1037 0.0000 0.0000
# 5 0.0000 0.0000 0.0000 0.0000 18.2836 0.0000
# 6 0.0000 0.0000 0.0000 0.0000 0.0000 43.7256
#
#
#
# Elastic Compliance Matrix: (Units=1/GPa)
#
#
# Indices 1 2 3 4 5 6 
#
# 1 0.014216 -0.001333 -0.001481 0.000000 0.000000 0.000000
# 2 -0.001333 0.015674 -0.001868 0.000000 0.000000 0.000000
# 3 -0.001481 -0.001868 0.007081 0.000000 0.000000 0.000000
# 4 0.000000 0.000000 0.000000 -0.322192 0.000000 0.000000
# 5 0.000000 0.000000 0.000000 0.000000 0.054694 0.000000
# 6 0.000000 0.000000 0.000000 0.000000 0.000000 0.022870
#
#
# Mechanical properties :
#
#
# Convention : Reuss Voigt Hill
#
# Bulk Modulus (GPa) = 36.22403 42.20901 39.21652
# Shear Modulus (GPa) = -26.44253 28.09012 0.82379
#
# Velocity S-wave (km/s) = -3.49955 3.60693 0.61769
# Velocity P-wave (km/s) = 0.66934 6.07418 4.32109
#
# Compressibility (1/GPa) = 0.02760599
#
# Stress axis : x y z
#
# Youngs Moduli (GPa) = 70.34502 63.79908 141.21311
#
# Poissons Ratio (x) = 0.08508 0.20918
# Poissons Ratio (y) = 0.09380 0.26377
# Poissons Ratio (z) = 0.10420 0.11917
#
# Static dielectric constant tensor:
#      x y z
#    x 1.861120 0.000000 0.000000 
#    y 0.000000 1.813810 0.000000 
#    z 0.000000 0.000000 1.743150 
# 
# From -- ./inp_files/17374.got.cif
#   From: 2010.05.17/outbox.cif.g08.bks.cpg/sg55_9_cif.got.tgz:17374.got - 2010.06.03 13:27:54.
