data_PCOD9427554
_publ_section_title
;
Structure prediction by ZEFSAII (Michael W. Deem and Ramdas Pophale) SiO2 
 PCOD9427554
Probable space group: P B A M
;
_chemical_formula_sum "Si O2"
_cell_formula_units_Z 42
_cell_length_a 18.564271
_cell_length_b 9.752469
_cell_length_c 12.078312
_cell_angle_alpha 90.000000
_cell_angle_beta 90.000000
_cell_angle_gamma 90.000000
_cell_volume 2186.747919
_symmetry_space_group_name_H-M "P B A M"
_symmetry_group_IT_number 55
_symmetry_cell_setting 'orthorhombic'
loop_
_space_group_symop_operation_xyz
x,y,z
-x,-y,z
1/2+x,1/2-y,-z
1/2-x,1/2+y,-z
-x,-y,-z
x,y,-z
1/2-x,1/2+y,z
1/2+x,1/2-y,z
loop_
_atom_site_type_symbol
_atom_site_label
_atom_site_fract_x
_atom_site_fract_y
_atom_site_fract_z
Si Si1 0.765952 0.849512 0.265477
Si Si2 0.000000 0.000000 0.000000
Si Si3 0.670622 0.610552 0.629221
Si Si4 0.865962 0.442345 0.875573
Si Si5 0.548735 0.678281 0.197784
Si Si6 0.099057 0.241361 0.871719
O O1 0.730556 0.716649 0.322940
O O2 0.700441 0.928255 0.206783
O O3 0.824392 0.809407 0.171924
O O4 0.802594 0.956204 0.348776
O O5 0.051884 0.929707 0.901749
O O6 0.659633 0.636282 0.500000
O O7 0.598080 0.635328 0.700150
O O8 0.922512 0.325079 0.844448
O O9 0.898074 0.594292 0.873840
O O10 0.839838 0.415562 0.000000
O O11 0.463278 0.696959 0.212507
O O12 0.079036 0.193477 0.000000
#
# Coordination Sequence:
#
# PCOD9427554 Si02
#       6
#     8   2   8   8   8   8
#     4  11  22  42  65  95 127 168 220 269 325 380
#     4  12  20  40  56 100 124 168 200 256 334 370
#     4  11  25  45  67  91 127 174 223 272 320 382
#     4  10  20  38  61  95 131 173 204 260 323 395
#     4  11  23  38  65  91 136 166 212 267 322 387
#     4  11  21  38  63  97 132 167 210 257 332 400
#
# _framework density 19.206603000000001
#
# number of rings (size 3 to 8) (size 9 to 14) (size 15 to 20)
#    0.000    1.143    3.810    2.857    0.000    1.524 
#    1.714    5.238    0.000    2.286    0.000    0.000 
#    0.000    0.000    0.000    0.000    0.000    0.000 
#
# Total GULP energy -234118.626247 kJ/mol
# GULP energy per Si atom -5574.253006 kJ/mol
# Density = 1.916289 g / cm^3
# Si number density = 19.206603 Si / 1000 Ang^3
#
#
#
# Elastic Constant Matrix: (Units=GPa)
#
#
# Indices 1 2 3 4 5 6 
#
# 1 106.2830 29.7146 45.8284 0.0000 0.0000 0.0000
# 2 29.7146 71.4744 11.2290 0.0000 0.0000 0.0000
# 3 45.8284 11.2290 99.0325 0.0000 0.0000 0.0000
# 4 0.0000 0.0000 0.0000 22.3515 0.0000 0.0000
# 5 0.0000 0.0000 0.0000 0.0000 22.4226 0.0000
# 6 0.0000 0.0000 0.0000 0.0000 0.0000 21.1042
#
#
#
# Elastic Compliance Matrix: (Units=1/GPa)
#
#
# Indices 1 2 3 4 5 6 
#
# 1 0.013070 -0.004565 -0.005531 0.000000 0.000000 0.000000
# 2 -0.004565 0.015839 0.000316 0.000000 0.000000 0.000000
# 3 -0.005531 0.000316 0.012621 0.000000 0.000000 0.000000
# 4 0.000000 0.000000 0.000000 0.044740 0.000000 0.000000
# 5 0.000000 0.000000 0.000000 0.000000 0.044598 0.000000
# 6 0.000000 0.000000 0.000000 0.000000 0.000000 0.047384
#
#
# Mechanical properties :
#
#
# Convention : Reuss Voigt Hill
#
# Bulk Modulus (GPa) = 45.51204 50.03710 47.77457
# Shear Modulus (GPa) = 24.37438 25.84352 25.10895
#
# Velocity S-wave (km/s) = 3.56626 3.67216 3.61959
# Velocity P-wave (km/s) = 6.38005 6.63990 6.51127
#
# Compressibility (1/GPa) = 0.02197221
#
# Stress axis : x y z
#
# Youngs Moduli (GPa) = 76.51219 63.13509 79.23193
#
# Poissons Ratio (x) = 0.28819 0.43820
# Poissons Ratio (y) = 0.34926 -0.02507
# Poissons Ratio (z) = 0.42316 -0.01998
#
# Static dielectric constant tensor:
#      x y z
#    x 1.658400 0.000000 0.000000 
#    y 0.000000 1.666210 0.000000 
#    z 0.000000 0.000000 1.620530 
# 
# From -- ./inp_files/14760.got.cif
#   From: 2010.05.17/outbox.cif.g08.bks.cpg/sg55_8_cif.got.tgz:14760.got - 2010.06.03 13:27:54.
