data_PCOD9427923
_publ_section_title
;
Structure prediction by ZEFSAII (Michael W. Deem and Ramdas Pophale) SiO2 
 PCOD9427923
Probable space group: P B A M
;
_chemical_formula_sum "Si O2"
_cell_formula_units_Z 64
_cell_length_a 14.661767
_cell_length_b 25.333754
_cell_length_c 7.903858
_cell_angle_alpha 90.000000
_cell_angle_beta 90.000000
_cell_angle_gamma 90.000000
_cell_volume 2935.790033
_symmetry_space_group_name_H-M "P B A M"
_symmetry_group_IT_number 55
_symmetry_cell_setting 'orthorhombic'
loop_
_space_group_symop_operation_xyz
x,y,z
-x,-y,z
1/2+x,1/2-y,-z
1/2-x,1/2+y,-z
-x,-y,-z
x,y,-z
1/2-x,1/2+y,z
1/2+x,1/2-y,z
loop_
_atom_site_type_symbol
_atom_site_label
_atom_site_fract_x
_atom_site_fract_y
_atom_site_fract_z
Si Si1 0.279268 0.445592 0.696713
Si Si2 0.531807 0.603418 0.799035
Si Si3 0.934249 0.332389 0.200023
Si Si4 0.942954 0.217322 0.800985
Si Si5 0.857849 0.948598 0.806293
Si Si6 0.271244 0.657436 0.303533
Si Si7 0.384232 0.876965 0.295958
Si Si8 0.232514 0.275049 0.294850
O O1 0.282310 0.431085 0.500000
O O2 0.365479 0.415927 0.776667
O O3 0.297522 0.507482 0.716244
O O4 0.182526 0.424034 0.761409
O O5 0.520022 0.662530 0.726511
O O6 0.458462 0.561656 0.731223
O O7 0.513920 0.606226 0.000000
O O8 0.013877 0.374278 0.226863
O O9 0.968947 0.275006 0.267299
O O10 0.838568 0.344403 0.287610
O O11 0.915429 0.326965 0.000000
O O12 0.833253 0.215572 0.778775
O O13 0.965253 0.217096 0.000000
O O14 0.812655 0.891045 0.797720
O O15 0.866077 0.967175 0.000000
O O16 0.296864 0.651506 0.500000
O O17 0.298872 0.716252 0.243650
O O18 0.391324 0.877917 0.500000
O O19 0.332730 0.822797 0.245212
O O20 0.240597 0.274789 0.500000
#
# Coordination Sequence:
#
# PCOD9427923 Si02
#       8
#     8   8   8   8   8   8   8   8
#     4  11  23  40  61  85 117 153 199 247 289 344
#     4  10  21  37  57  84 119 157 192 234 289 345
#     4  10  21  36  58  87 119 155 193 238 290 349
#     4   9  18  33  53  82 117 151 188 228 278 340
#     4  11  24  40  60  84 117 156 198 245 294 349
#     4  10  21  39  61  85 117 154 195 243 294 347
#     4  10  21  37  57  85 118 153 192 240 292 342
#     4   9  18  34  55  82 115 151 188 232 287 341
#
# _framework density 21.799925000000002
#
# number of rings (size 3 to 8) (size 9 to 14) (size 15 to 20)
#    0.000    2.000    1.250    1.875    1.750    5.000 
#    0.000    0.625    0.000    3.750    0.000    0.000 
#    0.000    0.000    0.000    0.000    0.000    0.000 
#
# Total GULP energy -357492.861036 kJ/mol
# GULP energy per Si atom -5585.825954 kJ/mol
# Density = 2.175031 g / cm^3
# Si number density = 21.799925 Si / 1000 Ang^3
#
#
#
# Elastic Constant Matrix: (Units=GPa)
#
#
# Indices 1 2 3 4 5 6 
#
# 1 19.0188 -1.2271 -0.5148 0.0000 0.0000 0.0000
# 2 -1.2271 64.0912 -0.7766 0.0000 0.0000 0.0000
# 3 -0.5148 -0.7766 31.8546 0.0000 0.0000 0.0000
# 4 0.0000 0.0000 0.0000 10.0508 0.0000 0.0000
# 5 0.0000 0.0000 0.0000 0.0000 24.5349 0.0000
# 6 0.0000 0.0000 0.0000 0.0000 0.0000 32.2840
#
#
#
# Elastic Compliance Matrix: (Units=1/GPa)
#
#
# Indices 1 2 3 4 5 6 
#
# 1 0.052669 0.001019 0.000876 0.000000 0.000000 0.000000
# 2 0.001019 0.015627 0.000397 0.000000 0.000000 0.000000
# 3 0.000876 0.000397 0.031417 0.000000 0.000000 0.000000
# 4 0.000000 0.000000 0.000000 0.099494 0.000000 0.000000
# 5 0.000000 0.000000 0.000000 0.000000 0.040758 0.000000
# 6 0.000000 0.000000 0.000000 0.000000 0.000000 0.030975
#
#
# Mechanical properties :
#
#
# Convention : Reuss Voigt Hill
#
# Bulk Modulus (GPa) = 9.58794 12.21417 10.90106
# Shear Modulus (GPa) = 16.60460 21.20614 18.90537
#
# Velocity S-wave (km/s) = 2.76285 3.12230 2.94806
# Velocity P-wave (km/s) = 3.81910 4.31432 4.07424
#
# Compressibility (1/GPa) = 0.10429765
#
# Stress axis : x y z
#
# Youngs Moduli (GPa) = 18.98645 63.99141 31.83039
#
# Poissons Ratio (x) = -0.06521 -0.02788
# Poissons Ratio (y) = -0.01935 -0.01265
# Poissons Ratio (z) = -0.01663 -0.02543
#
# Static dielectric constant tensor:
#      x y z
#    x 1.794770 0.000000 0.000000 
#    y 0.000000 1.828460 0.000000 
#    z 0.000000 0.000000 1.788020 
# 
# From -- ./inp_files/6631.got.cif
#   From: 2010.05.17/outbox.cif.g08.bks.cpg/sg55_4_cif.got.tgz:6631.got - 2010.06.03 13:27:54.
