data_PCOD9427210
_publ_section_title
;
Structure prediction by ZEFSAII (Michael W. Deem and Ramdas Pophale) SiO2 
 PCOD9427210
Probable space group: P B A M
;
_chemical_formula_sum "Si O2"
_cell_formula_units_Z 56
_cell_length_a 16.217456
_cell_length_b 12.430822
_cell_length_c 13.713994
_cell_angle_alpha 90.000000
_cell_angle_beta 90.000000
_cell_angle_gamma 90.000000
_cell_volume 2764.690570
_symmetry_space_group_name_H-M "P B A M"
_symmetry_group_IT_number 55
_symmetry_cell_setting 'orthorhombic'
loop_
_space_group_symop_operation_xyz
x,y,z
-x,-y,z
1/2+x,1/2-y,-z
1/2-x,1/2+y,-z
-x,-y,-z
x,y,-z
1/2-x,1/2+y,z
1/2+x,1/2-y,z
loop_
_atom_site_type_symbol
_atom_site_label
_atom_site_fract_x
_atom_site_fract_y
_atom_site_fract_z
Si Si1 0.910412 0.540998 0.679613
Si Si2 0.148686 0.227055 0.612346
Si Si3 0.183515 0.958854 0.888199
Si Si4 0.659673 0.825117 0.612832
Si Si5 0.557346 0.398996 0.778607
Si Si6 0.125511 0.523483 0.111599
Si Si7 0.406590 0.259379 0.805598
O O1 0.883597 0.654302 0.637671
O O2 0.846331 0.450130 0.643915
O O3 0.912979 0.542167 0.797891
O O4 0.000000 0.500000 0.645518
O O5 0.130857 0.201779 0.500000
O O6 0.247326 0.217042 0.625660
O O7 0.103722 0.147521 0.685869
O O8 0.160659 0.850784 0.829963
O O9 0.124822 0.054317 0.852073
O O10 0.277528 0.996021 0.880811
O O11 0.164575 0.934054 0.000000
O O12 0.635744 0.812359 0.500000
O O13 0.600999 0.766990 0.690706
O O14 0.500000 0.500000 0.751247
O O15 0.496004 0.310592 0.824136
O O16 0.109973 0.649119 0.136677
O O17 0.099620 0.499714 0.000000
#
# Coordination Sequence:
#
# PCOD9427210 Si02
#       7
#     8   8   8   8   8   8   8
#     4  11  23  40  61  87 122 158 194 241 296 357
#     4  11  23  40  62  86 116 155 196 239 292 351
#     4  10  21  38  59  82 112 151 191 231 283 348
#     4  10  22  39  60  85 114 153 196 237 283 341
#     4  10  22  38  58  86 114 146 187 237 290 343
#     4  10  21  37  59  86 115 150 192 238 285 336
#     4  10  20  36  59  83 114 149 187 236 285 341
#
# _framework density 20.255431999999999
#
# number of rings (size 3 to 8) (size 9 to 14) (size 15 to 20)
#    0.000    1.714    0.000    5.143    0.000    7.714 
#    0.000    7.143    0.000    0.000    0.000    0.000 
#    0.000    0.000    0.000    0.000    0.000    0.000 
#
# Total GULP energy -312955.203594 kJ/mol
# GULP energy per Si atom -5588.485778 kJ/mol
# Density = 2.020933 g / cm^3
# Si number density = 20.255432 Si / 1000 Ang^3
#
#
#
# Elastic Constant Matrix: (Units=GPa)
#
#
# Indices 1 2 3 4 5 6 
#
# 1 42.1095 -6.1023 -5.2168 0.0000 0.0000 0.0000
# 2 -6.1023 31.1756 -3.3665 0.0000 0.0000 0.0000
# 3 -5.2168 -3.3665 67.7163 0.0000 0.0000 0.0000
# 4 0.0000 0.0000 0.0000 18.6145 0.0000 0.0000
# 5 0.0000 0.0000 0.0000 0.0000 -88.1652 0.0000
# 6 0.0000 0.0000 0.0000 0.0000 0.0000 30.5669
#
#
#
# Elastic Compliance Matrix: (Units=1/GPa)
#
#
# Indices 1 2 3 4 5 6 
#
# 1 0.024751 0.005078 0.002159 0.000000 0.000000 0.000000
# 2 0.005078 0.033291 0.002046 0.000000 0.000000 0.000000
# 3 0.002159 0.002046 0.015036 0.000000 0.000000 0.000000
# 4 0.000000 0.000000 0.000000 0.053722 0.000000 0.000000
# 5 0.000000 0.000000 0.000000 0.000000 -0.011342 0.000000
# 6 0.000000 0.000000 0.000000 0.000000 0.000000 0.032715
#
#
# Mechanical properties :
#
#
# Convention : Reuss Voigt Hill
#
# Bulk Modulus (GPa) = 10.91173 12.40337 11.65755
# Shear Modulus (GPa) = 31.22003 2.58237 16.90120
#
# Velocity S-wave (km/s) = 3.93022 1.13034 2.89174
# Velocity P-wave (km/s) = 5.09846 2.80006 4.11306
#
# Compressibility (1/GPa) = 0.09164453
#
# Stress axis : x y z
#
# Youngs Moduli (GPa) = 40.40246 30.03789 66.50898
#
# Poissons Ratio (x) = -0.15253 -0.14361
# Poissons Ratio (y) = -0.20516 -0.13609
# Poissons Ratio (z) = -0.08724 -0.06146
#
# Static dielectric constant tensor:
#      x y z
#    x 1.728530 0.000000 0.000000 
#    y 0.000000 1.696050 0.000000 
#    z 0.000000 0.000000 1.706620 
# 
# From -- ./inp_files/18955.got.cif
#   From: 2010.05.17/outbox.cif.g08.bks.cpg/sg55_10_cif.got.tgz:18955.got - 2010.06.03 13:27:54.
