data_PCOD9427758
_publ_section_title
;
Structure prediction by ZEFSAII (Michael W. Deem and Ramdas Pophale) SiO2 
 PCOD9427758
Probable space group: P B A M
;
_chemical_formula_sum "Si O2"
_cell_formula_units_Z 64
_cell_length_a 17.839741
_cell_length_b 9.321739
_cell_length_c 19.889060
_cell_angle_alpha 90.000000
_cell_angle_beta 90.000000
_cell_angle_gamma 90.000000
_cell_volume 3307.499154
_symmetry_space_group_name_H-M "P B A M"
_symmetry_group_IT_number 55
_symmetry_cell_setting 'orthorhombic'
loop_
_space_group_symop_operation_xyz
x,y,z
-x,-y,z
1/2+x,1/2-y,-z
1/2-x,1/2+y,-z
-x,-y,-z
x,y,-z
1/2-x,1/2+y,z
1/2+x,1/2-y,z
loop_
_atom_site_type_symbol
_atom_site_label
_atom_site_fract_x
_atom_site_fract_y
_atom_site_fract_z
Si Si1 0.742594 0.823174 0.284006
Si Si2 0.623024 0.234714 0.797763
Si Si3 0.065898 0.116817 0.573438
Si Si4 0.992460 0.214542 0.705718
Si Si5 0.159570 0.924089 0.340952
Si Si6 0.559605 0.713828 0.075424
Si Si7 0.099062 0.594531 0.202744
Si Si8 0.387403 0.604573 0.925370
O O1 0.809629 0.728159 0.254656
O O2 0.700476 0.730453 0.341900
O O3 0.680866 0.856356 0.227643
O O4 0.784095 0.969498 0.303383
O O5 0.553774 0.319211 0.763097
O O6 0.650978 0.317168 0.863534
O O7 0.597372 0.073518 0.811972
O O8 0.075455 0.185613 0.500000
O O9 0.038782 0.216859 0.635561
O O10 0.136470 0.018411 0.594507
O O11 0.000000 0.000000 0.568293
O O12 0.921335 0.108519 0.694747
O O13 0.953614 0.357542 0.734749
O O14 0.576192 0.819652 0.136120
O O15 0.605531 0.565859 0.084400
O O16 0.472417 0.666761 0.076101
O O17 0.575372 0.770706 0.000000
O O18 0.356488 0.632481 0.000000
#
# Coordination Sequence:
#
# PCOD9427758 Si02
#       8
#     8   8   8   8   8   8   8   8
#     4  11  23  37  56  84 121 156 199 244 304 359
#     4  12  22  35  60  88 119 154 205 261 306 362
#     4   9  18  35  62  93 118 152 200 245 289 351
#     4  10  21  34  62  90 118 148 203 250 301 352
#     4  10  21  39  57  85 120 158 193 249 294 359
#     4   9  19  36  56  80 116 156 202 253 309 367
#     4  11  23  37  55  90 120 158 196 255 315 367
#     4   9  20  34  54  84 114 150 200 256 306 363
#
# _framework density 19.349966999999999
#
# number of rings (size 3 to 8) (size 9 to 14) (size 15 to 20)
#    0.000    1.875    3.750    1.125    3.500    0.500 
#    0.000    2.500    0.000    2.250    0.000    0.000 
#    0.000    0.000    0.000    0.000    0.000    0.000 
#
# Total GULP energy -356434.221030 kJ/mol
# GULP energy per Si atom -5569.284704 kJ/mol
# Density = 1.930593 g / cm^3
# Si number density = 19.349967 Si / 1000 Ang^3
#
#
#
# Elastic Constant Matrix: (Units=GPa)
#
#
# Indices 1 2 3 4 5 6 
#
# 1 68.9719 14.1125 20.9758 0.0000 0.0000 0.0000
# 2 14.1125 65.7991 31.8794 0.0000 0.0000 0.0000
# 3 20.9758 31.8794 99.5710 0.0000 0.0000 0.0000
# 4 0.0000 0.0000 0.0000 11.0402 0.0000 0.0000
# 5 0.0000 0.0000 0.0000 0.0000 7.0662 0.0000
# 6 0.0000 0.0000 0.0000 0.0000 0.0000 30.0407
#
#
#
# Elastic Compliance Matrix: (Units=1/GPa)
#
#
# Indices 1 2 3 4 5 6 
#
# 1 0.015731 -0.002093 -0.002644 0.000000 0.000000 0.000000
# 2 -0.002093 0.018267 -0.005407 0.000000 0.000000 0.000000
# 3 -0.002644 -0.005407 0.012331 0.000000 0.000000 0.000000
# 4 0.000000 0.000000 0.000000 0.090578 0.000000 0.000000
# 5 0.000000 0.000000 0.000000 0.000000 0.141519 0.000000
# 6 0.000000 0.000000 0.000000 0.000000 0.000000 0.033288
#
#
# Mechanical properties :
#
#
# Convention : Reuss Voigt Hill
#
# Bulk Modulus (GPa) = 38.40200 40.91969 39.66085
# Shear Modulus (GPa) = 14.67643 20.78772 17.73207
#
# Velocity S-wave (km/s) = 2.75703 3.28121 3.03047
# Velocity P-wave (km/s) = 5.47942 5.96223 5.72592
#
# Compressibility (1/GPa) = 0.02604031
#
# Stress axis : x y z
#
# Youngs Moduli (GPa) = 63.56902 54.74480 81.09437
#
# Poissons Ratio (x) = 0.11458 0.21440
# Poissons Ratio (y) = 0.13305 0.43851
# Poissons Ratio (z) = 0.16806 0.29603
#
# Static dielectric constant tensor:
#      x y z
#    x 1.715830 0.000000 0.000000 
#    y 0.000000 1.701020 0.000000 
#    z 0.000000 0.000000 1.705570 
# 
# From -- ./inp_files/23072.got.cif
#   From: 2010.05.17/outbox.cif.g08.bks.cpg/sg55_12_cif.got.tgz:23072.got - 2010.06.03 13:27:54.
