data_PCOD9427024
_publ_section_title
;
Structure prediction by ZEFSAII (Michael W. Deem and Ramdas Pophale) SiO2 
 PCOD9427024
Probable space group: P B A M
;
_chemical_formula_sum "Si O2"
_cell_formula_units_Z 64
_cell_length_a 17.834700
_cell_length_b 14.809677
_cell_length_c 11.699563
_cell_angle_alpha 90.000000
_cell_angle_beta 90.000000
_cell_angle_gamma 90.000000
_cell_volume 3090.160490
_symmetry_space_group_name_H-M "P B A M"
_symmetry_group_IT_number 55
_symmetry_cell_setting 'orthorhombic'
loop_
_space_group_symop_operation_xyz
x,y,z
-x,-y,z
1/2+x,1/2-y,-z
1/2-x,1/2+y,-z
-x,-y,-z
x,y,-z
1/2-x,1/2+y,z
1/2+x,1/2-y,z
loop_
_atom_site_type_symbol
_atom_site_label
_atom_site_fract_x
_atom_site_fract_y
_atom_site_fract_z
Si Si1 0.498473 0.607881 0.373029
Si Si2 0.893868 0.325586 0.876671
Si Si3 0.674016 0.644294 0.370505
Si Si4 0.747261 0.460244 0.631773
Si Si5 0.753955 0.788928 0.776405
Si Si6 0.377148 0.849492 0.129467
Si Si7 0.083774 0.516794 0.705366
Si Si8 0.009552 0.186065 0.127566
O O1 0.500000 0.500000 0.373471
O O2 0.466394 0.636324 0.500000
O O3 0.584790 0.639135 0.373076
O O4 0.469101 0.638258 0.247247
O O5 0.804115 0.324434 0.870099
O O6 0.922330 0.391460 0.778444
O O7 0.924488 0.223248 0.866809
O O8 0.918022 0.361370 0.000000
O O9 0.702613 0.647866 0.500000
O O10 0.709676 0.552160 0.321992
O O11 0.702191 0.732886 0.309786
O O12 0.724175 0.447728 0.500000
O O13 0.719031 0.376445 0.707313
O O14 0.838309 0.469727 0.635875
O O15 0.812341 0.716799 0.823777
O O16 0.396366 0.933157 0.210713
O O17 0.446102 0.780224 0.125701
O O18 0.360182 0.879946 0.000000
O O19 0.000000 0.500000 0.653632
O O20 0.021644 0.142949 0.000000
#
# Coordination Sequence:
#
# PCOD9427024 Si02
#       8
#     8   8   8   8   8   8   8   8
#     4  10  22  40  63  87 116 155 202 250 300 362
#     4  10  20  35  58  84 116 155 197 243 297 361
#     4  10  20  38  60  85 115 150 196 247 297 358
#     4  10  23  40  60  88 119 156 198 247 304 363
#     4  11  21  38  60  83 116 155 199 249 297 355
#     4  11  23  38  59  87 122 158 200 251 301 363
#     4  11  21  37  61  88 122 156 195 244 301 370
#     4  10  21  38  59  88 123 158 196 247 306 362
#
# _framework density 20.710899000000001
#
# number of rings (size 3 to 8) (size 9 to 14) (size 15 to 20)
#    0.000    1.625    3.750    1.125    1.750    1.000 
#    0.000    1.250    0.000    0.000    0.000    0.000 
#    0.000    0.000    0.000    0.000    0.000    0.000 
#
# Total GULP energy -356508.541347 kJ/mol
# GULP energy per Si atom -5570.445959 kJ/mol
# Density = 2.066376 g / cm^3
# Si number density = 20.710899 Si / 1000 Ang^3
#
#
#
# Elastic Constant Matrix: (Units=GPa)
#
#
# Indices 1 2 3 4 5 6 
#
# 1 46.7621 -5.1317 0.5539 0.0000 0.0000 0.0000
# 2 -5.1317 64.7226 35.2459 0.0000 0.0000 0.0000
# 3 0.5539 35.2459 114.2601 0.0000 0.0000 0.0000
# 4 0.0000 0.0000 0.0000 30.5700 0.0000 0.0000
# 5 0.0000 0.0000 0.0000 0.0000 27.7664 0.0000
# 6 0.0000 0.0000 0.0000 0.0000 0.0000 31.8987
#
#
#
# Elastic Compliance Matrix: (Units=1/GPa)
#
#
# Indices 1 2 3 4 5 6 
#
# 1 0.021628 0.002130 -0.000762 0.000000 0.000000 0.000000
# 2 0.002130 0.018780 -0.005803 0.000000 0.000000 0.000000
# 3 -0.000762 -0.005803 0.010546 0.000000 0.000000 0.000000
# 4 0.000000 0.000000 0.000000 0.032712 0.000000 0.000000
# 5 0.000000 0.000000 0.000000 0.000000 0.036015 0.000000
# 6 0.000000 0.000000 0.000000 0.000000 0.000000 0.031349
#
#
# Mechanical properties :
#
#
# Convention : Reuss Voigt Hill
#
# Bulk Modulus (GPa) = 23.76301 31.89787 27.83044
# Shear Modulus (GPa) = 28.74766 31.05213 29.89990
#
# Velocity S-wave (km/s) = 3.72969 3.87630 3.80370
# Velocity P-wave (km/s) = 5.48143 5.95560 5.72343
#
# Compressibility (1/GPa) = 0.04208222
#
# Stress axis : x y z
#
# Youngs Moduli (GPa) = 46.23725 53.24901 94.82446
#
# Poissons Ratio (x) = -0.11340 0.07223
# Poissons Ratio (y) = -0.09847 0.55030
# Poissons Ratio (z) = 0.03522 0.30902
#
# Static dielectric constant tensor:
#      x y z
#    x 1.856650 0.000000 0.000000 
#    y 0.000000 1.705620 0.000000 
#    z 0.000000 0.000000 1.775610 
# 
# From -- ./inp_files/14418.got.cif
#   From: 2010.05.17/outbox.cif.g08.bks.cpg/sg55_8_cif.got.tgz:14418.got - 2010.06.03 13:27:54.
