data_PCOD9427174
_publ_section_title
;
Structure prediction by ZEFSAII (Michael W. Deem and Ramdas Pophale) SiO2 
 PCOD9427174
Probable space group: P B A M
;
_chemical_formula_sum "Si O2"
_cell_formula_units_Z 64
_cell_length_a 14.988548
_cell_length_b 25.745453
_cell_length_c 8.915116
_cell_angle_alpha 90.000000
_cell_angle_beta 90.000000
_cell_angle_gamma 90.000000
_cell_volume 3440.226994
_symmetry_space_group_name_H-M "P B A M"
_symmetry_group_IT_number 55
_symmetry_cell_setting 'orthorhombic'
loop_
_space_group_symop_operation_xyz
x,y,z
-x,-y,z
1/2+x,1/2-y,-z
1/2-x,1/2+y,-z
-x,-y,-z
x,y,-z
1/2-x,1/2+y,z
1/2+x,1/2-y,z
loop_
_atom_site_type_symbol
_atom_site_label
_atom_site_fract_x
_atom_site_fract_y
_atom_site_fract_z
Si Si1 0.541861 0.778799 0.825781
Si Si2 0.353154 0.629747 0.680206
Si Si3 0.269468 0.341066 0.181134
Si Si4 0.657118 0.057443 0.180512
Si Si5 0.036907 0.829246 0.320858
Si Si6 0.030376 0.604165 0.819079
Si Si7 0.242666 0.226814 0.174397
Si Si8 0.796364 0.448311 0.680051
O O1 0.512898 0.729523 0.729436
O O2 0.509764 0.835882 0.779609
O O3 0.650055 0.780397 0.818680
O O4 0.516732 0.770106 0.000000
O O5 0.353406 0.629031 0.500000
O O6 0.455893 0.633687 0.728947
O O7 0.304519 0.682103 0.733375
O O8 0.293645 0.581141 0.731091
O O9 0.212574 0.391230 0.222875
O O10 0.368871 0.343000 0.246699
O O11 0.226084 0.285882 0.226940
O O12 0.275676 0.338902 0.000000
O O13 0.553762 0.068171 0.218599
O O14 0.694178 0.006052 0.256718
O O15 0.661935 0.051760 0.000000
O O16 0.045768 0.831070 0.500000
O O17 0.119472 0.584378 0.740676
O O18 0.043235 0.603004 0.000000
O O19 0.216023 0.222132 0.000000
O O20 0.798465 0.449181 0.500000
#
# Coordination Sequence:
#
# PCOD9427174 Si02
#       8
#     8   8   8   8   8   8   8   8
#     4   9  18  33  54  82 113 144 180 221 271 330
#     4  10  22  37  53  79 114 150 186 226 275 328
#     4   9  20  39  58  82 112 143 184 236 283 329
#     4  10  22  39  60  82 110 147 189 235 283 334
#     4  10  21  36  55  80 113 150 185 226 278 333
#     4  10  20  36  58  83 112 148 184 223 275 334
#     4   9  17  31  55  82 108 140 179 223 271 326
#     4  11  23  39  57  80 115 150 188 234 276 327
#
# _framework density 18.603424
#
# number of rings (size 3 to 8) (size 9 to 14) (size 15 to 20)
#    0.000    2.250    1.250    1.875    1.750    6.500 
#    0.000    0.625    0.000    3.750    0.000    0.000 
#    0.000    0.000    0.000    0.000    0.000    0.000 
#
# Total GULP energy -357279.397672 kJ/mol
# GULP energy per Si atom -5582.490589 kJ/mol
# Density = 1.856108 g / cm^3
# Si number density = 18.603424 Si / 1000 Ang^3
#
#
#
# Elastic Constant Matrix: (Units=GPa)
#
#
# Indices 1 2 3 4 5 6 
#
# 1 18.9617 6.8960 2.9563 0.0000 0.0000 0.0000
# 2 6.8960 68.1363 10.6798 0.0000 0.0000 0.0000
# 3 2.9563 10.6798 5.4212 0.0000 0.0000 0.0000
# 4 0.0000 0.0000 0.0000 12.0230 0.0000 0.0000
# 5 0.0000 0.0000 0.0000 0.0000 18.6113 0.0000
# 6 0.0000 0.0000 0.0000 0.0000 0.0000 26.1999
#
#
#
# Elastic Compliance Matrix: (Units=1/GPa)
#
#
# Indices 1 2 3 4 5 6 
#
# 1 0.057720 -0.001314 -0.028888 0.000000 0.000000 0.000000
# 2 -0.001314 0.021263 -0.041171 0.000000 0.000000 0.000000
# 3 -0.028888 -0.041171 0.281323 0.000000 0.000000 0.000000
# 4 0.000000 0.000000 0.000000 0.083174 0.000000 0.000000
# 5 0.000000 0.000000 0.000000 0.000000 0.053731 0.000000
# 6 0.000000 0.000000 0.000000 0.000000 0.000000 0.038168
#
#
# Mechanical properties :
#
#
# Convention : Reuss Voigt Hill
#
# Bulk Modulus (GPa) = 4.59644 14.84259 9.71952
# Shear Modulus (GPa) = 6.66095 16.16597 11.41346
#
# Velocity S-wave (km/s) = 1.89427 2.95104 2.47961
# Velocity P-wave (km/s) = 2.69453 4.42801 3.66522
#
# Compressibility (1/GPa) = 0.21755958
#
# Stress axis : x y z
#
# Youngs Moduli (GPa) = 17.32516 47.03077 3.55463
#
# Poissons Ratio (x) = 0.06179 0.10269
# Poissons Ratio (y) = 0.02276 0.14635
# Poissons Ratio (z) = 0.50048 1.93631
#
# Static dielectric constant tensor:
#      x y z
#    x 1.652760 0.000000 0.000000 
#    y 0.000000 1.639720 0.000000 
#    z 0.000000 0.000000 1.624080 
# 
# From -- ./inp_files/6560.got.cif
#   From: 2010.05.17/outbox.cif.g08.bks.cpg/sg55_4_cif.got.tgz:6560.got - 2010.06.03 13:27:54.
