data_PCOD9427043
_publ_section_title
;
Structure prediction by ZEFSAII (Michael W. Deem and Ramdas Pophale) SiO2 
 PCOD9427043
Probable space group: P B A M
;
_chemical_formula_sum "Si O2"
_cell_formula_units_Z 64
_cell_length_a 28.433099
_cell_length_b 12.963108
_cell_length_c 8.654556
_cell_angle_alpha 90.000000
_cell_angle_beta 90.000000
_cell_angle_gamma 90.000000
_cell_volume 3189.907788
_symmetry_space_group_name_H-M "P B A M"
_symmetry_group_IT_number 55
_symmetry_cell_setting 'orthorhombic'
loop_
_space_group_symop_operation_xyz
x,y,z
-x,-y,z
1/2+x,1/2-y,-z
1/2-x,1/2+y,-z
-x,-y,-z
x,y,-z
1/2-x,1/2+y,z
1/2+x,1/2-y,z
loop_
_atom_site_type_symbol
_atom_site_label
_atom_site_fract_x
_atom_site_fract_y
_atom_site_fract_z
Si Si1 0.565173 0.586550 0.181159
Si Si2 0.409316 0.624934 0.685685
Si Si3 0.663877 0.645539 0.679176
Si Si4 0.056209 0.350758 0.313451
Si Si5 0.380093 0.044920 0.315081
Si Si6 0.293856 0.149397 0.818517
Si Si7 0.958978 0.307429 0.185293
Si Si8 0.197844 0.077673 0.681233
O O1 0.561374 0.473821 0.255888
O O2 0.618754 0.622458 0.215352
O O3 0.536763 0.687333 0.237308
O O4 0.556672 0.574739 0.000000
O O5 0.410207 0.620867 0.500000
O O6 0.426713 0.737062 0.735323
O O7 0.354532 0.611323 0.731969
O O8 0.647940 0.650978 0.500000
O O9 0.689540 0.748751 0.728610
O O10 0.697374 0.546338 0.691904
O O11 0.051234 0.352423 0.500000
O O12 0.093336 0.439322 0.271797
O O13 0.005436 0.366830 0.238447
O O14 0.375213 0.048484 0.500000
O O15 0.329536 0.060392 0.237946
O O16 0.413858 0.138043 0.260045
O O17 0.240473 0.123588 0.776512
O O18 0.299677 0.165516 0.000000
O O19 0.954030 0.308615 0.000000
O O20 0.203294 0.105814 0.500000
#
# Coordination Sequence:
#
# PCOD9427043 Si02
#       8
#     8   8   8   8   8   8   8   8
#     4  10  20  35  58  87 119 152 194 245 295 350
#     4   9  20  40  62  85 117 157 202 249 300 355
#     4  10  20  37  61  84 111 152 197 243 292 344
#     4  10  23  41  61  87 119 158 203 251 298 356
#     4  11  23  40  62  86 117 158 206 253 297 351
#     4  12  24  37  58  90 122 153 193 243 303 362
#     4  11  23  38  59  89 122 158 197 248 308 363
#     4   9  20  38  60  86 114 152 200 244 293 353
#
# _framework density 20.063275999999998
#
# number of rings (size 3 to 8) (size 9 to 14) (size 15 to 20)
#    0.000    1.750    1.250    3.750    0.000    8.500 
#    0.000    5.000    0.000    0.000    0.000    0.000 
#    0.000    0.000    0.000    0.000    0.000    0.000 
#
# Total GULP energy -357585.085924 kJ/mol
# GULP energy per Si atom -5587.266968 kJ/mol
# Density = 2.001761 g / cm^3
# Si number density = 20.063276 Si / 1000 Ang^3
#
#
#
# Elastic Constant Matrix: (Units=GPa)
#
#
# Indices 1 2 3 4 5 6 
#
# 1 50.0763 11.1988 3.2525 0.0000 0.0000 0.0000
# 2 11.1988 90.3352 9.6887 0.0000 0.0000 0.0000
# 3 3.2525 9.6887 15.6022 0.0000 0.0000 0.0000
# 4 0.0000 0.0000 0.0000 -15.8508 0.0000 0.0000
# 5 0.0000 0.0000 0.0000 0.0000 51.6869 0.0000
# 6 0.0000 0.0000 0.0000 0.0000 0.0000 21.2207
#
#
#
# Elastic Compliance Matrix: (Units=1/GPa)
#
#
# Indices 1 2 3 4 5 6 
#
# 1 0.020662 -0.002249 -0.002910 0.000000 0.000000 0.000000
# 2 -0.002249 0.012105 -0.007048 0.000000 0.000000 0.000000
# 3 -0.002910 -0.007048 0.069077 0.000000 0.000000 0.000000
# 4 0.000000 0.000000 0.000000 -0.063088 0.000000 0.000000
# 5 0.000000 0.000000 0.000000 0.000000 0.019347 0.000000
# 6 0.000000 0.000000 0.000000 0.000000 0.000000 0.047124
#
#
# Mechanical properties :
#
#
# Convention : Reuss Voigt Hill
#
# Bulk Modulus (GPa) = 12.91522 22.69930 17.80726
# Shear Modulus (GPa) = 32.16453 20.20293 26.18373
#
# Velocity S-wave (km/s) = 4.00828 3.17671 3.61648
# Velocity P-wave (km/s) = 5.27949 4.97933 5.13160
#
# Compressibility (1/GPa) = 0.07742803
#
# Stress axis : x y z
#
# Youngs Moduli (GPa) = 48.39898 82.61300 14.47659
#
# Poissons Ratio (x) = 0.18582 0.04213
# Poissons Ratio (y) = 0.10886 0.10203
# Poissons Ratio (z) = 0.14086 0.58225
#
# Static dielectric constant tensor:
#      x y z
#    x 1.685340 0.000000 0.000000 
#    y 0.000000 1.725910 0.000000 
#    z 0.000000 0.000000 1.674980 
# 
# From -- ./inp_files/10725.got.cif
#   From: 2010.05.17/outbox.cif.g08.bks.cpg/sg55_6_cif.got.tgz:10725.got - 2010.06.03 13:27:54.
