data_PCOD9427652
_publ_section_title
;
Structure prediction by ZEFSAII (Michael W. Deem and Ramdas Pophale) SiO2 
 PCOD9427652
Probable space group: P B A M
;
_chemical_formula_sum "Si O2"
_cell_formula_units_Z 48
_cell_length_a 9.657906
_cell_length_b 28.209998
_cell_length_c 7.511721
_cell_angle_alpha 90.000000
_cell_angle_beta 90.000000
_cell_angle_gamma 90.000000
_cell_volume 2046.564698
_symmetry_space_group_name_H-M "P B A M"
_symmetry_group_IT_number 55
_symmetry_cell_setting 'orthorhombic'
loop_
_space_group_symop_operation_xyz
x,y,z
-x,-y,z
1/2+x,1/2-y,-z
1/2-x,1/2+y,-z
-x,-y,-z
x,y,-z
1/2-x,1/2+y,z
1/2+x,1/2-y,z
loop_
_atom_site_type_symbol
_atom_site_label
_atom_site_fract_x
_atom_site_fract_y
_atom_site_fract_z
Si Si1 0.411753 0.045501 0.282560
Si Si2 0.027685 0.190838 0.781059
Si Si3 0.350630 0.496233 0.707033
Si Si4 0.835601 0.110574 0.208436
Si Si5 0.827917 0.273153 0.205243
Si Si6 0.960821 0.644427 0.713810
O O1 0.413214 0.046614 0.500000
O O2 0.474749 0.094676 0.222946
O O3 0.500000 0.000000 0.229009
O O4 0.259397 0.032742 0.217173
O O5 0.970809 0.139107 0.725437
O O6 0.910173 0.228052 0.718985
O O7 0.180753 0.207721 0.721204
O O8 0.029183 0.190721 0.000000
O O9 0.500000 0.500000 0.791985
O O10 0.362698 0.509853 0.500000
O O11 0.306897 0.441095 0.710281
O O12 0.699967 0.143159 0.234336
O O13 0.853488 0.102128 0.000000
O O14 0.943357 0.314183 0.212743
O O15 0.797581 0.260967 0.000000
O O16 0.967846 0.646925 0.500000
#
# Coordination Sequence:
#
# PCOD9427652 Si02
#       6
#     8   8   8   8   8   8
#     4   9  17  34  56  78 109 150 191 228 275 339
#     4   9  20  38  62  86 114 150 188 231 286 348
#     4  10  21  37  58  82 113 156 197 236 291 349
#     4  11  22  38  59  86 118 155 196 241 288 340
#     4  10  20  39  63  86 111 147 189 230 282 345
#     4  11  22  37  59  86 116 150 191 238 286 340
#
# _framework density 23.453938999999998
#
# number of rings (size 3 to 8) (size 9 to 14) (size 15 to 20)
#    0.000    2.000    1.667    2.000    2.333    3.000 
#    0.000    7.500    0.000    0.000    0.000    0.000 
#    0.000    0.000    0.000    0.000    0.000    0.000 
#
# Total GULP energy -268140.528061 kJ/mol
# GULP energy per Si atom -5586.261001 kJ/mol
# Density = 2.340056 g / cm^3
# Si number density = 23.453939 Si / 1000 Ang^3
#
#
#
# Elastic Constant Matrix: (Units=GPa)
#
#
# Indices 1 2 3 4 5 6 
#
# 1 113.8349 -0.0164 -10.3426 0.0000 0.0000 0.0000
# 2 -0.0164 59.6259 -17.5748 0.0000 0.0000 0.0000
# 3 -10.3426 -17.5748 67.9261 0.0000 0.0000 0.0000
# 4 0.0000 0.0000 0.0000 10.3964 0.0000 0.0000
# 5 0.0000 0.0000 0.0000 0.0000 -2.5016 0.0000
# 6 0.0000 0.0000 0.0000 0.0000 0.0000 43.0464
#
#
#
# Elastic Compliance Matrix: (Units=1/GPa)
#
#
# Indices 1 2 3 4 5 6 
#
# 1 0.008918 0.000436 0.001471 0.000000 0.000000 0.000000
# 2 0.000436 0.018177 0.004769 0.000000 0.000000 0.000000
# 3 0.001471 0.004769 0.016180 0.000000 0.000000 0.000000
# 4 0.000000 0.000000 0.000000 0.096187 0.000000 0.000000
# 5 0.000000 0.000000 0.000000 0.000000 -0.399746 0.000000
# 6 0.000000 0.000000 0.000000 0.000000 0.000000 0.023231
#
#
# Mechanical properties :
#
#
# Convention : Reuss Voigt Hill
#
# Bulk Modulus (GPa) = 17.65925 20.61325 19.13625
# Shear Modulus (GPa) = -21.59561 28.14294 3.27366
#
# Velocity S-wave (km/s) = -3.03771 3.46775 1.18271
# Velocity P-wave (km/s) = 2.18125 4.98414 3.16889
#
# Compressibility (1/GPa) = 0.05662755
#
# Stress axis : x y z
#
# Youngs Moduli (GPa) = 112.12852 55.01411 61.80530
#
# Poissons Ratio (x) = -0.02398 -0.09090
# Poissons Ratio (y) = -0.04888 -0.29478
# Poissons Ratio (z) = -0.16491 -0.26239
#
# Static dielectric constant tensor:
#      x y z
#    x 1.931330 0.000000 0.000000 
#    y 0.000000 1.872030 0.000000 
#    z 0.000000 0.000000 1.878390 
# 
# From -- ./inp_files/2793.got.cif
#   From: 2010.05.17/outbox.cif.g08.bks.cpg/sg55_2_cif.got.tgz:2793.got - 2010.06.03 13:27:54.
