data_PCOD9427373
_publ_section_title
;
Structure prediction by ZEFSAII (Michael W. Deem and Ramdas Pophale) SiO2 
 PCOD9427373
Probable space group: P B A M
;
_chemical_formula_sum "Si O2"
_cell_formula_units_Z 48
_cell_length_a 9.632601
_cell_length_b 24.512417
_cell_length_c 8.205121
_cell_angle_alpha 90.000000
_cell_angle_beta 90.000000
_cell_angle_gamma 90.000000
_cell_volume 1937.379489
_symmetry_space_group_name_H-M "P B A M"
_symmetry_group_IT_number 55
_symmetry_cell_setting 'orthorhombic'
loop_
_space_group_symop_operation_xyz
x,y,z
-x,-y,z
1/2+x,1/2-y,-z
1/2-x,1/2+y,-z
-x,-y,-z
x,y,-z
1/2-x,1/2+y,z
1/2+x,1/2-y,z
loop_
_atom_site_type_symbol
_atom_site_label
_atom_site_fract_x
_atom_site_fract_y
_atom_site_fract_z
Si Si1 0.305325 0.315059 0.189483
Si Si2 0.291824 0.984446 0.691354
Si Si3 0.539212 0.580118 0.691497
Si Si4 0.448719 0.753234 0.306923
Si Si5 0.722378 0.358211 0.306014
Si Si6 0.472657 0.083731 0.185849
O O1 0.370905 0.364464 0.290952
O O2 0.406538 0.263589 0.225514
O O3 0.148265 0.300596 0.236562
O O4 0.314175 0.329136 0.000000
O O5 0.284320 0.999348 0.500000
O O6 0.140397 0.967148 0.754496
O O7 0.394491 0.932333 0.707726
O O8 0.368777 0.032238 0.786782
O O9 0.520391 0.568764 0.500000
O O10 0.388831 0.596799 0.758221
O O11 0.471183 0.761184 0.500000
O O12 0.352952 0.699212 0.281798
O O13 0.737035 0.365717 0.500000
O O14 0.873685 0.366233 0.232142
O O15 0.517887 0.087151 0.000000
#
# Coordination Sequence:
#
# PCOD9427373 Si02
#       6
#     8   8   8   8   8   8
#     4  11  22  36  57  85 115 143 178 229 281 325
#     4  10  20  37  59  79 104 141 184 225 263 315
#     4   9  20  38  59  81 106 141 184 225 268 323
#     4  10  21  39  60  80 109 149 189 225 266 326
#     4   9  19  37  58  79 104 139 182 223 263 315
#     4  11  22  35  53  80 113 143 174 219 273 324
#
# _framework density 24.775734
#
# number of rings (size 3 to 8) (size 9 to 14) (size 15 to 20)
#    0.000    2.000    0.000    6.000    0.000    6.667 
#    0.000    5.000    0.000    0.000    0.000    0.000 
#    0.000    0.000    0.000    0.000    0.000    0.000 
#
# Total GULP energy -268609.512936 kJ/mol
# GULP energy per Si atom -5596.031519 kJ/mol
# Density = 2.471934 g / cm^3
# Si number density = 24.775734 Si / 1000 Ang^3
#
#
#
# Elastic Constant Matrix: (Units=GPa)
#
#
# Indices 1 2 3 4 5 6 
#
# 1 149.7010 14.6484 15.0034 0.0000 0.0000 0.0000
# 2 14.6484 49.3473 4.7669 0.0000 0.0000 0.0000
# 3 15.0034 4.7669 32.4669 0.0000 0.0000 0.0000
# 4 0.0000 0.0000 0.0000 21.4930 0.0000 0.0000
# 5 0.0000 0.0000 0.0000 0.0000 415.4253 0.0000
# 6 0.0000 0.0000 0.0000 0.0000 0.0000 59.0307
#
#
#
# Elastic Compliance Matrix: (Units=1/GPa)
#
#
# Indices 1 2 3 4 5 6 
#
# 1 0.007164 -0.001833 -0.003042 0.000000 0.000000 0.000000
# 2 -0.001833 0.021025 -0.002240 0.000000 0.000000 0.000000
# 3 -0.003042 -0.002240 0.032535 0.000000 0.000000 0.000000
# 4 0.000000 0.000000 0.000000 0.046527 0.000000 0.000000
# 5 0.000000 0.000000 0.000000 0.000000 0.002407 0.000000
# 6 0.000000 0.000000 0.000000 0.000000 0.000000 0.016940
#
#
# Mechanical properties :
#
#
# Convention : Reuss Voigt Hill
#
# Bulk Modulus (GPa) = 21.50751 33.37254 27.44003
# Shear Modulus (GPa) = 31.98452 112.32957 72.15705
#
# Velocity S-wave (km/s) = 3.59689 6.74070 5.40253
# Velocity P-wave (km/s) = 5.09411 8.60707 7.07219
#
# Compressibility (1/GPa) = 0.04649538
#
# Stress axis : x y z
#
# Youngs Moduli (GPa) = 139.58378 47.56251 30.73611
#
# Poissons Ratio (x) = 0.08717 0.09349
# Poissons Ratio (y) = 0.25583 0.06885
# Poissons Ratio (z) = 0.42455 0.10654
#
# Static dielectric constant tensor:
#      x y z
#    x 1.963070 0.000000 0.000000 
#    y 0.000000 2.105410 0.000000 
#    z 0.000000 0.000000 1.859040 
# 
# From -- ./inp_files/2884.got.cif
#   From: 2010.05.17/outbox.cif.g08.bks.cpg/sg55_2_cif.got.tgz:2884.got - 2010.06.03 13:27:54.
