data_PCOD9427168
_publ_section_title
;
Structure prediction by ZEFSAII (Michael W. Deem and Ramdas Pophale) SiO2 
 PCOD9427168
Probable space group: P B A M
;
_chemical_formula_sum "Si O2"
_cell_formula_units_Z 64
_cell_length_a 24.479863
_cell_length_b 15.880705
_cell_length_c 7.714568
_cell_angle_alpha 90.000000
_cell_angle_beta 90.000000
_cell_angle_gamma 90.000000
_cell_volume 2999.096036
_symmetry_space_group_name_H-M "P B A M"
_symmetry_group_IT_number 55
_symmetry_cell_setting 'orthorhombic'
loop_
_space_group_symop_operation_xyz
x,y,z
-x,-y,z
1/2+x,1/2-y,-z
1/2-x,1/2+y,-z
-x,-y,-z
x,y,-z
1/2-x,1/2+y,z
1/2+x,1/2-y,z
loop_
_atom_site_type_symbol
_atom_site_label
_atom_site_fract_x
_atom_site_fract_y
_atom_site_fract_z
Si Si1 0.752404 0.906684 0.205319
Si Si2 0.635729 0.835033 0.709963
Si Si3 0.123897 0.352209 0.198832
Si Si4 0.637436 0.647916 0.711917
Si Si5 0.440193 0.015310 0.298330
Si Si6 0.437850 0.506060 0.709341
Si Si7 0.742454 0.099271 0.700551
Si Si8 0.366817 0.667921 0.792456
O O1 0.745092 0.998083 0.289826
O O2 0.697668 0.853956 0.234898
O O3 0.806964 0.860731 0.271888
O O4 0.759150 0.921197 0.000000
O O5 0.635722 0.837682 0.500000
O O6 0.619046 0.741127 0.763709
O O7 0.596004 0.908673 0.776738
O O8 0.094263 0.429510 0.290633
O O9 0.188851 0.368510 0.204049
O O10 0.114949 0.259162 0.274881
O O11 0.104870 0.354620 0.000000
O O12 0.638129 0.644727 0.500000
O O13 0.598931 0.572147 0.771968
O O14 0.699823 0.632954 0.768788
O O15 0.448860 0.038175 0.500000
O O16 0.500000 0.000000 0.220181
O O17 0.500000 0.500000 0.772058
O O18 0.438906 0.501474 0.500000
O O19 0.408873 0.593284 0.756706
O O20 0.736841 0.124980 0.500000
O O21 0.361669 0.678394 0.000000
#
# Coordination Sequence:
#
# PCOD9427168 Si02
#       8
#     8   8   8   8   8   8   8   8
#     4  11  21  35  57  85 116 149 188 234 286 345
#     4  10  20  36  58  82 114 150 187 233 286 345
#     4  11  23  39  59  85 119 153 191 238 286 344
#     4   9  19  35  56  85 115 146 186 235 287 339
#     4  10  22  39  59  84 114 152 197 240 285 338
#     4  10  21  38  61  87 115 150 196 245 287 331
#     4  11  20  34  58  85 115 150 187 232 292 349
#     4  10  23  40  58  84 119 157 191 232 289 345
#
# _framework density 21.339763000000001
#
# number of rings (size 3 to 8) (size 9 to 14) (size 15 to 20)
#    0.000    1.750    2.500    1.875    0.000    3.000 
#    0.000    3.750    0.000    0.000    0.000    0.000 
#    0.000    0.000    0.000    0.000    0.000    0.000 
#
# Total GULP energy -357683.981973 kJ/mol
# GULP energy per Si atom -5588.812218 kJ/mol
# Density = 2.129119 g / cm^3
# Si number density = 21.339763 Si / 1000 Ang^3
#
#
#
# Elastic Constant Matrix: (Units=GPa)
#
#
# Indices 1 2 3 4 5 6 
#
# 1 131.8409 63.2923 -7.7238 0.0000 0.0000 0.0000
# 2 63.2923 165.6960 -12.6510 0.0000 0.0000 0.0000
# 3 -7.7238 -12.6510 36.8889 0.0000 0.0000 0.0000
# 4 0.0000 0.0000 0.0000 0.9922 0.0000 0.0000
# 5 0.0000 0.0000 0.0000 0.0000 -42.9394 0.0000
# 6 0.0000 0.0000 0.0000 0.0000 0.0000 -2.9228
#
#
#
# Elastic Compliance Matrix: (Units=1/GPa)
#
#
# Indices 1 2 3 4 5 6 
#
# 1 0.009308 -0.003498 0.000749 0.000000 0.000000 0.000000
# 2 -0.003498 0.007512 0.001844 0.000000 0.000000 0.000000
# 3 0.000749 0.001844 0.027898 0.000000 0.000000 0.000000
# 4 0.000000 0.000000 0.000000 1.007843 0.000000 0.000000
# 5 0.000000 0.000000 0.000000 0.000000 -0.023289 0.000000
# 6 0.000000 0.000000 0.000000 0.000000 0.000000 -0.342137
#
#
# Mechanical properties :
#
#
# Convention : Reuss Voigt Hill
#
# Bulk Modulus (GPa) = 23.30597 46.69564 35.00080
# Shear Modulus (GPa) = 7.10986 10.45989 8.78488
#
# Velocity S-wave (km/s) = 1.82729 2.21636 2.03116
# Velocity P-wave (km/s) = 3.92391 5.33659 4.68381
#
# Compressibility (1/GPa) = 0.04290747
#
# Stress axis : x y z
#
# Youngs Moduli (GPa) = 107.43184 133.11656 35.84532
#
# Poissons Ratio (x) = 0.46569 -0.02686
# Poissons Ratio (y) = 0.37583 -0.06609
# Poissons Ratio (z) = -0.08049 -0.24544
#
# Static dielectric constant tensor:
#      x y z
#    x 1.739940 0.000000 0.000000 
#    y 0.000000 1.758930 0.000000 
#    z 0.000000 0.000000 1.791920 
# 
# From -- ./inp_files/9762.got.cif
#   From: 2010.05.17/outbox.cif.g08.bks.cpg/sg55_5_cif.got.tgz:9762.got - 2010.06.03 13:27:54.
