data_PCOD9427108
_publ_section_title
;
Structure prediction by ZEFSAII (Michael W. Deem and Ramdas Pophale) SiO2 
 PCOD9427108
Probable space group: P B A M
;
_chemical_formula_sum "Si O2"
_cell_formula_units_Z 28
_cell_length_a 20.438781
_cell_length_b 5.205909
_cell_length_c 12.245469
_cell_angle_alpha 90.000000
_cell_angle_beta 90.000000
_cell_angle_gamma 90.000000
_cell_volume 1302.947707
_symmetry_space_group_name_H-M "P B A M"
_symmetry_group_IT_number 55
_symmetry_cell_setting 'orthorhombic'
loop_
_space_group_symop_operation_xyz
x,y,z
-x,-y,z
1/2+x,1/2-y,-z
1/2-x,1/2+y,-z
-x,-y,-z
x,y,-z
1/2-x,1/2+y,z
1/2+x,1/2-y,z
loop_
_atom_site_type_symbol
_atom_site_label
_atom_site_fract_x
_atom_site_fract_y
_atom_site_fract_z
Si Si1 0.431204 0.926087 0.762478
Si Si2 0.414502 0.439013 0.624680
Si Si3 0.707434 0.467341 0.500000
Si Si4 0.290887 0.842118 0.131922
O O1 0.446600 0.679806 0.686037
O O2 0.366329 0.858710 0.830261
O O3 0.500000 0.000000 0.821122
O O4 0.414168 0.175261 0.690164
O O5 0.437275 0.389920 0.500000
O O6 0.340516 0.537615 0.603526
O O7 0.744732 0.732422 0.500000
O O8 0.251295 0.589234 0.167815
O O9 0.291764 0.840551 0.000000
#
# Coordination Sequence:
#
# PCOD9427108 Si02
#       4
#     8   8   4   8
#     4  12  24  40  64  95 125 166 210 255 313 366
#     4  10  24  39  56  90 124 169 209 256 291 369
#     4  10  20  36  55  80 117 160 206 250 294 346
#     4  10  23  44  68  93 123 161 205 258 320 377
#
# _framework density 21.489732
#
# number of rings (size 3 to 8) (size 9 to 14) (size 15 to 20)
#    0.857    0.571    0.000    5.143    0.000   10.857 
#    0.000    0.000    0.000    8.571    0.000    0.000 
#    0.000    0.000    0.000    0.000    0.000    0.000 
#
# Total GULP energy -156337.439129 kJ/mol
# GULP energy per Si atom -5583.479969 kJ/mol
# Density = 2.144082 g / cm^3
# Si number density = 21.489732 Si / 1000 Ang^3
#
#
#
# Elastic Constant Matrix: (Units=GPa)
#
#
# Indices 1 2 3 4 5 6 
#
# 1 118.0625 -1.3498 13.5064 0.0000 0.0000 0.0000
# 2 -1.3498 107.1879 3.3025 0.0000 0.0000 0.0000
# 3 13.5064 3.3025 32.3781 0.0000 0.0000 0.0000
# 4 0.0000 0.0000 0.0000 14.3790 0.0000 0.0000
# 5 0.0000 0.0000 0.0000 0.0000 23.2795 0.0000
# 6 0.0000 0.0000 0.0000 0.0000 0.0000 44.4750
#
#
#
# Elastic Compliance Matrix: (Units=1/GPa)
#
#
# Indices 1 2 3 4 5 6 
#
# 1 0.008900 0.000227 -0.003736 0.000000 0.000000 0.000000
# 2 0.000227 0.009365 -0.001050 0.000000 0.000000 0.000000
# 3 -0.003736 -0.001050 0.032551 0.000000 0.000000 0.000000
# 4 0.000000 0.000000 0.000000 0.069546 0.000000 0.000000
# 5 0.000000 0.000000 0.000000 0.000000 0.042956 0.000000
# 6 0.000000 0.000000 0.000000 0.000000 0.000000 0.022485
#
#
# Mechanical properties :
#
#
# Convention : Reuss Voigt Hill
#
# Bulk Modulus (GPa) = 23.98189 32.06072 28.02131
# Shear Modulus (GPa) = 23.94425 32.57132 28.25779
#
# Velocity S-wave (km/s) = 3.34161 3.89738 3.63015
# Velocity P-wave (km/s) = 5.10612 5.93332 5.53519
#
# Compressibility (1/GPa) = 0.04169814
#
# Stress axis : x y z
#
# Youngs Moduli (GPa) = 112.35870 106.78485 30.72143
#
# Poissons Ratio (x) = -0.02426 0.11477
# Poissons Ratio (y) = -0.02553 0.03226
# Poissons Ratio (z) = 0.41975 0.11212
#
# Static dielectric constant tensor:
#      x y z
#    x 1.859440 0.000000 0.000000 
#    y 0.000000 1.704350 0.000000 
#    z 0.000000 0.000000 1.774620 
# 
# From -- ./inp_files/15120.got.cif
#   From: 2010.05.17/outbox.cif.g08.bks.cpg/sg55_8_cif.got.tgz:15120.got - 2010.06.03 13:27:54.
