data_PCOD9427857
_publ_section_title
;
Structure prediction by ZEFSAII (Michael W. Deem and Ramdas Pophale) SiO2 
 PCOD9427857
Probable space group: P B A M
;
_chemical_formula_sum "Si O2"
_cell_formula_units_Z 54
_cell_length_a 5.237544
_cell_length_b 18.253610
_cell_length_c 25.372816
_cell_angle_alpha 90.000000
_cell_angle_beta 90.000000
_cell_angle_gamma 90.000000
_cell_volume 2425.744871
_symmetry_space_group_name_H-M "P B A M"
_symmetry_group_IT_number 55
_symmetry_cell_setting 'orthorhombic'
loop_
_space_group_symop_operation_xyz
x,y,z
-x,-y,z
1/2+x,1/2-y,-z
1/2-x,1/2+y,-z
-x,-y,-z
x,y,-z
1/2-x,1/2+y,z
1/2+x,1/2-y,z
loop_
_atom_site_type_symbol
_atom_site_label
_atom_site_fract_x
_atom_site_fract_y
_atom_site_fract_z
Si Si1 0.860045 0.922110 0.918688
Si Si2 0.843371 0.792404 0.150796
Si Si3 0.946099 0.196951 0.000000
Si Si4 0.111869 0.269676 0.734169
Si Si5 0.397625 0.703608 0.561259
Si Si6 0.000000 0.500000 0.000000
Si Si7 0.968919 0.419351 0.285464
Si Si8 0.031761 0.917129 0.646034
O O1 0.811931 0.876267 0.865898
O O2 0.618583 0.944812 0.954115
O O3 0.023066 0.862160 0.952300
O O4 0.000000 0.000000 0.911634
O O5 0.599770 0.747201 0.130724
O O6 0.867390 0.779523 0.213586
O O7 0.187722 0.254053 0.000000
O O8 0.369128 0.258100 0.702849
O O9 0.063924 0.352876 0.750512
O O10 0.420328 0.680475 0.500000
O O11 0.612339 0.766108 0.569298
O O12 0.464416 0.639340 0.601069
O O13 0.178714 0.412810 0.332295
O O14 0.000000 0.500000 0.262174
O O15 0.682362 0.409373 0.307255
O O16 0.000000 0.000000 0.626479
#
# Coordination Sequence:
#
# PCOD9427857 Si02
#       8
#     8   8   4   8   8   2   8   8
#     4  11  25  41  66  95 135 166 210 255 306 360
#     4  10  23  44  66  92 127 168 210 252 305 374
#     4  11  24  39  64  92 126 163 200 247 297 349
#     4  10  21  39  62  89 120 155 206 251 305 373
#     4  10  21  36  54  81 119 161 209 257 306 373
#     4  10  24  40  64  94 128 158 208 248 306 356
#     4  10  21  37  58  88 121 154 197 266 316 372
#     4  10  21  36  57  87 120 157 205 253 321 375
#
# _framework density 22.261202999999998
#
# number of rings (size 3 to 8) (size 9 to 14) (size 15 to 20)
#    0.000    1.778    0.000    3.556    6.222    3.852 
#    0.000    5.926    0.000    5.333    0.000    0.000 
#    0.000    0.000    0.000    0.000    0.000    0.000 
#
# Total GULP energy -300929.990437 kJ/mol
# GULP energy per Si atom -5572.777601 kJ/mol
# Density = 2.221054 g / cm^3
# Si number density = 22.261203 Si / 1000 Ang^3
#
#
#
# Elastic Constant Matrix: (Units=GPa)
#
#
# Indices 1 2 3 4 5 6 
#
# 1 135.3651 25.7990 -11.2817 0.0000 0.0000 0.0000
# 2 25.7990 146.4748 41.0976 0.0000 0.0000 0.0000
# 3 -11.2817 41.0976 56.6954 0.0000 0.0000 0.0000
# 4 0.0000 0.0000 0.0000 698.2024 0.0000 0.0000
# 5 0.0000 0.0000 0.0000 0.0000 2.3616 0.0000
# 6 0.0000 0.0000 0.0000 0.0000 0.0000 41.1000
#
#
#
# Elastic Compliance Matrix: (Units=1/GPa)
#
#
# Indices 1 2 3 4 5 6 
#
# 1 0.008115 -0.002363 0.003328 0.000000 0.000000 0.000000
# 2 -0.002363 0.009258 -0.007181 0.000000 0.000000 0.000000
# 3 0.003328 -0.007181 0.023506 0.000000 0.000000 0.000000
# 4 0.000000 0.000000 0.000000 0.001432 0.000000 0.000000
# 5 0.000000 0.000000 0.000000 0.000000 0.423440 0.000000
# 6 0.000000 0.000000 0.000000 0.000000 0.000000 0.024331
#
#
# Mechanical properties :
#
#
# Convention : Reuss Voigt Hill
#
# Bulk Modulus (GPa) = 35.15431 49.97390 42.56410
# Shear Modulus (GPa) = 9.76566 167.19416 88.47991
#
# Velocity S-wave (km/s) = 2.09675 8.67575 6.31130
# Velocity P-wave (km/s) = 4.65702 11.08404 8.50129
#
# Compressibility (1/GPa) = 0.02844601
#
# Stress axis : x y z
#
# Youngs Moduli (GPa) = 123.22648 108.01163 42.54239
#
# Poissons Ratio (x) = 0.25524 -0.14157
# Poissons Ratio (y) = 0.29119 0.30551
# Poissons Ratio (z) = -0.41007 0.77567
#
# Static dielectric constant tensor:
#      x y z
#    x 1.991600 0.000000 0.000000 
#    y 0.000000 1.836210 0.000000 
#    z 0.000000 0.000000 1.862850 
# 
# From -- ./inp_files/24091.got.cif
#   From: 2010.05.17/outbox.cif.g08.bks.cpg/sg55_13_cif.got.tgz:24091.got - 2010.06.03 13:27:54.
