data_PCOD9427811
_publ_section_title
;
Structure prediction by ZEFSAII (Michael W. Deem and Ramdas Pophale) SiO2 
 PCOD9427811
Probable space group: P B A M
;
_chemical_formula_sum "Si O2"
_cell_formula_units_Z 56
_cell_length_a 10.122469
_cell_length_b 21.147796
_cell_length_c 15.280108
_cell_angle_alpha 90.000000
_cell_angle_beta 90.000000
_cell_angle_gamma 90.000000
_cell_volume 3270.980775
_symmetry_space_group_name_H-M "P B A M"
_symmetry_group_IT_number 55
_symmetry_cell_setting 'orthorhombic'
loop_
_space_group_symop_operation_xyz
x,y,z
-x,-y,z
1/2+x,1/2-y,-z
1/2-x,1/2+y,-z
-x,-y,-z
x,y,-z
1/2-x,1/2+y,z
1/2+x,1/2-y,z
loop_
_atom_site_type_symbol
_atom_site_label
_atom_site_fract_x
_atom_site_fract_y
_atom_site_fract_z
Si Si1 0.712097 0.631342 0.166459
Si Si2 0.393955 0.292581 0.000000
Si Si3 0.686413 0.318277 0.000000
Si Si4 0.517711 0.074940 0.899969
Si Si5 0.757921 0.744847 0.704047
Si Si6 0.982849 0.927288 0.716150
Si Si7 0.240872 0.628538 0.817167
Si Si8 0.995892 0.197708 0.396027
O O1 0.644236 0.667449 0.085591
O O2 0.768069 0.684533 0.232513
O O3 0.600248 0.590984 0.216110
O O4 0.836090 0.592057 0.131768
O O5 0.308274 0.229559 0.000000
O O6 0.549650 0.279908 0.000000
O O7 0.693761 0.358717 0.911831
O O8 0.404206 0.102555 0.837667
O O9 0.500000 0.000000 0.901314
O O10 0.499661 0.098719 0.000000
O O11 0.729206 0.805447 0.765214
O O12 0.639703 0.728289 0.638292
O O13 0.887964 0.762692 0.650354
O O14 0.994154 0.874223 0.640411
O O15 0.841210 0.915583 0.762886
O O16 0.000000 0.000000 0.688754
O O17 0.006041 0.199266 0.500000
#
# Coordination Sequence:
#
# PCOD9427811 Si02
#       8
#     8   4   4   8   8   8   8   8
#     4  11  21  37  54  79 114 145 191 229 270 324
#     4  12  24  34  53  82 114 152 189 229 278 316
#     4  12  24  34  53  82 114 152 189 229 278 316
#     4  11  23  34  49  74 106 153 194 229 264 303
#     4  10  21  35  58  84 108 140 172 221 291 328
#     4  10  22  39  58  78 109 149 187 229 274 329
#     4  11  21  37  54  79 114 145 191 229 270 324
#     4  10  21  38  60  85 110 134 173 225 286 353
#
# _framework density 17.120248
#
# number of rings (size 3 to 8) (size 9 to 14) (size 15 to 20)
#    0.000    1.286    4.286    2.143    2.000    0.286 
#    0.000    0.714    0.000    0.000    0.000    0.000 
#    0.000   20.571    0.000    0.000    0.000    0.000 
#
# Total GULP energy -312765.242242 kJ/mol
# GULP energy per Si atom -5585.093611 kJ/mol
# Density = 1.708128 g / cm^3
# Si number density = 17.120248 Si / 1000 Ang^3
#
#
#
# Elastic Constant Matrix: (Units=GPa)
#
#
# Indices 1 2 3 4 5 6 
#
# 1 50.8599 3.1169 -6.7300 0.0000 0.0000 0.0000
# 2 3.1169 54.7675 7.1505 0.0000 0.0000 0.0000
# 3 -6.7300 7.1505 71.5580 0.0000 0.0000 0.0000
# 4 0.0000 0.0000 0.0000 6.4749 0.0000 0.0000
# 5 0.0000 0.0000 0.0000 0.0000 10.3244 0.0000
# 6 0.0000 0.0000 0.0000 0.0000 0.0000 21.8728
#
#
#
# Elastic Compliance Matrix: (Units=1/GPa)
#
#
# Indices 1 2 3 4 5 6 
#
# 1 0.020016 -0.001403 0.002023 0.000000 0.000000 0.000000
# 2 -0.001403 0.018599 -0.001990 0.000000 0.000000 0.000000
# 3 0.002023 -0.001990 0.014364 0.000000 0.000000 0.000000
# 4 0.000000 0.000000 0.000000 0.154442 0.000000 0.000000
# 5 0.000000 0.000000 0.000000 0.000000 0.096858 0.000000
# 6 0.000000 0.000000 0.000000 0.000000 0.000000 0.045719
#
#
# Mechanical properties :
#
#
# Convention : Reuss Voigt Hill
#
# Bulk Modulus (GPa) = 19.90599 20.47333 20.18966
# Shear Modulus (GPa) = 13.53235 19.31095 16.42165
#
# Velocity S-wave (km/s) = 2.81451 3.36215 3.10045
# Velocity P-wave (km/s) = 4.71321 5.20160 4.96341
#
# Compressibility (1/GPa) = 0.05023613
#
# Stress axis : x y z
#
# Youngs Moduli (GPa) = 49.96124 53.76705 69.61946
#
# Poissons Ratio (x) = 0.07545 -0.14082
# Poissons Ratio (y) = 0.07010 0.13857
# Poissons Ratio (z) = -0.10106 0.10702
#
# Static dielectric constant tensor:
#      x y z
#    x 1.580050 0.000000 0.000000 
#    y 0.000000 1.564270 0.000000 
#    z 0.000000 0.000000 1.556250 
# 
# From -- ./inp_files/17688.got.cif
#   From: 2010.05.17/outbox.cif.g08.bks.cpg/sg55_9_cif.got.tgz:17688.got - 2010.06.03 13:27:54.
