data_PCOD9427509
_publ_section_title
;
Structure prediction by ZEFSAII (Michael W. Deem and Ramdas Pophale) SiO2 
 PCOD9427509
Probable space group: P B A M
;
_chemical_formula_sum "Si O2"
_cell_formula_units_Z 34
_cell_length_a 8.994306
_cell_length_b 21.267141
_cell_length_c 7.645264
_cell_angle_alpha 90.000000
_cell_angle_beta 90.000000
_cell_angle_gamma 90.000000
_cell_volume 1462.410363
_symmetry_space_group_name_H-M "P B A M"
_symmetry_group_IT_number 55
_symmetry_cell_setting 'orthorhombic'
loop_
_space_group_symop_operation_xyz
x,y,z
-x,-y,z
1/2+x,1/2-y,-z
1/2-x,1/2+y,-z
-x,-y,-z
x,y,-z
1/2-x,1/2+y,z
1/2+x,1/2-y,z
loop_
_atom_site_type_symbol
_atom_site_label
_atom_site_fract_x
_atom_site_fract_y
_atom_site_fract_z
Si Si1 0.780648 0.429184 0.702678
Si Si2 0.060263 0.738555 0.000000
Si Si3 0.072780 0.345175 0.301890
Si Si4 0.179588 0.939307 0.804481
Si Si5 0.350683 0.657586 0.000000
Si Si6 0.500000 0.500000 0.500000
O O1 0.723392 0.437826 0.500000
O O2 0.783113 0.498379 0.783210
O O3 0.942244 0.397703 0.694376
O O4 0.687131 0.383742 0.829306
O O5 0.985920 0.707468 0.171206
O O6 0.230087 0.715150 0.000000
O O7 0.011534 0.810617 0.000000
O O8 0.094221 0.322202 0.500000
O O9 0.220001 0.378865 0.232600
O O10 0.118283 0.939909 0.000000
O O11 0.061338 0.951903 0.655222
#
# Coordination Sequence:
#
# PCOD9427509 Si02
#       6
#     8   4   8   8   4   2
#     4  10  20  37  64  90 118 150 195 247 299 356
#     4  10  22  41  59  88 118 155 208 256 298 351
#     4  10  20  37  64  90 118 150 195 247 299 356
#     4  12  22  38  60  89 121 158 192 240 301 355
#     4  10  22  41  59  88 118 155 208 256 298 351
#     4  12  26  40  50  86 140 156 194 230 292 384
#
# _framework density 23.249288
#
# number of rings (size 3 to 8) (size 9 to 14) (size 15 to 20)
#    0.000    1.412    4.706    1.059    0.000    3.765 
#    4.235    0.000    0.000    0.000    0.000    0.000 
#    0.000    0.000    0.000    0.000    0.000    0.000 
#
# Total GULP energy -189919.130166 kJ/mol
# GULP energy per Si atom -5585.856770 kJ/mol
# Density = 2.319637 g / cm^3
# Si number density = 23.249288 Si / 1000 Ang^3
#
#
#
# Elastic Constant Matrix: (Units=GPa)
#
#
# Indices 1 2 3 4 5 6 
#
# 1 66.3058 19.7524 46.8152 0.0000 0.0000 0.0000
# 2 19.7524 53.6524 23.5997 0.0000 0.0000 0.0000
# 3 46.8152 23.5997 220.9781 0.0000 0.0000 0.0000
# 4 0.0000 0.0000 0.0000 242.4635 0.0000 0.0000
# 5 0.0000 0.0000 0.0000 0.0000 44.7550 0.0000
# 6 0.0000 0.0000 0.0000 0.0000 0.0000 51.8804
#
#
#
# Elastic Compliance Matrix: (Units=1/GPa)
#
#
# Indices 1 2 3 4 5 6 
#
# 1 0.019182 -0.005535 -0.003473 0.000000 0.000000 0.000000
# 2 -0.005535 0.021154 -0.001087 0.000000 0.000000 0.000000
# 3 -0.003473 -0.001087 0.005377 0.000000 0.000000 0.000000
# 4 0.000000 0.000000 0.000000 0.004124 0.000000 0.000000
# 5 0.000000 0.000000 0.000000 0.000000 0.022344 0.000000
# 6 0.000000 0.000000 0.000000 0.000000 0.000000 0.019275
#
#
# Mechanical properties :
#
#
# Convention : Reuss Voigt Hill
#
# Bulk Modulus (GPa) = 39.17646 57.91899 48.54773
# Shear Modulus (GPa) = 41.61349 84.53769 63.07559
#
# Velocity S-wave (km/s) = 4.23529 6.03658 5.21431
# Velocity P-wave (km/s) = 6.38781 8.57633 7.56166
#
# Compressibility (1/GPa) = 0.02552553
#
# Stress axis : x y z
#
# Youngs Moduli (GPa) = 52.13128 47.27224 185.97326
#
# Poissons Ratio (x) = 0.26163 0.64585
# Poissons Ratio (y) = 0.28852 0.20209
# Poissons Ratio (z) = 0.18104 0.05137
#
# Static dielectric constant tensor:
#      x y z
#    x 1.751840 0.000000 0.000000 
#    y 0.000000 1.797850 0.000000 
#    z 0.000000 0.000000 1.830010 
# 
# From -- ./inp_files/2187.got.cif
#   From: 2010.05.17/outbox.cif.g08.bks.cpg/sg55_2_cif.got.tgz:2187.got - 2010.06.03 13:27:54.
