data_PCOD9427694
_publ_section_title
;
Structure prediction by ZEFSAII (Michael W. Deem and Ramdas Pophale) SiO2 
 PCOD9427694
Probable space group: P B A M
;
_chemical_formula_sum "Si O2"
_cell_formula_units_Z 64
_cell_length_a 8.723090
_cell_length_b 21.904677
_cell_length_c 16.887145
_cell_angle_alpha 90.000000
_cell_angle_beta 90.000000
_cell_angle_gamma 90.000000
_cell_volume 3226.736036
_symmetry_space_group_name_H-M "P B A M"
_symmetry_group_IT_number 55
_symmetry_cell_setting 'orthorhombic'
loop_
_space_group_symop_operation_xyz
x,y,z
-x,-y,z
1/2+x,1/2-y,-z
1/2-x,1/2+y,-z
-x,-y,-z
x,y,-z
1/2-x,1/2+y,z
1/2+x,1/2-y,z
loop_
_atom_site_type_symbol
_atom_site_label
_atom_site_fract_x
_atom_site_fract_y
_atom_site_fract_z
Si Si1 0.306635 0.831297 0.584777
Si Si2 0.382508 0.155462 0.341075
Si Si3 0.641227 0.718343 0.737711
Si Si4 0.077422 0.666144 0.908910
Si Si5 0.792168 0.053286 0.653360
Si Si6 0.372078 0.730783 0.844235
Si Si7 0.126606 0.076615 0.594395
Si Si8 0.954614 0.569718 0.780568
O O1 0.257255 0.807742 0.500000
O O2 0.483859 0.818709 0.602451
O O3 0.199869 0.808888 0.655961
O O4 0.294467 0.904130 0.590640
O O5 0.363388 0.209194 0.278295
O O6 0.230075 0.135062 0.385691
O O7 0.446498 0.098277 0.291597
O O8 0.481490 0.700211 0.777309
O O9 0.775723 0.715104 0.801485
O O10 0.251993 0.684355 0.883397
O O11 0.985331 0.730530 0.900027
O O12 0.998560 0.614350 0.853468
O O13 0.075169 0.646699 0.000000
O O14 0.715131 0.065963 0.739177
O O15 0.968968 0.073576 0.643556
O O16 0.785374 0.983983 0.623881
O O17 0.095321 0.073204 0.500000
O O18 0.000000 0.500000 0.798240
#
# Coordination Sequence:
#
# PCOD9427694 Si02
#       8
#     8   8   8   8   8   8   8   8
#     4  11  23  36  53  84 125 162 210 262 314 364
#     4  11  22  39  60  87 119 170 218 257 317 369
#     4  11  21  40  60  88 122 170 210 251 306 374
#     4  11  23  41  69 103 130 157 199 255 322 382
#     4  10  22  38  58  84 119 167 215 260 317 370
#     4  10  20  40  66  90 126 161 204 251 299 382
#     4  11  22  38  60  88 121 161 224 284 314 349
#     4  11  21  41  64  91 130 169 210 252 313 401
#
# _framework density 19.834285000000001
#
# number of rings (size 3 to 8) (size 9 to 14) (size 15 to 20)
#    0.000    1.250    5.000    3.000    1.750    1.250 
#    0.000    1.875    0.000    0.000    0.000    1.750 
#    0.000    0.125    0.000    0.000    0.000    0.000 
#
# Total GULP energy -356728.524994 kJ/mol
# GULP energy per Si atom -5573.883203 kJ/mol
# Density = 1.978914 g / cm^3
# Si number density = 19.834285 Si / 1000 Ang^3
#
#
#
# Elastic Constant Matrix: (Units=GPa)
#
#
# Indices 1 2 3 4 5 6 
#
# 1 112.2576 30.2405 64.7107 0.0000 0.0000 0.0000
# 2 30.2405 69.8525 28.5054 0.0000 0.0000 0.0000
# 3 64.7107 28.5054 138.2324 0.0000 0.0000 0.0000
# 4 0.0000 0.0000 0.0000 21.1869 0.0000 0.0000
# 5 0.0000 0.0000 0.0000 0.0000 14.8338 0.0000
# 6 0.0000 0.0000 0.0000 0.0000 0.0000 24.8369
#
#
#
# Elastic Compliance Matrix: (Units=1/GPa)
#
#
# Indices 1 2 3 4 5 6 
#
# 1 0.012903 -0.003408 -0.005337 0.000000 0.000000 0.000000
# 2 -0.003408 0.016531 -0.001814 0.000000 0.000000 0.000000
# 3 -0.005337 -0.001814 0.010107 0.000000 0.000000 0.000000
# 4 0.000000 0.000000 0.000000 0.047199 0.000000 0.000000
# 5 0.000000 0.000000 0.000000 0.000000 0.067413 0.000000
# 6 0.000000 0.000000 0.000000 0.000000 0.000000 0.040263
#
#
# Mechanical properties :
#
#
# Convention : Reuss Voigt Hill
#
# Bulk Modulus (GPa) = 54.27973 63.02843 58.65408
# Shear Modulus (GPa) = 22.55552 25.29724 23.92638
#
# Velocity S-wave (km/s) = 3.37590 3.57519 3.47697
# Velocity P-wave (km/s) = 6.52852 6.99208 6.76427
#
# Compressibility (1/GPa) = 0.01842308
#
# Stress axis : x y z
#
# Youngs Moduli (GPa) = 77.50209 60.49127 98.94288
#
# Poissons Ratio (x) = 0.20614 0.52811
# Poissons Ratio (y) = 0.26411 0.17945
# Poissons Ratio (z) = 0.41367 0.10971
#
# Static dielectric constant tensor:
#      x y z
#    x 1.787820 0.000000 0.000000 
#    y 0.000000 1.757330 0.000000 
#    z 0.000000 0.000000 1.734010 
# 
# From -- ./inp_files/21128.got.cif
#   From: 2010.05.17/outbox.cif.g08.bks.cpg/sg55_11_cif.got.tgz:21128.got - 2010.06.03 13:27:54.
