data_PCOD9427840
_publ_section_title
;
Structure prediction by ZEFSAII (Michael W. Deem and Ramdas Pophale) SiO2 
 PCOD9427840
Probable space group: P B A M
;
_chemical_formula_sum "Si O2"
_cell_formula_units_Z 64
_cell_length_a 19.828294
_cell_length_b 21.062110
_cell_length_c 8.921907
_cell_angle_alpha 90.000000
_cell_angle_beta 90.000000
_cell_angle_gamma 90.000000
_cell_volume 3726.017740
_symmetry_space_group_name_H-M "P B A M"
_symmetry_group_IT_number 55
_symmetry_cell_setting 'orthorhombic'
loop_
_space_group_symop_operation_xyz
x,y,z
-x,-y,z
1/2+x,1/2-y,-z
1/2-x,1/2+y,-z
-x,-y,-z
x,y,-z
1/2-x,1/2+y,z
1/2+x,1/2-y,z
loop_
_atom_site_type_symbol
_atom_site_label
_atom_site_fract_x
_atom_site_fract_y
_atom_site_fract_z
Si Si1 0.803373 0.513229 0.320342
Si Si2 0.503034 0.164152 0.678445
Si Si3 0.177897 0.216292 0.822242
Si Si4 0.162841 0.345656 0.679525
Si Si5 0.691505 0.423728 0.180021
Si Si6 0.455972 0.559652 0.679455
Si Si7 0.032242 0.199161 0.677860
Si Si8 0.564357 0.954192 0.823766
O O1 0.798317 0.511162 0.500000
O O2 0.805898 0.587247 0.273253
O O3 0.743013 0.474001 0.247449
O O4 0.873109 0.481415 0.268182
O O5 0.496069 0.152414 0.500000
O O6 0.582514 0.153980 0.717301
O O7 0.488096 0.238533 0.708653
O O8 0.457817 0.115098 0.768159
O O9 0.197058 0.282964 0.747467
O O10 0.211202 0.149155 0.776546
O O11 0.100086 0.206641 0.773370
O O12 0.183260 0.222466 0.000000
O O13 0.166279 0.341002 0.500000
O O14 0.616582 0.437019 0.242153
O O15 0.690934 0.426683 0.000000
O O16 0.500000 0.500000 0.729981
O O17 0.445210 0.553759 0.500000
O O18 0.492604 0.627714 0.704556
O O19 0.050308 0.203592 0.500000
O O20 0.500000 0.000000 0.800849
O O21 0.580903 0.953679 0.000000
#
# Coordination Sequence:
#
# PCOD9427840 Si02
#       8
#     8   8   8   8   8   8   8   8
#     4  11  22  36  55  76 102 139 179 217 260 308
#     4   9  16  29  48  70 100 134 171 214 253 297
#     4   9  17  29  49  74 100 130 165 207 254 305
#     4   9  18  31  50  76 101 129 171 217 255 298
#     4  10  21  36  53  78 109 138 171 213 262 317
#     4   9  17  32  57  84 107 134 172 216 259 308
#     4   8  15  28  47  74 103 131 166 209 252 296
#     4  11  22  33  48  74 106 139 174 215 260 306
#
# _framework density 17.176514000000001
#
# number of rings (size 3 to 8) (size 9 to 14) (size 15 to 20)
#    0.000    2.500    1.250    2.250    0.000    5.250 
#    0.000    0.000    2.750    0.000    0.000    0.000 
#    0.000    0.000    0.000    0.000    0.000    0.000 
#
# Total GULP energy -356574.517981 kJ/mol
# GULP energy per Si atom -5571.476843 kJ/mol
# Density = 1.713742 g / cm^3
# Si number density = 17.176514 Si / 1000 Ang^3
#
#
#
# Elastic Constant Matrix: (Units=GPa)
#
#
# Indices 1 2 3 4 5 6 
#
# 1 38.4535 54.1600 23.1340 0.0000 0.0000 0.0000
# 2 54.1600 191.2288 48.2552 0.0000 0.0000 0.0000
# 3 23.1340 48.2552 31.4034 0.0000 0.0000 0.0000
# 4 0.0000 0.0000 0.0000 23.0473 0.0000 0.0000
# 5 0.0000 0.0000 0.0000 0.0000 8.1828 0.0000
# 6 0.0000 0.0000 0.0000 0.0000 0.0000 25.3729
#
#
#
# Elastic Compliance Matrix: (Units=1/GPa)
#
#
# Indices 1 2 3 4 5 6 
#
# 1 0.054193 -0.008615 -0.026684 0.000000 0.000000 0.000000
# 2 -0.008615 0.009911 -0.008883 0.000000 0.000000 0.000000
# 3 -0.026684 -0.008883 0.065151 0.000000 0.000000 0.000000
# 4 0.000000 0.000000 0.000000 0.043389 0.000000 0.000000
# 5 0.000000 0.000000 0.000000 0.000000 0.122207 0.000000
# 6 0.000000 0.000000 0.000000 0.000000 0.000000 0.039412
#
#
# Mechanical properties :
#
#
# Convention : Reuss Voigt Hill
#
# Bulk Modulus (GPa) = 24.45578 56.90936 40.68257
# Shear Modulus (GPa) = 11.46113 20.35637 15.90875
#
# Velocity S-wave (km/s) = 2.58593 3.44630 3.04664
# Velocity P-wave (km/s) = 4.81507 7.00286 6.00936
#
# Compressibility (1/GPa) = 0.04089012
#
# Stress axis : x y z
#
# Youngs Moduli (GPa) = 18.45263 100.90048 15.34901
#
# Poissons Ratio (x) = 0.86925 0.40958
# Poissons Ratio (y) = 0.15897 0.13634
# Poissons Ratio (z) = 0.49240 0.89627
#
# Static dielectric constant tensor:
#      x y z
#    x 1.546930 0.000000 0.000000 
#    y 0.000000 1.630460 0.000000 
#    z 0.000000 0.000000 1.573670 
# 
# From -- ./inp_files/8934.got.cif
#   From: 2010.05.17/outbox.cif.g08.bks.cpg/sg55_5_cif.got.tgz:8934.got - 2010.06.03 13:27:54.
