data_PCOD9427005
_publ_section_title
;
Structure prediction by ZEFSAII (Michael W. Deem and Ramdas Pophale) SiO2 
 PCOD9427005
Probable space group: P B A M
;
_chemical_formula_sum "Si O2"
_cell_formula_units_Z 48
_cell_length_a 14.836472
_cell_length_b 14.151962
_cell_length_c 12.683000
_cell_angle_alpha 90.000000
_cell_angle_beta 90.000000
_cell_angle_gamma 90.000000
_cell_volume 2662.988479
_symmetry_space_group_name_H-M "P B A M"
_symmetry_group_IT_number 55
_symmetry_cell_setting 'orthorhombic'
loop_
_space_group_symop_operation_xyz
x,y,z
-x,-y,z
1/2+x,1/2-y,-z
1/2-x,1/2+y,-z
-x,-y,-z
x,y,-z
1/2-x,1/2+y,z
1/2+x,1/2-y,z
loop_
_atom_site_type_symbol
_atom_site_label
_atom_site_fract_x
_atom_site_fract_y
_atom_site_fract_z
Si Si1 0.421605 0.079382 0.627297
Si Si2 0.521635 0.742272 0.228025
Si Si3 0.336124 0.726551 0.881123
Si Si4 0.179744 0.876068 0.879336
Si Si5 0.058088 0.094129 0.611784
Si Si6 0.271247 0.554609 0.265836
O O1 0.408731 0.097535 0.500000
O O2 0.451286 0.171071 0.695997
O O3 0.500000 0.000000 0.635730
O O4 0.328584 0.047488 0.685080
O O5 0.435246 0.760379 0.154165
O O6 0.603770 0.696008 0.163597
O O7 0.484139 0.659498 0.301235
O O8 0.271376 0.816471 0.880053
O O9 0.290749 0.647425 0.805941
O O10 0.340820 0.687883 0.000000
O O11 0.196286 0.965322 0.803554
O O12 0.157972 0.904786 0.000000
O O13 0.053535 0.144596 0.500000
O O14 0.159430 0.066310 0.638296
O O15 0.000000 0.000000 0.608879
#
# Coordination Sequence:
#
# PCOD9427005 Si02
#       6
#     8   8   8   8   8   8
#     4  11  24  42  63  89 124 163 206 249 298 361
#     4  11  21  40  61  86 118 161 199 250 306 357
#     4  10  22  38  60  88 120 157 202 251 302 362
#     4  11  22  38  60  89 120 156 200 249 303 362
#     4  10  20  35  57  86 119 152 196 246 300 359
#     4  11  21  39  61  88 120 159 198 250 308 357
#
# _framework density 18.024861000000001
#
# number of rings (size 3 to 8) (size 9 to 14) (size 15 to 20)
#    0.000    1.333    3.333    3.000    0.000    0.000 
#    0.000    2.500    0.000    4.000    0.000    0.000 
#    0.000    0.000    0.000    0.000    0.000    0.000 
#
# Total GULP energy -267560.463714 kJ/mol
# GULP energy per Si atom -5574.176327 kJ/mol
# Density = 1.798384 g / cm^3
# Si number density = 18.024861 Si / 1000 Ang^3
#
#
#
# Elastic Constant Matrix: (Units=GPa)
#
#
# Indices 1 2 3 4 5 6 
#
# 1 122.4121 13.3955 36.6196 0.0000 0.0000 0.0000
# 2 13.3955 42.5973 1.2972 0.0000 0.0000 0.0000
# 3 36.6196 1.2972 83.3795 0.0000 0.0000 0.0000
# 4 0.0000 0.0000 0.0000 145.1962 0.0000 0.0000
# 5 0.0000 0.0000 0.0000 0.0000 26.4291 0.0000
# 6 0.0000 0.0000 0.0000 0.0000 0.0000 25.5098
#
#
#
# Elastic Compliance Matrix: (Units=1/GPa)
#
#
# Indices 1 2 3 4 5 6 
#
# 1 0.009759 -0.002940 -0.004241 0.000000 0.000000 0.000000
# 2 -0.002940 0.024372 0.000912 0.000000 0.000000 0.000000
# 3 -0.004241 0.000912 0.013842 0.000000 0.000000 0.000000
# 4 0.000000 0.000000 0.000000 0.006887 0.000000 0.000000
# 5 0.000000 0.000000 0.000000 0.000000 0.037837 0.000000
# 6 0.000000 0.000000 0.000000 0.000000 0.000000 0.039201
#
#
# Mechanical properties :
#
#
# Convention : Reuss Voigt Hill
#
# Bulk Modulus (GPa) = 28.21945 39.00149 33.61047
# Shear Modulus (GPa) = 32.00056 52.56545 42.28300
#
# Velocity S-wave (km/s) = 4.21807 5.40611 4.84862
# Velocity P-wave (km/s) = 6.27795 7.78798 7.07338
#
# Compressibility (1/GPa) = 0.03543656
#
# Stress axis : x y z
#
# Youngs Moduli (GPa) = 102.46546 41.03000 72.24619
#
# Poissons Ratio (x) = 0.12062 0.30636
# Poissons Ratio (y) = 0.30124 -0.06589
# Poissons Ratio (z) = 0.43450 -0.03742
#
# Static dielectric constant tensor:
#      x y z
#    x 1.636070 0.000000 0.000000 
#    y 0.000000 1.586590 0.000000 
#    z 0.000000 0.000000 1.648780 
# 
# From -- ./inp_files/14137.got.cif
#   From: 2010.05.17/outbox.cif.g08.bks.cpg/sg55_8_cif.got.tgz:14137.got - 2010.06.03 13:27:54.
