data_PCOD9427477
_publ_section_title
;
Structure prediction by ZEFSAII (Michael W. Deem and Ramdas Pophale) SiO2 
 PCOD9427477
Probable space group: P B A M
;
_chemical_formula_sum "Si O2"
_cell_formula_units_Z 64
_cell_length_a 26.587526
_cell_length_b 13.278163
_cell_length_c 7.622548
_cell_angle_alpha 90.000000
_cell_angle_beta 90.000000
_cell_angle_gamma 90.000000
_cell_volume 2691.014830
_symmetry_space_group_name_H-M "P B A M"
_symmetry_group_IT_number 55
_symmetry_cell_setting 'orthorhombic'
loop_
_space_group_symop_operation_xyz
x,y,z
-x,-y,z
1/2+x,1/2-y,-z
1/2-x,1/2+y,-z
-x,-y,-z
x,y,-z
1/2-x,1/2+y,z
1/2+x,1/2-y,z
loop_
_atom_site_type_symbol
_atom_site_label
_atom_site_fract_x
_atom_site_fract_y
_atom_site_fract_z
Si Si1 0.364113 0.345638 0.703991
Si Si2 0.627440 0.435727 0.794601
Si Si3 0.448737 0.194784 0.285417
Si Si4 0.747574 0.616448 0.705245
Si Si5 0.078080 0.480019 0.699664
Si Si6 0.773552 0.826837 0.786807
Si Si7 0.059451 0.255680 0.288353
Si Si8 0.816900 0.441801 0.197644
O O1 0.357133 0.320253 0.500000
O O2 0.388311 0.457491 0.714114
O O3 0.400753 0.259346 0.777016
O O4 0.307975 0.359850 0.778413
O O5 0.682019 0.399593 0.724652
O O6 0.590821 0.340291 0.774121
O O7 0.633115 0.455512 0.000000
O O8 0.446181 0.190628 0.500000
O O9 0.449864 0.078345 0.223493
O O10 0.500641 0.249420 0.240598
O O11 0.743907 0.588930 0.500000
O O12 0.782344 0.714394 0.724099
O O13 0.775388 0.529170 0.806911
O O14 0.059457 0.468551 0.500000
O O15 0.076419 0.367384 0.776097
O O16 0.135413 0.519013 0.699532
O O17 0.717387 0.854182 0.723213
O O18 0.772713 0.828948 0.000000
O O19 0.064175 0.254573 0.500000
O O20 0.833206 0.417508 0.000000
#
# Coordination Sequence:
#
# PCOD9427477 Si02
#       8
#     8   8   8   8   8   8   8   8
#     4  10  21  38  60  86 117 154 196 245 296 349
#     4  11  23  40  59  82 118 160 201 247 291 347
#     4   9  19  38  63  89 118 152 195 248 306 361
#     4  11  22  35  57  87 116 148 190 244 290 338
#     4  10  20  37  62  92 121 151 195 248 299 356
#     4  10  22  38  56  79 113 157 194 230 282 348
#     4  10  21  38  62  89 117 155 198 245 303 361
#     4  11  22  37  56  82 117 157 192 225 282 352
#
# _framework density 23.78285
#
# number of rings (size 3 to 8) (size 9 to 14) (size 15 to 20)
#    0.000    1.750    1.250    3.000    0.000    8.000 
#    0.000    4.375    0.000    1.500    0.000    0.000 
#    0.000    0.000    0.000    0.000    0.000    0.000 
#
# Total GULP energy -357643.670809 kJ/mol
# GULP energy per Si atom -5588.182356 kJ/mol
# Density = 2.372872 g / cm^3
# Si number density = 23.782850 Si / 1000 Ang^3
#
#
#
# Elastic Constant Matrix: (Units=GPa)
#
#
# Indices 1 2 3 4 5 6 
#
# 1 73.2373 10.9984 6.4325 0.0000 0.0000 0.0000
# 2 10.9984 122.8218 1.1062 0.0000 0.0000 0.0000
# 3 6.4325 1.1062 67.1987 0.0000 0.0000 0.0000
# 4 0.0000 0.0000 0.0000 -120.9659 0.0000 0.0000
# 5 0.0000 0.0000 0.0000 0.0000 -24.7098 0.0000
# 6 0.0000 0.0000 0.0000 0.0000 0.0000 44.9789
#
#
#
# Elastic Compliance Matrix: (Units=1/GPa)
#
#
# Indices 1 2 3 4 5 6 
#
# 1 0.013956 -0.001238 -0.001316 0.000000 0.000000 0.000000
# 2 -0.001238 0.008253 -0.000017 0.000000 0.000000 0.000000
# 3 -0.001316 -0.000017 0.015007 0.000000 0.000000 0.000000
# 4 0.000000 0.000000 0.000000 -0.008267 0.000000 0.000000
# 5 0.000000 0.000000 0.000000 0.000000 -0.040470 0.000000
# 6 0.000000 0.000000 0.000000 0.000000 0.000000 0.022233
#
#
# Mechanical properties :
#
#
# Convention : Reuss Voigt Hill
#
# Bulk Modulus (GPa) = 31.17734 33.37022 32.27378
# Shear Modulus (GPa) = 188.35855 -3.82466 92.26695
#
# Velocity S-wave (km/s) = 8.90905 -1.26951 6.23537
# Velocity P-wave (km/s) = 10.90715 3.45149 8.08946
#
# Compressibility (1/GPa) = 0.03207458
#
# Stress axis : x y z
#
# Youngs Moduli (GPa) = 71.65537 121.16985 66.63354
#
# Poissons Ratio (x) = 0.14999 0.08766
# Poissons Ratio (y) = 0.08870 0.00116
# Poissons Ratio (z) = 0.09426 0.00210
#
# Static dielectric constant tensor:
#      x y z
#    x 1.909930 0.000000 0.000000 
#    y 0.000000 1.926050 0.000000 
#    z 0.000000 0.000000 2.104920 
# 
# From -- ./inp_files/4672.got.cif
#   From: 2010.05.17/outbox.cif.g08.bks.cpg/sg55_3_cif.got.tgz:4672.got - 2010.06.03 13:27:54.
