data_PCOD9427451
_publ_section_title
;
Structure prediction by ZEFSAII (Michael W. Deem and Ramdas Pophale) SiO2 
 PCOD9427451
Probable space group: P B A M
;
_chemical_formula_sum "Si O2"
_cell_formula_units_Z 64
_cell_length_a 14.608940
_cell_length_b 16.813018
_cell_length_c 11.656085
_cell_angle_alpha 90.000000
_cell_angle_beta 90.000000
_cell_angle_gamma 90.000000
_cell_volume 2862.971924
_symmetry_space_group_name_H-M "P B A M"
_symmetry_group_IT_number 55
_symmetry_cell_setting 'orthorhombic'
loop_
_space_group_symop_operation_xyz
x,y,z
-x,-y,z
1/2+x,1/2-y,-z
1/2-x,1/2+y,-z
-x,-y,-z
x,y,-z
1/2-x,1/2+y,z
1/2+x,1/2-y,z
loop_
_atom_site_type_symbol
_atom_site_label
_atom_site_fract_x
_atom_site_fract_y
_atom_site_fract_z
Si Si1 0.299501 0.541789 0.876458
Si Si2 0.017271 0.656286 0.870177
Si Si3 0.931356 0.824858 0.826880
Si Si4 0.305085 0.680445 0.625739
Si Si5 0.632196 0.039225 0.220745
Si Si6 0.616794 0.894720 0.362418
Si Si7 0.737034 0.642558 0.373592
Si Si8 0.069850 0.938833 0.279993
O O1 0.340933 0.631106 0.877260
O O2 0.193644 0.521362 0.854521
O O3 0.357969 0.496213 0.781955
O O4 0.322902 0.506690 0.000000
O O5 0.965824 0.741540 0.873815
O O6 0.944746 0.584832 0.850470
O O7 0.072011 0.653923 0.746319
O O8 0.059609 0.647476 0.000000
O O9 0.894437 0.810587 0.700008
O O10 0.013595 0.887963 0.814363
O O11 0.337655 0.661974 0.500000
O O12 0.226544 0.616768 0.652355
O O13 0.250963 0.763441 0.629874
O O14 0.699410 0.104581 0.276188
O O15 0.597674 0.985584 0.326677
O O16 0.596379 0.877936 0.500000
O O17 0.766212 0.614040 0.500000
O O18 0.631902 0.618920 0.354692
O O19 0.000000 0.000000 0.339571
#
# Coordination Sequence:
#
# PCOD9427451 Si02
#       8
#     8   8   8   8   8   8   8   8
#     4  10  21  39  65  91 124 169 210 261 321 383
#     4  12  27  43  65  97 133 170 218 273 325 384
#     4  11  21  42  64  91 128 166 215 265 319 387
#     4  10  21  40  65  92 125 169 218 271 323 383
#     4  11  22  41  65  92 129 167 218 263 317 385
#     4  11  25  45  69  96 129 173 222 269 326 391
#     4  10  20  37  61  90 126 164 206 260 319 380
#     4   9  21  36  59  93 127 163 207 259 324 386
#
# _framework density 22.354392000000001
#
# number of rings (size 3 to 8) (size 9 to 14) (size 15 to 20)
#    0.000    1.500    2.500    2.250    0.000    7.000 
#    0.000    0.000    0.000    0.000    0.000    0.000 
#    0.000    0.000    0.000    0.000    0.000    0.000 
#
# Total GULP energy -356516.381389 kJ/mol
# GULP energy per Si atom -5570.568459 kJ/mol
# Density = 2.230351 g / cm^3
# Si number density = 22.354392 Si / 1000 Ang^3
#
#
#
# Elastic Constant Matrix: (Units=GPa)
#
#
# Indices 1 2 3 4 5 6 
#
# 1 51.8946 3.3549 30.1526 0.0000 0.0000 0.0000
# 2 3.3549 67.7201 13.0300 0.0000 0.0000 0.0000
# 3 30.1526 13.0300 108.6414 0.0000 0.0000 0.0000
# 4 0.0000 0.0000 0.0000 4.9065 0.0000 0.0000
# 5 0.0000 0.0000 0.0000 0.0000 -1.7765 0.0000
# 6 0.0000 0.0000 0.0000 0.0000 0.0000 28.4354
#
#
#
# Elastic Compliance Matrix: (Units=1/GPa)
#
#
# Indices 1 2 3 4 5 6 
#
# 1 0.022975 0.000091 -0.006388 0.000000 0.000000 0.000000
# 2 0.000091 0.015116 -0.001838 0.000000 0.000000 0.000000
# 3 -0.006388 -0.001838 0.011198 0.000000 0.000000 0.000000
# 4 0.000000 0.000000 0.000000 0.203812 0.000000 0.000000
# 5 0.000000 0.000000 0.000000 0.000000 -0.562906 0.000000
# 6 0.000000 0.000000 0.000000 0.000000 0.000000 0.035167
#
#
# Mechanical properties :
#
#
# Convention : Reuss Voigt Hill
#
# Bulk Modulus (GPa) = 30.28528 35.70346 32.99437
# Shear Modulus (GPa) = -20.21330 18.42766 -0.89282
#
# Velocity S-wave (km/s) = -3.01029 2.87425 -0.63266
# Velocity P-wave (km/s) = 1.22260 5.19820 3.77598
#
# Compressibility (1/GPa) = 0.03301935
#
# Stress axis : x y z
#
# Youngs Moduli (GPa) = 43.52491 66.15572 89.30279
#
# Poissons Ratio (x) = -0.00601 0.57042
# Poissons Ratio (y) = -0.00395 0.16415
# Poissons Ratio (z) = 0.27802 0.12160
#
# Static dielectric constant tensor:
#      x y z
#    x 1.868040 0.000000 0.000000 
#    y 0.000000 1.849180 0.000000 
#    z 0.000000 0.000000 1.879700 
# 
# From -- ./inp_files/14394.got.cif
#   From: 2010.05.17/outbox.cif.g08.bks.cpg/sg55_8_cif.got.tgz:14394.got - 2010.06.03 13:27:54.
