data_PCOD9427594
_publ_section_title
;
Structure prediction by ZEFSAII (Michael W. Deem and Ramdas Pophale) SiO2 
 PCOD9427594
Probable space group: P B A M
;
_chemical_formula_sum "Si O2"
_cell_formula_units_Z 40
_cell_length_a 12.827417
_cell_length_b 19.131443
_cell_length_c 8.298413
_cell_angle_alpha 90.000000
_cell_angle_beta 90.000000
_cell_angle_gamma 90.000000
_cell_volume 2036.488616
_symmetry_space_group_name_H-M "P B A M"
_symmetry_group_IT_number 55
_symmetry_cell_setting 'orthorhombic'
loop_
_space_group_symop_operation_xyz
x,y,z
-x,-y,z
1/2+x,1/2-y,-z
1/2-x,1/2+y,-z
-x,-y,-z
x,y,-z
1/2-x,1/2+y,z
1/2+x,1/2-y,z
loop_
_atom_site_type_symbol
_atom_site_label
_atom_site_fract_x
_atom_site_fract_y
_atom_site_fract_z
Si Si1 0.108334 0.307508 0.194732
Si Si2 0.043011 0.153448 0.804902
Si Si3 0.448695 0.073588 0.196561
Si Si4 0.313086 0.385402 0.691218
Si Si5 0.216552 0.044163 0.804991
O O1 0.083794 0.229136 0.250038
O O2 0.220407 0.336382 0.245395
O O3 0.019738 0.362055 0.251377
O O4 0.105520 0.307247 0.000000
O O5 0.121049 0.092297 0.749094
O O6 0.925599 0.139714 0.751050
O O7 0.044528 0.153055 0.000000
O O8 0.328438 0.074556 0.247882
O O9 0.500000 0.000000 0.246212
O O10 0.449498 0.074507 0.000000
O O11 0.311213 0.384931 0.500000
O O12 0.294012 0.464399 0.751027
O O13 0.215983 0.044331 0.000000
#
# Coordination Sequence:
#
# PCOD9427594 Si02
#       5
#     8   8   8   8   8
#     4  10  21  39  64  91 120 153 200 256 305 354
#     4  10  23  39  64  92 118 155 204 259 303 350
#     4   9  16  31  59  90 117 147 188 249 304 344
#     4  12  25  40  59  85 125 167 199 239 299 368
#     4  10  20  38  63  91 117 151 205 257 303 352
#
# _framework density 19.641651
#
# number of rings (size 3 to 8) (size 9 to 14) (size 15 to 20)
#    0.000    1.800    2.000    2.400    2.800    4.000 
#    0.000    2.000    0.000    0.000    0.000    0.000 
#    0.000    0.000    0.000    0.000    0.000    0.000 
#
# Total GULP energy -223508.194049 kJ/mol
# GULP energy per Si atom -5587.704851 kJ/mol
# Density = 1.959695 g / cm^3
# Si number density = 19.641651 Si / 1000 Ang^3
#
#
#
# Elastic Constant Matrix: (Units=GPa)
#
#
# Indices 1 2 3 4 5 6 
#
# 1 186.3414 64.3215 10.1490 0.0000 0.0000 0.0000
# 2 64.3215 59.9789 10.1215 0.0000 0.0000 0.0000
# 3 10.1490 10.1215 11.2253 0.0000 0.0000 0.0000
# 4 0.0000 0.0000 0.0000 -9.8297 0.0000 0.0000
# 5 0.0000 0.0000 0.0000 0.0000 -14.2369 0.0000
# 6 0.0000 0.0000 0.0000 0.0000 0.0000 24.6460
#
#
#
# Elastic Compliance Matrix: (Units=1/GPa)
#
#
# Indices 1 2 3 4 5 6 
#
# 1 0.008524 -0.009248 0.000632 0.000000 0.000000 0.000000
# 2 -0.009248 0.029698 -0.018416 0.000000 0.000000 0.000000
# 3 0.000632 -0.018416 0.105118 0.000000 0.000000 0.000000
# 4 0.000000 0.000000 0.000000 -0.101733 0.000000 0.000000
# 5 0.000000 0.000000 0.000000 0.000000 -0.070240 0.000000
# 6 0.000000 0.000000 0.000000 0.000000 0.000000 0.040575
#
#
# Mechanical properties :
#
#
# Convention : Reuss Voigt Hill
#
# Bulk Modulus (GPa) = 11.20131 47.41439 29.30785
# Shear Modulus (GPa) = 52.21060 11.64612 31.92836
#
# Velocity S-wave (km/s) = 5.16133 2.43766 4.03618
# Velocity P-wave (km/s) = 6.42139 5.66701 6.05596
#
# Compressibility (1/GPa) = 0.08927524
#
# Stress axis : x y z
#
# Youngs Moduli (GPa) = 117.31044 33.67221 9.51311
#
# Poissons Ratio (x) = 0.31141 -0.00601
# Poissons Ratio (y) = 1.08491 0.17520
# Poissons Ratio (z) = -0.07411 0.62012
#
# Static dielectric constant tensor:
#      x y z
#    x 1.666320 0.000000 0.000000 
#    y 0.000000 1.668590 0.000000 
#    z 0.000000 0.000000 1.680310 
# 
# From -- ./inp_files/3610.got.cif
#   From: 2010.05.17/outbox.cif.g08.bks.cpg/sg55_2_cif.got.tgz:3610.got - 2010.06.03 13:27:54.
