data_PCOD9427562
_publ_section_title
;
Structure prediction by ZEFSAII (Michael W. Deem and Ramdas Pophale) SiO2 
 PCOD9427562
Probable space group: P B A M
;
_chemical_formula_sum "Si O2"
_cell_formula_units_Z 48
_cell_length_a 10.303101
_cell_length_b 30.507641
_cell_length_c 7.450330
_cell_angle_alpha 90.000000
_cell_angle_beta 90.000000
_cell_angle_gamma 90.000000
_cell_volume 2341.812360
_symmetry_space_group_name_H-M "P B A M"
_symmetry_group_IT_number 55
_symmetry_cell_setting 'orthorhombic'
loop_
_space_group_symop_operation_xyz
x,y,z
-x,-y,z
1/2+x,1/2-y,-z
1/2-x,1/2+y,-z
-x,-y,-z
x,y,-z
1/2-x,1/2+y,z
1/2+x,1/2-y,z
loop_
_atom_site_type_symbol
_atom_site_label
_atom_site_fract_x
_atom_site_fract_y
_atom_site_fract_z
Si Si1 0.001267 0.633085 0.782053
Si Si2 0.937065 0.293952 0.500000
Si Si3 0.353400 0.718430 0.500000
Si Si4 0.212126 0.886330 0.205305
Si Si5 0.731295 0.929698 0.785144
Si Si6 0.564992 0.353221 0.782113
Si Si7 0.363866 0.482403 0.705720
O O1 0.853610 0.624638 0.720797
O O2 0.053532 0.674787 0.674313
O O3 0.094761 0.592240 0.735657
O O4 0.007787 0.638523 0.000000
O O5 0.798318 0.270365 0.500000
O O6 0.054366 0.260109 0.500000
O O7 0.384004 0.688354 0.673606
O O8 0.188757 0.938452 0.206827
O O9 0.081829 0.864110 0.278171
O O10 0.217977 0.871292 0.000000
O O11 0.843863 0.894878 0.736568
O O12 0.764626 0.977290 0.711241
O O13 0.733839 0.934022 0.000000
O O14 0.570189 0.347877 0.000000
O O15 0.500000 0.500000 0.784683
O O16 0.390649 0.470044 0.500000
#
# Coordination Sequence:
#
# PCOD9427562 Si02
#       7
#     8   4   4   8   8   8   8
#     4  10  24  45  68  94 130 172 214 260 321 385
#     4  12  28  46  70  99 128 166 201 267 329 387
#     4  12  28  44  70  99 129 161 208 260 326 392
#     4  10  22  40  63  93 128 173 218 265 314 367
#     4  10  20  38  62  86 124 173 213 257 307 367
#     4  10  22  41  68  94 125 171 214 256 314 379
#     4  11  23  33  54  93 132 168 217 272 311 361
#
# _framework density 20.496943999999999
#
# number of rings (size 3 to 8) (size 9 to 14) (size 15 to 20)
#    0.000    1.500    3.333    0.500    7.000    2.000 
#    0.000    3.333    0.000    0.000    0.000    0.000 
#    0.000    0.000    0.000    0.000    0.000    0.000 
#
# Total GULP energy -268155.875605 kJ/mol
# GULP energy per Si atom -5586.580742 kJ/mol
# Density = 2.045029 g / cm^3
# Si number density = 20.496944 Si / 1000 Ang^3
#
#
#
# Elastic Constant Matrix: (Units=GPa)
#
#
# Indices 1 2 3 4 5 6 
#
# 1 146.9658 11.2052 12.4813 0.0000 0.0000 0.0000
# 2 11.2052 43.4729 3.3093 0.0000 0.0000 0.0000
# 3 12.4813 3.3093 69.0168 0.0000 0.0000 0.0000
# 4 0.0000 0.0000 0.0000 7.2932 0.0000 0.0000
# 5 0.0000 0.0000 0.0000 0.0000 -1.9182 0.0000
# 6 0.0000 0.0000 0.0000 0.0000 0.0000 39.1342
#
#
#
# Elastic Compliance Matrix: (Units=1/GPa)
#
#
# Indices 1 2 3 4 5 6 
#
# 1 0.007037 -0.001723 -0.001190 0.000000 0.000000 0.000000
# 2 -0.001723 0.023509 -0.000816 0.000000 0.000000 0.000000
# 3 -0.001190 -0.000816 0.014744 0.000000 0.000000 0.000000
# 4 0.000000 0.000000 0.000000 0.137113 0.000000 0.000000
# 5 0.000000 0.000000 0.000000 0.000000 -0.521310 0.000000
# 6 0.000000 0.000000 0.000000 0.000000 0.000000 0.025553
#
#
# Mechanical properties :
#
#
# Convention : Reuss Voigt Hill
#
# Bulk Modulus (GPa) = 26.43271 34.82746 30.63009
# Shear Modulus (GPa) = -17.04818 24.39916 3.67549
#
# Velocity S-wave (km/s) = -2.88712 3.45393 1.34055
# Velocity P-wave (km/s) = 1.34534 5.73887 4.16801
#
# Compressibility (1/GPa) = 0.03783192
#
# Stress axis : x y z
#
# Youngs Moduli (GPa) = 142.11126 42.53682 67.82639
#
# Poissons Ratio (x) = 0.07330 0.08071
# Poissons Ratio (y) = 0.24488 0.05532
# Poissons Ratio (z) = 0.16910 0.03469
#
# Static dielectric constant tensor:
#      x y z
#    x 1.753910 0.000000 0.000000 
#    y 0.000000 1.673000 0.000000 
#    z 0.000000 0.000000 1.756620 
# 
# From -- ./inp_files/2932.got.cif
#   From: 2010.05.17/outbox.cif.g08.bks.cpg/sg55_2_cif.got.tgz:2932.got - 2010.06.03 13:27:54.
