data_PCOD9427579
_publ_section_title
;
Structure prediction by ZEFSAII (Michael W. Deem and Ramdas Pophale) SiO2 
 PCOD9427579
Probable space group: P B A M
;
_chemical_formula_sum "Si O2"
_cell_formula_units_Z 40
_cell_length_a 17.963265
_cell_length_b 8.904389
_cell_length_c 12.171467
_cell_angle_alpha 90.000000
_cell_angle_beta 90.000000
_cell_angle_gamma 90.000000
_cell_volume 1946.849264
_symmetry_space_group_name_H-M "P B A M"
_symmetry_group_IT_number 55
_symmetry_cell_setting 'orthorhombic'
loop_
_space_group_symop_operation_xyz
x,y,z
-x,-y,z
1/2+x,1/2-y,-z
1/2-x,1/2+y,-z
-x,-y,-z
x,y,-z
1/2-x,1/2+y,z
1/2+x,1/2-y,z
loop_
_atom_site_type_symbol
_atom_site_label
_atom_site_fract_x
_atom_site_fract_y
_atom_site_fract_z
Si Si1 0.807105 0.212003 0.792762
Si Si2 0.592395 0.869008 0.372475
Si Si3 0.066152 0.338618 0.738732
Si Si4 0.823644 0.536620 0.878143
Si Si5 0.585805 0.449979 0.125666
O O1 0.839951 0.273829 0.678085
O O2 0.805261 0.362617 0.864744
O O3 0.727609 0.131874 0.795453
O O4 0.862714 0.090217 0.844346
O O5 0.580122 0.838556 0.500000
O O6 0.519060 0.827705 0.300553
O O7 0.601079 0.049124 0.353201
O O8 0.090570 0.434490 0.846468
O O9 0.092796 0.175330 0.778794
O O10 0.806091 0.586718 0.000000
O O11 0.500000 0.500000 0.125185
O O12 0.603533 0.398714 0.000000
#
# Coordination Sequence:
#
# PCOD9427579 Si02
#       5
#     8   8   8   8   8
#     4  11  23  42  62  93 130 171 219 264 318 393
#     4  10  22  44  67  90 124 169 221 277 322 363
#     4  10  20  38  62  93 126 164 215 262 316 386
#     4  11  22  37  61  93 132 173 209 257 329 400
#     4  11  21  35  57  91 132 167 204 257 318 387
#
# _framework density 20.546018
#
# number of rings (size 3 to 8) (size 9 to 14) (size 15 to 20)
#    0.000    1.400    2.000    4.800    0.000    0.000 
#    0.000   13.000    0.000    0.000    0.000    0.000 
#    0.000    0.000    0.000    0.000    0.000    0.000 
#
# Total GULP energy -222835.299940 kJ/mol
# GULP energy per Si atom -5570.882499 kJ/mol
# Density = 2.049925 g / cm^3
# Si number density = 20.546018 Si / 1000 Ang^3
#
#
#
# Elastic Constant Matrix: (Units=GPa)
#
#
# Indices 1 2 3 4 5 6 
#
# 1 96.6263 45.0236 53.2072 0.0000 0.0000 0.0000
# 2 45.0236 127.0355 49.8791 0.0000 0.0000 0.0000
# 3 53.2072 49.8791 90.0868 0.0000 0.0000 0.0000
# 4 0.0000 0.0000 0.0000 8.1387 0.0000 0.0000
# 5 0.0000 0.0000 0.0000 0.0000 9.5966 0.0000
# 6 0.0000 0.0000 0.0000 0.0000 0.0000 40.9077
#
#
#
# Elastic Compliance Matrix: (Units=1/GPa)
#
#
# Indices 1 2 3 4 5 6 
#
# 1 0.015933 -0.002494 -0.008029 0.000000 0.000000 0.000000
# 2 -0.002494 0.010449 -0.004312 0.000000 0.000000 0.000000
# 3 -0.008029 -0.004312 0.018230 0.000000 0.000000 0.000000
# 4 0.000000 0.000000 0.000000 0.122870 0.000000 0.000000
# 5 0.000000 0.000000 0.000000 0.000000 0.104204 0.000000
# 6 0.000000 0.000000 0.000000 0.000000 0.000000 0.024445
#
#
# Mechanical properties :
#
#
# Convention : Reuss Voigt Hill
#
# Bulk Modulus (GPa) = 66.93193 67.77428 67.35310
# Shear Modulus (GPa) = 15.11566 22.77117 18.94341
#
# Velocity S-wave (km/s) = 2.71532 3.33273 3.03974
# Velocity P-wave (km/s) = 6.51751 6.91864 6.72107
#
# Compressibility (1/GPa) = 0.01494055
#
# Stress axis : x y z
#
# Youngs Moduli (GPa) = 62.76445 95.70334 54.85421
#
# Poissons Ratio (x) = 0.23871 0.44043
# Poissons Ratio (y) = 0.15655 0.23654
# Poissons Ratio (z) = 0.50394 0.41269
#
# Static dielectric constant tensor:
#      x y z
#    x 1.823390 0.000000 0.000000 
#    y 0.000000 1.763030 0.000000 
#    z 0.000000 0.000000 1.712610 
# 
# From -- ./inp_files/12071.got.cif
#   From: 2010.05.17/outbox.cif.g08.bks.cpg/sg55_7_cif.got.tgz:12071.got - 2010.06.03 13:27:54.
