data_PCOD9427225
_publ_section_title
;
Structure prediction by ZEFSAII (Michael W. Deem and Ramdas Pophale) SiO2 
 PCOD9427225
Probable space group: P B A M
;
_chemical_formula_sum "Si O2"
_cell_formula_units_Z 64
_cell_length_a 21.174839
_cell_length_b 17.355057
_cell_length_c 8.332248
_cell_angle_alpha 90.000000
_cell_angle_beta 90.000000
_cell_angle_gamma 90.000000
_cell_volume 3062.022299
_symmetry_space_group_name_H-M "P B A M"
_symmetry_group_IT_number 55
_symmetry_cell_setting 'orthorhombic'
loop_
_space_group_symop_operation_xyz
x,y,z
-x,-y,z
1/2+x,1/2-y,-z
1/2-x,1/2+y,-z
-x,-y,-z
x,y,-z
1/2-x,1/2+y,z
1/2+x,1/2-y,z
loop_
_atom_site_type_symbol
_atom_site_label
_atom_site_fract_x
_atom_site_fract_y
_atom_site_fract_z
Si Si1 0.616666 0.720820 0.187348
Si Si2 0.987030 0.336186 0.310464
Si Si3 0.102153 0.533132 0.313390
Si Si4 0.385892 0.763836 0.189460
Si Si5 0.849991 0.898352 0.190680
Si Si6 0.705010 0.855138 0.187781
Si Si7 0.669206 0.565393 0.690224
Si Si8 0.188817 0.400380 0.307362
O O1 0.564821 0.769267 0.283882
O O2 0.682110 0.767788 0.211235
O O3 0.627541 0.633389 0.236044
O O4 0.599605 0.725996 0.000000
O O5 0.999535 0.344994 0.500000
O O6 0.956315 0.416510 0.247880
O O7 0.049856 0.308457 0.225261
O O8 0.087015 0.518564 0.500000
O O9 0.161247 0.591690 0.297721
O O10 0.132152 0.455363 0.242812
O O11 0.389905 0.675385 0.247806
O O12 0.329838 0.813513 0.266605
O O13 0.373626 0.760244 0.000000
O O14 0.777743 0.871233 0.216600
O O15 0.856913 0.980851 0.271782
O O16 0.859884 0.909182 0.000000
O O17 0.691556 0.874327 0.000000
O O18 0.671132 0.576833 0.500000
O O19 0.741954 0.573911 0.752000
O O20 0.189161 0.409855 0.500000
#
# Coordination Sequence:
#
# PCOD9427225 Si02
#       8
#     8   8   8   8   8   8   8   8
#     4  10  20  36  59  85 115 150 189 235 285 341
#     4  10  21  39  61  83 113 153 199 243 285 336
#     4   9  18  34  56  83 115 151 186 228 281 335
#     4  11  24  40  58  82 114 154 197 240 288 341
#     4  10  21  37  56  80 113 150 186 231 288 342
#     4   9  17  31  54  82 110 143 183 225 278 338
#     4  11  22  36  58  89 119 148 187 234 285 343
#     4  10  21  37  57  86 121 152 187 231 285 344
#
# _framework density 20.901221
#
# number of rings (size 3 to 8) (size 9 to 14) (size 15 to 20)
#    0.000    2.000    1.250    2.250    0.000    5.000 
#    0.000    3.125    0.000    3.750    0.000    0.000 
#    0.000    0.000    0.000    0.000    0.000    0.000 
#
# Total GULP energy -357293.025737 kJ/mol
# GULP energy per Si atom -5582.703527 kJ/mol
# Density = 2.085365 g / cm^3
# Si number density = 20.901221 Si / 1000 Ang^3
#
#
#
# Elastic Constant Matrix: (Units=GPa)
#
#
# Indices 1 2 3 4 5 6 
#
# 1 36.7485 15.0752 -1.7040 0.0000 0.0000 0.0000
# 2 15.0752 113.4763 4.6552 0.0000 0.0000 0.0000
# 3 -1.7040 4.6552 9.9558 0.0000 0.0000 0.0000
# 4 0.0000 0.0000 0.0000 24.4606 0.0000 0.0000
# 5 0.0000 0.0000 0.0000 0.0000 20.3712 0.0000
# 6 0.0000 0.0000 0.0000 0.0000 0.0000 27.0346
#
#
#
# Elastic Compliance Matrix: (Units=1/GPa)
#
#
# Indices 1 2 3 4 5 6 
#
# 1 0.029245 -0.004171 0.006956 0.000000 0.000000 0.000000
# 2 -0.004171 0.009579 -0.005193 0.000000 0.000000 0.000000
# 3 0.006956 -0.005193 0.104062 0.000000 0.000000 0.000000
# 4 0.000000 0.000000 0.000000 0.040882 0.000000 0.000000
# 5 0.000000 0.000000 0.000000 0.000000 0.049089 0.000000
# 6 0.000000 0.000000 0.000000 0.000000 0.000000 0.036990
#
#
# Mechanical properties :
#
#
# Convention : Reuss Voigt Hill
#
# Bulk Modulus (GPa) = 7.24264 21.80369 14.52317
# Shear Modulus (GPa) = 15.59151 23.85022 19.72086
#
# Velocity S-wave (km/s) = 2.73419 3.38167 3.07502
# Velocity P-wave (km/s) = 3.66612 5.06972 4.42394
#
# Compressibility (1/GPa) = 0.13807116
#
# Stress axis : x y z
#
# Youngs Moduli (GPa) = 34.19340 104.38960 9.60964
#
# Poissons Ratio (x) = 0.43536 -0.06684
# Poissons Ratio (y) = 0.14261 0.04990
# Poissons Ratio (z) = -0.23784 0.54210
#
# Static dielectric constant tensor:
#      x y z
#    x 1.756650 0.000000 0.000000 
#    y 0.000000 1.771270 0.000000 
#    z 0.000000 0.000000 1.727740 
# 
# From -- ./inp_files/6686.got.cif
#   From: 2010.05.17/outbox.cif.g08.bks.cpg/sg55_4_cif.got.tgz:6686.got - 2010.06.03 13:27:54.
