data_PCOD9427709
_publ_section_title
;
Structure prediction by ZEFSAII (Michael W. Deem and Ramdas Pophale) SiO2 
 PCOD9427709
Probable space group: P B A M
;
_chemical_formula_sum "Si O2"
_cell_formula_units_Z 52
_cell_length_a 12.569551
_cell_length_b 27.513185
_cell_length_c 7.289420
_cell_angle_alpha 90.000000
_cell_angle_beta 90.000000
_cell_angle_gamma 90.000000
_cell_volume 2520.888325
_symmetry_space_group_name_H-M "P B A M"
_symmetry_group_IT_number 55
_symmetry_cell_setting 'orthorhombic'
loop_
_space_group_symop_operation_xyz
x,y,z
-x,-y,z
1/2+x,1/2-y,-z
1/2-x,1/2+y,-z
-x,-y,-z
x,y,-z
1/2-x,1/2+y,z
1/2+x,1/2-y,z
loop_
_atom_site_type_symbol
_atom_site_label
_atom_site_fract_x
_atom_site_fract_y
_atom_site_fract_z
Si Si1 0.957607 0.637685 0.000000
Si Si2 0.981940 0.442465 0.279791
Si Si3 0.688502 0.809640 0.000000
Si Si4 0.238000 0.804619 0.000000
Si Si5 0.243829 0.047117 0.279487
Si Si6 0.086975 0.854494 0.279668
Si Si7 0.098201 0.966251 0.276526
Si Si8 0.649932 0.353510 0.718546
O O1 0.955579 0.599468 0.171359
O O2 0.858827 0.675210 0.000000
O O3 0.068278 0.669030 0.000000
O O4 0.995128 0.436564 0.500000
O O5 0.859184 0.436024 0.220298
O O6 0.000000 0.500000 0.240294
O O7 0.754254 0.829079 0.175030
O O8 0.709778 0.752188 0.000000
O O9 0.178418 0.826134 0.177304
O O10 0.250764 0.043865 0.500000
O O11 0.159318 0.089020 0.238252
O O12 0.203682 0.994951 0.216255
O O13 0.096746 0.852054 0.500000
O O14 0.093529 0.910805 0.221051
O O15 0.968095 0.836206 0.231189
O O16 0.095458 0.965715 0.500000
O O17 0.000000 0.000000 0.218802
O O18 0.662560 0.348323 0.500000
#
# Coordination Sequence:
#
# PCOD9427709 Si02
#       8
#     4   8   4   4   8   8   8   8
#     4  12  27  46  66  98 132 174 225 279 322 398
#     4  10  22  41  66  95 134 181 219 261 323 394
#     4  12  27  47  72  87 125 172 219 287 342 375
#     4  12  31  47  65  94 130 171 226 273 337 394
#     4   9  16  30  56  94 130 164 208 249 304 385
#     4  10  22  43  69  96 134 174 212 268 327 386
#     4   9  15  28  56  94 132 167 198 242 310 378
#     4  10  20  40  71 100 124 162 220 275 327 390
#
# _framework density 20.627647
#
# number of rings (size 3 to 8) (size 9 to 14) (size 15 to 20)
#    0.000    1.846    3.077    0.692    4.308    1.231 
#    0.000    1.154    0.000    0.000    0.000    0.000 
#    0.000    0.000    0.000    0.000    0.000    0.000 
#
# Total GULP energy -290242.310545 kJ/mol
# GULP energy per Si atom -5581.582895 kJ/mol
# Density = 2.058070 g / cm^3
# Si number density = 20.627647 Si / 1000 Ang^3
#
#
#
# Elastic Constant Matrix: (Units=GPa)
#
#
# Indices 1 2 3 4 5 6 
#
# 1 120.3266 55.8753 39.6787 0.0000 0.0000 0.0000
# 2 55.8753 136.4153 42.5393 0.0000 0.0000 0.0000
# 3 39.6787 42.5393 99.4968 0.0000 0.0000 0.0000
# 4 0.0000 0.0000 0.0000 18.5448 0.0000 0.0000
# 5 0.0000 0.0000 0.0000 0.0000 23.8477 0.0000
# 6 0.0000 0.0000 0.0000 0.0000 0.0000 23.6369
#
#
#
# Elastic Compliance Matrix: (Units=1/GPa)
#
#
# Indices 1 2 3 4 5 6 
#
# 1 0.010906 -0.003589 -0.002815 0.000000 0.000000 0.000000
# 2 -0.003589 0.009640 -0.002690 0.000000 0.000000 0.000000
# 3 -0.002815 -0.002690 0.012323 0.000000 0.000000 0.000000
# 4 0.000000 0.000000 0.000000 0.053923 0.000000 0.000000
# 5 0.000000 0.000000 0.000000 0.000000 0.041933 0.000000
# 6 0.000000 0.000000 0.000000 0.000000 0.000000 0.042307
#
#
# Mechanical properties :
#
#
# Convention : Reuss Voigt Hill
#
# Bulk Modulus (GPa) = 68.11646 70.26948 69.19297
# Shear Modulus (GPa) = 25.75833 27.74891 26.75362
#
# Velocity S-wave (km/s) = 3.53757 3.67172 3.60527
# Velocity P-wave (km/s) = 7.05546 7.21907 7.13773
#
# Compressibility (1/GPa) = 0.01468074
#
# Stress axis : x y z
#
# Youngs Moduli (GPa) = 91.69677 103.73970 81.14860
#
# Poissons Ratio (x) = 0.37234 0.22839
# Poissons Ratio (y) = 0.32912 0.21829
# Poissons Ratio (z) = 0.25808 0.27906
#
# Static dielectric constant tensor:
#      x y z
#    x 1.757580 0.000000 0.000000 
#    y 0.000000 1.738120 0.000000 
#    z 0.000000 0.000000 1.773960 
# 
# From -- ./inp_files/4281.got.cif
#   From: 2010.05.17/outbox.cif.g08.bks.cpg/sg55_3_cif.got.tgz:4281.got - 2010.06.03 13:27:54.
