data_PCOD9427167
_publ_section_title
;
Structure prediction by ZEFSAII (Michael W. Deem and Ramdas Pophale) SiO2 
 PCOD9427167
Probable space group: P B A M
;
_chemical_formula_sum "Si O2"
_cell_formula_units_Z 64
_cell_length_a 7.844080
_cell_length_b 14.697648
_cell_length_c 23.528892
_cell_angle_alpha 90.000000
_cell_angle_beta 90.000000
_cell_angle_gamma 90.000000
_cell_volume 2712.634823
_symmetry_space_group_name_H-M "P B A M"
_symmetry_group_IT_number 55
_symmetry_cell_setting 'orthorhombic'
loop_
_space_group_symop_operation_xyz
x,y,z
-x,-y,z
1/2+x,1/2-y,-z
1/2-x,1/2+y,-z
-x,-y,-z
x,y,-z
1/2-x,1/2+y,z
1/2+x,1/2-y,z
loop_
_atom_site_type_symbol
_atom_site_label
_atom_site_fract_x
_atom_site_fract_y
_atom_site_fract_z
Si Si1 0.850854 0.383761 0.369757
Si Si2 0.182892 0.947151 0.935063
Si Si3 0.189548 0.955256 0.564090
Si Si4 0.655814 0.875156 0.069123
Si Si5 0.970058 0.197291 0.637567
Si Si6 0.515540 0.897336 0.242986
Si Si7 0.498946 0.709013 0.119045
Si Si8 0.164580 0.782819 0.765838
O O1 0.816390 0.470623 0.408984
O O2 0.660278 0.342244 0.361360
O O3 0.957983 0.296754 0.391127
O O4 0.936743 0.407892 0.309745
O O5 0.149541 0.851247 0.907675
O O6 0.318286 0.020133 0.913300
O O7 0.228755 0.930562 0.000000
O O8 0.000000 0.000000 0.933533
O O9 0.239648 0.930464 0.500000
O O10 0.156686 0.870470 0.605146
O O11 0.000000 0.000000 0.561235
O O12 0.518308 0.813855 0.100922
O O13 0.829714 0.828243 0.090526
O O14 0.642057 0.870161 0.000000
O O15 0.910245 0.206022 0.702763
O O16 0.663906 0.826940 0.223208
O O17 0.338328 0.841525 0.233320
O O18 0.500000 0.000000 0.219972
O O19 0.533160 0.688276 0.185077
#
# Coordination Sequence:
#
# PCOD9427167 Si02
#       8
#     8   8   8   8   8   8   8   8
#     4  10  20  36  61  85 112 156 204 248 308 378
#     4   8  16  33  55  78 106 144 187 232 289 358
#     4   9  19  36  58  87 120 154 199 252 308 377
#     4  10  20  36  58  82 112 150 194 245 303 366
#     4  10  20  37  59  85 120 160 202 255 313 370
#     4  11  23  41  63  86 124 168 208 264 324 379
#     4  11  21  36  57  83 114 150 195 246 301 363
#     4  11  23  39  59  89 125 162 213 263 315 393
#
# _framework density 23.593298999999998
#
# number of rings (size 3 to 8) (size 9 to 14) (size 15 to 20)
#    0.000    2.000    0.000    6.375    0.000    1.500 
#    0.000   11.875    0.000   10.875    0.000    0.000 
#    0.000    0.000    0.000    0.000    0.000    0.000 
#
# Total GULP energy -357361.425192 kJ/mol
# GULP energy per Si atom -5583.772269 kJ/mol
# Density = 2.353960 g / cm^3
# Si number density = 23.593299 Si / 1000 Ang^3
#
#
#
# Elastic Constant Matrix: (Units=GPa)
#
#
# Indices 1 2 3 4 5 6 
#
# 1 137.7539 44.3439 21.1021 0.0000 0.0000 0.0000
# 2 44.3439 106.3952 6.3813 0.0000 0.0000 0.0000
# 3 21.1021 6.3813 81.6595 0.0000 0.0000 0.0000
# 4 0.0000 0.0000 0.0000 29.4072 0.0000 0.0000
# 5 0.0000 0.0000 0.0000 0.0000 -6.3433 0.0000
# 6 0.0000 0.0000 0.0000 0.0000 0.0000 38.4638
#
#
#
# Elastic Compliance Matrix: (Units=1/GPa)
#
#
# Indices 1 2 3 4 5 6 
#
# 1 0.008689 -0.003503 -0.001972 0.000000 0.000000 0.000000
# 2 -0.003503 0.010856 0.000057 0.000000 0.000000 0.000000
# 3 -0.001972 0.000057 0.012751 0.000000 0.000000 0.000000
# 4 0.000000 0.000000 0.000000 0.034005 0.000000 0.000000
# 5 0.000000 0.000000 0.000000 0.000000 -0.157645 0.000000
# 6 0.000000 0.000000 0.000000 0.000000 0.000000 0.025998
#
#
# Mechanical properties :
#
#
# Convention : Reuss Voigt Hill
#
# Bulk Modulus (GPa) = 46.59850 52.16258 49.38054
# Shear Modulus (GPa) = -105.58097 29.23762 -38.17167
#
# Velocity S-wave (km/s) = -6.69683 3.52409 -4.02668
# Velocity P-wave (km/s) = 6.32480 6.22222 0.80221
#
# Compressibility (1/GPa) = 0.02145992
#
# Stress axis : x y z
#
# Youngs Moduli (GPa) = 115.08729 92.11851 78.42515
#
# Poissons Ratio (x) = 0.32271 0.15462
# Poissons Ratio (y) = 0.40317 -0.00447
# Poissons Ratio (z) = 0.22691 -0.00525
#
# Static dielectric constant tensor:
#      x y z
#    x 2.008400 0.000000 0.000000 
#    y 0.000000 1.926240 0.000000 
#    z 0.000000 0.000000 1.906770 
# 
# From -- ./inp_files/23476.got.cif
#   From: 2010.05.17/outbox.cif.g08.bks.cpg/sg55_12_cif.got.tgz:23476.got - 2010.06.03 13:27:54.
