data_PCOD9427293
_publ_section_title
;
Structure prediction by ZEFSAII (Michael W. Deem and Ramdas Pophale) SiO2 
 PCOD9427293
Probable space group: P B A M
;
_chemical_formula_sum "Si O2"
_cell_formula_units_Z 48
_cell_length_a 12.091926
_cell_length_b 23.283738
_cell_length_c 8.718250
_cell_angle_alpha 90.000000
_cell_angle_beta 90.000000
_cell_angle_gamma 90.000000
_cell_volume 2454.581762
_symmetry_space_group_name_H-M "P B A M"
_symmetry_group_IT_number 55
_symmetry_cell_setting 'orthorhombic'
loop_
_space_group_symop_operation_xyz
x,y,z
-x,-y,z
1/2+x,1/2-y,-z
1/2-x,1/2+y,-z
-x,-y,-z
x,y,-z
1/2-x,1/2+y,z
1/2+x,1/2-y,z
loop_
_atom_site_type_symbol
_atom_site_label
_atom_site_fract_x
_atom_site_fract_y
_atom_site_fract_z
Si Si1 0.581550 0.952244 0.324557
Si Si2 0.425383 0.841400 0.325978
Si Si3 0.132094 0.724309 0.684195
Si Si4 0.729963 0.381605 0.816885
Si Si5 0.307070 0.347446 0.182400
Si Si6 0.003371 0.933715 0.187030
O O1 0.611335 0.969392 0.500000
O O2 0.506826 0.895491 0.333736
O O3 0.689515 0.933991 0.232096
O O4 0.500000 0.000000 0.257188
O O5 0.388746 0.827176 0.500000
O O6 0.506927 0.791930 0.265069
O O7 0.320060 0.856543 0.226378
O O8 0.133199 0.720971 0.500000
O O9 0.218182 0.676416 0.745770
O O10 0.160402 0.787218 0.741522
O O11 0.606349 0.398431 0.766412
O O12 0.731239 0.375442 0.000000
O O13 0.387554 0.398799 0.235136
O O14 0.318776 0.342286 0.000000
O O15 0.002812 0.935253 0.000000
O O16 0.000000 0.000000 0.239379
#
# Coordination Sequence:
#
# PCOD9427293 Si02
#       6
#     8   8   8   8   8   8
#     4   9  19  36  58  83 116 154 190 236 292 344
#     4   9  20  38  57  82 115 151 190 236 290 348
#     4  10  22  41  62  85 118 155 192 241 303 357
#     4  10  20  36  61  89 116 150 198 245 291 350
#     4  11  23  37  61  89 117 153 195 245 293 349
#     4   9  21  40  58  84 124 161 192 237 298 352
#
# _framework density 19.555264999999999
#
# number of rings (size 3 to 8) (size 9 to 14) (size 15 to 20)
#    0.000    2.333    0.000    2.500    4.667    3.667 
#    0.000    2.500    0.000    4.000    0.000    0.000 
#    0.000    0.000    0.000    0.000    0.000    0.000 
#
# Total GULP energy -267797.605529 kJ/mol
# GULP energy per Si atom -5579.116782 kJ/mol
# Density = 1.951076 g / cm^3
# Si number density = 19.555265 Si / 1000 Ang^3
#
#
#
# Elastic Constant Matrix: (Units=GPa)
#
#
# Indices 1 2 3 4 5 6 
#
# 1 124.3316 32.1863 30.7453 0.0000 0.0000 0.0000
# 2 32.1863 63.3465 14.1771 0.0000 0.0000 0.0000
# 3 30.7453 14.1771 40.1668 0.0000 0.0000 0.0000
# 4 0.0000 0.0000 0.0000 22.5491 0.0000 0.0000
# 5 0.0000 0.0000 0.0000 0.0000 18.7895 0.0000
# 6 0.0000 0.0000 0.0000 0.0000 0.0000 9.8638
#
#
#
# Elastic Compliance Matrix: (Units=1/GPa)
#
#
# Indices 1 2 3 4 5 6 
#
# 1 0.010753 -0.003932 -0.006843 0.000000 0.000000 0.000000
# 2 -0.003932 0.018578 -0.003547 0.000000 0.000000 0.000000
# 3 -0.006843 -0.003547 0.031386 0.000000 0.000000 0.000000
# 4 0.000000 0.000000 0.000000 0.044348 0.000000 0.000000
# 5 0.000000 0.000000 0.000000 0.000000 0.053221 0.000000
# 6 0.000000 0.000000 0.000000 0.000000 0.000000 0.101381
#
#
# Mechanical properties :
#
#
# Convention : Reuss Voigt Hill
#
# Bulk Modulus (GPa) = 31.17960 42.45135 36.81547
# Shear Modulus (GPa) = 16.72224 20.28954 18.50589
#
# Velocity S-wave (km/s) = 2.92743 3.22459 3.07960
# Velocity P-wave (km/s) = 5.23502 5.96821 5.61360
#
# Compressibility (1/GPa) = 0.03207226
#
# Stress axis : x y z
#
# Youngs Moduli (GPa) = 92.99627 53.82695 31.86119
#
# Poissons Ratio (x) = 0.21166 0.21803
# Poissons Ratio (y) = 0.36568 0.11302
# Poissons Ratio (z) = 0.63637 0.19094
#
# Static dielectric constant tensor:
#      x y z
#    x 1.689660 0.000000 0.000000 
#    y 0.000000 1.697980 0.000000 
#    z 0.000000 0.000000 1.676960 
# 
# From -- ./inp_files/4066.got.cif
#   From: 2010.05.17/outbox.cif.g08.bks.cpg/sg55_3_cif.got.tgz:4066.got - 2010.06.03 13:27:54.
