data_PCOD9427535
_publ_section_title
;
Structure prediction by ZEFSAII (Michael W. Deem and Ramdas Pophale) SiO2 
 PCOD9427535
Probable space group: P B A M
;
_chemical_formula_sum "Si O2"
_cell_formula_units_Z 56
_cell_length_a 14.748920
_cell_length_b 21.834879
_cell_length_c 7.604721
_cell_angle_alpha 90.000000
_cell_angle_beta 90.000000
_cell_angle_gamma 90.000000
_cell_volume 2449.031070
_symmetry_space_group_name_H-M "P B A M"
_symmetry_group_IT_number 55
_symmetry_cell_setting 'orthorhombic'
loop_
_space_group_symop_operation_xyz
x,y,z
-x,-y,z
1/2+x,1/2-y,-z
1/2-x,1/2+y,-z
-x,-y,-z
x,y,-z
1/2-x,1/2+y,z
1/2+x,1/2-y,z
loop_
_atom_site_type_symbol
_atom_site_label
_atom_site_fract_x
_atom_site_fract_y
_atom_site_fract_z
Si Si1 0.583909 0.892987 0.294512
Si Si2 0.908933 0.759214 0.205652
Si Si3 0.614738 0.124457 0.799198
Si Si4 0.712273 0.785182 0.707659
Si Si5 0.088797 0.826644 0.212210
Si Si6 0.591275 0.532971 0.214917
Si Si7 0.287633 0.994715 0.786356
O O1 0.563542 0.882542 0.500000
O O2 0.487962 0.900365 0.201036
O O3 0.639634 0.834519 0.223602
O O4 0.647394 0.951810 0.277617
O O5 0.892285 0.691693 0.284465
O O6 0.812872 0.793030 0.217829
O O7 0.995451 0.795240 0.278298
O O8 0.930544 0.749490 0.000000
O O9 0.677077 0.071446 0.722203
O O10 0.647808 0.133351 0.000000
O O11 0.719272 0.794881 0.500000
O O12 0.671755 0.717854 0.741248
O O13 0.096388 0.896409 0.273374
O O14 0.085366 0.829314 0.000000
O O15 0.500000 0.500000 0.274703
O O16 0.683191 0.498366 0.266205
O O17 0.589584 0.533430 0.000000
O O18 0.292691 0.994803 0.000000
#
# Coordination Sequence:
#
# PCOD9427535 Si02
#       7
#     8   8   8   8   8   8   8
#     4  11  24  39  56  83 118 156 197 240 287 348
#     4  10  21  36  62  92 116 147 193 244 291 347
#     4  10  20  38  60  89 118 148 190 243 300 346
#     4  11  24  39  57  84 121 160 194 239 295 349
#     4  10  20  38  64  91 116 149 195 244 289 344
#     4   9  19  36  60  90 120 149 189 241 293 344
#     4  10  21  36  59  85 116 153 191 241 293 346
#
# _framework density 22.866187
#
# number of rings (size 3 to 8) (size 9 to 14) (size 15 to 20)
#    0.000    1.857    1.429    2.143    2.000    7.429 
#    0.000    2.143    0.000    0.857    0.000    0.000 
#    0.000    0.000    0.000    0.000    0.000    0.000 
#
# Total GULP energy -313107.288507 kJ/mol
# GULP energy per Si atom -5591.201580 kJ/mol
# Density = 2.281414 g / cm^3
# Si number density = 22.866187 Si / 1000 Ang^3
#
#
#
# Elastic Constant Matrix: (Units=GPa)
#
#
# Indices 1 2 3 4 5 6 
#
# 1 109.4873 -4.2473 -8.8379 0.0000 0.0000 0.0000
# 2 -4.2473 45.6028 -2.2924 0.0000 0.0000 0.0000
# 3 -8.8379 -2.2924 51.4783 0.0000 0.0000 0.0000
# 4 0.0000 0.0000 0.0000 -31.4766 0.0000 0.0000
# 5 0.0000 0.0000 0.0000 0.0000 29.4483 0.0000
# 6 0.0000 0.0000 0.0000 0.0000 0.0000 29.8110
#
#
#
# Elastic Compliance Matrix: (Units=1/GPa)
#
#
# Indices 1 2 3 4 5 6 
#
# 1 0.009303 0.000949 0.001639 0.000000 0.000000 0.000000
# 2 0.000949 0.022074 0.001146 0.000000 0.000000 0.000000
# 3 0.001639 0.001146 0.019758 0.000000 0.000000 0.000000
# 4 0.000000 0.000000 0.000000 -0.031770 0.000000 0.000000
# 5 0.000000 0.000000 0.000000 0.000000 0.033958 0.000000
# 6 0.000000 0.000000 0.000000 0.000000 0.000000 0.033545
#
#
# Mechanical properties :
#
#
# Convention : Reuss Voigt Hill
#
# Bulk Modulus (GPa) = 17.06388 19.53481 18.29934
# Shear Modulus (GPa) = 50.53856 20.35294 35.44575
#
# Velocity S-wave (km/s) = 4.70636 2.98667 3.94145
# Velocity P-wave (km/s) = 6.08374 4.52275 5.36037
#
# Compressibility (1/GPa) = 0.05860333
#
# Stress axis : x y z
#
# Youngs Moduli (GPa) = 107.49669 45.30120 50.61206
#
# Poissons Ratio (x) = -0.04298 -0.08297
# Poissons Ratio (y) = -0.10200 -0.05800
# Poissons Ratio (z) = -0.17622 -0.05191
#
# Static dielectric constant tensor:
#      x y z
#    x 1.818860 0.000000 0.000000 
#    y 0.000000 1.840350 0.000000 
#    z 0.000000 0.000000 1.883330 
# 
# From -- ./inp_files/6009.got.cif
#   From: 2010.05.17/outbox.cif.g08.bks.cpg/sg55_4_cif.got.tgz:6009.got - 2010.06.03 13:27:54.
