data_PCOD9427677
_publ_section_title
;
Structure prediction by ZEFSAII (Michael W. Deem and Ramdas Pophale) SiO2 
 PCOD9427677
Probable space group: P B A M
;
_chemical_formula_sum "Si O2"
_cell_formula_units_Z 32
_cell_length_a 8.511576
_cell_length_b 14.212968
_cell_length_c 11.054322
_cell_angle_alpha 90.000000
_cell_angle_beta 90.000000
_cell_angle_gamma 90.000000
_cell_volume 1337.293921
_symmetry_space_group_name_H-M "P B A M"
_symmetry_group_IT_number 55
_symmetry_cell_setting 'orthorhombic'
loop_
_space_group_symop_operation_xyz
x,y,z
-x,-y,z
1/2+x,1/2-y,-z
1/2-x,1/2+y,-z
-x,-y,-z
x,y,-z
1/2-x,1/2+y,z
1/2+x,1/2-y,z
loop_
_atom_site_type_symbol
_atom_site_label
_atom_site_fract_x
_atom_site_fract_y
_atom_site_fract_z
Si Si1 0.703452 0.648640 0.865433
Si Si2 0.021314 0.883229 0.500000
Si Si3 0.679046 0.967590 0.228300
Si Si4 0.883454 0.799213 0.251300
Si Si5 0.684282 0.026051 0.500000
O O1 0.715619 0.536977 0.850446
O O2 0.528300 0.679837 0.835914
O O3 0.822914 0.693650 0.767232
O O4 0.751391 0.677026 0.000000
O O5 0.212473 0.877796 0.500000
O O6 0.947706 0.832163 0.382673
O O7 0.000000 0.000000 0.500000
O O8 0.723142 0.985150 0.368310
O O9 0.500000 0.000000 0.207364
O O10 0.732410 0.861022 0.210838
O O11 0.500000 0.000000 0.500000
#
# Coordination Sequence:
#
# PCOD9427677 Si02
#       5
#     8   4   8   8   4
#     4  12  27  45  66  98 142 190 248 300 350 434
#     4  12  20  43  72 107 141 176 229 295 361 442
#     4  11  23  43  72 102 139 187 236 298 371 436
#     4  12  25  44  71 103 141 189 239 305 372 432
#     4  10  20  39  70 107 143 173 223 292 366 440
#
# _framework density 23.928922
#
# number of rings (size 3 to 8) (size 9 to 14) (size 15 to 20)
#    0.000    0.500    5.000    3.000    0.000    5.500 
#    0.000    2.500    0.000    0.000    0.000    0.000 
#    0.000    0.000    0.000    0.000    0.000    0.000 
#
# Total GULP energy -178553.138278 kJ/mol
# GULP energy per Si atom -5579.785571 kJ/mol
# Density = 2.387446 g / cm^3
# Si number density = 23.928922 Si / 1000 Ang^3
#
#
#
# Elastic Constant Matrix: (Units=GPa)
#
#
# Indices 1 2 3 4 5 6 
#
# 1 110.4383 4.1730 22.5729 0.0000 0.0000 0.0000
# 2 4.1730 67.0992 27.3909 0.0000 0.0000 0.0000
# 3 22.5729 27.3909 109.5810 0.0000 0.0000 0.0000
# 4 0.0000 0.0000 0.0000 5.3392 0.0000 0.0000
# 5 0.0000 0.0000 0.0000 0.0000 7.9581 0.0000
# 6 0.0000 0.0000 0.0000 0.0000 0.0000 41.5489
#
#
#
# Elastic Compliance Matrix: (Units=1/GPa)
#
#
# Indices 1 2 3 4 5 6 
#
# 1 0.009456 0.000231 -0.002006 0.000000 0.000000 0.000000
# 2 0.000231 0.016602 -0.004197 0.000000 0.000000 0.000000
# 3 -0.002006 -0.004197 0.010588 0.000000 0.000000 0.000000
# 4 0.000000 0.000000 0.000000 0.187295 0.000000 0.000000
# 5 0.000000 0.000000 0.000000 0.000000 0.125658 0.000000
# 6 0.000000 0.000000 0.000000 0.000000 0.000000 0.024068
#
#
# Mechanical properties :
#
#
# Convention : Reuss Voigt Hill
#
# Bulk Modulus (GPa) = 40.48304 43.93247 42.20775
# Shear Modulus (GPa) = 12.69530 26.50135 19.59833
#
# Velocity S-wave (km/s) = 2.30585 3.33153 2.86496
# Velocity P-wave (km/s) = 4.90347 5.76179 5.34987
#
# Compressibility (1/GPa) = 0.02470170
#
# Stress axis : x y z
#
# Youngs Moduli (GPa) = 105.75263 60.23218 94.44671
#
# Poissons Ratio (x) = -0.01389 0.18941
# Poissons Ratio (y) = -0.02439 0.39643
# Poissons Ratio (z) = 0.21209 0.25282
#
# Static dielectric constant tensor:
#      x y z
#    x 2.006110 0.000000 0.000000 
#    y 0.000000 1.736260 0.000000 
#    z 0.000000 0.000000 1.881940 
# 
# From -- ./inp_files/11657.got.cif
#   From: 2010.05.17/outbox.cif.g08.bks.cpg/sg55_6_cif.got.tgz:11657.got - 2010.06.03 13:27:54.
