data_PCOD9427681
_publ_section_title
;
Structure prediction by ZEFSAII (Michael W. Deem and Ramdas Pophale) SiO2 
 PCOD9427681
Probable space group: P B A M
;
_chemical_formula_sum "Si O2"
_cell_formula_units_Z 64
_cell_length_a 19.314935
_cell_length_b 14.369051
_cell_length_c 11.808226
_cell_angle_alpha 90.000000
_cell_angle_beta 90.000000
_cell_angle_gamma 90.000000
_cell_volume 3277.222997
_symmetry_space_group_name_H-M "P B A M"
_symmetry_group_IT_number 55
_symmetry_cell_setting 'orthorhombic'
loop_
_space_group_symop_operation_xyz
x,y,z
-x,-y,z
1/2+x,1/2-y,-z
1/2-x,1/2+y,-z
-x,-y,-z
x,y,-z
1/2-x,1/2+y,z
1/2+x,1/2-y,z
loop_
_atom_site_type_symbol
_atom_site_label
_atom_site_fract_x
_atom_site_fract_y
_atom_site_fract_z
Si Si1 0.696937 0.322716 0.267773
Si Si2 0.567834 0.399892 0.375641
Si Si3 0.012835 0.610799 0.371391
Si Si4 0.539765 0.097759 0.127883
Si Si5 0.821032 0.011903 0.867332
Si Si6 0.575781 0.601279 0.718351
Si Si7 0.194011 0.364976 0.868780
Si Si8 0.346621 0.215273 0.631124
O O1 0.636503 0.339698 0.359054
O O2 0.685960 0.411487 0.187808
O O3 0.684072 0.228368 0.200685
O O4 0.775221 0.316398 0.312334
O O5 0.538125 0.383632 0.500000
O O6 0.506062 0.379064 0.287684
O O7 0.585609 0.509608 0.361175
O O8 0.990798 0.645183 0.500000
O O9 0.093584 0.637259 0.362143
O O10 0.000000 0.500000 0.373534
O O11 0.980654 0.644178 0.249761
O O12 0.621819 0.080662 0.134321
O O13 0.500000 0.000000 0.125661
O O14 0.527519 0.141594 0.000000
O O15 0.892110 0.063040 0.834388
O O16 0.757786 0.075273 0.823354
O O17 0.813824 0.002920 0.000000
O O18 0.619020 0.691263 0.681964
O O19 0.209010 0.341582 0.000000
O O20 0.331890 0.233997 0.500000
#
# Coordination Sequence:
#
# PCOD9427681 Si02
#       8
#     8   8   8   8   8   8   8   8
#     4  11  23  38  61  91 125 162 207 256 314 381
#     4  10  21  39  63  88 120 162 208 259 320 373
#     4   9  20  37  57  84 126 166 199 247 308 367
#     4   9  19  36  60  86 118 162 210 253 301 371
#     4  10  22  41  64  90 120 163 208 260 320 374
#     4  10  20  40  63  86 116 159 209 263 309 371
#     4  10  21  40  60  85 125 161 203 259 310 375
#     4  11  22  38  61  91 128 166 210 259 311 382
#
# _framework density 19.528728999999998
#
# number of rings (size 3 to 8) (size 9 to 14) (size 15 to 20)
#    0.000    2.000    1.250    2.250    5.250    0.000 
#    0.000    7.500    0.000    0.000    0.000    0.000 
#    0.000    0.000    0.000    0.000    0.000    0.000 
#
# Total GULP energy -356505.999138 kJ/mol
# GULP energy per Si atom -5570.406237 kJ/mol
# Density = 1.948428 g / cm^3
# Si number density = 19.528729 Si / 1000 Ang^3
#
#
#
# Elastic Constant Matrix: (Units=GPa)
#
#
# Indices 1 2 3 4 5 6 
#
# 1 107.4280 31.6605 24.7997 0.0000 0.0000 0.0000
# 2 31.6605 79.0553 12.2188 0.0000 0.0000 0.0000
# 3 24.7997 12.2188 86.9590 0.0000 0.0000 0.0000
# 4 0.0000 0.0000 0.0000 10.5652 0.0000 0.0000
# 5 0.0000 0.0000 0.0000 0.0000 28.4359 0.0000
# 6 0.0000 0.0000 0.0000 0.0000 0.0000 29.4174
#
#
#
# Elastic Compliance Matrix: (Units=1/GPa)
#
#
# Indices 1 2 3 4 5 6 
#
# 1 0.011100 -0.004044 -0.002597 0.000000 0.000000 0.000000
# 2 -0.004044 0.014403 -0.000871 0.000000 0.000000 0.000000
# 3 -0.002597 -0.000871 0.012363 0.000000 0.000000 0.000000
# 4 0.000000 0.000000 0.000000 0.094651 0.000000 0.000000
# 5 0.000000 0.000000 0.000000 0.000000 0.035167 0.000000
# 6 0.000000 0.000000 0.000000 0.000000 0.000000 0.033993
#
#
# Mechanical properties :
#
#
# Convention : Reuss Voigt Hill
#
# Bulk Modulus (GPa) = 43.77817 45.64447 44.71132
# Shear Modulus (GPa) = 22.29008 27.33458 24.81233
#
# Velocity S-wave (km/s) = 3.38213 3.74533 3.56835
# Velocity P-wave (km/s) = 6.14147 6.49054 6.31842
#
# Compressibility (1/GPa) = 0.02284243
#
# Stress axis : x y z
#
# Youngs Moduli (GPa) = 90.09047 69.42772 80.88831
#
# Poissons Ratio (x) = 0.28076 0.21010
# Poissons Ratio (y) = 0.36432 0.07042
# Poissons Ratio (z) = 0.23400 0.06044
#
# Static dielectric constant tensor:
#      x y z
#    x 1.705920 0.000000 0.000000 
#    y 0.000000 1.671850 0.000000 
#    z 0.000000 0.000000 1.708070 
# 
# From -- ./inp_files/14992.got.cif
#   From: 2010.05.17/outbox.cif.g08.bks.cpg/sg55_8_cif.got.tgz:14992.got - 2010.06.03 13:27:54.
