data_PCOD9427258
_publ_section_title
;
Structure prediction by ZEFSAII (Michael W. Deem and Ramdas Pophale) SiO2 
 PCOD9427258
Probable space group: P B A M
;
_chemical_formula_sum "Si O2"
_cell_formula_units_Z 58
_cell_length_a 14.311266
_cell_length_b 19.138530
_cell_length_c 9.523639
_cell_angle_alpha 90.000000
_cell_angle_beta 90.000000
_cell_angle_gamma 90.000000
_cell_volume 2608.492282
_symmetry_space_group_name_H-M "P B A M"
_symmetry_group_IT_number 55
_symmetry_cell_setting 'orthorhombic'
loop_
_space_group_symop_operation_xyz
x,y,z
-x,-y,z
1/2+x,1/2-y,-z
1/2-x,1/2+y,-z
-x,-y,-z
x,y,-z
1/2-x,1/2+y,z
1/2+x,1/2-y,z
loop_
_atom_site_type_symbol
_atom_site_label
_atom_site_fract_x
_atom_site_fract_y
_atom_site_fract_z
Si Si1 0.402982 0.151210 0.838580
Si Si2 0.061518 0.850037 0.659672
Si Si3 0.791779 0.788652 0.168024
Si Si4 0.000000 0.000000 0.000000
Si Si5 0.230856 0.936137 0.338545
Si Si6 0.611171 0.434110 0.258130
Si Si7 0.893603 0.507364 0.162024
Si Si8 0.554918 0.215567 0.669400
O O1 0.318600 0.203844 0.803177
O O2 0.360201 0.073290 0.835909
O O3 0.491153 0.155422 0.735450
O O4 0.433244 0.164208 0.000000
O O5 0.085647 0.832327 0.500000
O O6 0.008573 0.782631 0.716958
O O7 0.981803 0.909469 0.660445
O O8 0.155614 0.881331 0.724695
O O9 0.835769 0.862736 0.216828
O O10 0.845995 0.729754 0.256949
O O11 0.805064 0.779958 0.000000
O O12 0.072034 0.028565 0.120729
O O13 0.252243 0.918423 0.500000
O O14 0.177011 0.010678 0.335266
O O15 0.324547 0.945796 0.251309
O O16 0.000000 0.500000 0.211355
O O17 0.895672 0.531372 0.000000
O O18 0.562660 0.213295 0.500000
#
# Coordination Sequence:
#
# PCOD9427258 Si02
#       8
#     8   8   8   2   8   8   8   8
#     4  10  21  41  65  87 116 155 199 248 298 351
#     4   9  19  35  52  79 121 155 183 230 290 352
#     4  10  20  36  60  85 115 152 197 247 294 354
#     4  12  20  24  50  88 122 156 182 236 278 352
#     4  11  21  34  57  85 119 159 192 236 292 355
#     4  11  19  30  51  87 121 151 192 229 288 347
#     4  10  23  43  65  87 116 152 200 253 300 352
#     4  10  22  39  59  86 121 157 199 248 297 356
#
# _framework density 22.235067000000001
#
# number of rings (size 3 to 8) (size 9 to 14) (size 15 to 20)
#    0.000    1.793    3.448    0.828    0.966    3.034 
#    2.483    0.000    0.000    0.000    0.000    0.000 
#    0.000    0.000    0.000    0.000    0.000    0.000 
#
# Total GULP energy -323283.874725 kJ/mol
# GULP energy per Si atom -5573.859909 kJ/mol
# Density = 2.218446 g / cm^3
# Si number density = 22.235067 Si / 1000 Ang^3
#
#
#
# Elastic Constant Matrix: (Units=GPa)
#
#
# Indices 1 2 3 4 5 6 
#
# 1 134.7721 16.7637 39.2764 0.0000 0.0000 0.0000
# 2 16.7637 43.8841 7.3024 0.0000 0.0000 0.0000
# 3 39.2764 7.3024 64.3454 0.0000 0.0000 0.0000
# 4 0.0000 0.0000 0.0000 20.4964 0.0000 0.0000
# 5 0.0000 0.0000 0.0000 0.0000 65.4907 0.0000
# 6 0.0000 0.0000 0.0000 0.0000 0.0000 41.4261
#
#
#
# Elastic Compliance Matrix: (Units=1/GPa)
#
#
# Indices 1 2 3 4 5 6 
#
# 1 0.009321 -0.002664 -0.005387 0.000000 0.000000 0.000000
# 2 -0.002664 0.023987 -0.001096 0.000000 0.000000 0.000000
# 3 -0.005387 -0.001096 0.018954 0.000000 0.000000 0.000000
# 4 0.000000 0.000000 0.000000 0.048789 0.000000 0.000000
# 5 0.000000 0.000000 0.000000 0.000000 0.015269 0.000000
# 6 0.000000 0.000000 0.000000 0.000000 0.000000 0.024139
#
#
# Mechanical properties :
#
#
# Convention : Reuss Voigt Hill
#
# Bulk Modulus (GPa) = 29.44001 41.07631 35.25816
# Shear Modulus (GPa) = 29.39822 37.45991 33.42907
#
# Velocity S-wave (km/s) = 3.64009 4.10899 3.88163
# Velocity P-wave (km/s) = 5.56202 6.40511 5.99840
#
# Compressibility (1/GPa) = 0.03396738
#
# Stress axis : x y z
#
# Youngs Moduli (GPa) = 107.28028 41.68854 52.75937
#
# Poissons Ratio (x) = 0.11107 0.28424
# Poissons Ratio (y) = 0.28582 0.05782
# Poissons Ratio (z) = 0.57796 0.04569
#
# Static dielectric constant tensor:
#      x y z
#    x 1.837750 0.000000 0.000000 
#    y 0.000000 1.898140 0.000000 
#    z 0.000000 0.000000 1.773560 
# 
# From -- ./inp_files/6468.got.cif
#   From: 2010.05.17/outbox.cif.g08.bks.cpg/sg55_4_cif.got.tgz:6468.got - 2010.06.03 13:27:54.
