data_PCOD9427231
_publ_section_title
;
Structure prediction by ZEFSAII (Michael W. Deem and Ramdas Pophale) SiO2 
 PCOD9427231
Probable space group: P B A M
;
_chemical_formula_sum "Si O2"
_cell_formula_units_Z 64
_cell_length_a 14.645784
_cell_length_b 24.853531
_cell_length_c 8.416349
_cell_angle_alpha 90.000000
_cell_angle_beta 90.000000
_cell_angle_gamma 90.000000
_cell_volume 3063.546379
_symmetry_space_group_name_H-M "P B A M"
_symmetry_group_IT_number 55
_symmetry_cell_setting 'orthorhombic'
loop_
_space_group_symop_operation_xyz
x,y,z
-x,-y,z
1/2+x,1/2-y,-z
1/2-x,1/2+y,-z
-x,-y,-z
x,y,-z
1/2-x,1/2+y,z
1/2+x,1/2-y,z
loop_
_atom_site_type_symbol
_atom_site_label
_atom_site_fract_x
_atom_site_fract_y
_atom_site_fract_z
Si Si1 0.771056 0.274640 0.812205
Si Si2 0.928838 0.545023 0.692070
Si Si3 0.910837 0.837751 0.192924
Si Si4 0.223559 0.958304 0.812931
Si Si5 0.777062 0.155788 0.678637
Si Si6 0.540203 0.752027 0.184453
Si Si7 0.580477 0.460080 0.311480
Si Si8 0.061584 0.340203 0.323171
O O1 0.682410 0.306780 0.748116
O O2 0.778715 0.210383 0.779766
O O3 0.873725 0.286306 0.749122
O O4 0.766936 0.284922 0.000000
O O5 0.914623 0.543249 0.500000
O O6 0.831280 0.538726 0.775127
O O7 0.975780 0.602385 0.727748
O O8 0.000000 0.500000 0.738681
O O9 0.999958 0.803813 0.251651
O O10 0.916022 0.900085 0.240269
O O11 0.911490 0.834628 0.000000
O O12 0.187713 0.899777 0.752699
O O13 0.171939 0.006639 0.726209
O O14 0.208115 0.962017 0.000000
O O15 0.813495 0.164480 0.500000
O O16 0.668522 0.147910 0.664876
O O17 0.456544 0.792850 0.202564
O O18 0.560088 0.742308 0.000000
O O19 0.500000 0.500000 0.251022
O O20 0.568544 0.454048 0.500000
O O21 0.030527 0.323918 0.500000
#
# Coordination Sequence:
#
# PCOD9427231 Si02
#       8
#     8   8   8   8   8   8   8   8
#     4  10  21  37  59  90 122 158 201 246 307 369
#     4   9  19  37  60  88 124 163 203 252 306 363
#     4  10  22  41  62  89 128 165 205 256 309 371
#     4  11  23  39  62  89 120 159 205 257 313 376
#     4  10  20  36  59  86 116 151 198 250 304 363
#     4  10  21  36  57  86 120 158 197 244 303 366
#     4  11  26  46  66  90 122 164 216 271 323 378
#     4   9  18  33  54  81 114 152 194 238 291 353
#
# _framework density 20.890820999999999
#
# number of rings (size 3 to 8) (size 9 to 14) (size 15 to 20)
#    0.000    2.000    1.250    2.625    1.750    5.750 
#    0.000    2.500    0.000    0.000    0.000    0.000 
#    0.000    0.000    0.000    0.000    0.000    0.000 
#
# Total GULP energy -356432.150784 kJ/mol
# GULP energy per Si atom -5569.252356 kJ/mol
# Density = 2.084327 g / cm^3
# Si number density = 20.890821 Si / 1000 Ang^3
#
#
#
# Elastic Constant Matrix: (Units=GPa)
#
#
# Indices 1 2 3 4 5 6 
#
# 1 60.2718 29.0164 12.9493 0.0000 0.0000 0.0000
# 2 29.0164 109.1941 8.1392 0.0000 0.0000 0.0000
# 3 12.9493 8.1392 15.5086 0.0000 0.0000 0.0000
# 4 0.0000 0.0000 0.0000 32.3980 0.0000 0.0000
# 5 0.0000 0.0000 0.0000 0.0000 15.0462 0.0000
# 6 0.0000 0.0000 0.0000 0.0000 0.0000 29.4664
#
#
#
# Elastic Compliance Matrix: (Units=1/GPa)
#
#
# Indices 1 2 3 4 5 6 
#
# 1 0.022345 -0.004732 -0.016174 0.000000 0.000000 0.000000
# 2 -0.004732 0.010533 -0.001577 0.000000 0.000000 0.000000
# 3 -0.016174 -0.001577 0.078813 0.000000 0.000000 0.000000
# 4 0.000000 0.000000 0.000000 0.030866 0.000000 0.000000
# 5 0.000000 0.000000 0.000000 0.000000 0.066462 0.000000
# 6 0.000000 0.000000 0.000000 0.000000 0.000000 0.033937
#
#
# Mechanical properties :
#
#
# Convention : Reuss Voigt Hill
#
# Bulk Modulus (GPa) = 14.98685 31.68716 23.33700
# Shear Modulus (GPa) = 16.12060 24.37343 20.24702
#
# Velocity S-wave (km/s) = 2.78089 3.41941 3.11655
# Velocity P-wave (km/s) = 4.18337 5.54894 4.91382
#
# Compressibility (1/GPa) = 0.06672515
#
# Stress axis : x y z
#
# Youngs Moduli (GPa) = 44.75359 94.93962 12.68830
#
# Poissons Ratio (x) = 0.44926 0.20522
# Poissons Ratio (y) = 0.21178 0.02001
# Poissons Ratio (z) = 0.72383 0.14969
#
# Static dielectric constant tensor:
#      x y z
#    x 1.881490 0.000000 0.000000 
#    y 0.000000 1.817380 0.000000 
#    z 0.000000 0.000000 1.755040 
# 
# From -- ./inp_files/6636.got.cif
#   From: 2010.05.17/outbox.cif.g08.bks.cpg/sg55_4_cif.got.tgz:6636.got - 2010.06.03 13:27:54.
