data_PCOD9427232
_publ_section_title
;
Structure prediction by ZEFSAII (Michael W. Deem and Ramdas Pophale) SiO2 
 PCOD9427232
Probable space group: P B A M
;
_chemical_formula_sum "Si O2"
_cell_formula_units_Z 48
_cell_length_a 20.182003
_cell_length_b 10.124324
_cell_length_c 13.346393
_cell_angle_alpha 90.000000
_cell_angle_beta 90.000000
_cell_angle_gamma 90.000000
_cell_volume 2727.056968
_symmetry_space_group_name_H-M "P B A M"
_symmetry_group_IT_number 55
_symmetry_cell_setting 'orthorhombic'
loop_
_space_group_symop_operation_xyz
x,y,z
-x,-y,z
1/2+x,1/2-y,-z
1/2-x,1/2+y,-z
-x,-y,-z
x,y,-z
1/2-x,1/2+y,z
1/2+x,1/2-y,z
loop_
_atom_site_type_symbol
_atom_site_label
_atom_site_fract_x
_atom_site_fract_y
_atom_site_fract_z
Si Si1 0.732431 0.808004 0.762997
Si Si2 0.512836 0.346277 0.718129
Si Si3 0.375579 0.297221 0.614157
Si Si4 0.699613 0.072028 0.880955
Si Si5 0.956252 0.630029 0.881505
Si Si6 0.151164 0.109062 0.614101
O O1 0.669082 0.778730 0.693934
O O2 0.755512 0.681894 0.826968
O O3 0.792131 0.842931 0.688045
O O4 0.717591 0.930533 0.835104
O O5 0.500000 0.500000 0.746084
O O6 0.451267 0.299786 0.650795
O O7 0.520814 0.251882 0.813498
O O8 0.580213 0.342806 0.654226
O O9 0.369579 0.247665 0.500000
O O10 0.351761 0.449778 0.614865
O O11 0.621648 0.102129 0.863271
O O12 0.710692 0.073849 0.000000
O O13 0.000000 0.500000 0.858457
O O14 0.964538 0.658232 0.000000
O O15 0.162604 0.153102 0.500000
#
# Coordination Sequence:
#
# PCOD9427232 Si02
#       6
#     8   8   8   8   8   8
#     4  12  21  40  61  88 119 157 198 249 297 354
#     4  10  20  37  61  87 117 156 199 246 293 349
#     4  10  21  37  60  89 121 155 198 245 295 354
#     4  11  24  40  62  88 118 158 200 248 302 355
#     4  10  21  39  60  85 121 160 195 243 305 361
#     4  10  20  36  59  86 118 157 198 242 297 349
#
# _framework density 17.601391
#
# number of rings (size 3 to 8) (size 9 to 14) (size 15 to 20)
#    0.000    1.500    3.333    2.500    0.000    2.333 
#    0.000    0.833    0.000    2.000    0.000    0.000 
#    0.000    0.000    0.000    0.000    0.000    0.000 
#
# Total GULP energy -268084.398150 kJ/mol
# GULP energy per Si atom -5585.091628 kJ/mol
# Density = 1.756133 g / cm^3
# Si number density = 17.601391 Si / 1000 Ang^3
#
#
#
# Elastic Constant Matrix: (Units=GPa)
#
#
# Indices 1 2 3 4 5 6 
#
# 1 67.5754 19.1608 36.5349 0.0000 0.0000 0.0000
# 2 19.1608 67.1004 53.2791 0.0000 0.0000 0.0000
# 3 36.5349 53.2791 113.4378 0.0000 0.0000 0.0000
# 4 0.0000 0.0000 0.0000 25.0331 0.0000 0.0000
# 5 0.0000 0.0000 0.0000 0.0000 14.2489 0.0000
# 6 0.0000 0.0000 0.0000 0.0000 0.0000 25.6187
#
#
#
# Elastic Compliance Matrix: (Units=1/GPa)
#
#
# Indices 1 2 3 4 5 6 
#
# 1 0.017949 -0.000854 -0.005380 0.000000 0.000000 0.000000
# 2 -0.000854 0.023807 -0.010907 0.000000 0.000000 0.000000
# 3 -0.005380 -0.010907 0.015671 0.000000 0.000000 0.000000
# 4 0.000000 0.000000 0.000000 0.039947 0.000000 0.000000
# 5 0.000000 0.000000 0.000000 0.000000 0.070181 0.000000
# 6 0.000000 0.000000 0.000000 0.000000 0.000000 0.039034
#
#
# Mechanical properties :
#
#
# Convention : Reuss Voigt Hill
#
# Bulk Modulus (GPa) = 43.20355 51.78481 47.49418
# Shear Modulus (GPa) = 20.11391 22.25607 21.18499
#
# Velocity S-wave (km/s) = 3.38412 3.55977 3.47305
# Velocity P-wave (km/s) = 6.31415 6.81034 6.56693
#
# Compressibility (1/GPa) = 0.02314624
#
# Stress axis : x y z
#
# Youngs Moduli (GPa) = 55.71346 42.00468 63.81342
#
# Poissons Ratio (x) = 0.03586 0.34331
# Poissons Ratio (y) = 0.04756 0.69599
# Poissons Ratio (z) = 0.29973 0.45813
#
# Static dielectric constant tensor:
#      x y z
#    x 1.583520 0.000000 0.000000 
#    y 0.000000 1.575950 0.000000 
#    z 0.000000 0.000000 1.571670 
# 
# From -- ./inp_files/13215.got.cif
#   From: 2010.05.17/outbox.cif.g08.bks.cpg/sg55_7_cif.got.tgz:13215.got - 2010.06.03 13:27:54.
