data_PCOD9427099
_publ_section_title
;
Structure prediction by ZEFSAII (Michael W. Deem and Ramdas Pophale) SiO2 
 PCOD9427099
Probable space group: P B A M
;
_chemical_formula_sum "Si O2"
_cell_formula_units_Z 36
_cell_length_a 27.681107
_cell_length_b 5.043920
_cell_length_c 13.040149
_cell_angle_alpha 90.000000
_cell_angle_beta 90.000000
_cell_angle_gamma 90.000000
_cell_volume 1820.682415
_symmetry_space_group_name_H-M "P B A M"
_symmetry_group_IT_number 55
_symmetry_cell_setting 'orthorhombic'
loop_
_space_group_symop_operation_xyz
x,y,z
-x,-y,z
1/2+x,1/2-y,-z
1/2-x,1/2+y,-z
-x,-y,-z
x,y,-z
1/2-x,1/2+y,z
1/2+x,1/2-y,z
loop_
_atom_site_type_symbol
_atom_site_label
_atom_site_fract_x
_atom_site_fract_y
_atom_site_fract_z
Si Si1 0.623963 0.101411 0.247580
Si Si2 0.718144 0.953215 0.377544
Si Si3 0.779456 0.332569 0.000000
Si Si4 0.365721 0.379794 0.884178
Si Si5 0.532965 0.260678 0.618319
O O1 0.636727 0.337494 0.169298
O O2 0.580822 0.207144 0.317856
O O3 0.670086 0.023721 0.316108
O O4 0.608368 0.838522 0.185457
O O5 0.708491 0.969092 0.500000
O O6 0.739628 0.664659 0.354157
O O7 0.812387 0.245265 0.904169
O O8 0.766746 0.640537 0.000000
O O9 0.385940 0.403108 0.000000
O O10 0.500000 0.500000 0.658563
O O11 0.546028 0.324137 0.500000
O O12 0.500000 0.000000 0.618592
#
# Coordination Sequence:
#
# PCOD9427099 Si02
#       5
#     8   8   4   8   8
#     4  12  21  39  64  84 117 162 196 239 305 354
#     4  10  22  37  54  84 121 153 192 235 283 359
#     4  10  20  36  54  78 114 152 198 252 292 324
#     4  10  24  37  55  85 114 157 193 251 289 341
#     4  10  22  40  64  95 122 148 195 252 303 361
#
# _framework density 19.772808000000001
#
# number of rings (size 3 to 8) (size 9 to 14) (size 15 to 20)
#    0.667    0.889    0.000    5.333    0.000    5.333 
#    0.000    8.889    0.000   13.333    0.000    0.000 
#    0.000    0.000    0.000    0.000    0.000    0.000 
#
# Total GULP energy -201111.981150 kJ/mol
# GULP energy per Si atom -5586.443921 kJ/mol
# Density = 1.972780 g / cm^3
# Si number density = 19.772808 Si / 1000 Ang^3
#
#
#
# Elastic Constant Matrix: (Units=GPa)
#
#
# Indices 1 2 3 4 5 6 
#
# 1 45.7695 -22.8728 24.6880 0.0000 0.0000 0.0000
# 2 -22.8728 59.6295 -1.2037 0.0000 0.0000 0.0000
# 3 24.6880 -1.2037 68.1013 0.0000 0.0000 0.0000
# 4 0.0000 0.0000 0.0000 41.4318 0.0000 0.0000
# 5 0.0000 0.0000 0.0000 0.0000 87.0160 0.0000
# 6 0.0000 0.0000 0.0000 0.0000 0.0000 25.1994
#
#
#
# Elastic Compliance Matrix: (Units=1/GPa)
#
#
# Indices 1 2 3 4 5 6 
#
# 1 0.035243 0.013265 -0.012542 0.000000 0.000000 0.000000
# 2 0.013265 0.021769 -0.004424 0.000000 0.000000 0.000000
# 3 -0.012542 -0.004424 0.019152 0.000000 0.000000 0.000000
# 4 0.000000 0.000000 0.000000 0.024136 0.000000 0.000000
# 5 0.000000 0.000000 0.000000 0.000000 0.011492 0.000000
# 6 0.000000 0.000000 0.000000 0.000000 0.000000 0.039683
#
#
# Mechanical properties :
#
#
# Convention : Reuss Voigt Hill
#
# Bulk Modulus (GPa) = 14.54260 19.41369 16.97814
# Shear Modulus (GPa) = 27.50298 42.25537 34.87917
#
# Velocity S-wave (km/s) = 3.73359 4.62783 4.20455
# Velocity P-wave (km/s) = 5.09481 6.19641 5.67241
#
# Compressibility (1/GPa) = 0.06876351
#
# Stress axis : x y z
#
# Youngs Moduli (GPa) = 28.37453 45.93626 52.21267
#
# Poissons Ratio (x) = -0.60936 0.65484
# Poissons Ratio (y) = -0.37640 0.23100
# Poissons Ratio (z) = 0.35587 0.20323
#
# Static dielectric constant tensor:
#      x y z
#    x 1.591420 0.000000 0.000000 
#    y 0.000000 1.667690 0.000000 
#    z 0.000000 0.000000 1.724050 
# 
# From -- ./inp_files/15536.got.cif
#   From: 2010.05.17/outbox.cif.g08.bks.cpg/sg55_8_cif.got.tgz:15536.got - 2010.06.03 13:27:54.
