data_PCOD9427491
_publ_section_title
;
Structure prediction by ZEFSAII (Michael W. Deem and Ramdas Pophale) SiO2 
 PCOD9427491
Probable space group: P B A M
;
_chemical_formula_sum "Si O2"
_cell_formula_units_Z 64
_cell_length_a 22.940484
_cell_length_b 17.090220
_cell_length_c 8.154594
_cell_angle_alpha 90.000000
_cell_angle_beta 90.000000
_cell_angle_gamma 90.000000
_cell_volume 3197.073150
_symmetry_space_group_name_H-M "P B A M"
_symmetry_group_IT_number 55
_symmetry_cell_setting 'orthorhombic'
loop_
_space_group_symop_operation_xyz
x,y,z
-x,-y,z
1/2+x,1/2-y,-z
1/2-x,1/2+y,-z
-x,-y,-z
x,y,-z
1/2-x,1/2+y,z
1/2+x,1/2-y,z
loop_
_atom_site_type_symbol
_atom_site_label
_atom_site_fract_x
_atom_site_fract_y
_atom_site_fract_z
Si Si1 0.767252 0.591883 0.198260
Si Si2 0.883746 0.678853 0.802555
Si Si3 0.858445 0.150519 0.801598
Si Si4 0.232583 0.588717 0.698122
Si Si5 0.142214 0.147623 0.304009
Si Si6 0.433207 0.499028 0.198335
Si Si7 0.384216 0.175261 0.695708
Si Si8 0.498679 0.910731 0.197447
O O1 0.825185 0.635791 0.258151
O O2 0.707736 0.633569 0.254440
O O3 0.767012 0.501651 0.250447
O O4 0.767326 0.594012 0.000000
O O5 0.881000 0.769789 0.759055
O O6 0.941924 0.635893 0.740849
O O7 0.883740 0.672615 0.000000
O O8 0.898992 0.078601 0.746077
O O9 0.880789 0.234025 0.743086
O O10 0.858584 0.150714 0.000000
O O11 0.232699 0.591873 0.500000
O O12 0.291986 0.630120 0.757048
O O13 0.174300 0.631917 0.758069
O O14 0.144031 0.150720 0.500000
O O15 0.101503 0.075804 0.252137
O O16 0.500000 0.500000 0.255617
O O17 0.433627 0.497911 0.000000
O O18 0.384725 0.168833 0.500000
O O19 0.442039 0.133878 0.760985
O O20 0.500000 0.000000 0.259205
O O21 0.494157 0.914075 0.000000
#
# Coordination Sequence:
#
# PCOD9427491 Si02
#       8
#     8   8   8   8   8   8   8   8
#     4  10  20  37  63  91 115 149 200 248 291 344
#     4  10  22  38  60  88 118 151 192 245 297 345
#     4  10  21  38  60  89 119 152 196 243 292 346
#     4  10  22  39  58  85 121 158 192 237 296 348
#     4  11  23  39  60  88 120 155 197 240 289 350
#     4  10  22  40  62  87 120 158 194 240 296 348
#     4  11  24  39  59  87 121 159 197 239 291 351
#     4  10  22  42  64  87 117 154 196 243 297 348
#
# _framework density 20.01831
#
# number of rings (size 3 to 8) (size 9 to 14) (size 15 to 20)
#    0.000    1.750    1.250    2.250    1.750    5.000 
#    0.000    0.000    0.000    0.000    0.000    0.000 
#    0.000    0.000    0.000    0.000    0.000    0.000 
#
# Total GULP energy -357746.252614 kJ/mol
# GULP energy per Si atom -5589.785197 kJ/mol
# Density = 1.997275 g / cm^3
# Si number density = 20.018310 Si / 1000 Ang^3
#
#
#
# Elastic Constant Matrix: (Units=GPa)
#
#
# Indices 1 2 3 4 5 6 
#
# 1 212.0475 115.8367 16.5848 0.0000 0.0000 0.0000
# 2 115.8367 195.9952 5.4110 0.0000 0.0000 0.0000
# 3 16.5848 5.4110 6.0940 0.0000 0.0000 0.0000
# 4 0.0000 0.0000 0.0000 238.1626 0.0000 0.0000
# 5 0.0000 0.0000 0.0000 0.0000 22.4904 0.0000
# 6 0.0000 0.0000 0.0000 0.0000 0.0000 -2.1708
#
#
#
# Elastic Compliance Matrix: (Units=1/GPa)
#
#
# Indices 1 2 3 4 5 6 
#
# 1 0.008815 -0.004662 -0.019851 0.000000 0.000000 0.000000
# 2 -0.004662 0.007696 0.005854 0.000000 0.000000 0.000000
# 3 -0.019851 0.005854 0.212921 0.000000 0.000000 0.000000
# 4 0.000000 0.000000 0.000000 0.004199 0.000000 0.000000
# 5 0.000000 0.000000 0.000000 0.000000 0.044463 0.000000
# 6 0.000000 0.000000 0.000000 0.000000 0.000000 -0.460668
#
#
# Mechanical properties :
#
#
# Convention : Reuss Voigt Hill
#
# Bulk Modulus (GPa) = 5.20523 76.64464 40.92494
# Shear Modulus (GPa) = -61.56339 70.11673 4.27667
#
# Velocity S-wave (km/s) = -5.55160 5.92472 1.46322
# Velocity P-wave (km/s) = 6.20386 9.22895 4.83144
#
# Compressibility (1/GPa) = 0.19211443
#
# Stress axis : x y z
#
# Youngs Moduli (GPa) = 113.44016 129.94069 4.69657
#
# Poissons Ratio (x) = 0.60577 0.09323
# Poissons Ratio (y) = 0.52885 -0.02749
# Poissons Ratio (z) = 2.25191 -0.76068
#
# Static dielectric constant tensor:
#      x y z
#    x 1.704570 0.000000 0.000000 
#    y 0.000000 1.652670 0.000000 
#    z 0.000000 0.000000 1.705500 
# 
# From -- ./inp_files/9815.got.cif
#   From: 2010.05.17/outbox.cif.g08.bks.cpg/sg55_5_cif.got.tgz:9815.got - 2010.06.03 13:27:54.
