data_PCOD9427895
_publ_section_title
;
Structure prediction by ZEFSAII (Michael W. Deem and Ramdas Pophale) SiO2 
 PCOD9427895
Probable space group: P B A M
;
_chemical_formula_sum "Si O2"
_cell_formula_units_Z 48
_cell_length_a 7.998365
_cell_length_b 19.812755
_cell_length_c 12.649586
_cell_angle_alpha 90.000000
_cell_angle_beta 90.000000
_cell_angle_gamma 90.000000
_cell_volume 2004.575417
_symmetry_space_group_name_H-M "P B A M"
_symmetry_group_IT_number 55
_symmetry_cell_setting 'orthorhombic'
loop_
_space_group_symop_operation_xyz
x,y,z
-x,-y,z
1/2+x,1/2-y,-z
1/2-x,1/2+y,-z
-x,-y,-z
x,y,-z
1/2-x,1/2+y,z
1/2+x,1/2-y,z
loop_
_atom_site_type_symbol
_atom_site_label
_atom_site_fract_x
_atom_site_fract_y
_atom_site_fract_z
Si Si1 0.141727 0.897252 0.000000
Si Si2 0.332511 0.964312 0.373298
Si Si3 0.941241 0.211790 0.835965
Si Si4 0.683962 0.847787 0.830273
Si Si5 0.256638 0.546965 0.000000
Si Si6 0.346035 0.331953 0.379812
Si Si7 0.288556 0.601193 0.381926
O O1 0.156320 0.845870 0.901252
O O2 0.951774 0.928061 0.000000
O O3 0.250698 0.965704 0.000000
O O4 0.346759 0.957470 0.500000
O O5 0.278495 0.890493 0.340491
O O6 0.500000 0.000000 0.333424
O O7 0.194601 0.022019 0.355297
O O8 0.932797 0.288649 0.874018
O O9 0.866228 0.218099 0.717423
O O10 0.129660 0.184489 0.839698
O O11 0.678291 0.915953 0.898364
O O12 0.673193 0.866609 0.707118
O O13 0.304753 0.308276 0.500000
O O14 0.529592 0.365894 0.384767
O O15 0.215408 0.607261 0.500000
#
# Coordination Sequence:
#
# PCOD9427895 Si02
#       7
#     4   8   8   8   4   8   8
#     4   9  19  36  59  83 104 135 184 230 267 316
#     4   9  17  29  47  74 107 142 178 221 270 311
#     4  10  21  36  57  81 109 145 180 222 270 319
#     4  10  21  36  57  81 109 145 180 222 270 319
#     4   9  19  36  59  83 104 135 184 230 267 316
#     4   9  18  32  51  77 108 143 182 219 261 318
#     4   9  18  32  51  77 108 143 182 219 261 318
#
# _framework density 23.945219999999999
#
# number of rings (size 3 to 8) (size 9 to 14) (size 15 to 20)
#    0.000    2.667    0.000    1.000    2.333    4.000 
#    0.000    0.000    0.000    1.000    0.000    0.000 
#    0.000    0.000    0.000    0.000    0.000    0.000 
#
# Total GULP energy -267808.373856 kJ/mol
# GULP energy per Si atom -5579.341122 kJ/mol
# Density = 2.389072 g / cm^3
# Si number density = 23.945220 Si / 1000 Ang^3
#
#
#
# Elastic Constant Matrix: (Units=GPa)
#
#
# Indices 1 2 3 4 5 6 
#
# 1 -39.9559 128.7619 104.0157 0.0000 0.0000 0.0000
# 2 128.7619 -62.4957 -103.1741 0.0000 0.0000 0.0000
# 3 104.0157 -103.1741 -3.6905 0.0000 0.0000 0.0000
# 4 0.0000 0.0000 0.0000 -63.4943 0.0000 0.0000
# 5 0.0000 0.0000 0.0000 0.0000 0.8801 0.0000
# 6 0.0000 0.0000 0.0000 0.0000 0.0000 34.5850
#
#
#
# Elastic Compliance Matrix: (Units=1/GPa)
#
#
# Indices 1 2 3 4 5 6 
#
# 1 0.006468 0.006370 0.004213 0.000000 0.000000 0.000000
# 2 0.006370 0.006628 -0.005758 0.000000 0.000000 0.000000
# 3 0.004213 -0.005758 0.008746 0.000000 0.000000 0.000000
# 4 0.000000 0.000000 0.000000 -0.015749 0.000000 0.000000
# 5 0.000000 0.000000 0.000000 0.000000 1.136199 0.000000
# 6 0.000000 0.000000 0.000000 0.000000 0.000000 0.028914
#
#
# Mechanical properties :
#
#
# Convention : Reuss Voigt Hill
#
# Bulk Modulus (GPa) = 31.75429 17.00721 24.38075
# Shear Modulus (GPa) = 4.26603 -21.32222 -8.52809
#
# Velocity S-wave (km/s) = 1.33621 -2.98729 -1.88924
# Velocity P-wave (km/s) = 3.95861 2.18645 2.33345
#
# Compressibility (1/GPa) = 0.03149180
#
# Stress axis : x y z
#
# Youngs Moduli (GPa) = 154.61683 150.88533 114.34145
#
# Poissons Ratio (x) = -0.96109 -0.48176
# Poissons Ratio (y) = -0.98485 0.65832
# Poissons Ratio (z) = -0.65145 0.86872
#
# Static dielectric constant tensor:
#      x y z
#    x 1.942860 0.000000 0.000000 
#    y 0.000000 1.898630 0.000000 
#    z 0.000000 0.000000 1.948930 
# 
# From -- ./inp_files/17414.got.cif
#   From: 2010.05.17/outbox.cif.g08.bks.cpg/sg55_9_cif.got.tgz:17414.got - 2010.06.03 13:27:54.
