data_PCOD9427901
_publ_section_title
;
Structure prediction by ZEFSAII (Michael W. Deem and Ramdas Pophale) SiO2 
 PCOD9427901
Probable space group: P B A M
;
_chemical_formula_sum "Si O2"
_cell_formula_units_Z 64
_cell_length_a 31.818155
_cell_length_b 12.169524
_cell_length_c 7.565871
_cell_angle_alpha 90.000000
_cell_angle_beta 90.000000
_cell_angle_gamma 90.000000
_cell_volume 2929.594535
_symmetry_space_group_name_H-M "P B A M"
_symmetry_group_IT_number 55
_symmetry_cell_setting 'orthorhombic'
loop_
_space_group_symop_operation_xyz
x,y,z
-x,-y,z
1/2+x,1/2-y,-z
1/2-x,1/2+y,-z
-x,-y,-z
x,y,-z
1/2-x,1/2+y,z
1/2+x,1/2-y,z
loop_
_atom_site_type_symbol
_atom_site_label
_atom_site_fract_x
_atom_site_fract_y
_atom_site_fract_z
Si Si1 0.787253 0.534052 0.702640
Si Si2 0.451880 0.497967 0.786939
Si Si3 0.079630 0.232832 0.212999
Si Si4 0.043803 0.456170 0.709397
Si Si5 0.378316 0.333841 0.289395
Si Si6 0.172172 0.249825 0.790412
Si Si7 0.372549 0.081339 0.717193
Si Si8 0.305981 0.499055 0.713214
O O1 0.784410 0.494844 0.500000
O O2 0.796625 0.663646 0.705309
O O3 0.828636 0.473676 0.777816
O O4 0.741348 0.516452 0.783019
O O5 0.500000 0.500000 0.723820
O O6 0.430387 0.610735 0.722980
O O7 0.422723 0.394611 0.741376
O O8 0.453185 0.501909 0.000000
O O9 0.046875 0.325771 0.264263
O O10 0.125141 0.271447 0.277553
O O11 0.081436 0.227955 0.000000
O O12 0.043637 0.478976 0.500000
O O13 0.086243 0.514237 0.778579
O O14 0.000000 0.500000 0.784322
O O15 0.372870 0.327390 0.500000
O O16 0.375978 0.208428 0.225719
O O17 0.340840 0.412519 0.219859
O O18 0.180985 0.122943 0.755389
O O19 0.173701 0.269004 0.000000
O O20 0.372404 0.077431 0.500000
O O21 0.305011 0.486594 0.500000
#
# Coordination Sequence:
#
# PCOD9427901 Si02
#       8
#     8   8   8   8   8   8   8   8
#     4  10  21  38  62  86 113 150 194 238 284 341
#     4  10  22  40  59  81 112 151 191 231 282 339
#     4  10  21  38  58  81 112 149 190 236 282 335
#     4  10  21  36  57  85 114 148 189 234 287 341
#     4  10  21  37  57  84 115 145 185 235 285 334
#     4  11  22  38  60  84 117 152 190 240 287 338
#     4   9  19  36  55  80 115 147 179 232 286 330
#     4  10  22  37  60  88 113 149 193 235 282 342
#
# _framework density 21.846028
#
# number of rings (size 3 to 8) (size 9 to 14) (size 15 to 20)
#    0.000    2.000    2.500    0.375    3.500    2.000 
#    0.000    1.250    0.000    0.000    0.000    0.000 
#    0.000    0.000    0.000    0.000    0.000    0.000 
#
# Total GULP energy -357461.742809 kJ/mol
# GULP energy per Si atom -5585.339731 kJ/mol
# Density = 2.179631 g / cm^3
# Si number density = 21.846028 Si / 1000 Ang^3
#
#
#
# Elastic Constant Matrix: (Units=GPa)
#
#
# Indices 1 2 3 4 5 6 
#
# 1 91.2165 21.0480 9.8251 0.0000 0.0000 0.0000
# 2 21.0480 109.1023 -6.6862 0.0000 0.0000 0.0000
# 3 9.8251 -6.6862 51.9555 0.0000 0.0000 0.0000
# 4 0.0000 0.0000 0.0000 42.0811 0.0000 0.0000
# 5 0.0000 0.0000 0.0000 0.0000 -10.1408 0.0000
# 6 0.0000 0.0000 0.0000 0.0000 0.0000 36.5500
#
#
#
# Elastic Compliance Matrix: (Units=1/GPa)
#
#
# Indices 1 2 3 4 5 6 
#
# 1 0.011798 -0.002432 -0.002544 0.000000 0.000000 0.000000
# 2 -0.002432 0.009740 0.001713 0.000000 0.000000 0.000000
# 3 -0.002544 0.001713 0.019949 0.000000 0.000000 0.000000
# 4 0.000000 0.000000 0.000000 0.023764 0.000000 0.000000
# 5 0.000000 0.000000 0.000000 0.000000 -0.098611 0.000000
# 6 0.000000 0.000000 0.000000 0.000000 0.000000 0.027360
#
#
# Mechanical properties :
#
#
# Convention : Reuss Voigt Hill
#
# Bulk Modulus (GPa) = 28.60299 33.40535 31.00417
# Shear Modulus (GPa) = 410.56870 28.90389 219.73630
#
# Velocity S-wave (km/s) = 13.72390 3.64135 10.04004
# Velocity P-wave (km/s) = 16.25573 5.74489 12.19124
#
# Compressibility (1/GPa) = 0.03496138
#
# Stress axis : x y z
#
# Youngs Moduli (GPa) = 84.75915 102.67058 50.12825
#
# Poissons Ratio (x) = 0.24970 0.12753
# Poissons Ratio (y) = 0.20613 -0.08589
# Poissons Ratio (z) = 0.21563 -0.17591
#
# Static dielectric constant tensor:
#      x y z
#    x 1.811100 0.000000 0.000000 
#    y 0.000000 1.750930 0.000000 
#    z 0.000000 0.000000 1.819900 
# 
# From -- ./inp_files/4588.got.cif
#   From: 2010.05.17/outbox.cif.g08.bks.cpg/sg55_3_cif.got.tgz:4588.got - 2010.06.03 13:27:54.
