data_PCOD9427350
_publ_section_title
;
Structure prediction by ZEFSAII (Michael W. Deem and Ramdas Pophale) SiO2 
 PCOD9427350
Probable space group: P B A M
;
_chemical_formula_sum "Si O2"
_cell_formula_units_Z 56
_cell_length_a 23.699754
_cell_length_b 13.921406
_cell_length_c 9.061466
_cell_angle_alpha 90.000000
_cell_angle_beta 90.000000
_cell_angle_gamma 90.000000
_cell_volume 2989.684795
_symmetry_space_group_name_H-M "P B A M"
_symmetry_group_IT_number 55
_symmetry_cell_setting 'orthorhombic'
loop_
_space_group_symop_operation_xyz
x,y,z
-x,-y,z
1/2+x,1/2-y,-z
1/2-x,1/2+y,-z
-x,-y,-z
x,y,-z
1/2-x,1/2+y,z
1/2+x,1/2-y,z
loop_
_atom_site_type_symbol
_atom_site_label
_atom_site_fract_x
_atom_site_fract_y
_atom_site_fract_z
Si Si1 0.969103 0.401321 0.177127
Si Si2 0.037578 0.207630 0.823672
Si Si3 0.440915 0.395537 0.669237
Si Si4 0.328864 0.490255 0.322433
Si Si5 0.833105 0.812637 0.176818
Si Si6 0.273177 0.307445 0.175523
Si Si7 0.130684 0.696160 0.669919
O O1 0.909738 0.383065 0.257591
O O2 0.000000 0.500000 0.217893
O O3 0.009226 0.310436 0.212803
O O4 0.960059 0.401332 0.000000
O O5 0.102496 0.205891 0.776219
O O6 0.998138 0.125009 0.755435
O O7 0.035902 0.197874 0.000000
O O8 0.453964 0.418430 0.500000
O O9 0.393965 0.469624 0.726677
O O10 0.406417 0.294520 0.671007
O O11 0.327775 0.486098 0.500000
O O12 0.311951 0.592938 0.260433
O O13 0.291179 0.404950 0.256557
O O14 0.790699 0.725068 0.204975
O O15 0.832456 0.829937 0.000000
O O16 0.314460 0.223893 0.236419
O O17 0.281495 0.318007 0.000000
O O18 0.144619 0.674418 0.500000
#
# Coordination Sequence:
#
# PCOD9427350 Si02
#       7
#     8   8   8   8   8   8   8
#     4   9  17  31  52  79 109 144 185 226 275 333
#     4   9  18  33  52  76 108 142 178 225 273 321
#     4   8  16  31  51  76 104 136 170 211 266 324
#     4  10  21  37  58  82 109 142 182 228 277 333
#     4  10  22  38  55  79 111 147 185 229 278 325
#     4  10  20  37  58  78 106 144 187 232 275 327
#     4   9  17  31  52  76 104 138 179 225 272 321
#
# _framework density 18.731072000000001
#
# number of rings (size 3 to 8) (size 9 to 14) (size 15 to 20)
#    0.000    2.714    0.000    2.143    0.000    6.571 
#    2.571    2.857    0.000    0.000    0.000    0.000 
#    0.000    0.000    0.000    0.000    0.000    0.000 
#
# Total GULP energy -312365.750042 kJ/mol
# GULP energy per Si atom -5577.959822 kJ/mol
# Density = 1.868844 g / cm^3
# Si number density = 18.731072 Si / 1000 Ang^3
#
#
#
# Elastic Constant Matrix: (Units=GPa)
#
#
# Indices 1 2 3 4 5 6 
#
# 1 98.8760 22.6771 37.1522 0.0000 0.0000 0.0000
# 2 22.6771 57.1499 23.4373 0.0000 0.0000 0.0000
# 3 37.1522 23.4373 40.4709 0.0000 0.0000 0.0000
# 4 0.0000 0.0000 0.0000 17.3567 0.0000 0.0000
# 5 0.0000 0.0000 0.0000 0.0000 -11.5149 0.0000
# 6 0.0000 0.0000 0.0000 0.0000 0.0000 25.3929
#
#
#
# Elastic Compliance Matrix: (Units=1/GPa)
#
#
# Indices 1 2 3 4 5 6 
#
# 1 0.015447 -0.000412 -0.013941 0.000000 0.000000 0.000000
# 2 -0.000412 0.022959 -0.012918 0.000000 0.000000 0.000000
# 3 -0.013941 -0.012918 0.044988 0.000000 0.000000 0.000000
# 4 0.000000 0.000000 0.000000 0.057615 0.000000 0.000000
# 5 0.000000 0.000000 0.000000 0.000000 -0.086844 0.000000
# 6 0.000000 0.000000 0.000000 0.000000 0.000000 0.039381
#
#
# Mechanical properties :
#
#
# Convention : Reuss Voigt Hill
#
# Bulk Modulus (GPa) = 34.66016 40.33666 37.49841
# Shear Modulus (GPa) = 31.70488 13.79563 22.75025
#
# Velocity S-wave (km/s) = 4.11863 2.71682 3.48885
# Velocity P-wave (km/s) = 6.41574 5.60561 6.02431
#
# Compressibility (1/GPa) = 0.02885157
#
# Stress axis : x y z
#
# Youngs Moduli (GPa) = 64.73933 43.55613 22.22803
#
# Poissons Ratio (x) = 0.01793 0.30989
# Poissons Ratio (y) = 0.02666 0.28714
# Poissons Ratio (z) = 0.90256 0.56265
#
# Static dielectric constant tensor:
#      x y z
#    x 1.662190 0.000000 0.000000 
#    y 0.000000 1.643310 0.000000 
#    z 0.000000 0.000000 1.629320 
# 
# From -- ./inp_files/6144.got.cif
#   From: 2010.05.17/outbox.cif.g08.bks.cpg/sg55_4_cif.got.tgz:6144.got - 2010.06.03 13:27:54.
