data_PCOD9427746
_publ_section_title
;
Structure prediction by ZEFSAII (Michael W. Deem and Ramdas Pophale) SiO2 
 PCOD9427746
Probable space group: P B A M
;
_chemical_formula_sum "Si O2"
_cell_formula_units_Z 54
_cell_length_a 30.407744
_cell_length_b 5.248695
_cell_length_c 15.691905
_cell_angle_alpha 90.000000
_cell_angle_beta 90.000000
_cell_angle_gamma 90.000000
_cell_volume 2504.443320
_symmetry_space_group_name_H-M "P B A M"
_symmetry_group_IT_number 55
_symmetry_cell_setting 'orthorhombic'
loop_
_space_group_symop_operation_xyz
x,y,z
-x,-y,z
1/2+x,1/2-y,-z
1/2-x,1/2+y,-z
-x,-y,-z
x,y,-z
1/2-x,1/2+y,z
1/2+x,1/2-y,z
loop_
_atom_site_type_symbol
_atom_site_label
_atom_site_fract_x
_atom_site_fract_y
_atom_site_fract_z
Si Si1 0.971605 0.747159 0.500000
Si Si2 0.273105 0.226708 0.397828
Si Si3 0.071264 0.265410 0.871816
Si Si4 0.133376 0.702915 0.676654
Si Si5 0.500000 0.000000 0.000000
Si Si6 0.581810 0.300866 0.328231
Si Si7 0.870255 0.231925 0.124953
Si Si8 0.230605 0.847668 0.903363
O O1 0.946225 0.736466 0.589398
O O2 0.000000 0.500000 0.500000
O O3 0.000000 0.000000 0.500000
O O4 0.268519 0.221162 0.500000
O O5 0.244187 0.458603 0.363975
O O6 0.323610 0.265010 0.375906
O O7 0.063405 0.239662 0.768754
O O8 0.104679 0.501552 0.891556
O O9 0.027886 0.337304 0.925265
O O10 0.096514 0.001662 0.895666
O O11 0.121026 0.407001 0.668271
O O12 0.140263 0.764145 0.775217
O O13 0.095386 0.906069 0.656232
O O14 0.821412 0.195558 0.089183
O O15 0.255462 0.611707 0.860913
O O16 0.249174 0.870635 0.000000
#
# Coordination Sequence:
#
# PCOD9427746 Si02
#       8
#     4   8   8   8   2   8   8   8
#     4  12  26  42  70  98 122 168 204 254 340 380
#     4  10  21  34  52  86 125 165 213 266 304 351
#     4  10  25  43  65  97 129 163 215 265 320 387
#     4  10  21  39  63  87 124 170 209 252 319 373
#     4  12  28  46  76 100 120 182 216 254 344 400
#     4  10  23  43  63  96 127 162 207 264 312 390
#     4  10  22  42  63  90 130 165 203 270 322 367
#     4  10  21  35  57  89 121 161 209 254 310 376
#
# _framework density 21.561679000000002
#
# number of rings (size 3 to 8) (size 9 to 14) (size 15 to 20)
#    0.000    1.778    0.000    2.667    5.185    2.370 
#    0.000    0.000    0.000    0.000    0.000    0.000 
#    0.000    0.000    0.000    0.000    0.000    0.000 
#
# Total GULP energy -300691.580735 kJ/mol
# GULP energy per Si atom -5568.362606 kJ/mol
# Density = 2.151260 g / cm^3
# Si number density = 21.561679 Si / 1000 Ang^3
#
#
#
# Elastic Constant Matrix: (Units=GPa)
#
#
# Indices 1 2 3 4 5 6 
#
# 1 37.3485 -6.0068 21.1916 0.0000 0.0000 0.0000
# 2 -6.0068 110.2209 29.0396 0.0000 0.0000 0.0000
# 3 21.1916 29.0396 101.3855 0.0000 0.0000 0.0000
# 4 0.0000 0.0000 0.0000 14.3245 0.0000 0.0000
# 5 0.0000 0.0000 0.0000 0.0000 40.2585 0.0000
# 6 0.0000 0.0000 0.0000 0.0000 0.0000 21.6663
#
#
#
# Elastic Compliance Matrix: (Units=1/GPa)
#
#
# Indices 1 2 3 4 5 6 
#
# 1 0.031758 0.003764 -0.007716 0.000000 0.000000 0.000000
# 2 0.003764 0.010259 -0.003725 0.000000 0.000000 0.000000
# 3 -0.007716 -0.003725 0.012543 0.000000 0.000000 0.000000
# 4 0.000000 0.000000 0.000000 0.069810 0.000000 0.000000
# 5 0.000000 0.000000 0.000000 0.000000 0.024839 0.000000
# 6 0.000000 0.000000 0.000000 0.000000 0.000000 0.046155
#
#
# Mechanical properties :
#
#
# Convention : Reuss Voigt Hill
#
# Bulk Modulus (GPa) = 25.50667 37.48930 31.49798
# Shear Modulus (GPa) = 22.34246 28.89856 25.62051
#
# Velocity S-wave (km/s) = 3.22252 3.66495 3.45083
# Velocity P-wave (km/s) = 5.06966 5.94423 5.52428
#
# Compressibility (1/GPa) = 0.03920543
#
# Stress axis : x y z
#
# Youngs Moduli (GPa) = 31.48784 97.47268 79.72462
#
# Poissons Ratio (x) = -0.36686 0.61517
# Poissons Ratio (y) = -0.11851 0.29699
# Poissons Ratio (z) = 0.24296 0.36311
#
# Static dielectric constant tensor:
#      x y z
#    x 1.760550 0.000000 0.000000 
#    y 0.000000 1.861420 0.000000 
#    z 0.000000 0.000000 1.737800 
# 
# From -- ./inp_files/20170.got.cif
#   From: 2010.05.17/outbox.cif.g08.bks.cpg/sg55_11_cif.got.tgz:20170.got - 2010.06.03 13:27:54.
