data_PCOD9427821
_publ_section_title
;
Structure prediction by ZEFSAII (Michael W. Deem and Ramdas Pophale) SiO2 
 PCOD9427821
Probable space group: P B A M
;
_chemical_formula_sum "Si O2"
_cell_formula_units_Z 48
_cell_length_a 18.972579
_cell_length_b 7.275128
_cell_length_c 15.854901
_cell_angle_alpha 90.000000
_cell_angle_beta 90.000000
_cell_angle_gamma 90.000000
_cell_volume 2188.419335
_symmetry_space_group_name_H-M "P B A M"
_symmetry_group_IT_number 55
_symmetry_cell_setting 'orthorhombic'
loop_
_space_group_symop_operation_xyz
x,y,z
-x,-y,z
1/2+x,1/2-y,-z
1/2-x,1/2+y,-z
-x,-y,-z
x,y,-z
1/2-x,1/2+y,z
1/2+x,1/2-y,z
loop_
_atom_site_type_symbol
_atom_site_label
_atom_site_fract_x
_atom_site_fract_y
_atom_site_fract_z
Si Si1 0.096192 0.150300 0.000000
Si Si2 0.338869 0.080021 0.662206
Si Si3 0.324851 0.517830 0.657101
Si Si4 0.941501 0.289972 0.000000
Si Si5 0.183990 0.061945 0.845277
Si Si6 0.080720 0.555846 0.500000
Si Si7 0.584582 0.506096 0.500000
Si Si8 0.346426 0.127749 0.150635
O O1 0.141268 0.174963 0.085161
O O2 0.025405 0.268965 0.000000
O O3 0.079855 0.928925 0.000000
O O4 0.341456 0.301754 0.664525
O O5 0.385695 0.996498 0.588499
O O6 0.360616 0.037266 0.758341
O O7 0.258397 0.030650 0.639155
O O8 0.329529 0.618220 0.747926
O O9 0.376771 0.577222 0.582191
O O10 0.906312 0.388450 0.919463
O O11 0.266462 0.065974 0.869448
O O12 0.161415 0.849341 0.844187
O O13 0.096226 0.774403 0.500000
O O14 0.000000 0.500000 0.500000
O O15 0.500000 0.500000 0.500000
#
# Coordination Sequence:
#
# PCOD9427821 Si02
#       8
#     4   8   8   4   8   4   4   8
#     4   9  17  30  47  77 102 131 180 206 256 313
#     4   9  18  33  54  77 102 132 172 216 255 308
#     4   9  18  33  52  76 101 132 172 214 260 304
#     4   9  17  30  49  75 102 139 168 212 261 304
#     4   9  17  31  51  76  98 130 170 216 254 305
#     4  10  21  36  52  76 104 140 173 208 262 316
#     4  10  21  36  48  76 108 134 171 214 264 308
#     4   9  17  31  53  75 101 131 171 213 257 301
#
# _framework density 21.933638999999999
#
# number of rings (size 3 to 8) (size 9 to 14) (size 15 to 20)
#    0.000    2.833    0.000    1.000    0.000    1.333 
#   12.000    0.000    0.000    1.000    0.000    0.000 
#    0.000    0.000    0.000    0.000    0.000    0.000 
#
# Total GULP energy -267673.659840 kJ/mol
# GULP energy per Si atom -5576.534580 kJ/mol
# Density = 2.188372 g / cm^3
# Si number density = 21.933639 Si / 1000 Ang^3
#
#
#
# Elastic Constant Matrix: (Units=GPa)
#
#
# Indices 1 2 3 4 5 6 
#
# 1 160.3412 9.8798 153.8797 0.0000 0.0000 0.0000
# 2 9.8798 76.5407 20.7230 0.0000 0.0000 0.0000
# 3 153.8797 20.7230 189.1469 0.0000 0.0000 0.0000
# 4 0.0000 0.0000 0.0000 -12.6952 0.0000 0.0000
# 5 0.0000 0.0000 0.0000 0.0000 78.7968 0.0000
# 6 0.0000 0.0000 0.0000 0.0000 0.0000 -120.4683
#
#
#
# Elastic Compliance Matrix: (Units=1/GPa)
#
#
# Indices 1 2 3 4 5 6 
#
# 1 0.028988 0.002724 -0.023882 0.000000 0.000000 0.000000
# 2 0.002724 0.013720 -0.003719 0.000000 0.000000 0.000000
# 3 -0.023882 -0.003719 0.025123 0.000000 0.000000 0.000000
# 4 0.000000 0.000000 0.000000 -0.078770 0.000000 0.000000
# 5 0.000000 0.000000 0.000000 0.000000 0.012691 0.000000
# 6 0.000000 0.000000 0.000000 0.000000 0.000000 -0.008301
#
#
# Mechanical properties :
#
#
# Convention : Reuss Voigt Hill
#
# Bulk Modulus (GPa) = 55.31649 88.33265 71.82457
# Shear Modulus (GPa) = 101.56144 5.22973 53.39558
#
# Velocity S-wave (km/s) = 6.81208 1.54581 4.93933
# Velocity P-wave (km/s) = 9.33527 6.59895 8.08373
#
# Compressibility (1/GPa) = 0.01807779
#
# Stress axis : x y z
#
# Youngs Moduli (GPa) = 34.49704 72.88463 39.80399
#
# Poissons Ratio (x) = -0.19854 0.95058
# Poissons Ratio (y) = -0.09397 0.14804
# Poissons Ratio (z) = 0.82384 0.27108
#
# Static dielectric constant tensor:
#      x y z
#    x 1.743360 0.000000 0.000000 
#    y 0.000000 1.839070 0.000000 
#    z 0.000000 0.000000 1.465620 
# 
# From -- ./inp_files/19414.got.cif
#   From: 2010.05.17/outbox.cif.g08.bks.cpg/sg55_10_cif.got.tgz:19414.got - 2010.06.03 13:27:54.
