data_PCOD9427618
_publ_section_title
;
Structure prediction by ZEFSAII (Michael W. Deem and Ramdas Pophale) SiO2 
 PCOD9427618
Probable space group: P B A M
;
_chemical_formula_sum "Si O2"
_cell_formula_units_Z 58
_cell_length_a 28.207162
_cell_length_b 10.629318
_cell_length_c 10.118964
_cell_angle_alpha 90.000000
_cell_angle_beta 90.000000
_cell_angle_gamma 90.000000
_cell_volume 3033.897079
_symmetry_space_group_name_H-M "P B A M"
_symmetry_group_IT_number 55
_symmetry_cell_setting 'orthorhombic'
loop_
_space_group_symop_operation_xyz
x,y,z
-x,-y,z
1/2+x,1/2-y,-z
1/2-x,1/2+y,-z
-x,-y,-z
x,y,-z
1/2-x,1/2+y,z
1/2+x,1/2-y,z
loop_
_atom_site_type_symbol
_atom_site_label
_atom_site_fract_x
_atom_site_fract_y
_atom_site_fract_z
Si Si1 0.845340 0.945738 0.847528
Si Si2 0.000000 0.000000 0.500000
Si Si3 0.993148 0.353649 0.842954
Si Si4 0.108675 0.591633 0.847850
Si Si5 0.436382 0.654127 0.711478
Si Si6 0.217534 0.227163 0.344629
Si Si7 0.127706 0.383692 0.359422
Si Si8 0.696365 0.724247 0.150534
O O1 0.899949 0.920715 0.806692
O O2 0.811146 0.874336 0.743655
O O3 0.830260 0.090984 0.841156
O O4 0.838270 0.902398 0.000000
O O5 0.965241 0.936374 0.385078
O O6 0.937814 0.327315 0.814509
O O7 0.000000 0.500000 0.798495
O O8 0.026344 0.248287 0.781041
O O9 0.001175 0.352482 0.000000
O O10 0.110940 0.469756 0.758320
O O11 0.156543 0.669413 0.834365
O O12 0.103070 0.552624 0.000000
O O13 0.401023 0.753568 0.641311
O O14 0.224502 0.191673 0.500000
O O15 0.182642 0.347673 0.345198
O O16 0.264832 0.259039 0.264128
O O17 0.119790 0.448856 0.500000
O O18 0.716584 0.733898 0.000000
#
# Coordination Sequence:
#
# PCOD9427618 Si02
#       8
#     8   2   8   8   8   8   8   8
#     4  10  23  43  69  95 128 174 223 278 334 396
#     4  12  28  44  64  92 132 184 222 270 332 388
#     4  10  20  38  66  97 125 162 215 274 332 393
#     4  10  22  39  62  93 129 164 207 273 331 384
#     4  11  23  43  65  92 131 174 222 264 330 401
#     4  10  23  41  65  93 128 170 217 265 330 404
#     4  10  21  41  62  89 124 163 215 267 316 391
#     4  10  23  42  61  93 132 166 218 274 329 394
#
# _framework density 19.117327
#
# number of rings (size 3 to 8) (size 9 to 14) (size 15 to 20)
#    0.000    1.793    2.069    0.828    4.828    3.862 
#    1.241    1.724    0.000    0.000    0.000    0.000 
#    0.000    0.000    0.000    0.000    0.000    0.000 
#
# Total GULP energy -322886.411060 kJ/mol
# GULP energy per Si atom -5567.007087 kJ/mol
# Density = 1.907381 g / cm^3
# Si number density = 19.117327 Si / 1000 Ang^3
#
#
#
# Elastic Constant Matrix: (Units=GPa)
#
#
# Indices 1 2 3 4 5 6 
#
# 1 125.7507 39.2560 83.6195 0.0000 0.0000 0.0000
# 2 39.2560 58.1852 51.3102 0.0000 0.0000 0.0000
# 3 83.6195 51.3102 133.7387 0.0000 0.0000 0.0000
# 4 0.0000 0.0000 0.0000 -73.8255 0.0000 0.0000
# 5 0.0000 0.0000 0.0000 0.0000 16.2113 0.0000
# 6 0.0000 0.0000 0.0000 0.0000 0.0000 25.4692
#
#
#
# Elastic Compliance Matrix: (Units=1/GPa)
#
#
# Indices 1 2 3 4 5 6 
#
# 1 0.013864 -0.002584 -0.007677 0.000000 0.000000 0.000000
# 2 -0.002584 0.026456 -0.008535 0.000000 0.000000 0.000000
# 3 -0.007677 -0.008535 0.015552 0.000000 0.000000 0.000000
# 4 0.000000 0.000000 0.000000 -0.013545 0.000000 0.000000
# 5 0.000000 0.000000 0.000000 0.000000 0.061685 0.000000
# 6 0.000000 0.000000 0.000000 0.000000 0.000000 0.039263
#
#
# Mechanical properties :
#
#
# Convention : Reuss Voigt Hill
#
# Bulk Modulus (GPa) = 54.70244 74.00510 64.35377
# Shear Modulus (GPa) = 26.74393 3.13692 14.94042
#
# Velocity S-wave (km/s) = 3.74429 1.28236 2.79859
# Velocity P-wave (km/s) = 6.88253 6.40216 6.64668
#
# Compressibility (1/GPa) = 0.01828072
#
# Stress axis : x y z
#
# Youngs Moduli (GPa) = 72.13089 37.79888 64.30168
#
# Poissons Ratio (x) = 0.09766 0.49364
# Poissons Ratio (y) = 0.18635 0.54879
# Poissons Ratio (z) = 0.55375 0.32260
#
# Static dielectric constant tensor:
#      x y z
#    x 1.684540 0.000000 0.000000 
#    y 0.000000 1.644980 0.000000 
#    z 0.000000 0.000000 1.670860 
# 
# From -- ./inp_files/10208.got.cif
#   From: 2010.05.17/outbox.cif.g08.bks.cpg/sg55_6_cif.got.tgz:10208.got - 2010.06.03 13:27:54.
