data_PCOD9427319
_publ_section_title
;
Structure prediction by ZEFSAII (Michael W. Deem and Ramdas Pophale) SiO2 
 PCOD9427319
Probable space group: P B A M
;
_chemical_formula_sum "Si O2"
_cell_formula_units_Z 64
_cell_length_a 8.032076
_cell_length_b 22.934763
_cell_length_c 15.007399
_cell_angle_alpha 90.000000
_cell_angle_beta 90.000000
_cell_angle_gamma 90.000000
_cell_volume 2764.569389
_symmetry_space_group_name_H-M "P B A M"
_symmetry_group_IT_number 55
_symmetry_cell_setting 'orthorhombic'
loop_
_space_group_symop_operation_xyz
x,y,z
-x,-y,z
1/2+x,1/2-y,-z
1/2-x,1/2+y,-z
-x,-y,-z
x,y,-z
1/2-x,1/2+y,z
1/2+x,1/2-y,z
loop_
_atom_site_type_symbol
_atom_site_label
_atom_site_fract_x
_atom_site_fract_y
_atom_site_fract_z
Si Si1 0.311212 0.214476 0.603006
Si Si2 0.978318 0.854107 0.099325
Si Si3 0.340052 0.034323 0.738715
Si Si4 0.650866 0.581189 0.743823
Si Si5 0.685546 0.216069 0.899844
Si Si6 0.615317 0.398297 0.396896
Si Si7 0.391282 0.120810 0.901387
Si Si8 0.137333 0.306346 0.709938
O O1 0.366688 0.214113 0.500000
O O2 0.154405 0.170676 0.610199
O O3 0.254327 0.277431 0.635740
O O4 0.454875 0.192654 0.668846
O O5 0.780794 0.842048 0.108556
O O6 0.027999 0.896732 0.178816
O O7 0.119745 0.803773 0.103157
O O8 0.000187 0.879839 0.000000
O O9 0.258791 0.071116 0.660330
O O10 0.387417 0.074003 0.823063
O O11 0.500000 0.000000 0.704640
O O12 0.215110 0.982603 0.765966
O O13 0.553180 0.582991 0.651056
O O14 0.793897 0.630128 0.734867
O O15 0.552558 0.162090 0.901597
O O16 0.649253 0.234936 0.797759
O O17 0.662742 0.242570 0.000000
O O18 0.619639 0.414349 0.500000
O O19 0.384588 0.093209 0.000000
#
# Coordination Sequence:
#
# PCOD9427319 Si02
#       8
#     8   8   8   8   8   8   8   8
#     4  11  24  44  69  96 124 158 215 280 335 397
#     4   9  18  34  59  90 128 171 215 262 312 373
#     4  12  24  40  61  92 133 172 215 264 321 394
#     4  11  23  39  63  93 130 169 210 265 325 394
#     4   9  19  38  63  97 136 175 221 269 321 391
#     4  11  25  44  65  89 122 166 216 270 329 395
#     4  10  20  36  62  95 134 181 223 266 319 379
#     4  11  23  42  69  97 128 169 210 268 338 392
#
# _framework density 23.150081
#
# number of rings (size 3 to 8) (size 9 to 14) (size 15 to 20)
#    0.000    1.500    1.250    4.500    0.000    4.000 
#    0.000    1.875    0.000    3.000    0.000    0.000 
#    0.000    0.000    0.000    0.000    0.000    0.000 
#
# Total GULP energy -357833.486998 kJ/mol
# GULP energy per Si atom -5591.148234 kJ/mol
# Density = 2.309739 g / cm^3
# Si number density = 23.150081 Si / 1000 Ang^3
#
#
#
# Elastic Constant Matrix: (Units=GPa)
#
#
# Indices 1 2 3 4 5 6 
#
# 1 104.4992 17.2558 15.8260 0.0000 0.0000 0.0000
# 2 17.2558 75.4475 37.1066 0.0000 0.0000 0.0000
# 3 15.8260 37.1066 132.0068 0.0000 0.0000 0.0000
# 4 0.0000 0.0000 0.0000 20.0296 0.0000 0.0000
# 5 0.0000 0.0000 0.0000 0.0000 31.8679 0.0000
# 6 0.0000 0.0000 0.0000 0.0000 0.0000 31.5179
#
#
#
# Elastic Compliance Matrix: (Units=1/GPa)
#
#
# Indices 1 2 3 4 5 6 
#
# 1 0.009992 -0.001968 -0.000645 0.000000 0.000000 0.000000
# 2 -0.001968 0.015768 -0.004196 0.000000 0.000000 0.000000
# 3 -0.000645 -0.004196 0.008832 0.000000 0.000000 0.000000
# 4 0.000000 0.000000 0.000000 0.049926 0.000000 0.000000
# 5 0.000000 0.000000 0.000000 0.000000 0.031379 0.000000
# 6 0.000000 0.000000 0.000000 0.000000 0.000000 0.031728
#
#
# Mechanical properties :
#
#
# Convention : Reuss Voigt Hill
#
# Bulk Modulus (GPa) = 47.67824 50.25895 48.96859
# Shear Modulus (GPa) = 29.72010 32.80076 31.26043
#
# Velocity S-wave (km/s) = 3.58690 3.76822 3.67868
# Velocity P-wave (km/s) = 6.14772 6.37886 6.26436
#
# Compressibility (1/GPa) = 0.02097393
#
# Stress axis : x y z
#
# Youngs Moduli (GPa) = 100.07912 63.41833 113.22132
#
# Poissons Ratio (x) = 0.12482 0.07299
# Poissons Ratio (y) = 0.19698 0.47513
# Poissons Ratio (z) = 0.06452 0.26613
#
# Static dielectric constant tensor:
#      x y z
#    x 1.900470 0.000000 0.000000 
#    y 0.000000 1.916210 0.000000 
#    z 0.000000 0.000000 1.835940 
# 
# From -- ./inp_files/17795.got.cif
#   From: 2010.05.17/outbox.cif.g08.bks.cpg/sg55_9_cif.got.tgz:17795.got - 2010.06.03 13:27:54.
