data_PCOD9427917
_publ_section_title
;
Structure prediction by ZEFSAII (Michael W. Deem and Ramdas Pophale) SiO2 
 PCOD9427917
Probable space group: P B A M
;
_chemical_formula_sum "Si O2"
_cell_formula_units_Z 40
_cell_length_a 11.244159
_cell_length_b 12.688740
_cell_length_c 15.258911
_cell_angle_alpha 90.000000
_cell_angle_beta 90.000000
_cell_angle_gamma 90.000000
_cell_volume 2177.053073
_symmetry_space_group_name_H-M "P B A M"
_symmetry_group_IT_number 55
_symmetry_cell_setting 'orthorhombic'
loop_
_space_group_symop_operation_xyz
x,y,z
-x,-y,z
1/2+x,1/2-y,-z
1/2-x,1/2+y,-z
-x,-y,-z
x,y,-z
1/2-x,1/2+y,z
1/2+x,1/2-y,z
loop_
_atom_site_type_symbol
_atom_site_label
_atom_site_fract_x
_atom_site_fract_y
_atom_site_fract_z
Si Si1 0.173438 0.652686 0.500000
Si Si2 0.957033 0.338578 0.894237
Si Si3 0.687264 0.030205 0.837598
Si Si4 0.600654 0.195325 0.500000
Si Si5 0.564943 0.601165 0.898302
Si Si6 0.134757 0.478851 0.353057
O O1 0.297149 0.716094 0.500000
O O2 0.169922 0.576229 0.415132
O O3 0.044084 0.714218 0.500000
O O4 0.847885 0.410437 0.861445
O O5 0.954886 0.218208 0.861701
O O6 0.075165 0.397108 0.862008
O O7 0.954046 0.339913 0.000000
O O8 0.797332 0.072875 0.891765
O O9 0.711246 0.035993 0.733767
O O10 0.626807 0.122423 0.584612
O O11 0.500000 0.500000 0.856945
O O12 0.526023 0.607409 0.000000
O O13 0.000000 0.500000 0.320920
#
# Coordination Sequence:
#
# PCOD9427917 Si02
#       6
#     4   8   8   4   8   8
#     4   9  19  37  60  82 114 153 191 231 294 355
#     4  10  21  36  58  81 109 154 198 235 291 348
#     4  11  20  37  59  85 112 146 202 244 285 350
#     4   9  19  37  60  84 110 151 187 225 296 353
#     4  10  23  39  55  81 120 158 193 244 300 343
#     4   9  18  37  57  81 113 148 185 231 287 351
#
# _framework density 18.373459
#
# number of rings (size 3 to 8) (size 9 to 14) (size 15 to 20)
#    0.000    2.200    2.000    3.600    2.800    1.600 
#    0.000    2.000    0.000    0.000    0.000    0.000 
#    0.000    0.000    0.000    0.000    0.000    0.000 
#
# Total GULP energy -222866.257741 kJ/mol
# GULP energy per Si atom -5571.656444 kJ/mol
# Density = 1.833164 g / cm^3
# Si number density = 18.373459 Si / 1000 Ang^3
#
#
#
# Elastic Constant Matrix: (Units=GPa)
#
#
# Indices 1 2 3 4 5 6 
#
# 1 38.6742 24.4862 -16.9280 0.0000 0.0000 0.0000
# 2 24.4862 119.2548 -0.5307 0.0000 0.0000 0.0000
# 3 -16.9280 -0.5307 59.7550 0.0000 0.0000 0.0000
# 4 0.0000 0.0000 0.0000 -8.8172 0.0000 0.0000
# 5 0.0000 0.0000 0.0000 0.0000 -0.6259 0.0000
# 6 0.0000 0.0000 0.0000 0.0000 0.0000 26.3518
#
#
#
# Elastic Compliance Matrix: (Units=1/GPa)
#
#
# Indices 1 2 3 4 5 6 
#
# 1 0.034587 -0.007058 0.009736 0.000000 0.000000 0.000000
# 2 -0.007058 0.009826 -0.001912 0.000000 0.000000 0.000000
# 3 0.009736 -0.001912 0.019476 0.000000 0.000000 0.000000
# 4 0.000000 0.000000 0.000000 -0.113414 0.000000 0.000000
# 5 0.000000 0.000000 0.000000 0.000000 -1.597666 0.000000
# 6 0.000000 0.000000 0.000000 0.000000 0.000000 0.037948
#
#
# Mechanical properties :
#
#
# Convention : Reuss Voigt Hill
#
# Bulk Modulus (GPa) = 15.28601 25.74878 20.51739
# Shear Modulus (GPa) = -3.14670 17.42550 7.13940
#
# Velocity S-wave (km/s) = -1.31010 3.08296 1.97336
# Velocity P-wave (km/s) = 2.45951 5.16889 4.04763
#
# Compressibility (1/GPa) = 0.06541929
#
# Stress axis : x y z
#
# Youngs Moduli (GPa) = 28.91231 101.76905 51.34521
#
# Poissons Ratio (x) = 0.71833 -0.49987
# Poissons Ratio (y) = 0.20407 0.09819
# Poissons Ratio (z) = -0.28148 0.19461
#
# Static dielectric constant tensor:
#      x y z
#    x 1.638800 0.000000 0.000000 
#    y 0.000000 1.649700 0.000000 
#    z 0.000000 0.000000 1.632760 
# 
# From -- ./inp_files/18166.got.cif
#   From: 2010.05.17/outbox.cif.g08.bks.cpg/sg55_10_cif.got.tgz:18166.got - 2010.06.03 13:27:54.
