data_PCOD9427473
_publ_section_title
;
Structure prediction by ZEFSAII (Michael W. Deem and Ramdas Pophale) SiO2 
 PCOD9427473
Probable space group: P B A M
;
_chemical_formula_sum "Si O2"
_cell_formula_units_Z 48
_cell_length_a 9.106489
_cell_length_b 31.667475
_cell_length_c 8.438976
_cell_angle_alpha 90.000000
_cell_angle_beta 90.000000
_cell_angle_gamma 90.000000
_cell_volume 2433.627787
_symmetry_space_group_name_H-M "P B A M"
_symmetry_group_IT_number 55
_symmetry_cell_setting 'orthorhombic'
loop_
_space_group_symop_operation_xyz
x,y,z
-x,-y,z
1/2+x,1/2-y,-z
1/2-x,1/2+y,-z
-x,-y,-z
x,y,-z
1/2-x,1/2+y,z
1/2+x,1/2-y,z
loop_
_atom_site_type_symbol
_atom_site_label
_atom_site_fract_x
_atom_site_fract_y
_atom_site_fract_z
Si Si1 0.088133 0.542247 0.192038
Si Si2 0.574607 0.787732 0.188072
Si Si3 0.075993 0.872576 0.189344
Si Si4 0.079296 0.043506 0.689464
Si Si5 0.599427 0.292175 0.685524
Si Si6 0.084990 0.373868 0.192904
O O1 0.250950 0.542160 0.261326
O O2 0.000000 0.500000 0.236699
O O3 0.999491 0.583927 0.244210
O O4 0.098823 0.543051 0.000000
O O5 0.747337 0.789447 0.221727
O O6 0.500092 0.748078 0.272421
O O7 0.499355 0.831471 0.241887
O O8 0.549827 0.783258 0.000000
O O9 0.245559 0.873178 0.243483
O O10 0.999514 0.916645 0.231230
O O11 0.987713 0.834279 0.267090
O O12 0.073956 0.866433 0.000000
O O13 0.067367 0.047696 0.500000
O O14 0.000000 0.000000 0.737735
O O15 0.632632 0.292678 0.500000
O O16 0.084780 0.374527 0.000000
#
# Coordination Sequence:
#
# PCOD9427473 Si02
#       6
#     8   8   8   8   8   8
#     4  10  20  37  62  90 118 153 202 253 299 354
#     4  11  22  40  64  89 120 163 211 252 299 366
#     4  11  22  40  65  90 118 157 204 251 302 363
#     4  11  24  40  58  86 124 162 200 246 303 362
#     4  12  25  41  61  91 127 160 200 254 314 367
#     4   9  20  37  60  89 117 149 197 254 301 347
#
# _framework density 19.723642000000002
#
# number of rings (size 3 to 8) (size 9 to 14) (size 15 to 20)
#    0.000    1.333    0.000    6.000    0.000    5.667 
#    0.000    5.000    0.000    0.000    0.000    0.000 
#    0.000    0.000    0.000    0.000    0.000    0.000 
#
# Total GULP energy -268545.934926 kJ/mol
# GULP energy per Si atom -5594.706978 kJ/mol
# Density = 1.967875 g / cm^3
# Si number density = 19.723642 Si / 1000 Ang^3
#
#
#
# Elastic Constant Matrix: (Units=GPa)
#
#
# Indices 1 2 3 4 5 6 
#
# 1 119.3607 38.7067 -20.5834 0.0000 0.0000 0.0000
# 2 38.7067 137.1087 -2.9220 0.0000 0.0000 0.0000
# 3 -20.5834 -2.9220 23.2127 0.0000 0.0000 0.0000
# 4 0.0000 0.0000 0.0000 21.3326 0.0000 0.0000
# 5 0.0000 0.0000 0.0000 0.0000 0.3037 0.0000
# 6 0.0000 0.0000 0.0000 0.0000 0.0000 44.2927
#
#
#
# Elastic Compliance Matrix: (Units=1/GPa)
#
#
# Indices 1 2 3 4 5 6 
#
# 1 0.010921 -0.002884 0.009321 0.000000 0.000000 0.000000
# 2 -0.002884 0.008075 -0.001541 0.000000 0.000000 0.000000
# 3 0.009321 -0.001541 0.051151 0.000000 0.000000 0.000000
# 4 0.000000 0.000000 0.000000 0.046877 0.000000 0.000000
# 5 0.000000 0.000000 0.000000 0.000000 3.292959 0.000000
# 6 0.000000 0.000000 0.000000 0.000000 0.000000 0.022577
#
#
# Mechanical properties :
#
#
# Convention : Reuss Voigt Hill
#
# Bulk Modulus (GPa) = 12.50994 34.45385 23.48190
# Shear Modulus (GPa) = 1.44952 30.81783 16.13367
#
# Velocity S-wave (km/s) = 0.85820 3.95711 2.86315
# Velocity P-wave (km/s) = 2.70895 6.19553 4.78137
#
# Compressibility (1/GPa) = 0.07993644
#
# Stress axis : x y z
#
# Youngs Moduli (GPa) = 91.56997 123.84045 19.55005
#
# Poissons Ratio (x) = 0.35720 -0.18222
# Poissons Ratio (y) = 0.26412 0.03013
# Poissons Ratio (z) = -0.85348 0.19086
#
# Static dielectric constant tensor:
#      x y z
#    x 1.645490 0.000000 0.000000 
#    y 0.000000 1.657280 0.000000 
#    z 0.000000 0.000000 1.673660 
# 
# From -- ./inp_files/2911.got.cif
#   From: 2010.05.17/outbox.cif.g08.bks.cpg/sg55_2_cif.got.tgz:2911.got - 2010.06.03 13:27:54.
