data_PCOD9427664
_publ_section_title
;
Structure prediction by ZEFSAII (Michael W. Deem and Ramdas Pophale) SiO2 
 PCOD9427664
Probable space group: P B A M
;
_chemical_formula_sum "Si O2"
_cell_formula_units_Z 48
_cell_length_a 9.465619
_cell_length_b 29.052772
_cell_length_c 8.717783
_cell_angle_alpha 90.000000
_cell_angle_beta 90.000000
_cell_angle_gamma 90.000000
_cell_volume 2397.411864
_symmetry_space_group_name_H-M "P B A M"
_symmetry_group_IT_number 55
_symmetry_cell_setting 'orthorhombic'
loop_
_space_group_symop_operation_xyz
x,y,z
-x,-y,z
1/2+x,1/2-y,-z
1/2-x,1/2+y,-z
-x,-y,-z
x,y,-z
1/2-x,1/2+y,z
1/2+x,1/2-y,z
loop_
_atom_site_type_symbol
_atom_site_label
_atom_site_fract_x
_atom_site_fract_y
_atom_site_fract_z
Si Si1 0.313811 0.722277 0.182812
Si Si2 0.899910 0.958993 0.316578
Si Si3 0.162815 0.486647 0.174583
Si Si4 0.680865 0.114541 0.683941
Si Si5 0.495327 0.358717 0.314428
Si Si6 0.994069 0.301959 0.684483
O O1 0.416888 0.680594 0.231471
O O2 0.385309 0.766868 0.259304
O O3 0.156506 0.711697 0.244460
O O4 0.309750 0.727555 0.000000
O O5 0.913910 0.958147 0.500000
O O6 0.945162 0.908575 0.265139
O O7 0.745729 0.975207 0.270658
O O8 0.000000 0.000000 0.257262
O O9 0.181725 0.435593 0.241471
O O10 0.000000 0.500000 0.176240
O O11 0.215213 0.487498 0.000000
O O12 0.678580 0.108221 0.500000
O O13 0.549405 0.146977 0.727501
O O14 0.828348 0.140334 0.719763
O O15 0.511790 0.353602 0.500000
O O16 0.983415 0.299735 0.500000
#
# Coordination Sequence:
#
# PCOD9427664 Si02
#       6
#     8   8   8   8   8   8
#     4  12  26  43  66  98 133 166 203 258 323 381
#     4  10  20  39  65  91 120 162 216 264 304 362
#     4  11  25  40  57  88 130 169 205 255 319 378
#     4  10  22  42  67  92 119 161 214 263 307 364
#     4  10  21  40  66  94 125 163 212 263 312 372
#     4  11  24  44  70  96 125 166 215 260 309 376
#
# _framework density 20.021591999999998
#
# number of rings (size 3 to 8) (size 9 to 14) (size 15 to 20)
#    0.000    1.333    1.667    3.500    2.333    5.667 
#    0.000    0.000    0.000    0.000    0.000    0.000 
#    0.000    0.000    0.000    0.000    0.000    0.000 
#
# Total GULP energy -268316.996668 kJ/mol
# GULP energy per Si atom -5589.937431 kJ/mol
# Density = 1.997602 g / cm^3
# Si number density = 20.021592 Si / 1000 Ang^3
#
#
#
# Elastic Constant Matrix: (Units=GPa)
#
#
# Indices 1 2 3 4 5 6 
#
# 1 69.3303 6.7700 6.3278 0.0000 0.0000 0.0000
# 2 6.7700 66.7955 11.1401 0.0000 0.0000 0.0000
# 3 6.3278 11.1401 17.7376 0.0000 0.0000 0.0000
# 4 0.0000 0.0000 0.0000 32.5413 0.0000 0.0000
# 5 0.0000 0.0000 0.0000 0.0000 134.0168 0.0000
# 6 0.0000 0.0000 0.0000 0.0000 0.0000 34.7376
#
#
#
# Elastic Compliance Matrix: (Units=1/GPa)
#
#
# Indices 1 2 3 4 5 6 
#
# 1 0.014938 -0.000698 -0.004891 0.000000 0.000000 0.000000
# 2 -0.000698 0.016755 -0.010274 0.000000 0.000000 0.000000
# 3 -0.004891 -0.010274 0.064575 0.000000 0.000000 0.000000
# 4 0.000000 0.000000 0.000000 0.030730 0.000000 0.000000
# 5 0.000000 0.000000 0.000000 0.000000 0.007462 0.000000
# 6 0.000000 0.000000 0.000000 0.000000 0.000000 0.028787
#
#
# Mechanical properties :
#
#
# Convention : Reuss Voigt Hill
#
# Bulk Modulus (GPa) = 15.49371 22.48214 18.98792
# Shear Modulus (GPa) = 23.09602 48.90085 35.99843
#
# Velocity S-wave (km/s) = 3.40009 4.94743 4.24486
# Velocity P-wave (km/s) = 4.81346 6.62491 5.79046
#
# Compressibility (1/GPa) = 0.06454234
#
# Stress axis : x y z
#
# Youngs Moduli (GPa) = 66.94215 59.68238 15.48595
#
# Poissons Ratio (x) = 0.04168 0.07573
# Poissons Ratio (y) = 0.04675 0.15910
# Poissons Ratio (z) = 0.32738 0.61318
#
# Static dielectric constant tensor:
#      x y z
#    x 1.777750 0.000000 0.000000 
#    y 0.000000 1.698440 0.000000 
#    z 0.000000 0.000000 1.688420 
# 
# From -- ./inp_files/2759.got.cif
#   From: 2010.05.17/outbox.cif.g08.bks.cpg/sg55_2_cif.got.tgz:2759.got - 2010.06.03 13:27:54.
