data_PCOD9427395
_publ_section_title
;
Structure prediction by ZEFSAII (Michael W. Deem and Ramdas Pophale) SiO2 
 PCOD9427395
Probable space group: P B A M
;
_chemical_formula_sum "Si O2"
_cell_formula_units_Z 64
_cell_length_a 20.139540
_cell_length_b 8.580658
_cell_length_c 19.331907
_cell_angle_alpha 90.000000
_cell_angle_beta 90.000000
_cell_angle_gamma 90.000000
_cell_volume 3340.756612
_symmetry_space_group_name_H-M "P B A M"
_symmetry_group_IT_number 55
_symmetry_cell_setting 'orthorhombic'
loop_
_space_group_symop_operation_xyz
x,y,z
-x,-y,z
1/2+x,1/2-y,-z
1/2-x,1/2+y,-z
-x,-y,-z
x,y,-z
1/2-x,1/2+y,z
1/2+x,1/2-y,z
loop_
_atom_site_type_symbol
_atom_site_label
_atom_site_fract_x
_atom_site_fract_y
_atom_site_fract_z
Si Si1 0.460976 0.220456 0.582581
Si Si2 0.175636 0.760167 0.789140
Si Si3 0.406073 0.891933 0.639862
Si Si4 0.775015 0.949258 0.868914
Si Si5 0.078426 0.482727 0.796297
Si Si6 0.666875 0.631974 0.631792
Si Si7 0.789687 0.804412 0.579837
Si Si8 0.654529 0.152924 0.077086
O O1 0.469760 0.220338 0.500000
O O2 0.532598 0.221354 0.619589
O O3 0.408680 0.350928 0.606049
O O4 0.427086 0.058221 0.607566
O O5 0.181646 0.912974 0.836289
O O6 0.238753 0.651531 0.808633
O O7 0.112488 0.651664 0.802860
O O8 0.173957 0.812065 0.710218
O O9 0.399626 0.911957 0.722293
O O10 0.338748 0.829641 0.607000
O O11 0.715929 0.033325 0.910986
O O12 0.816132 0.825711 0.912897
O O13 0.103942 0.382480 0.860878
O O14 0.000000 0.500000 0.794660
O O15 0.714811 0.745202 0.588101
O O16 0.694097 0.458588 0.622695
O O17 0.803816 0.838503 0.500000
O O18 0.627383 0.132365 0.000000
#
# Coordination Sequence:
#
# PCOD9427395 Si02
#       8
#     8   8   8   8   8   8   8   8
#     4  11  21  40  64  84 113 158 207 252 306 360
#     4  10  20  37  59  91 114 159 197 253 293 352
#     4  11  22  40  61  85 113 158 202 254 298 362
#     4   9  20  36  63  91 128 152 198 238 295 354
#     4  11  22  41  62  89 120 158 206 243 293 354
#     4  12  24  38  60  83 123 155 204 253 309 363
#     4  12  26  39  55  85 120 155 197 253 316 366
#     4  10  21  37  65  96 127 159 190 239 292 353
#
# _framework density 19.157336000000001
#
# number of rings (size 3 to 8) (size 9 to 14) (size 15 to 20)
#    0.000    1.250    2.500    4.500    7.000    0.750 
#    0.000    2.500    0.000    0.750    0.000    0.000 
#    0.000    0.000    0.000    0.000    0.000    0.000 
#
# Total GULP energy -357739.653805 kJ/mol
# GULP energy per Si atom -5589.682091 kJ/mol
# Density = 1.911373 g / cm^3
# Si number density = 19.157336 Si / 1000 Ang^3
#
#
#
# Elastic Constant Matrix: (Units=GPa)
#
#
# Indices 1 2 3 4 5 6 
#
# 1 31.3032 -7.5565 -0.8873 0.0000 0.0000 0.0000
# 2 -7.5565 51.4472 5.4376 0.0000 0.0000 0.0000
# 3 -0.8873 5.4376 104.2662 0.0000 0.0000 0.0000
# 4 0.0000 0.0000 0.0000 11.4804 0.0000 0.0000
# 5 0.0000 0.0000 0.0000 0.0000 17.2725 0.0000
# 6 0.0000 0.0000 0.0000 0.0000 0.0000 21.7096
#
#
#
# Elastic Compliance Matrix: (Units=1/GPa)
#
#
# Indices 1 2 3 4 5 6 
#
# 1 0.033120 0.004862 0.000028 0.000000 0.000000 0.000000
# 2 0.004862 0.020259 -0.001015 0.000000 0.000000 0.000000
# 3 0.000028 -0.001015 0.009644 0.000000 0.000000 0.000000
# 4 0.000000 0.000000 0.000000 0.087105 0.000000 0.000000
# 5 0.000000 0.000000 0.000000 0.000000 0.057895 0.000000
# 6 0.000000 0.000000 0.000000 0.000000 0.000000 0.046062
#
#
# Mechanical properties :
#
#
# Convention : Reuss Voigt Hill
#
# Bulk Modulus (GPa) = 14.12981 20.11158 17.12070
# Shear Modulus (GPa) = 18.52355 22.76071 20.64213
#
# Velocity S-wave (km/s) = 3.11290 3.45061 3.28610
# Velocity P-wave (km/s) = 4.50687 5.13776 4.83262
#
# Compressibility (1/GPa) = 0.07077236
#
# Stress axis : x y z
#
# Youngs Moduli (GPa) = 30.19325 49.36134 103.69124
#
# Poissons Ratio (x) = -0.23998 -0.00294
# Poissons Ratio (y) = -0.14679 0.10526
# Poissons Ratio (z) = -0.00085 0.05011
#
# Static dielectric constant tensor:
#      x y z
#    x 1.663390 0.000000 0.000000 
#    y 0.000000 1.671930 0.000000 
#    z 0.000000 0.000000 1.655600 
# 
# From -- ./inp_files/23066.got.cif
#   From: 2010.05.17/outbox.cif.g08.bks.cpg/sg55_12_cif.got.tgz:23066.got - 2010.06.03 13:27:54.
