data_PCOD9427788
_publ_section_title
;
Structure prediction by ZEFSAII (Michael W. Deem and Ramdas Pophale) SiO2 
 PCOD9427788
Probable space group: P B A M
;
_chemical_formula_sum "Si O2"
_cell_formula_units_Z 64
_cell_length_a 8.304438
_cell_length_b 24.998717
_cell_length_c 13.757896
_cell_angle_alpha 90.000000
_cell_angle_beta 90.000000
_cell_angle_gamma 90.000000
_cell_volume 2856.143274
_symmetry_space_group_name_H-M "P B A M"
_symmetry_group_IT_number 55
_symmetry_cell_setting 'orthorhombic'
loop_
_space_group_symop_operation_xyz
x,y,z
-x,-y,z
1/2+x,1/2-y,-z
1/2-x,1/2+y,-z
-x,-y,-z
x,y,-z
1/2-x,1/2+y,z
1/2+x,1/2-y,z
loop_
_atom_site_type_symbol
_atom_site_label
_atom_site_fract_x
_atom_site_fract_y
_atom_site_fract_z
Si Si1 0.636490 0.125363 0.299971
Si Si2 0.953612 0.275774 0.615178
Si Si3 0.095189 0.316815 0.883428
Si Si4 0.862207 0.037241 0.675852
Si Si5 0.381573 0.041258 0.231603
Si Si6 0.083949 0.099809 0.206482
Si Si7 0.280843 0.698898 0.884685
Si Si8 0.107653 0.170441 0.614460
O O1 0.580027 0.180762 0.346215
O O2 0.677030 0.140307 0.187752
O O3 0.773809 0.092172 0.357108
O O4 0.484845 0.085573 0.287868
O O5 0.980140 0.272534 0.500000
O O6 0.978138 0.214816 0.648817
O O7 0.776716 0.299075 0.631394
O O8 0.170410 0.259107 0.859599
O O9 0.904126 0.314005 0.856096
O O10 0.109688 0.326405 0.000000
O O11 0.941422 0.057814 0.778381
O O12 0.717846 0.996285 0.695295
O O13 0.000000 0.000000 0.627499
O O14 0.244341 0.070186 0.169930
O O15 0.500000 0.000000 0.178151
O O16 0.088564 0.156234 0.152759
O O17 0.108594 0.118424 0.319003
O O18 0.282548 0.696187 0.000000
O O19 0.091576 0.158453 0.500000
#
# Coordination Sequence:
#
# PCOD9427788 Si02
#       8
#     8   8   8   8   8   8   8   8
#     4  11  19  36  62  80 105 150 182 219 274 334
#     4  10  21  35  54  85 116 144 178 218 264 324
#     4  10  21  35  54  85 116 144 178 218 264 324
#     4   9  22  36  58  84 105 138 188 233 279 316
#     4   9  18  36  58  78 103 136 180 235 275 306
#     4  11  19  36  58  80 107 148 178 217 274 327
#     4  10  21  35  54  83 117 144 177 219 262 323
#     4  10  21  35  54  83 117 144 177 219 262 323
#
# _framework density 22.407838999999999
#
# number of rings (size 3 to 8) (size 9 to 14) (size 15 to 20)
#    0.000    2.000    2.500    0.750    3.500    0.000 
#    0.000    0.000    0.000   30.000    0.000    0.000 
#    0.000    0.000    0.000    0.000    0.000    0.000 
#
# Total GULP energy -356761.610228 kJ/mol
# GULP energy per Si atom -5574.400160 kJ/mol
# Density = 2.235684 g / cm^3
# Si number density = 22.407839 Si / 1000 Ang^3
#
#
#
# Elastic Constant Matrix: (Units=GPa)
#
#
# Indices 1 2 3 4 5 6 
#
# 1 44.4724 16.1714 4.5219 0.0000 0.0000 0.0000
# 2 16.1714 97.0490 15.5350 0.0000 0.0000 0.0000
# 3 4.5219 15.5350 40.7741 0.0000 0.0000 0.0000
# 4 0.0000 0.0000 0.0000 2.5359 0.0000 0.0000
# 5 0.0000 0.0000 0.0000 0.0000 12.6021 0.0000
# 6 0.0000 0.0000 0.0000 0.0000 0.0000 48.3085
#
#
#
# Elastic Compliance Matrix: (Units=1/GPa)
#
#
# Indices 1 2 3 4 5 6 
#
# 1 0.023992 -0.003804 -0.001211 0.000000 0.000000 0.000000
# 2 -0.003804 0.011576 -0.003989 0.000000 0.000000 0.000000
# 3 -0.001211 -0.003989 0.026179 0.000000 0.000000 0.000000
# 4 0.000000 0.000000 0.000000 0.394340 0.000000 0.000000
# 5 0.000000 0.000000 0.000000 0.000000 0.079352 0.000000
# 6 0.000000 0.000000 0.000000 0.000000 0.000000 0.020700
#
#
# Mechanical properties :
#
#
# Convention : Reuss Voigt Hill
#
# Bulk Modulus (GPa) = 22.86250 28.30580 25.58415
# Shear Modulus (GPa) = 8.49287 22.42710 15.45999
#
# Velocity S-wave (km/s) = 1.94894 3.16707 2.62951
# Velocity P-wave (km/s) = 3.91018 5.10228 4.54548
#
# Compressibility (1/GPa) = 0.04373975
#
# Stress axis : x y z
#
# Youngs Moduli (GPa) = 41.68014 86.38244 38.19792
#
# Poissons Ratio (x) = 0.32859 0.04628
# Poissons Ratio (y) = 0.15855 0.15236
# Poissons Ratio (z) = 0.05049 0.34456
#
# Static dielectric constant tensor:
#      x y z
#    x 1.966010 0.000000 0.000000 
#    y 0.000000 1.842450 0.000000 
#    z 0.000000 0.000000 1.812720 
# 
# From -- ./inp_files/17816.got.cif
#   From: 2010.05.17/outbox.cif.g08.bks.cpg/sg55_9_cif.got.tgz:17816.got - 2010.06.03 13:27:54.
