data_PCOD9427103
_publ_section_title
;
Structure prediction by ZEFSAII (Michael W. Deem and Ramdas Pophale) SiO2 
 PCOD9427103
Probable space group: P B A M
;
_chemical_formula_sum "Si O2"
_cell_formula_units_Z 48
_cell_length_a 8.138657
_cell_length_b 28.706523
_cell_length_c 7.924923
_cell_angle_alpha 90.000000
_cell_angle_beta 90.000000
_cell_angle_gamma 90.000000
_cell_volume 1851.519924
_symmetry_space_group_name_H-M "P B A M"
_symmetry_group_IT_number 55
_symmetry_cell_setting 'orthorhombic'
loop_
_space_group_symop_operation_xyz
x,y,z
-x,-y,z
1/2+x,1/2-y,-z
1/2-x,1/2+y,-z
-x,-y,-z
x,y,-z
1/2-x,1/2+y,z
1/2+x,1/2-y,z
loop_
_atom_site_type_symbol
_atom_site_label
_atom_site_fract_x
_atom_site_fract_y
_atom_site_fract_z
Si Si1 0.751798 0.651485 0.794939
Si Si2 0.434633 0.092531 0.197971
Si Si3 0.444019 0.762796 0.300102
Si Si4 0.756946 0.821670 0.705472
Si Si5 0.461855 0.429898 0.805727
Si Si6 0.752537 0.493017 0.312746
O O1 0.787828 0.702951 0.728027
O O2 0.595801 0.620546 0.742436
O O3 0.909071 0.620830 0.734470
O O4 0.752282 0.652868 0.000000
O O5 0.279695 0.126986 0.229148
O O6 0.400314 0.041974 0.272216
O O7 0.455472 0.086833 0.000000
O O8 0.468284 0.758319 0.500000
O O9 0.405282 0.711246 0.233820
O O10 0.598293 0.791496 0.233490
O O11 0.758183 0.823661 0.500000
O O12 0.300894 0.463910 0.803113
O O13 0.596933 0.457526 0.701105
O O14 0.517440 0.427330 0.000000
O O15 0.767235 0.511704 0.500000
#
# Coordination Sequence:
#
# PCOD9427103 Si02
#       6
#     8   8   8   8   8   8
#     4   9  20  36  55  78 105 136 175 216 258 307
#     4  10  20  36  55  77 105 139 174 214 259 306
#     4   9  18  32  51  73 103 137 171 211 257 304
#     4   9  18  33  50  73 102 135 172 212 255 303
#     4  10  20  37  57  78 105 138 174 216 261 309
#     4  11  22  36  54  79 107 137 173 215 259 311
#
# _framework density 25.924645999999999
#
# number of rings (size 3 to 8) (size 9 to 14) (size 15 to 20)
#    0.000    2.333    0.000    3.500    0.000    4.667 
#    0.000    5.000    0.000    0.000    0.000    0.000 
#    0.000    0.000    0.000    0.000    0.000    0.000 
#
# Total GULP energy -268544.831145 kJ/mol
# GULP energy per Si atom -5594.683982 kJ/mol
# Density = 2.586564 g / cm^3
# Si number density = 25.924646 Si / 1000 Ang^3
#
#
#
# Elastic Constant Matrix: (Units=GPa)
#
#
# Indices 1 2 3 4 5 6 
#
# 1 50.5038 18.3581 -4.8849 0.0000 0.0000 0.0000
# 2 18.3581 165.0299 -2.6757 0.0000 0.0000 0.0000
# 3 -4.8849 -2.6757 57.9360 0.0000 0.0000 0.0000
# 4 0.0000 0.0000 0.0000 31.1408 0.0000 0.0000
# 5 0.0000 0.0000 0.0000 0.0000 15.3327 0.0000
# 6 0.0000 0.0000 0.0000 0.0000 0.0000 50.6950
#
#
#
# Elastic Compliance Matrix: (Units=1/GPa)
#
#
# Indices 1 2 3 4 5 6 
#
# 1 0.020791 -0.002286 0.001647 0.000000 0.000000 0.000000
# 2 -0.002286 0.006315 0.000099 0.000000 0.000000 0.000000
# 3 0.001647 0.000099 0.017404 0.000000 0.000000 0.000000
# 4 0.000000 0.000000 0.000000 0.032112 0.000000 0.000000
# 5 0.000000 0.000000 0.000000 0.000000 0.065220 0.000000
# 6 0.000000 0.000000 0.000000 0.000000 0.000000 0.019726
#
#
# Mechanical properties :
#
#
# Convention : Reuss Voigt Hill
#
# Bulk Modulus (GPa) = 23.02523 32.78497 27.90510
# Shear Modulus (GPa) = 28.22874 36.94519 32.58696
#
# Velocity S-wave (km/s) = 3.30339 3.77914 3.54925
# Velocity P-wave (km/s) = 4.84260 5.63172 5.25200
#
# Compressibility (1/GPa) = 0.04343062
#
# Stress axis : x y z
#
# Youngs Moduli (GPa) = 48.09817 158.34265 57.45836
#
# Poissons Ratio (x) = 0.36198 -0.09466
# Poissons Ratio (y) = 0.10996 -0.00568
# Poissons Ratio (z) = -0.07924 -0.01566
#
# Static dielectric constant tensor:
#      x y z
#    x 2.213270 0.000000 0.000000 
#    y 0.000000 2.011390 0.000000 
#    z 0.000000 0.000000 1.872930 
# 
# From -- ./inp_files/2909.got.cif
#   From: 2010.05.17/outbox.cif.g08.bks.cpg/sg55_2_cif.got.tgz:2909.got - 2010.06.03 13:27:54.
