data_PCOD9427810
_publ_section_title
;
Structure prediction by ZEFSAII (Michael W. Deem and Ramdas Pophale) SiO2 
 PCOD9427810
Probable space group: P B A M
;
_chemical_formula_sum "Si O2"
_cell_formula_units_Z 48
_cell_length_a 14.599598
_cell_length_b 8.234312
_cell_length_c 16.494433
_cell_angle_alpha 90.000000
_cell_angle_beta 90.000000
_cell_angle_gamma 90.000000
_cell_volume 1982.921891
_symmetry_space_group_name_H-M "P B A M"
_symmetry_group_IT_number 55
_symmetry_cell_setting 'orthorhombic'
loop_
_space_group_symop_operation_xyz
x,y,z
-x,-y,z
1/2+x,1/2-y,-z
1/2-x,1/2+y,-z
-x,-y,-z
x,y,-z
1/2-x,1/2+y,z
1/2+x,1/2-y,z
loop_
_atom_site_type_symbol
_atom_site_label
_atom_site_fract_x
_atom_site_fract_y
_atom_site_fract_z
Si Si1 0.650954 0.531563 0.833399
Si Si2 0.212633 0.104516 0.337795
Si Si3 0.763397 0.928203 0.000000
Si Si4 0.399440 0.881436 0.000000
Si Si5 0.375813 0.294805 0.406206
Si Si6 0.046618 0.336982 0.335885
Si Si7 0.492044 0.761743 0.159543
O O1 0.703867 0.477579 0.751748
O O2 0.707090 0.515465 0.916080
O O3 0.571749 0.397747 0.839981
O O4 0.597208 0.702967 0.831246
O O5 0.313716 0.163034 0.359293
O O6 0.146924 0.262615 0.350050
O O7 0.174070 0.966696 0.396760
O O8 0.653917 0.947443 0.000000
O O9 0.819160 0.758764 0.000000
O O10 0.460859 0.848411 0.078223
O O11 0.384232 0.251344 0.500000
O O12 0.474616 0.300224 0.364265
O O13 0.040133 0.352464 0.239534
O O14 0.000000 0.500000 0.372531
#
# Coordination Sequence:
#
# PCOD9427810 Si02
#       7
#     8   8   4   4   8   8   8
#     4   9  18  37  67  89 126 176 230 275 335 409
#     4  11  24  44  71 101 138 181 227 284 351 424
#     4  10  21  35  57  96 127 170 217 275 330 387
#     4  10  21  37  60  91 136 177 229 284 340 406
#     4  12  26  44  70 102 134 173 226 289 358 427
#     4  11  24  44  68  98 136 182 229 281 344 420
#     4   9  18  39  62  89 123 177 228 275 334 401
#
# _framework density 24.206703000000001
#
# number of rings (size 3 to 8) (size 9 to 14) (size 15 to 20)
#    0.000    1.667    1.667    2.500    0.000    9.667 
#    3.000    0.417    0.000    0.000    0.000    0.000 
#    0.000    0.000    0.000    0.000    0.000    0.000 
#
# Total GULP energy -268293.552959 kJ/mol
# GULP energy per Si atom -5589.449020 kJ/mol
# Density = 2.415161 g / cm^3
# Si number density = 24.206703 Si / 1000 Ang^3
#
#
#
# Elastic Constant Matrix: (Units=GPa)
#
#
# Indices 1 2 3 4 5 6 
#
# 1 89.0816 -8.2998 28.3985 0.0000 0.0000 0.0000
# 2 -8.2998 28.9265 -27.6893 0.0000 0.0000 0.0000
# 3 28.3985 -27.6893 123.2209 0.0000 0.0000 0.0000
# 4 0.0000 0.0000 0.0000 23.5028 0.0000 0.0000
# 5 0.0000 0.0000 0.0000 0.0000 -150.6232 0.0000
# 6 0.0000 0.0000 0.0000 0.0000 0.0000 40.0373
#
#
#
# Elastic Compliance Matrix: (Units=1/GPa)
#
#
# Indices 1 2 3 4 5 6 
#
# 1 0.012140 0.001026 -0.002567 0.000000 0.000000 0.000000
# 2 0.001026 0.044131 0.009680 0.000000 0.000000 0.000000
# 3 -0.002567 0.009680 0.010883 0.000000 0.000000 0.000000
# 4 0.000000 0.000000 0.000000 0.042548 0.000000 0.000000
# 5 0.000000 0.000000 0.000000 0.000000 -0.006639 0.000000
# 6 0.000000 0.000000 0.000000 0.000000 0.000000 0.024977
#
#
# Mechanical properties :
#
#
# Convention : Reuss Voigt Hill
#
# Bulk Modulus (GPa) = 11.98595 25.11641 18.55118
# Shear Modulus (GPa) = 35.82386 -0.82864 17.49761
#
# Velocity S-wave (km/s) = 3.85114 -0.58571 2.69149
# Velocity P-wave (km/s) = 4.97366 3.15292 4.16402
#
# Compressibility (1/GPa) = 0.08343103
#
# Stress axis : x y z
#
# Youngs Moduli (GPa) = 82.37456 22.65972 91.89049
#
# Poissons Ratio (x) = -0.02324 0.23591
# Poissons Ratio (y) = -0.08449 -0.88954
# Poissons Ratio (z) = 0.21148 -0.21936
#
# Static dielectric constant tensor:
#      x y z
#    x 1.950640 0.000000 0.000000 
#    y 0.000000 2.804830 0.000000 
#    z 0.000000 0.000000 1.859500 
# 
# From -- ./inp_files/21546.got.cif
#   From: 2010.05.17/outbox.cif.g08.bks.cpg/sg55_11_cif.got.tgz:21546.got - 2010.06.03 13:27:54.
