data_PCOD9427984
_publ_section_title
;
Structure prediction by ZEFSAII (Michael W. Deem and Ramdas Pophale) SiO2 
 PCOD9427984
Probable space group: P B A M
;
_chemical_formula_sum "Si O2"
_cell_formula_units_Z 40
_cell_length_a 11.968763
_cell_length_b 4.944392
_cell_length_c 30.950034
_cell_angle_alpha 90.000000
_cell_angle_beta 90.000000
_cell_angle_gamma 90.000000
_cell_volume 1831.569036
_symmetry_space_group_name_H-M "P B A M"
_symmetry_group_IT_number 55
_symmetry_cell_setting 'orthorhombic'
loop_
_space_group_symop_operation_xyz
x,y,z
-x,-y,z
1/2+x,1/2-y,-z
1/2-x,1/2+y,-z
-x,-y,-z
x,y,-z
1/2-x,1/2+y,z
1/2+x,1/2-y,z
loop_
_atom_site_type_symbol
_atom_site_label
_atom_site_fract_x
_atom_site_fract_y
_atom_site_fract_z
Si Si1 0.500000 0.000000 0.838606
Si Si2 0.000000 0.000000 0.219672
Si Si3 0.175266 0.455251 0.500000
Si Si4 0.000000 0.500000 0.573712
Si Si5 0.173475 0.276270 0.907184
Si Si6 0.500000 0.500000 0.366772
Si Si7 0.173610 0.399935 0.000000
Si Si8 0.674890 0.446868 0.292973
O O1 0.459225 0.248149 0.808992
O O2 0.593384 0.132771 0.869106
O O3 0.901479 0.899405 0.251082
O O4 0.218563 0.761112 0.500000
O O5 0.099656 0.408512 0.457899
O O6 0.964870 0.249872 0.603448
O O7 0.282467 0.470993 0.905021
O O8 0.118791 0.328430 0.954349
O O9 0.599298 0.405190 0.335215
O O10 0.215332 0.707915 0.000000
O O11 0.719380 0.751631 0.292803
#
# Coordination Sequence:
#
# PCOD9427984 Si02
#       8
#     4   4   4   4   8   4   4   8
#     4  12  24  38  60  87 114 151 194 234 286 350
#     4  11  26  42  58  88 120 148 194 242 286 357
#     4  11  24  41  62  90 128 177 216 241 294 358
#     4  11  24  41  62  93 132 163 202 263 298 335
#     4  10  21  37  57  83 114 148 189 235 283 339
#     4  11  24  41  64  97 124 151 206 259 300 355
#     4   8  16  33  54  77 110 146 182 231 282 331
#     4  11  24  43  66  89 118 157 195 242 306 361
#
# _framework density 21.839200000000002
#
# number of rings (size 3 to 8) (size 9 to 14) (size 15 to 20)
#    0.000    1.400    0.000    4.800    0.000   14.800 
#    0.000    0.000    0.000    8.400    0.000    0.000 
#    0.000    0.000    0.000    0.000    0.000    0.000 
#
# Total GULP energy -223771.002531 kJ/mol
# GULP energy per Si atom -5594.275063 kJ/mol
# Density = 2.178949 g / cm^3
# Si number density = 21.839200 Si / 1000 Ang^3
#
#
#
# Elastic Constant Matrix: (Units=GPa)
#
#
# Indices 1 2 3 4 5 6 
#
# 1 32.4852 -25.2088 17.2123 0.0000 0.0000 0.0000
# 2 -25.2088 61.4688 7.4527 0.0000 0.0000 0.0000
# 3 17.2123 7.4527 124.8979 0.0000 0.0000 0.0000
# 4 0.0000 0.0000 0.0000 24.8750 0.0000 0.0000
# 5 0.0000 0.0000 0.0000 0.0000 -3.0568 0.0000
# 6 0.0000 0.0000 0.0000 0.0000 0.0000 32.0095
#
#
#
# Elastic Compliance Matrix: (Units=1/GPa)
#
#
# Indices 1 2 3 4 5 6 
#
# 1 0.053097 0.022828 -0.008679 0.000000 0.000000 0.000000
# 2 0.022828 0.026201 -0.004709 0.000000 0.000000 0.000000
# 3 -0.008679 -0.004709 0.009484 0.000000 0.000000 0.000000
# 4 0.000000 0.000000 0.000000 0.040201 0.000000 0.000000
# 5 0.000000 0.000000 0.000000 0.000000 -0.327143 0.000000
# 6 0.000000 0.000000 0.000000 0.000000 0.000000 0.031241
#
#
# Mechanical properties :
#
#
# Convention : Reuss Voigt Hill
#
# Bulk Modulus (GPa) = 9.28856 24.19602 16.74229
# Shear Modulus (GPa) = -33.35302 25.39192 -3.98055
#
# Velocity S-wave (km/s) = -3.91219 3.41350 -1.35152
# Velocity P-wave (km/s) = 4.01803 5.16132 2.29070
#
# Compressibility (1/GPa) = 0.10765929
#
# Stress axis : x y z
#
# Youngs Moduli (GPa) = 18.83358 38.16618 105.44436
#
# Poissons Ratio (x) = -0.87125 0.91520
# Poissons Ratio (y) = -0.42993 0.49657
# Poissons Ratio (z) = 0.16347 0.17974
#
# Static dielectric constant tensor:
#      x y z
#    x 1.763810 0.000000 0.000000 
#    y 0.000000 1.738870 0.000000 
#    z 0.000000 0.000000 1.784940 
# 
# From -- ./inp_files/23931.got.cif
#   From: 2010.05.17/outbox.cif.g08.bks.cpg/sg55_12_cif.got.tgz:23931.got - 2010.06.03 13:27:54.
