data_PCOD9427573
_publ_section_title
;
Structure prediction by ZEFSAII (Michael W. Deem and Ramdas Pophale) SiO2 
 PCOD9427573
Probable space group: P B A M
;
_chemical_formula_sum "Si O2"
_cell_formula_units_Z 48
_cell_length_a 8.755248
_cell_length_b 27.121415
_cell_length_c 8.589451
_cell_angle_alpha 90.000000
_cell_angle_beta 90.000000
_cell_angle_gamma 90.000000
_cell_volume 2039.605634
_symmetry_space_group_name_H-M "P B A M"
_symmetry_group_IT_number 55
_symmetry_cell_setting 'orthorhombic'
loop_
_space_group_symop_operation_xyz
x,y,z
-x,-y,z
1/2+x,1/2-y,-z
1/2-x,1/2+y,-z
-x,-y,-z
x,y,-z
1/2-x,1/2+y,z
1/2+x,1/2-y,z
loop_
_atom_site_type_symbol
_atom_site_label
_atom_site_fract_x
_atom_site_fract_y
_atom_site_fract_z
Si Si1 0.005278 0.440277 0.668074
Si Si2 0.920207 0.946658 0.000000
Si Si3 0.469498 0.395846 0.678075
Si Si4 0.285895 0.146015 0.665888
Si Si5 0.236499 0.807497 0.678059
Si Si6 0.538921 0.942501 0.000000
Si Si7 0.541680 0.772833 0.825703
O O1 0.079958 0.427750 0.500000
O O2 0.000000 0.500000 0.669509
O O3 0.844814 0.410557 0.662809
O O4 0.045186 0.424098 0.843237
O O5 0.984824 0.924860 0.835401
O O6 0.729662 0.940469 0.000000
O O7 0.000000 0.000000 0.000000
O O8 0.464732 0.418980 0.500000
O O9 0.606439 0.356498 0.668649
O O10 0.318983 0.363348 0.702027
O O11 0.339349 0.167602 0.500000
O O12 0.353248 0.178945 0.800884
O O13 0.286308 0.803025 0.500000
O O14 0.373318 0.790788 0.786866
O O15 0.101464 0.769251 0.712200
O O16 0.500000 0.000000 0.000000
O O17 0.552230 0.753836 0.000000
#
# Coordination Sequence:
#
# PCOD9427573 Si02
#       7
#     8   4   8   8   8   4   8
#     4   9  18  34  57  86 120 159 209 266 317 375
#     4  12  26  44  68  95 137 179 218 277 345 405
#     4  10  24  45  71  96 131 178 229 281 336 401
#     4  10  20  39  66  95 125 172 224 270 332 399
#     4  11  24  47  69  94 134 181 224 273 334 406
#     4  10  20  38  62  89 121 163 216 261 318 387
#     4  12  26  40  67 103 137 173 219 281 336 401
#
# _framework density 23.533961999999999
#
# number of rings (size 3 to 8) (size 9 to 14) (size 15 to 20)
#    0.000    1.500    1.667    3.000    4.667    1.667 
#    6.000    0.000    0.000    0.000    0.000    0.000 
#    0.000    0.000    0.000    0.000    0.000    0.000 
#
# Total GULP energy -267303.001855 kJ/mol
# GULP energy per Si atom -5568.812539 kJ/mol
# Density = 2.348040 g / cm^3
# Si number density = 23.533962 Si / 1000 Ang^3
#
#
#
# Elastic Constant Matrix: (Units=GPa)
#
#
# Indices 1 2 3 4 5 6 
#
# 1 70.5602 39.0772 29.9615 0.0000 0.0000 0.0000
# 2 39.0772 76.2979 36.8801 0.0000 0.0000 0.0000
# 3 29.9615 36.8801 184.7966 0.0000 0.0000 0.0000
# 4 0.0000 0.0000 0.0000 6375.3390 0.0000 0.0000
# 5 0.0000 0.0000 0.0000 0.0000 26.7981 0.0000
# 6 0.0000 0.0000 0.0000 0.0000 0.0000 31.2258
#
#
#
# Elastic Compliance Matrix: (Units=1/GPa)
#
#
# Indices 1 2 3 4 5 6 
#
# 1 0.020076 -0.009638 -0.001331 0.000000 0.000000 0.000000
# 2 -0.009638 0.019133 -0.002256 0.000000 0.000000 0.000000
# 3 -0.001331 -0.002256 0.006077 0.000000 0.000000 0.000000
# 4 0.000000 0.000000 0.000000 0.000157 0.000000 0.000000
# 5 0.000000 0.000000 0.000000 0.000000 0.037316 0.000000
# 6 0.000000 0.000000 0.000000 0.000000 0.000000 0.032025
#
#
# Mechanical properties :
#
#
# Convention : Reuss Voigt Hill
#
# Bulk Modulus (GPa) = 53.09219 60.38803 56.74011
# Shear Modulus (GPa) = 33.89518 1301.72164 667.80841
#
# Velocity S-wave (km/s) = 3.79920 23.54412 16.86356
# Velocity P-wave (km/s) = 6.46947 27.65531 20.08321
#
# Compressibility (1/GPa) = 0.01883516
#
# Stress axis : x y z
#
# Youngs Moduli (GPa) = 49.81189 52.26465 164.54426
#
# Poissons Ratio (x) = 0.50375 0.21906
# Poissons Ratio (y) = 0.48011 0.37117
# Poissons Ratio (z) = 0.06632 0.11790
#
# Static dielectric constant tensor:
#      x y z
#    x 1.932810 0.000000 0.000000 
#    y 0.000000 1.969110 0.000000 
#    z 0.000000 0.000000 2.000470 
# 
# From -- ./inp_files/3010.got.cif
#   From: 2010.05.17/outbox.cif.g08.bks.cpg/sg55_2_cif.got.tgz:3010.got - 2010.06.03 13:27:54.
