data_PCOD9427823
_publ_section_title
;
Structure prediction by ZEFSAII (Michael W. Deem and Ramdas Pophale) SiO2 
 PCOD9427823
Probable space group: P B A M
;
_chemical_formula_sum "Si O2"
_cell_formula_units_Z 56
_cell_length_a 13.671033
_cell_length_b 18.880239
_cell_length_c 13.767152
_cell_angle_alpha 90.000000
_cell_angle_beta 90.000000
_cell_angle_gamma 90.000000
_cell_volume 3553.472237
_symmetry_space_group_name_H-M "P B A M"
_symmetry_group_IT_number 55
_symmetry_cell_setting 'orthorhombic'
loop_
_space_group_symop_operation_xyz
x,y,z
-x,-y,z
1/2+x,1/2-y,-z
1/2-x,1/2+y,-z
-x,-y,-z
x,y,-z
1/2-x,1/2+y,z
1/2+x,1/2-y,z
loop_
_atom_site_type_symbol
_atom_site_label
_atom_site_fract_x
_atom_site_fract_y
_atom_site_fract_z
Si Si1 0.299557 0.642908 0.801203
Si Si2 0.113691 0.713245 0.883988
Si Si3 0.700443 0.642908 0.801203
Si Si4 0.383827 0.584147 0.613362
Si Si5 0.386309 0.786755 0.116012
Si Si6 0.888271 0.000000 0.115630
Si Si7 0.616173 0.584147 0.613362
O O1 0.188449 0.661572 0.828851
O O2 0.322215 0.631170 0.687756
O O3 0.361633 0.708198 0.844887
O O4 0.334595 0.570377 0.849685
O O5 0.138366 0.791802 0.844887
O O6 1.000000 0.696971 0.868179
O O7 0.133099 0.710914 0.000000
O O8 0.811551 0.661573 0.828851
O O9 0.665405 0.570377 0.849685
O O10 0.677785 0.631171 0.687756
O O11 0.363942 0.598489 0.500000
O O12 0.500000 0.595753 0.630070
O O13 0.365507 0.500000 0.630068
O O14 0.366901 0.789085 0.000000
O O15 0.891719 0.000000 0.000000
O O16 0.000000 0.000000 0.153376
O O17 0.636058 0.598489 0.500000
#
# Coordination Sequence:
#
# PCOD9427823 Si02
#       7
#     8   8   8   8   8   8   8
#     4  11  19  32  53  75 100 133 168 208 255 300
#     4  10  21  36  51  70 103 143 174 200 243 308
#     4  11  19  32  53  75 100 133 168 208 255 300
#     4   9  17  30  50  77 105 130 160 205 262 310
#     4  10  21  36  51  70 103 143 174 200 243 308
#     4  11  20  28  46  78 104 121 158 216 260 291
#     4   9  17  30  50  77 105 130 160 205 262 310
#
# _framework density 15.759233999999999
#
# number of rings (size 3 to 8) (size 9 to 14) (size 15 to 20)
#    0.000    1.857    1.429    6.857    0.000    2.286 
#    0.000    3.571    0.000    5.143    0.000    2.000 
#    0.000    0.000    0.000    0.000    0.000    0.000 
#
# Total GULP energy -312449.434252 kJ/mol
# GULP energy per Si atom -5579.454183 kJ/mol
# Density = 1.572336 g / cm^3
# Si number density = 15.759234 Si / 1000 Ang^3
#
#
#
# Elastic Constant Matrix: (Units=GPa)
#
#
# Indices 1 2 3 4 5 6 
#
# 1 130.9384 63.5318 70.4873 0.0000 0.0000 0.0000
# 2 63.5318 100.4354 47.2690 0.0000 0.0000 0.0000
# 3 70.4873 47.2690 132.1324 0.0000 0.0000 0.0000
# 4 0.0000 0.0000 0.0000 34.0631 0.0000 0.0000
# 5 0.0000 0.0000 0.0000 0.0000 -7.0654 0.0000
# 6 0.0000 0.0000 0.0000 0.0000 0.0000 15.0222
#
#
#
# Elastic Compliance Matrix: (Units=1/GPa)
#
#
# Indices 1 2 3 4 5 6 
#
# 1 0.013200 -0.006055 -0.004875 0.000000 0.000000 0.000000
# 2 -0.006055 0.014750 -0.002047 0.000000 0.000000 0.000000
# 3 -0.004875 -0.002047 0.010901 0.000000 0.000000 0.000000
# 4 0.000000 0.000000 0.000000 0.029357 0.000000 0.000000
# 5 0.000000 0.000000 0.000000 0.000000 -0.141535 0.000000
# 6 0.000000 0.000000 0.000000 0.000000 0.000000 0.066568
#
#
# Mechanical properties :
#
#
# Convention : Reuss Voigt Hill
#
# Bulk Modulus (GPa) = 77.53815 80.67584 79.10700
# Shear Modulus (GPa) = 212.82284 20.55185 116.68735
#
# Velocity S-wave (km/s) = 11.63356 3.61517 8.61421
# Velocity P-wave (km/s) = 15.15788 8.29035 12.21661
#
# Compressibility (1/GPa) = 0.01289688
#
# Stress axis : x y z
#
# Youngs Moduli (GPa) = 75.75966 67.79630 91.73395
#
# Poissons Ratio (x) = 0.41051 0.44723
# Poissons Ratio (y) = 0.45873 0.18774
# Poissons Ratio (z) = 0.36935 0.13875
#
# Static dielectric constant tensor:
#      x y z
#    x 1.519960 0.000000 0.000000 
#    y 0.000000 1.501050 0.000000 
#    z 0.000000 0.000000 1.550840 
# 
# From -- ./inp_files/19101.got.cif
#   From: 2010.05.17/outbox.cif.g08.bks.cpg/sg55_10_cif.got.tgz:19101.got - 2010.06.03 13:27:54.
