data_PCOD9427470
_publ_section_title
;
Structure prediction by ZEFSAII (Michael W. Deem and Ramdas Pophale) SiO2 
 PCOD9427470
Probable space group: P B A M
;
_chemical_formula_sum "Si O2"
_cell_formula_units_Z 56
_cell_length_a 14.903593
_cell_length_b 12.020776
_cell_length_c 13.803453
_cell_angle_alpha 90.000000
_cell_angle_beta 90.000000
_cell_angle_gamma 90.000000
_cell_volume 2472.926607
_symmetry_space_group_name_H-M "P B A M"
_symmetry_group_IT_number 55
_symmetry_cell_setting 'orthorhombic'
loop_
_space_group_symop_operation_xyz
x,y,z
-x,-y,z
1/2+x,1/2-y,-z
1/2-x,1/2+y,-z
-x,-y,-z
x,y,-z
1/2-x,1/2+y,z
1/2+x,1/2-y,z
loop_
_atom_site_type_symbol
_atom_site_label
_atom_site_fract_x
_atom_site_fract_y
_atom_site_fract_z
Si Si1 0.078910 0.757528 0.613196
Si Si2 0.654324 0.553476 0.253033
Si Si3 0.940799 0.602766 0.306934
Si Si4 0.523067 0.828195 0.110846
Si Si5 0.281989 0.257530 0.885596
Si Si6 0.901781 0.880882 0.109179
Si Si7 0.292752 0.043516 0.614978
O O1 0.080917 0.781780 0.500000
O O2 0.104681 0.862292 0.676255
O O3 0.149731 0.655978 0.631396
O O4 0.982093 0.711918 0.645579
O O5 0.712740 0.634158 0.182157
O O6 0.595279 0.480501 0.182414
O O7 0.705214 0.463812 0.320114
O O8 0.963642 0.611100 0.192673
O O9 0.844883 0.565603 0.344010
O O10 0.000000 0.500000 0.346085
O O11 0.629133 0.818897 0.134371
O O12 0.484610 0.703245 0.113838
O O13 0.511279 0.868443 0.000000
O O14 0.189466 0.190807 0.872224
O O15 0.287582 0.287460 0.000000
O O16 0.894999 0.924360 0.000000
O O17 0.278467 0.033036 0.500000
#
# Coordination Sequence:
#
# PCOD9427470 Si02
#       7
#     8   8   8   8   8   8   8
#     4  10  21  39  60  86 121 157 203 262 318 377
#     4  12  21  36  63  91 123 160 209 258 313 376
#     4  10  20  37  62  89 121 163 207 253 311 373
#     4  10  21  40  63  93 132 169 209 254 308 377
#     4  10  21  39  61  90 129 170 211 255 307 376
#     4  10  23  40  61  92 128 168 209 257 317 380
#     4  10  22  38  61  92 121 159 208 259 320 378
#
# _framework density 22.645233000000001
#
# number of rings (size 3 to 8) (size 9 to 14) (size 15 to 20)
#    0.000    1.714    1.429    3.000    2.000    2.571 
#    0.000    2.857    0.000    3.429    0.000    0.000 
#    0.000    0.000    0.000    0.000    0.000    0.000 
#
# Total GULP energy -313071.047484 kJ/mol
# GULP energy per Si atom -5590.554419 kJ/mol
# Density = 2.259369 g / cm^3
# Si number density = 22.645233 Si / 1000 Ang^3
#
#
#
# Elastic Constant Matrix: (Units=GPa)
#
#
# Indices 1 2 3 4 5 6 
#
# 1 62.6829 10.0239 25.6857 0.0000 0.0000 0.0000
# 2 10.0239 65.5259 47.8730 0.0000 0.0000 0.0000
# 3 25.6857 47.8730 126.8721 0.0000 0.0000 0.0000
# 4 0.0000 0.0000 0.0000 45.6606 0.0000 0.0000
# 5 0.0000 0.0000 0.0000 0.0000 11.9253 0.0000
# 6 0.0000 0.0000 0.0000 0.0000 0.0000 -127.1560
#
#
#
# Elastic Compliance Matrix: (Units=1/GPa)
#
#
# Indices 1 2 3 4 5 6 
#
# 1 0.017397 -0.000122 -0.003476 0.000000 0.000000 0.000000
# 2 -0.000122 0.021070 -0.007926 0.000000 0.000000 0.000000
# 3 -0.003476 -0.007926 0.011576 0.000000 0.000000 0.000000
# 4 0.000000 0.000000 0.000000 0.021901 0.000000 0.000000
# 5 0.000000 0.000000 0.000000 0.000000 0.083855 0.000000
# 6 0.000000 0.000000 0.000000 0.000000 0.000000 -0.007864
#
#
# Mechanical properties :
#
#
# Convention : Reuss Voigt Hill
#
# Bulk Modulus (GPa) = 37.04187 46.91624 41.97906
# Shear Modulus (GPa) = 27.78056 -2.48079 12.64989
#
# Velocity S-wave (km/s) = 3.50633 -1.04780 2.36606
# Velocity P-wave (km/s) = 5.72586 4.39307 5.10316
#
# Compressibility (1/GPa) = 0.02699648
#
# Stress axis : x y z
#
# Youngs Moduli (GPa) = 57.48044 47.45994 86.38232
#
# Poissons Ratio (x) = 0.00577 0.30029
# Poissons Ratio (y) = 0.00699 0.68466
# Poissons Ratio (z) = 0.19982 0.37616
#
# Static dielectric constant tensor:
#      x y z
#    x 1.926260 0.000000 0.000000 
#    y 0.000000 1.825510 0.000000 
#    z 0.000000 0.000000 1.824390 
# 
# From -- ./inp_files/18951.got.cif
#   From: 2010.05.17/outbox.cif.g08.bks.cpg/sg55_10_cif.got.tgz:18951.got - 2010.06.03 13:27:54.
