data_PCOD9427049
_publ_section_title
;
Structure prediction by ZEFSAII (Michael W. Deem and Ramdas Pophale) SiO2 
 PCOD9427049
Probable space group: P B A M
;
_chemical_formula_sum "Si O2"
_cell_formula_units_Z 56
_cell_length_a 17.365842
_cell_length_b 19.032623
_cell_length_c 8.813412
_cell_angle_alpha 90.000000
_cell_angle_beta 90.000000
_cell_angle_gamma 90.000000
_cell_volume 2912.987111
_symmetry_space_group_name_H-M "P B A M"
_symmetry_group_IT_number 55
_symmetry_cell_setting 'orthorhombic'
loop_
_space_group_symop_operation_xyz
x,y,z
-x,-y,z
1/2+x,1/2-y,-z
1/2-x,1/2+y,-z
-x,-y,-z
x,y,-z
1/2-x,1/2+y,z
1/2+x,1/2-y,z
loop_
_atom_site_type_symbol
_atom_site_label
_atom_site_fract_x
_atom_site_fract_y
_atom_site_fract_z
Si Si1 0.910677 0.807320 0.681628
Si Si2 0.200380 0.919683 0.817006
Si Si3 0.410576 0.309723 0.317083
Si Si4 0.852883 0.665002 0.180933
Si Si5 0.155369 0.661407 0.681713
Si Si6 0.198981 0.082268 0.181655
Si Si7 0.494660 0.917374 0.680063
O O1 0.906660 0.807785 0.500000
O O2 0.863142 0.740759 0.742845
O O3 0.873641 0.877762 0.747430
O O4 0.000232 0.799872 0.726867
O O5 0.127279 0.878894 0.751452
O O6 0.276686 0.876913 0.768872
O O7 0.204027 0.000954 0.769540
O O8 0.197564 0.918200 0.000000
O O9 0.408317 0.312844 0.500000
O O10 0.361194 0.241440 0.269875
O O11 0.927079 0.619406 0.227486
O O12 0.849858 0.673745 0.000000
O O13 0.169515 0.660736 0.500000
O O14 0.225769 0.624360 0.764086
O O15 0.076490 0.618969 0.710107
O O16 0.194186 0.084523 0.000000
O O17 0.478324 0.908053 0.500000
O O18 0.500000 0.000000 0.712230
#
# Coordination Sequence:
#
# PCOD9427049 Si02
#       7
#     8   8   8   8   8   8   8
#     4  11  23  42  64  89 121 156 199 253 301 357
#     4  10  24  42  59  85 124 159 197 247 299 357
#     4  10  22  40  63  88 117 153 200 249 297 353
#     4  11  22  38  61  90 122 160 202 245 300 363
#     4  10  20  38  60  88 121 156 199 244 296 355
#     4  11  24  41  60  88 122 158 199 248 301 355
#     4  10  20  35  58  88 124 163 201 245 297 354
#
# _framework density 19.224252
#
# number of rings (size 3 to 8) (size 9 to 14) (size 15 to 20)
#    0.000    1.571    1.429    3.000    0.000    7.714 
#    0.000    2.857    0.000    0.000    0.000    0.000 
#    0.000    0.000    0.000    0.000    0.000    0.000 
#
# Total GULP energy -313085.487185 kJ/mol
# GULP energy per Si atom -5590.812271 kJ/mol
# Density = 1.918050 g / cm^3
# Si number density = 19.224252 Si / 1000 Ang^3
#
#
#
# Elastic Constant Matrix: (Units=GPa)
#
#
# Indices 1 2 3 4 5 6 
#
# 1 65.4802 73.8748 28.7943 0.0000 0.0000 0.0000
# 2 73.8748 151.7917 38.5654 0.0000 0.0000 0.0000
# 3 28.7943 38.5654 29.9563 0.0000 0.0000 0.0000
# 4 0.0000 0.0000 0.0000 27.5882 0.0000 0.0000
# 5 0.0000 0.0000 0.0000 0.0000 13.2899 0.0000
# 6 0.0000 0.0000 0.0000 0.0000 0.0000 18.2699
#
#
#
# Elastic Compliance Matrix: (Units=1/GPa)
#
#
# Indices 1 2 3 4 5 6 
#
# 1 0.040749 -0.014683 -0.020265 0.000000 0.000000 0.000000
# 2 -0.014683 0.015081 -0.005302 0.000000 0.000000 0.000000
# 3 -0.020265 -0.005302 0.059686 0.000000 0.000000 0.000000
# 4 0.000000 0.000000 0.000000 0.036247 0.000000 0.000000
# 5 0.000000 0.000000 0.000000 0.000000 0.075245 0.000000
# 6 0.000000 0.000000 0.000000 0.000000 0.000000 0.054735
#
#
# Mechanical properties :
#
#
# Convention : Reuss Voigt Hill
#
# Bulk Modulus (GPa) = 28.55818 58.85525 43.70671
# Shear Modulus (GPa) = 13.37201 18.89584 16.13393
#
# Velocity S-wave (km/s) = 2.64025 3.13855 2.90012
# Velocity P-wave (km/s) = 4.91753 6.61933 5.83085
#
# Compressibility (1/GPa) = 0.03501624
#
# Stress axis : x y z
#
# Youngs Moduli (GPa) = 24.54070 66.30880 16.75423
#
# Poissons Ratio (x) = 0.97361 0.33953
# Poissons Ratio (y) = 0.36033 0.08882
# Poissons Ratio (z) = 0.49732 0.35154
#
# Static dielectric constant tensor:
#      x y z
#    x 1.648340 0.000000 0.000000 
#    y 0.000000 1.655610 0.000000 
#    z 0.000000 0.000000 1.650140 
# 
# From -- ./inp_files/6154.got.cif
#   From: 2010.05.17/outbox.cif.g08.bks.cpg/sg55_4_cif.got.tgz:6154.got - 2010.06.03 13:27:54.
