data_PCOD9427782
_publ_section_title
;
Structure prediction by ZEFSAII (Michael W. Deem and Ramdas Pophale) SiO2 
 PCOD9427782
Probable space group: P B A M
;
_chemical_formula_sum "Si O2"
_cell_formula_units_Z 56
_cell_length_a 19.581227
_cell_length_b 19.529334
_cell_length_c 8.622824
_cell_angle_alpha 90.000000
_cell_angle_beta 90.000000
_cell_angle_gamma 90.000000
_cell_volume 3297.439659
_symmetry_space_group_name_H-M "P B A M"
_symmetry_group_IT_number 55
_symmetry_cell_setting 'orthorhombic'
loop_
_space_group_symop_operation_xyz
x,y,z
-x,-y,z
1/2+x,1/2-y,-z
1/2-x,1/2+y,-z
-x,-y,-z
x,y,-z
1/2-x,1/2+y,z
1/2+x,1/2-y,z
loop_
_atom_site_type_symbol
_atom_site_label
_atom_site_fract_x
_atom_site_fract_y
_atom_site_fract_z
Si Si1 0.735143 0.367932 0.185449
Si Si2 0.946883 0.060220 0.313618
Si Si3 0.766544 0.654872 0.185551
Si Si4 0.841071 0.264365 0.685638
Si Si5 0.371888 0.741174 0.314524
Si Si6 0.708741 0.518133 0.313889
Si Si7 0.020271 0.790184 0.815363
O O1 0.803130 0.331555 0.250670
O O2 0.672551 0.322808 0.251898
O O3 0.727447 0.445203 0.242350
O O4 0.734588 0.363755 0.000000
O O5 0.950352 0.071398 0.500000
O O6 0.869986 0.036986 0.275470
O O7 0.965778 0.130950 0.231576
O O8 0.000000 0.000000 0.274252
O O9 0.704641 0.700983 0.252746
O O10 0.834705 0.691726 0.246759
O O11 0.755455 0.578627 0.247144
O O12 0.764445 0.657070 0.000000
O O13 0.840054 0.263783 0.500000
O O14 0.916917 0.253527 0.748220
O O15 0.368148 0.741908 0.500000
O O16 0.448881 0.733038 0.257774
O O17 0.714304 0.515398 0.500000
O O18 0.017766 0.784181 0.000000
#
# Coordination Sequence:
#
# PCOD9427782 Si02
#       7
#     8   8   8   8   8   8   8
#     4  11  22  37  57  84 115 147 189 239 285 331
#     4  10  21  35  53  79 115 154 190 225 275 341
#     4  11  21  36  57  83 112 145 190 239 283 331
#     4  11  21  37  58  81 110 149 193 233 281 341
#     4  11  22  38  58  81 112 150 191 233 283 342
#     4  11  21  35  56  82 115 153 191 230 281 339
#     4  12  23  36  56  83 114 147 188 236 286 334
#
# _framework density 16.982873000000001
#
# number of rings (size 3 to 8) (size 9 to 14) (size 15 to 20)
#    0.000    1.000    1.429    9.429    0.000    2.000 
#    0.000    0.000    0.000    0.857    0.000    6.000 
#    0.000    0.000    0.000    0.000    0.000    0.000 
#
# Total GULP energy -313176.346920 kJ/mol
# GULP energy per Si atom -5592.434766 kJ/mol
# Density = 1.694422 g / cm^3
# Si number density = 16.982873 Si / 1000 Ang^3
#
#
#
# Elastic Constant Matrix: (Units=GPa)
#
#
# Indices 1 2 3 4 5 6 
#
# 1 137.0252 90.3899 66.3340 0.0000 0.0000 0.0000
# 2 90.3899 98.6895 56.9552 0.0000 0.0000 0.0000
# 3 66.3340 56.9552 153.2573 0.0000 0.0000 0.0000
# 4 0.0000 0.0000 0.0000 34.1983 0.0000 0.0000
# 5 0.0000 0.0000 0.0000 0.0000 24.4356 0.0000
# 6 0.0000 0.0000 0.0000 0.0000 0.0000 20.2341
#
#
#
# Elastic Compliance Matrix: (Units=1/GPa)
#
#
# Indices 1 2 3 4 5 6 
#
# 1 0.019022 -0.016131 -0.002239 0.000000 0.000000 0.000000
# 2 -0.016131 0.026578 -0.002895 0.000000 0.000000 0.000000
# 3 -0.002239 -0.002895 0.008570 0.000000 0.000000 0.000000
# 4 0.000000 0.000000 0.000000 0.029241 0.000000 0.000000
# 5 0.000000 0.000000 0.000000 0.000000 0.040924 0.000000
# 6 0.000000 0.000000 0.000000 0.000000 0.000000 0.049422
#
#
# Mechanical properties :
#
#
# Convention : Reuss Voigt Hill
#
# Bulk Modulus (GPa) = 85.90571 90.70335 88.30453
# Shear Modulus (GPa) = 22.71006 27.45980 25.08493
#
# Velocity S-wave (km/s) = 3.66079 4.02545 3.84744
# Velocity P-wave (km/s) = 8.28022 8.66777 8.47621
#
# Compressibility (1/GPa) = 0.01164067
#
# Stress axis : x y z
#
# Youngs Moduli (GPa) = 52.56950 37.62536 116.68627
#
# Poissons Ratio (x) = 0.60692 0.26123
# Poissons Ratio (y) = 0.84798 0.33785
# Poissons Ratio (z) = 0.11769 0.10894
#
# Static dielectric constant tensor:
#      x y z
#    x 1.560750 0.000000 0.000000 
#    y 0.000000 1.553910 0.000000 
#    z 0.000000 0.000000 1.563730 
# 
# From -- ./inp_files/7820.got.cif
#   From: 2010.05.17/outbox.cif.g08.bks.cpg/sg55_4_cif.got.tgz:7820.got - 2010.06.03 13:27:54.
