data_PCOD9427948
_publ_section_title
;
Structure prediction by ZEFSAII (Michael W. Deem and Ramdas Pophale) SiO2 
 PCOD9427948
Probable space group: P B A M
;
_chemical_formula_sum "Si O2"
_cell_formula_units_Z 64
_cell_length_a 17.857292
_cell_length_b 22.651037
_cell_length_c 8.463233
_cell_angle_alpha 90.000000
_cell_angle_beta 90.000000
_cell_angle_gamma 90.000000
_cell_volume 3423.260802
_symmetry_space_group_name_H-M "P B A M"
_symmetry_group_IT_number 55
_symmetry_cell_setting 'orthorhombic'
loop_
_space_group_symop_operation_xyz
x,y,z
-x,-y,z
1/2+x,1/2-y,-z
1/2-x,1/2+y,-z
-x,-y,-z
x,y,-z
1/2-x,1/2+y,z
1/2+x,1/2-y,z
loop_
_atom_site_type_symbol
_atom_site_label
_atom_site_fract_x
_atom_site_fract_y
_atom_site_fract_z
Si Si1 0.162138 0.780002 0.809042
Si Si2 0.590123 0.937705 0.307473
Si Si3 0.727051 0.116392 0.189790
Si Si4 0.576065 0.073374 0.690155
Si Si5 0.286172 0.153871 0.309100
Si Si6 0.534214 0.632558 0.190438
Si Si7 0.871712 0.894651 0.311201
Si Si8 0.145975 0.972297 0.808861
O O1 0.227459 0.825664 0.759989
O O2 0.180026 0.715929 0.743962
O O3 0.084501 0.811425 0.758722
O O4 0.161578 0.777585 0.000000
O O5 0.591134 0.938039 0.500000
O O6 0.508773 0.912680 0.258981
O O7 0.658985 0.898436 0.252576
O O8 0.592987 0.005959 0.257745
O O9 0.642858 0.113408 0.249105
O O10 0.776730 0.059759 0.241629
O O11 0.727140 0.115561 0.000000
O O12 0.576892 0.074076 0.500000
O O13 0.285633 0.152555 0.500000
O O14 0.201595 0.140999 0.253991
O O15 0.450074 0.630804 0.250647
O O16 0.579522 0.573039 0.237737
O O17 0.533221 0.632515 0.000000
O O18 0.872145 0.892960 0.500000
O O19 0.863919 0.962730 0.258376
O O20 0.145397 0.975841 0.000000
#
# Coordination Sequence:
#
# PCOD9427948 Si02
#       8
#     8   8   8   8   8   8   8   8
#     4   9  20  39  57  72  97 137 181 216 254 306
#     4   8  16  32  52  74 103 137 168 205 253 307
#     4   9  18  33  52  76 105 133 167 216 260 297
#     4   9  16  30  54  79 102 133 171 204 251 315
#     4  10  21  37  53  73 105 140 174 216 260 304
#     4   9  19  37  57  76 103 140 178 213 256 312
#     4  11  22  33  51  83 112 134 169 216 262 311
#     4   9  18  33  54  78 107 143 173 204 257 315
#
# _framework density 18.695623999999999
#
# number of rings (size 3 to 8) (size 9 to 14) (size 15 to 20)
#    0.000    2.750    0.000    3.750    0.000    5.500 
#    2.250    5.000    0.000    0.000    0.000    0.000 
#    0.000    0.000    0.000    0.000    0.000    0.000 
#
# Total GULP energy -356945.880983 kJ/mol
# GULP energy per Si atom -5577.279390 kJ/mol
# Density = 1.865307 g / cm^3
# Si number density = 18.695624 Si / 1000 Ang^3
#
#
#
# Elastic Constant Matrix: (Units=GPa)
#
#
# Indices 1 2 3 4 5 6 
#
# 1 108.8847 31.0971 13.0838 0.0000 0.0000 0.0000
# 2 31.0971 64.6193 7.6239 0.0000 0.0000 0.0000
# 3 13.0838 7.6239 5.7512 0.0000 0.0000 0.0000
# 4 0.0000 0.0000 0.0000 29.4164 0.0000 0.0000
# 5 0.0000 0.0000 0.0000 0.0000 39.0971 0.0000
# 6 0.0000 0.0000 0.0000 0.0000 0.0000 9.7413
#
#
#
# Elastic Compliance Matrix: (Units=1/GPa)
#
#
# Indices 1 2 3 4 5 6 
#
# 1 0.013219 -0.003335 -0.025652 0.000000 0.000000 0.000000
# 2 -0.003335 0.019186 -0.017846 0.000000 0.000000 0.000000
# 3 -0.025652 -0.017846 0.255893 0.000000 0.000000 0.000000
# 4 0.000000 0.000000 0.000000 0.033995 0.000000 0.000000
# 5 0.000000 0.000000 0.000000 0.000000 0.025577 0.000000
# 6 0.000000 0.000000 0.000000 0.000000 0.000000 0.102656
#
#
# Mechanical properties :
#
#
# Convention : Reuss Voigt Hill
#
# Bulk Modulus (GPa) = 5.13791 31.42944 18.28368
# Shear Modulus (GPa) = 8.20925 24.14764 16.17845
#
# Velocity S-wave (km/s) = 2.09775 3.59781 2.94489
# Velocity P-wave (km/s) = 2.93625 5.84009 4.62213
#
# Compressibility (1/GPa) = 0.19463154
#
# Stress axis : x y z
#
# Youngs Moduli (GPa) = 75.64958 52.12224 3.90788
#
# Poissons Ratio (x) = 0.17382 0.10024
# Poissons Ratio (y) = 0.25229 0.06974
# Poissons Ratio (z) = 1.94055 0.93019
#
# Static dielectric constant tensor:
#      x y z
#    x 1.659930 0.000000 0.000000 
#    y 0.000000 1.624860 0.000000 
#    z 0.000000 0.000000 1.646480 
# 
# From -- ./inp_files/8198.got.cif
#   From: 2010.05.17/outbox.cif.g08.bks.cpg/sg55_5_cif.got.tgz:8198.got - 2010.06.03 13:27:54.
