data_PCOD9427320
_publ_section_title
;
Structure prediction by ZEFSAII (Michael W. Deem and Ramdas Pophale) SiO2 
 PCOD9427320
Probable space group: P B A M
;
_chemical_formula_sum "Si O2"
_cell_formula_units_Z 40
_cell_length_a 15.713987
_cell_length_b 9.789097
_cell_length_c 11.694302
_cell_angle_alpha 90.000000
_cell_angle_beta 90.000000
_cell_angle_gamma 90.000000
_cell_volume 1798.884694
_symmetry_space_group_name_H-M "P B A M"
_symmetry_group_IT_number 55
_symmetry_cell_setting 'orthorhombic'
loop_
_space_group_symop_operation_xyz
x,y,z
-x,-y,z
1/2+x,1/2-y,-z
1/2-x,1/2+y,-z
-x,-y,-z
x,y,-z
1/2-x,1/2+y,z
1/2+x,1/2-y,z
loop_
_atom_site_type_symbol
_atom_site_label
_atom_site_fract_x
_atom_site_fract_y
_atom_site_fract_z
Si Si1 0.753882 0.348943 0.828510
Si Si2 0.362560 0.408613 0.878199
Si Si3 0.137354 0.237701 0.374983
Si Si4 0.057892 0.831161 0.631098
Si Si5 0.406331 0.031589 0.290902
O O1 0.682828 0.445013 0.882433
O O2 0.790710 0.209893 0.879264
O O3 0.709038 0.306640 0.711259
O O4 0.836532 0.441245 0.805081
O O5 0.406104 0.391682 0.751930
O O6 0.412007 0.391190 0.000000
O O7 0.168314 0.204573 0.500000
O O8 0.120829 0.399344 0.361601
O O9 0.044850 0.168044 0.359179
O O10 0.080032 0.879548 0.500000
O O11 0.085240 0.671584 0.638333
O O12 0.500000 0.000000 0.242650
#
# Coordination Sequence:
#
# PCOD9427320 Si02
#       5
#     8   8   8   8   8
#     4  11  22  40  63  93 127 164 215 264 323 368
#     4  11  24  43  65  90 128 168 214 262 319 383
#     4  10  20  36  62  97 131 165 210 264 319 381
#     4   9  20  39  65  94 129 167 210 260 317 382
#     4   9  18  37  63  91 129 171 213 256 313 381
#
# _framework density 22.236001000000002
#
# number of rings (size 3 to 8) (size 9 to 14) (size 15 to 20)
#    0.000    2.000    2.000    1.200    0.000    8.000 
#    0.000    5.000    0.000    5.400    0.000    0.000 
#    0.000    0.000    0.000    0.000    0.000    0.000 
#
# Total GULP energy -222979.027989 kJ/mol
# GULP energy per Si atom -5574.475700 kJ/mol
# Density = 2.218539 g / cm^3
# Si number density = 22.236001 Si / 1000 Ang^3
#
#
#
# Elastic Constant Matrix: (Units=GPa)
#
#
# Indices 1 2 3 4 5 6 
#
# 1 60.5319 10.7267 47.7531 0.0000 0.0000 0.0000
# 2 10.7267 85.6557 38.8509 0.0000 0.0000 0.0000
# 3 47.7531 38.8509 169.3461 0.0000 0.0000 0.0000
# 4 0.0000 0.0000 0.0000 57.2324 0.0000 0.0000
# 5 0.0000 0.0000 0.0000 0.0000 -121.6334 0.0000
# 6 0.0000 0.0000 0.0000 0.0000 0.0000 37.3965
#
#
#
# Elastic Compliance Matrix: (Units=1/GPa)
#
#
# Indices 1 2 3 4 5 6 
#
# 1 0.021247 0.000063 -0.006006 0.000000 0.000000 0.000000
# 2 0.000063 0.013031 -0.003007 0.000000 0.000000 0.000000
# 3 -0.006006 -0.003007 0.008289 0.000000 0.000000 0.000000
# 4 0.000000 0.000000 0.000000 0.017473 0.000000 0.000000
# 5 0.000000 0.000000 0.000000 0.000000 -0.008221 0.000000
# 6 0.000000 0.000000 0.000000 0.000000 0.000000 0.026740
#
#
# Mechanical properties :
#
#
# Convention : Reuss Voigt Hill
#
# Bulk Modulus (GPa) = 40.54074 56.68834 48.61454
# Shear Modulus (GPa) = 47.76468 9.14597 28.45532
#
# Velocity S-wave (km/s) = 4.63977 2.03029 3.58116
# Velocity P-wave (km/s) = 6.85382 5.57184 6.24581
#
# Compressibility (1/GPa) = 0.02466655
#
# Stress axis : x y z
#
# Youngs Moduli (GPa) = 47.06552 76.74153 120.64820
#
# Poissons Ratio (x) = -0.00486 0.72460
# Poissons Ratio (y) = -0.00298 0.36283
# Poissons Ratio (z) = 0.28267 0.23079
#
# Static dielectric constant tensor:
#      x y z
#    x 1.796110 0.000000 0.000000 
#    y 0.000000 1.868590 0.000000 
#    z 0.000000 0.000000 2.050220 
# 
# From -- ./inp_files/13956.got.cif
#   From: 2010.05.17/outbox.cif.g08.bks.cpg/sg55_7_cif.got.tgz:13956.got - 2010.06.03 13:27:54.
