data_PCOD9427019
_publ_section_title
;
Structure prediction by ZEFSAII (Michael W. Deem and Ramdas Pophale) SiO2 
 PCOD9427019
Probable space group: P B A M
;
_chemical_formula_sum "Si O2"
_cell_formula_units_Z 64
_cell_length_a 24.640993
_cell_length_b 14.346891
_cell_length_c 7.406678
_cell_angle_alpha 90.000000
_cell_angle_beta 90.000000
_cell_angle_gamma 90.000000
_cell_volume 2618.420959
_symmetry_space_group_name_H-M "P B A M"
_symmetry_group_IT_number 55
_symmetry_cell_setting 'orthorhombic'
loop_
_space_group_symop_operation_xyz
x,y,z
-x,-y,z
1/2+x,1/2-y,-z
1/2-x,1/2+y,-z
-x,-y,-z
x,y,-z
1/2-x,1/2+y,z
1/2+x,1/2-y,z
loop_
_atom_site_type_symbol
_atom_site_label
_atom_site_fract_x
_atom_site_fract_y
_atom_site_fract_z
Si Si1 0.985345 0.398339 0.786144
Si Si2 0.129938 0.076625 0.718475
Si Si3 0.542226 0.569072 0.794462
Si Si4 0.094036 0.283224 0.717560
Si Si5 0.246292 0.596806 0.280432
Si Si6 0.712967 0.697302 0.794524
Si Si7 0.813993 0.576590 0.294665
Si Si8 0.594429 0.749966 0.222170
O O1 0.036233 0.328500 0.763121
O O2 0.000000 0.500000 0.710509
O O3 0.930711 0.347902 0.717922
O O4 0.976800 0.410409 0.000000
O O5 0.126257 0.072865 0.500000
O O6 0.105412 0.176927 0.778018
O O7 0.192787 0.068154 0.768030
O O8 0.097182 0.989892 0.794885
O O9 0.500000 0.500000 0.703206
O O10 0.552865 0.669870 0.716915
O O11 0.523244 0.585582 0.000000
O O12 0.098715 0.279392 0.500000
O O13 0.140992 0.354349 0.785629
O O14 0.243725 0.600093 0.500000
O O15 0.237879 0.699653 0.208593
O O16 0.201101 0.523706 0.214321
O O17 0.756326 0.630489 0.701777
O O18 0.653302 0.715908 0.715962
O O19 0.707543 0.663725 0.000000
O O20 0.831861 0.559322 0.500000
O O21 0.596644 0.750208 0.000000
#
# Coordination Sequence:
#
# PCOD9427019 Si02
#       8
#     8   8   8   8   8   8   8   8
#     4  10  22  40  62  84 111 153 198 239 286 342
#     4  10  20  36  57  83 116 146 182 237 287 334
#     4  10  20  35  58  83 111 149 188 228 279 343
#     4  10  21  38  58  83 117 150 187 243 291 334
#     4  10  21  38  59  82 113 155 194 235 289 350
#     4  11  22  36  58  86 120 154 188 242 294 343
#     4  10  21  39  61  84 117 158 197 239 291 350
#     4   9  20  38  55  81 120 151 185 239 292 337
#
# _framework density 24.442212999999999
#
# number of rings (size 3 to 8) (size 9 to 14) (size 15 to 20)
#    0.000    2.000    1.250    1.875    1.750    3.500 
#    0.000    2.500    0.000    0.000    0.000    0.000 
#    0.000    0.000    0.000    0.000    0.000    0.000 
#
# Total GULP energy -357790.544166 kJ/mol
# GULP energy per Si atom -5590.477253 kJ/mol
# Density = 2.438658 g / cm^3
# Si number density = 24.442213 Si / 1000 Ang^3
#
#
#
# Elastic Constant Matrix: (Units=GPa)
#
#
# Indices 1 2 3 4 5 6 
#
# 1 72.0458 -14.5004 -13.8770 0.0000 0.0000 0.0000
# 2 -14.5004 56.3097 -13.0618 0.0000 0.0000 0.0000
# 3 -13.8770 -13.0618 82.9919 0.0000 0.0000 0.0000
# 4 0.0000 0.0000 0.0000 -13.9974 0.0000 0.0000
# 5 0.0000 0.0000 0.0000 0.0000 12.1082 0.0000
# 6 0.0000 0.0000 0.0000 0.0000 0.0000 38.0102
#
#
#
# Elastic Compliance Matrix: (Units=1/GPa)
#
#
# Indices 1 2 3 4 5 6 
#
# 1 0.015481 0.004761 0.003338 0.000000 0.000000 0.000000
# 2 0.004761 0.019896 0.003927 0.000000 0.000000 0.000000
# 3 0.003338 0.003927 0.013226 0.000000 0.000000 0.000000
# 4 0.000000 0.000000 0.000000 -0.071442 0.000000 0.000000
# 5 0.000000 0.000000 0.000000 0.000000 0.082589 0.000000
# 6 0.000000 0.000000 0.000000 0.000000 0.000000 0.026309
#
#
# Mechanical properties :
#
#
# Convention : Reuss Voigt Hill
#
# Bulk Modulus (GPa) = 13.76366 14.27432 14.01899
# Shear Modulus (GPa) = 57.98842 24.07664 41.03253
#
# Velocity S-wave (km/s) = 4.87609 3.14195 4.10171
# Velocity P-wave (km/s) = 6.11105 4.36063 5.30849
#
# Compressibility (1/GPa) = 0.07265507
#
# Stress axis : x y z
#
# Youngs Moduli (GPa) = 64.59450 50.26153 75.61081
#
# Poissons Ratio (x) = -0.23929 -0.25238
# Poissons Ratio (y) = -0.30753 -0.29695
# Poissons Ratio (z) = -0.21561 -0.19740
#
# Static dielectric constant tensor:
#      x y z
#    x 1.731640 0.000000 0.000000 
#    y 0.000000 1.913440 0.000000 
#    z 0.000000 0.000000 1.894750 
# 
# From -- ./inp_files/9766.got.cif
#   From: 2010.05.17/outbox.cif.g08.bks.cpg/sg55_5_cif.got.tgz:9766.got - 2010.06.03 13:27:54.
