data_PCOD9427299
_publ_section_title
;
Structure prediction by ZEFSAII (Michael W. Deem and Ramdas Pophale) SiO2 
 PCOD9427299
Probable space group: P B A M
;
_chemical_formula_sum "Si O2"
_cell_formula_units_Z 64
_cell_length_a 29.473225
_cell_length_b 12.747244
_cell_length_c 7.950422
_cell_angle_alpha 90.000000
_cell_angle_beta 90.000000
_cell_angle_gamma 90.000000
_cell_volume 2986.992551
_symmetry_space_group_name_H-M "P B A M"
_symmetry_group_IT_number 55
_symmetry_cell_setting 'orthorhombic'
loop_
_space_group_symop_operation_xyz
x,y,z
-x,-y,z
1/2+x,1/2-y,-z
1/2-x,1/2+y,-z
-x,-y,-z
x,y,-z
1/2-x,1/2+y,z
1/2+x,1/2-y,z
loop_
_atom_site_type_symbol
_atom_site_label
_atom_site_fract_x
_atom_site_fract_y
_atom_site_fract_z
Si Si1 0.300009 0.444361 0.202336
Si Si2 0.799486 0.500498 0.800810
Si Si3 0.484021 0.886549 0.298749
Si Si4 0.433895 0.254885 0.294421
Si Si5 0.164808 0.714609 0.700520
Si Si6 0.880505 0.639867 0.804241
Si Si7 0.551652 0.510115 0.705405
Si Si8 0.367206 0.631002 0.699954
O O1 0.248442 0.458032 0.265789
O O2 0.319714 0.332133 0.256501
O O3 0.330010 0.541765 0.266207
O O4 0.300427 0.448651 0.000000
O O5 0.804373 0.376356 0.776125
O O6 0.844011 0.558451 0.728893
O O7 0.700858 0.023006 0.000000
O O8 0.489672 0.888212 0.500000
O O9 0.519909 0.799904 0.235753
O O10 0.431253 0.864741 0.268032
O O11 0.500000 0.000000 0.233337
O O12 0.434365 0.255303 0.500000
O O13 0.387394 0.199418 0.241288
O O14 0.431162 0.375799 0.241588
O O15 0.165831 0.703340 0.500000
O O16 0.860364 0.756513 0.782884
O O17 0.886027 0.615488 0.000000
O O18 0.500000 0.500000 0.760383
O O19 0.552022 0.507459 0.500000
O O20 0.585161 0.418775 0.761210
O O21 0.370142 0.648459 0.500000
#
# Coordination Sequence:
#
# PCOD9427299 Si02
#       8
#     8   8   8   8   8   8   8   8
#     4  11  24  43  65  89 124 168 206 249 319 393
#     4  10  25  45  64  86 121 170 210 246 310 387
#     4  10  20  36  61  91 123 165 213 257 311 374
#     4   9  17  32  55  86 123 157 195 249 313 369
#     4  11  22  40  67  97 125 154 205 269 312 359
#     4  11  24  42  62  90 129 171 212 257 314 381
#     4   9  16  29  53  82 114 154 195 239 300 364
#     4  11  22  39  63  91 123 159 209 266 313 365
#
# _framework density 21.426233
#
# number of rings (size 3 to 8) (size 9 to 14) (size 15 to 20)
#    0.000    1.750    1.250    3.000    1.750    5.250 
#    0.000    1.250    0.000    1.500    0.000    0.000 
#    0.000    0.000    0.000    0.000    0.000    0.000 
#
# Total GULP energy -357592.165487 kJ/mol
# GULP energy per Si atom -5587.377586 kJ/mol
# Density = 2.137747 g / cm^3
# Si number density = 21.426233 Si / 1000 Ang^3
#
#
#
# Elastic Constant Matrix: (Units=GPa)
#
#
# Indices 1 2 3 4 5 6 
#
# 1 125.1652 29.0026 -6.2062 0.0000 0.0000 0.0000
# 2 29.0026 86.7734 -19.9515 0.0000 0.0000 0.0000
# 3 -6.2062 -19.9515 14.6877 0.0000 0.0000 0.0000
# 4 0.0000 0.0000 0.0000 21.3313 0.0000 0.0000
# 5 0.0000 0.0000 0.0000 0.0000 24.8782 0.0000
# 6 0.0000 0.0000 0.0000 0.0000 0.0000 35.0730
#
#
#
# Elastic Compliance Matrix: (Units=1/GPa)
#
#
# Indices 1 2 3 4 5 6 
#
# 1 0.008662 -0.002986 -0.000396 0.000000 0.000000 0.000000
# 2 -0.002986 0.017788 0.022901 0.000000 0.000000 0.000000
# 3 -0.000396 0.022901 0.099025 0.000000 0.000000 0.000000
# 4 0.000000 0.000000 0.000000 0.046879 0.000000 0.000000
# 5 0.000000 0.000000 0.000000 0.000000 0.040196 0.000000
# 6 0.000000 0.000000 0.000000 0.000000 0.000000 0.028512
#
#
# Mechanical properties :
#
#
# Convention : Reuss Voigt Hill
#
# Bulk Modulus (GPa) = 6.07860 25.81289 15.94575
# Shear Modulus (GPa) = 19.46567 31.17527 25.32047
#
# Velocity S-wave (km/s) = 3.01740 3.81859 3.44139
# Velocity P-wave (km/s) = 3.87075 5.61388 4.82174
#
# Compressibility (1/GPa) = 0.16451166
#
# Stress axis : x y z
#
# Youngs Moduli (GPa) = 115.45044 56.21798 10.09844
#
# Poissons Ratio (x) = 0.16788 0.00400
# Poissons Ratio (y) = 0.34476 -0.23126
# Poissons Ratio (z) = 0.04577 -1.28745
#
# Static dielectric constant tensor:
#      x y z
#    x 1.785450 0.000000 0.000000 
#    y 0.000000 1.755930 0.000000 
#    z 0.000000 0.000000 1.781530 
# 
# From -- ./inp_files/10837.got.cif
#   From: 2010.05.17/outbox.cif.g08.bks.cpg/sg55_6_cif.got.tgz:10837.got - 2010.06.03 13:27:54.
