data_PCOD9427292
_publ_section_title
;
Structure prediction by ZEFSAII (Michael W. Deem and Ramdas Pophale) SiO2 
 PCOD9427292
Probable space group: P B A M
;
_chemical_formula_sum "Si O2"
_cell_formula_units_Z 64
_cell_length_a 11.550212
_cell_length_b 21.505280
_cell_length_c 14.713608
_cell_angle_alpha 90.000000
_cell_angle_beta 90.000000
_cell_angle_gamma 90.000000
_cell_volume 3654.721082
_symmetry_space_group_name_H-M "P B A M"
_symmetry_group_IT_number 55
_symmetry_cell_setting 'orthorhombic'
loop_
_space_group_symop_operation_xyz
x,y,z
-x,-y,z
1/2+x,1/2-y,-z
1/2-x,1/2+y,-z
-x,-y,-z
x,y,-z
1/2-x,1/2+y,z
1/2+x,1/2-y,z
loop_
_atom_site_type_symbol
_atom_site_label
_atom_site_fract_x
_atom_site_fract_y
_atom_site_fract_z
Si Si1 0.707865 0.095141 0.104593
Si Si2 0.417086 0.194778 0.271570
Si Si3 0.672290 0.665213 0.736584
Si Si4 0.360491 0.794141 0.603942
Si Si5 0.055302 0.608413 0.895849
Si Si6 0.300162 0.540506 0.105091
Si Si7 0.459044 0.570166 0.724462
Si Si8 0.712719 0.350568 0.394833
O O1 0.748367 0.145224 0.178164
O O2 0.571789 0.078004 0.116532
O O3 0.785440 0.033563 0.116274
O O4 0.721106 0.116526 0.000000
O O5 0.376813 0.265276 0.255368
O O6 0.531204 0.193966 0.332207
O O7 0.438075 0.163389 0.175505
O O8 0.322160 0.156270 0.328551
O O9 0.751682 0.669602 0.646645
O O10 0.568755 0.615936 0.730562
O O11 0.381206 0.812154 0.500000
O O12 0.338693 0.719696 0.605921
O O13 0.170104 0.567200 0.882407
O O14 0.059112 0.630148 0.000000
O O15 0.387931 0.566836 0.180097
O O16 0.335156 0.553253 0.000000
O O17 0.500000 0.500000 0.703724
O O18 0.374947 0.599998 0.648685
O O19 0.741060 0.364990 0.500000
#
# Coordination Sequence:
#
# PCOD9427292 Si02
#       8
#     8   8   8   8   8   8   8   8
#     4  10  20  37  60  86 117 155 196 239 287 345
#     4  11  20  37  64  85 118 149 196 242 295 347
#     4  11  23  36  57  89 119 153 194 240 287 350
#     4  10  21  39  63  86 112 150 195 248 295 343
#     4  10  20  36  61  89 116 149 193 243 295 345
#     4  10  21  38  61  87 115 153 200 241 284 349
#     4  12  23  38  60  86 120 160 194 236 296 354
#     4  10  22  39  59  86 114 150 196 243 294 349
#
# _framework density 17.511596000000001
#
# number of rings (size 3 to 8) (size 9 to 14) (size 15 to 20)
#    0.000    1.500    5.000    0.750    0.000    4.000 
#    0.000    0.000    0.000    0.000    0.000    3.500 
#    0.000    0.000    0.000    0.000    0.000    0.000 
#
# Total GULP energy -356989.353627 kJ/mol
# GULP energy per Si atom -5577.958650 kJ/mol
# Density = 1.747174 g / cm^3
# Si number density = 17.511596 Si / 1000 Ang^3
#
#
#
# Elastic Constant Matrix: (Units=GPa)
#
#
# Indices 1 2 3 4 5 6 
#
# 1 76.3852 31.7091 45.1163 0.0000 0.0000 0.0000
# 2 31.7091 57.4028 57.3309 0.0000 0.0000 0.0000
# 3 45.1163 57.3309 111.1011 0.0000 0.0000 0.0000
# 4 0.0000 0.0000 0.0000 25.6470 0.0000 0.0000
# 5 0.0000 0.0000 0.0000 0.0000 5.2148 0.0000
# 6 0.0000 0.0000 0.0000 0.0000 0.0000 31.2519
#
#
#
# Elastic Compliance Matrix: (Units=1/GPa)
#
#
# Indices 1 2 3 4 5 6 
#
# 1 0.018014 -0.005458 -0.004499 0.000000 0.000000 0.000000
# 2 -0.005458 0.037601 -0.017187 0.000000 0.000000 0.000000
# 3 -0.004499 -0.017187 0.019697 0.000000 0.000000 0.000000
# 4 0.000000 0.000000 0.000000 0.038991 0.000000 0.000000
# 5 0.000000 0.000000 0.000000 0.000000 0.191764 0.000000
# 6 0.000000 0.000000 0.000000 0.000000 0.000000 0.031998
#
#
# Mechanical properties :
#
#
# Convention : Reuss Voigt Hill
#
# Bulk Modulus (GPa) = 47.56259 57.02243 52.29251
# Shear Modulus (GPa) = 12.52005 19.80491 16.16248
#
# Velocity S-wave (km/s) = 2.67677 3.36662 3.04132
# Velocity P-wave (km/s) = 6.06408 6.90982 6.50072
#
# Compressibility (1/GPa) = 0.02102493
#
# Stress axis : x y z
#
# Youngs Moduli (GPa) = 55.51086 26.59526 50.77042
#
# Poissons Ratio (x) = 0.14515 0.22842
# Poissons Ratio (y) = 0.30296 0.87257
# Poissons Ratio (z) = 0.24975 0.45708
#
# Static dielectric constant tensor:
#      x y z
#    x 1.618060 0.000000 0.000000 
#    y 0.000000 1.566400 0.000000 
#    z 0.000000 0.000000 1.573990 
# 
# From -- ./inp_files/15740.got.cif
#   From: 2010.05.17/outbox.cif.g08.bks.cpg/sg55_8_cif.got.tgz:15740.got - 2010.06.03 13:27:54.
