data_PCOD9427270
_publ_section_title
;
Structure prediction by ZEFSAII (Michael W. Deem and Ramdas Pophale) SiO2 
 PCOD9427270
Probable space group: P B A M
;
_chemical_formula_sum "Si O2"
_cell_formula_units_Z 56
_cell_length_a 20.780469
_cell_length_b 16.324048
_cell_length_c 8.535222
_cell_angle_alpha 90.000000
_cell_angle_beta 90.000000
_cell_angle_gamma 90.000000
_cell_volume 2895.329729
_symmetry_space_group_name_H-M "P B A M"
_symmetry_group_IT_number 55
_symmetry_cell_setting 'orthorhombic'
loop_
_space_group_symop_operation_xyz
x,y,z
-x,-y,z
1/2+x,1/2-y,-z
1/2-x,1/2+y,-z
-x,-y,-z
x,y,-z
1/2-x,1/2+y,z
1/2+x,1/2-y,z
loop_
_atom_site_type_symbol
_atom_site_label
_atom_site_fract_x
_atom_site_fract_y
_atom_site_fract_z
Si Si1 0.834923 0.333635 0.311837
Si Si2 0.804577 0.813211 0.812253
Si Si3 0.097595 0.322952 0.312243
Si Si4 0.547456 0.571567 0.808820
Si Si5 0.683632 0.503715 0.188784
Si Si6 0.821904 0.522079 0.688442
Si Si7 0.965900 0.256337 0.187876
O O1 0.831753 0.330676 0.500000
O O2 0.768500 0.297838 0.243466
O O3 0.837966 0.429354 0.261036
O O4 0.898406 0.288804 0.252727
O O5 0.854916 0.749921 0.740386
O O6 0.820304 0.907485 0.766460
O O7 0.807974 0.807796 0.000000
O O8 0.094365 0.324260 0.500000
O O9 0.128918 0.408518 0.256726
O O10 0.026734 0.307515 0.246394
O O11 0.500000 0.500000 0.755036
O O12 0.620044 0.551157 0.758973
O O13 0.525903 0.661773 0.760764
O O14 0.546933 0.570076 0.000000
O O15 0.749614 0.539487 0.255079
O O16 0.686590 0.506577 0.000000
O O17 0.822326 0.522615 0.500000
O O18 0.963999 0.258333 0.000000
#
# Coordination Sequence:
#
# PCOD9427270 Si02
#       7
#     8   8   8   8   8   8   8
#     4  10  21  40  61  83 116 154 192 239 296 350
#     4  10  20  36  60  88 117 149 191 239 289 346
#     4  11  23  39  58  83 115 154 197 239 294 350
#     4   9  18  34  56  82 115 150 185 229 286 342
#     4   9  18  34  58  85 111 146 188 235 288 344
#     4   9  21  39  58  81 110 149 194 240 288 345
#     4  11  23  38  58  87 118 151 195 243 292 348
#
# _framework density 19.341493
#
# number of rings (size 3 to 8) (size 9 to 14) (size 15 to 20)
#    0.000    2.143    0.000    2.571    2.000    5.143 
#    0.000    3.571    0.000    3.000    0.000    0.000 
#    0.000    0.000    0.000    0.000    0.000    0.000 
#
# Total GULP energy -312814.317721 kJ/mol
# GULP energy per Si atom -5585.969959 kJ/mol
# Density = 1.929747 g / cm^3
# Si number density = 19.341493 Si / 1000 Ang^3
#
#
#
# Elastic Constant Matrix: (Units=GPa)
#
#
# Indices 1 2 3 4 5 6 
#
# 1 66.7644 2.9063 4.0168 0.0000 0.0000 0.0000
# 2 2.9063 22.0999 4.0695 0.0000 0.0000 0.0000
# 3 4.0168 4.0695 18.5805 0.0000 0.0000 0.0000
# 4 0.0000 0.0000 0.0000 21.8803 0.0000 0.0000
# 5 0.0000 0.0000 0.0000 0.0000 41.0387 0.0000
# 6 0.0000 0.0000 0.0000 0.0000 0.0000 36.6159
#
#
#
# Elastic Compliance Matrix: (Units=1/GPa)
#
#
# Indices 1 2 3 4 5 6 
#
# 1 0.015220 -0.001454 -0.002972 0.000000 0.000000 0.000000
# 2 -0.001454 0.047290 -0.010043 0.000000 0.000000 0.000000
# 3 -0.002972 -0.010043 0.056662 0.000000 0.000000 0.000000
# 4 0.000000 0.000000 0.000000 0.045703 0.000000 0.000000
# 5 0.000000 0.000000 0.000000 0.000000 0.024367 0.000000
# 6 0.000000 0.000000 0.000000 0.000000 0.000000 0.027311
#
#
# Mechanical properties :
#
#
# Convention : Reuss Voigt Hill
#
# Bulk Modulus (GPa) = 11.08235 14.38111 12.73173
# Shear Modulus (GPa) = 18.14432 26.33714 22.24073
#
# Velocity S-wave (km/s) = 3.06617 3.69411 3.39469
# Velocity P-wave (km/s) = 4.27522 5.06427 4.68638
#
# Compressibility (1/GPa) = 0.09023360
#
# Stress axis : x y z
#
# Youngs Moduli (GPa) = 65.70241 21.14628 17.64857
#
# Poissons Ratio (x) = 0.03075 0.05245
# Poissons Ratio (y) = 0.09555 0.17724
# Poissons Ratio (z) = 0.19525 0.21237
#
# Static dielectric constant tensor:
#      x y z
#    x 1.637740 0.000000 0.000000 
#    y 0.000000 1.683380 0.000000 
#    z 0.000000 0.000000 1.660000 
# 
# From -- ./inp_files/8735.got.cif
#   From: 2010.05.17/outbox.cif.g08.bks.cpg/sg55_5_cif.got.tgz:8735.got - 2010.06.03 13:27:54.
