data_PCOD9427359
_publ_section_title
;
Structure prediction by ZEFSAII (Michael W. Deem and Ramdas Pophale) SiO2 
 PCOD9427359
Probable space group: P B A M
;
_chemical_formula_sum "Si O2"
_cell_formula_units_Z 64
_cell_length_a 22.503987
_cell_length_b 8.035017
_cell_length_c 17.095729
_cell_angle_alpha 90.000000
_cell_angle_beta 90.000000
_cell_angle_gamma 90.000000
_cell_volume 3091.248318
_symmetry_space_group_name_H-M "P B A M"
_symmetry_group_IT_number 55
_symmetry_cell_setting 'orthorhombic'
loop_
_space_group_symop_operation_xyz
x,y,z
-x,-y,z
1/2+x,1/2-y,-z
1/2-x,1/2+y,-z
-x,-y,-z
x,y,-z
1/2-x,1/2+y,z
1/2+x,1/2-y,z
loop_
_atom_site_type_symbol
_atom_site_label
_atom_site_fract_x
_atom_site_fract_y
_atom_site_fract_z
Si Si1 0.740827 0.862075 0.685512
Si Si2 0.816534 0.016075 0.822512
Si Si3 0.174301 0.379943 0.409683
Si Si4 0.648884 0.921890 0.193995
Si Si5 0.567505 0.053725 0.913548
Si Si6 0.560241 0.107958 0.316172
Si Si7 0.944440 0.882887 0.807646
Si Si8 0.774000 0.686285 0.907471
O O1 0.780111 0.979630 0.742545
O O2 0.788928 0.739671 0.648717
O O3 0.688103 0.812637 0.746331
O O4 0.704882 0.945758 0.614526
O O5 0.885704 0.997056 0.804833
O O6 0.799550 0.861432 0.880069
O O7 0.793583 0.168318 0.876336
O O8 0.184539 0.341065 0.500000
O O9 0.104114 0.373210 0.390130
O O10 0.600453 0.896639 0.126740
O O11 0.605558 0.017209 0.255959
O O12 0.690789 0.053092 0.146566
O O13 0.567729 0.230983 0.868411
O O14 0.500000 0.000000 0.916696
O O15 0.592157 0.080398 0.000000
O O16 0.545736 0.283550 0.274234
O O17 0.500000 0.000000 0.326530
O O18 0.000000 0.000000 0.826659
O O19 0.776583 0.660882 0.000000
#
# Coordination Sequence:
#
# PCOD9427359 Si02
#       8
#     8   8   8   8   8   8   8   8
#     4  10  20  39  61  91 123 159 199 242 298 369
#     4  11  21  40  59  86 120 159 207 247 303 362
#     4  11  22  40  66  96 127 159 191 244 313 372
#     4   9  17  32  60  83 109 157 204 243 289 353
#     4  10  20  37  58  82 120 168 212 260 309 353
#     4  10  20  41  63  89 117 160 207 251 292 367
#     4  11  22  40  62  88 115 161 211 258 307 353
#     4  11  21  35  58  85 121 162 199 254 312 354
#
# _framework density 20.703610999999999
#
# number of rings (size 3 to 8) (size 9 to 14) (size 15 to 20)
#    0.000    1.625    3.750    4.125    0.000    1.000 
#   18.000    0.000    0.000    0.375    0.000    0.000 
#    0.000    0.000    0.000    0.000    0.000    0.000 
#
# Total GULP energy -356374.558346 kJ/mol
# GULP energy per Si atom -5568.352474 kJ/mol
# Density = 2.065649 g / cm^3
# Si number density = 20.703611 Si / 1000 Ang^3
#
#
#
# Elastic Constant Matrix: (Units=GPa)
#
#
# Indices 1 2 3 4 5 6 
#
# 1 137.9505 30.1845 52.8962 0.0000 0.0000 0.0000
# 2 30.1845 39.7298 18.9272 0.0000 0.0000 0.0000
# 3 52.8962 18.9272 120.3962 0.0000 0.0000 0.0000
# 4 0.0000 0.0000 0.0000 21.2471 0.0000 0.0000
# 5 0.0000 0.0000 0.0000 0.0000 26.2269 0.0000
# 6 0.0000 0.0000 0.0000 0.0000 0.0000 35.1108
#
#
#
# Elastic Compliance Matrix: (Units=1/GPa)
#
#
# Indices 1 2 3 4 5 6 
#
# 1 0.009833 -0.005851 -0.003400 0.000000 0.000000 0.000000
# 2 -0.005851 0.030689 -0.002254 0.000000 0.000000 0.000000
# 3 -0.003400 -0.002254 0.010154 0.000000 0.000000 0.000000
# 4 0.000000 0.000000 0.000000 0.047065 0.000000 0.000000
# 5 0.000000 0.000000 0.000000 0.000000 0.038129 0.000000
# 6 0.000000 0.000000 0.000000 0.000000 0.000000 0.028481
#
#
# Mechanical properties :
#
#
# Convention : Reuss Voigt Hill
#
# Bulk Modulus (GPa) = 36.14552 55.78803 45.96678
# Shear Modulus (GPa) = 25.43451 29.58820 27.51135
#
# Velocity S-wave (km/s) = 3.50881 3.78449 3.64925
# Velocity P-wave (km/s) = 5.82341 6.78977 6.32507
#
# Compressibility (1/GPa) = 0.02766594
#
# Stress axis : x y z
#
# Youngs Moduli (GPa) = 101.69863 32.58517 98.48121
#
# Poissons Ratio (x) = 0.19064 0.33487
# Poissons Ratio (y) = 0.59500 0.22198
# Poissons Ratio (z) = 0.34581 0.07345
#
# Static dielectric constant tensor:
#      x y z
#    x 1.856810 0.000000 0.000000 
#    y 0.000000 1.928030 0.000000 
#    z 0.000000 0.000000 1.739750 
# 
# From -- ./inp_files/19978.got.cif
#   From: 2010.05.17/outbox.cif.g08.bks.cpg/sg55_10_cif.got.tgz:19978.got - 2010.06.03 13:27:54.
