data_PCOD9427879
_publ_section_title
;
Structure prediction by ZEFSAII (Michael W. Deem and Ramdas Pophale) SiO2 
 PCOD9427879
Probable space group: P B A M
;
_chemical_formula_sum "Si O2"
_cell_formula_units_Z 64
_cell_length_a 11.162367
_cell_length_b 8.655017
_cell_length_c 30.437273
_cell_angle_alpha 90.000000
_cell_angle_beta 90.000000
_cell_angle_gamma 90.000000
_cell_volume 2940.559437
_symmetry_space_group_name_H-M "P B A M"
_symmetry_group_IT_number 55
_symmetry_cell_setting 'orthorhombic'
loop_
_space_group_symop_operation_xyz
x,y,z
-x,-y,z
1/2+x,1/2-y,-z
1/2-x,1/2+y,-z
-x,-y,-z
x,y,-z
1/2-x,1/2+y,z
1/2+x,1/2-y,z
loop_
_atom_site_type_symbol
_atom_site_label
_atom_site_fract_x
_atom_site_fract_y
_atom_site_fract_z
Si Si1 0.750815 0.349459 0.233037
Si Si2 0.618122 0.593283 0.815117
Si Si3 0.122690 0.905629 0.081987
Si Si4 0.130258 0.560613 0.948697
Si Si5 0.061981 0.816084 0.549495
Si Si6 0.378722 0.902452 0.282295
Si Si7 0.085853 0.354045 0.621011
Si Si8 0.267220 0.020774 0.451467
O O1 0.855952 0.238137 0.216048
O O2 0.719958 0.465278 0.193747
O O3 0.646723 0.231593 0.247221
O O4 0.781206 0.463020 0.273428
O O5 0.500000 0.500000 0.802727
O O6 0.614462 0.634184 0.866159
O O7 0.127752 0.745199 0.056137
O O8 0.247583 0.996375 0.073437
O O9 0.000000 0.000000 0.071083
O O10 0.000000 0.500000 0.931697
O O11 0.137401 0.515726 0.000000
O O12 0.011855 0.788551 0.500000
O O13 0.984894 0.770734 0.592033
O O14 0.874001 0.016412 0.549830
O O15 0.172724 0.688917 0.551572
O O16 0.370553 0.821706 0.329994
O O17 0.500000 0.000000 0.276660
O O18 0.184294 0.423323 0.588887
O O19 0.000000 0.500000 0.627855
O O20 0.305806 0.963746 0.500000
#
# Coordination Sequence:
#
# PCOD9427879 Si02
#       8
#     8   8   8   8   8   8   8   8
#     4  10  21  38  60  84 113 148 187 236 295 353
#     4  10  21  39  62  89 119 151 195 251 305 354
#     4  11  23  40  64  94 127 167 218 270 320 377
#     4  11  24  41  62  92 132 176 218 262 315 374
#     4   9  17  31  51  73  98 130 168 211 259 313
#     4  10  21  36  56  81 109 144 183 224 278 345
#     4   9  18  31  49  71  99 132 169 207 255 319
#     4   9  17  30  49  71  95 126 164 205 251 304
#
# _framework density 21.764565999999999
#
# number of rings (size 3 to 8) (size 9 to 14) (size 15 to 20)
#    0.000    2.125    0.000    3.000    0.000    7.500 
#    0.000    3.750    0.000   12.000    0.000    0.000 
#    0.000    0.000    0.000    0.000    0.000    0.000 
#
# Total GULP energy -356738.487665 kJ/mol
# GULP energy per Si atom -5574.038870 kJ/mol
# Density = 2.171503 g / cm^3
# Si number density = 21.764566 Si / 1000 Ang^3
#
#
#
# Elastic Constant Matrix: (Units=GPa)
#
#
# Indices 1 2 3 4 5 6 
#
# 1 83.0222 28.8128 14.0786 0.0000 0.0000 0.0000
# 2 28.8128 86.3764 15.4615 0.0000 0.0000 0.0000
# 3 14.0786 15.4615 57.2848 0.0000 0.0000 0.0000
# 4 0.0000 0.0000 0.0000 24.8745 0.0000 0.0000
# 5 0.0000 0.0000 0.0000 0.0000 75.6760 0.0000
# 6 0.0000 0.0000 0.0000 0.0000 0.0000 34.9277
#
#
#
# Elastic Compliance Matrix: (Units=1/GPa)
#
#
# Indices 1 2 3 4 5 6 
#
# 1 0.013898 -0.004229 -0.002274 0.000000 0.000000 0.000000
# 2 -0.004229 0.013452 -0.002591 0.000000 0.000000 0.000000
# 3 -0.002274 -0.002591 0.018715 0.000000 0.000000 0.000000
# 4 0.000000 0.000000 0.000000 0.040202 0.000000 0.000000
# 5 0.000000 0.000000 0.000000 0.000000 0.013214 0.000000
# 6 0.000000 0.000000 0.000000 0.000000 0.000000 0.028631
#
#
# Mechanical properties :
#
#
# Convention : Reuss Voigt Hill
#
# Bulk Modulus (GPa) = 35.87346 38.15437 37.01391
# Shear Modulus (GPa) = 32.13513 38.31767 35.22640
#
# Velocity S-wave (km/s) = 3.84668 4.20045 4.02745
# Velocity P-wave (km/s) = 6.02059 6.41043 6.21856
#
# Compressibility (1/GPa) = 0.02787576
#
# Stress axis : x y z
#
# Youngs Moduli (GPa) = 71.95115 74.33959 53.43307
#
# Poissons Ratio (x) = 0.31438 0.12152
# Poissons Ratio (y) = 0.30428 0.13847
# Poissons Ratio (z) = 0.16364 0.19264
#
# Static dielectric constant tensor:
#      x y z
#    x 1.884220 0.000000 0.000000 
#    y 0.000000 1.842280 0.000000 
#    z 0.000000 0.000000 1.784420 
# 
# From -- ./inp_files/24159.got.cif
#   From: 2010.05.17/outbox.cif.g08.bks.cpg/sg55_13_cif.got.tgz:24159.got - 2010.06.03 13:27:54.
