data_PCOD9427428
_publ_section_title
;
Structure prediction by ZEFSAII (Michael W. Deem and Ramdas Pophale) SiO2 
 PCOD9427428
Probable space group: P B A M
;
_chemical_formula_sum "Si O2"
_cell_formula_units_Z 56
_cell_length_a 22.099656
_cell_length_b 15.011376
_cell_length_c 8.928033
_cell_angle_alpha 90.000000
_cell_angle_beta 90.000000
_cell_angle_gamma 90.000000
_cell_volume 2961.841429
_symmetry_space_group_name_H-M "P B A M"
_symmetry_group_IT_number 55
_symmetry_cell_setting 'orthorhombic'
loop_
_space_group_symop_operation_xyz
x,y,z
-x,-y,z
1/2+x,1/2-y,-z
1/2-x,1/2+y,-z
-x,-y,-z
x,y,-z
1/2-x,1/2+y,z
1/2+x,1/2-y,z
loop_
_atom_site_type_symbol
_atom_site_label
_atom_site_fract_x
_atom_site_fract_y
_atom_site_fract_z
Si Si1 0.526380 0.635677 0.328849
Si Si2 0.929852 0.481455 0.181400
Si Si3 0.145278 0.345629 0.181949
Si Si4 0.097610 0.155708 0.176825
Si Si5 0.784700 0.172217 0.179558
Si Si6 0.358850 0.485681 0.325117
Si Si7 0.618883 0.799557 0.676359
O O1 0.502663 0.633795 0.500000
O O2 0.471585 0.634173 0.215135
O O3 0.573444 0.555038 0.312042
O O4 0.566309 0.724796 0.308832
O O5 0.888506 0.564857 0.231449
O O6 0.903747 0.390280 0.248545
O O7 0.000000 0.500000 0.222840
O O8 0.927774 0.475421 0.000000
O O9 0.110298 0.256404 0.227425
O O10 0.214917 0.334475 0.227665
O O11 0.144686 0.348558 0.000000
O O12 0.139378 0.084493 0.260797
O O13 0.108664 0.149140 0.000000
O O14 0.817026 0.081810 0.233718
O O15 0.821971 0.254535 0.249592
O O16 0.787446 0.179163 0.000000
O O17 0.342523 0.483078 0.500000
O O18 0.629669 0.812835 0.500000
#
# Coordination Sequence:
#
# PCOD9427428 Si02
#       7
#     8   8   8   8   8   8   8
#     4   9  19  35  53  76 111 146 172 213 272 324
#     4  10  20  37  61  86 113 149 193 237 282 335
#     4   9  21  38  55  80 112 143 181 235 283 319
#     4  11  21  34  55  82 109 140 181 222 266 324
#     4  10  20  38  60  79 105 144 189 229 272 329
#     4  10  21  37  55  79 113 145 176 220 273 325
#     4  10  21  37  57  83 115 147 182 228 282 335
#
# _framework density 18.907157000000002
#
# number of rings (size 3 to 8) (size 9 to 14) (size 15 to 20)
#    0.000    2.143    0.000    3.857    0.000    7.714 
#    0.000   11.429    0.000    0.000    0.000    0.000 
#    0.000    0.000    0.000    0.000    0.000    0.000 
#
# Total GULP energy -312686.031030 kJ/mol
# GULP energy per Si atom -5583.679126 kJ/mol
# Density = 1.886412 g / cm^3
# Si number density = 18.907157 Si / 1000 Ang^3
#
#
#
# Elastic Constant Matrix: (Units=GPa)
#
#
# Indices 1 2 3 4 5 6 
#
# 1 73.9614 36.5932 32.1740 0.0000 0.0000 0.0000
# 2 36.5932 145.7979 39.7071 0.0000 0.0000 0.0000
# 3 32.1740 39.7071 53.0192 0.0000 0.0000 0.0000
# 4 0.0000 0.0000 0.0000 24.4259 0.0000 0.0000
# 5 0.0000 0.0000 0.0000 0.0000 31.2841 0.0000
# 6 0.0000 0.0000 0.0000 0.0000 0.0000 12.1656
#
#
#
# Elastic Compliance Matrix: (Units=1/GPa)
#
#
# Indices 1 2 3 4 5 6 
#
# 1 0.018835 -0.002028 -0.009911 0.000000 0.000000 0.000000
# 2 -0.002028 0.008835 -0.005386 0.000000 0.000000 0.000000
# 3 -0.009911 -0.005386 0.028909 0.000000 0.000000 0.000000
# 4 0.000000 0.000000 0.000000 0.040940 0.000000 0.000000
# 5 0.000000 0.000000 0.000000 0.000000 0.031965 0.000000
# 6 0.000000 0.000000 0.000000 0.000000 0.000000 0.082199
#
#
# Mechanical properties :
#
#
# Convention : Reuss Voigt Hill
#
# Bulk Modulus (GPa) = 45.60142 54.41411 50.00777
# Shear Modulus (GPa) = 19.71277 24.52875 22.12076
#
# Velocity S-wave (km/s) = 3.23245 3.60575 3.42419
# Velocity P-wave (km/s) = 6.17273 6.79539 6.49153
#
# Compressibility (1/GPa) = 0.02192914
#
# Stress axis : x y z
#
# Youngs Moduli (GPa) = 53.09135 113.19146 34.59151
#
# Poissons Ratio (x) = 0.22958 0.34284
# Poissons Ratio (y) = 0.10768 0.18630
# Poissons Ratio (z) = 0.52619 0.60960
#
# Static dielectric constant tensor:
#      x y z
#    x 1.648340 0.000000 0.000000 
#    y 0.000000 1.645410 0.000000 
#    z 0.000000 0.000000 1.632640 
# 
# From -- ./inp_files/8662.got.cif
#   From: 2010.05.17/outbox.cif.g08.bks.cpg/sg55_5_cif.got.tgz:8662.got - 2010.06.03 13:27:54.
