data_PCOD9427550
_publ_section_title
;
Structure prediction by ZEFSAII (Michael W. Deem and Ramdas Pophale) SiO2 
 PCOD9427550
Probable space group: P B A M
;
_chemical_formula_sum "Si O2"
_cell_formula_units_Z 56
_cell_length_a 14.570634
_cell_length_b 10.668416
_cell_length_c 18.482494
_cell_angle_alpha 90.000000
_cell_angle_beta 90.000000
_cell_angle_gamma 90.000000
_cell_volume 2873.022090
_symmetry_space_group_name_H-M "P B A M"
_symmetry_group_IT_number 55
_symmetry_cell_setting 'orthorhombic'
loop_
_space_group_symop_operation_xyz
x,y,z
-x,-y,z
1/2+x,1/2-y,-z
1/2-x,1/2+y,-z
-x,-y,-z
x,y,-z
1/2-x,1/2+y,z
1/2+x,1/2-y,z
loop_
_atom_site_type_symbol
_atom_site_label
_atom_site_fract_x
_atom_site_fract_y
_atom_site_fract_z
Si Si1 0.714621 0.735701 0.418165
Si Si2 0.173751 0.891285 0.188260
Si Si3 0.105842 0.958924 0.652869
Si Si4 0.989891 0.150470 0.919153
Si Si5 0.041439 0.635939 0.585990
Si Si6 0.336938 0.689750 0.827395
Si Si7 0.118669 0.229292 0.665021
O O1 0.748263 0.750511 0.500000
O O2 0.636752 0.628635 0.411901
O O3 0.649033 0.851683 0.395603
O O4 0.796742 0.691830 0.366326
O O5 0.138894 0.897475 0.271497
O O6 0.091605 0.837988 0.138518
O O7 0.257011 0.794517 0.173658
O O8 0.192611 0.040858 0.171134
O O9 0.151370 0.092896 0.639090
O O10 0.000000 0.000000 0.659595
O O11 0.085963 0.203548 0.889104
O O12 0.968819 0.197586 0.000000
O O13 0.000000 0.000000 0.923568
O O14 0.032875 0.659869 0.500000
O O15 0.000000 0.500000 0.600446
O O16 0.976283 0.727427 0.631425
O O17 0.386450 0.715219 0.750643
#
# Coordination Sequence:
#
# PCOD9427550 Si02
#       7
#     8   8   8   8   8   8   8
#     4  11  24  37  55  82 110 150 196 245 300 351
#     4  10  20  38  61  89 122 158 198 248 298 354
#     4  11  21  39  61  82 113 152 203 253 295 357
#     4   9  19  37  62  91 123 162 201 241 298 367
#     4  10  23  40  55  77 114 154 194 246 308 364
#     4  10  21  36  62  89 118 157 202 244 298 361
#     4  11  22  38  59  81 112 153 193 247 302 355
#
# _framework density 19.491669999999999
#
# number of rings (size 3 to 8) (size 9 to 14) (size 15 to 20)
#    0.000    1.714    2.857    2.571    2.000    2.000 
#    0.000    0.714    0.000    0.857    0.000    0.000 
#    0.000    0.000    0.000    0.000    0.000    0.000 
#
# Total GULP energy -311841.866030 kJ/mol
# GULP energy per Si atom -5568.604751 kJ/mol
# Density = 1.944731 g / cm^3
# Si number density = 19.491670 Si / 1000 Ang^3
#
#
#
# Elastic Constant Matrix: (Units=GPa)
#
#
# Indices 1 2 3 4 5 6 
#
# 1 81.8477 11.9443 16.9281 0.0000 0.0000 0.0000
# 2 11.9443 49.6757 14.5040 0.0000 0.0000 0.0000
# 3 16.9281 14.5040 43.9805 0.0000 0.0000 0.0000
# 4 0.0000 0.0000 0.0000 15.9273 0.0000 0.0000
# 5 0.0000 0.0000 0.0000 0.0000 8.4079 0.0000
# 6 0.0000 0.0000 0.0000 0.0000 0.0000 35.3176
#
#
#
# Elastic Compliance Matrix: (Units=1/GPa)
#
#
# Indices 1 2 3 4 5 6 
#
# 1 0.013435 -0.001904 -0.004543 0.000000 0.000000 0.000000
# 2 -0.001904 0.022545 -0.006702 0.000000 0.000000 0.000000
# 3 -0.004543 -0.006702 0.026696 0.000000 0.000000 0.000000
# 4 0.000000 0.000000 0.000000 0.062785 0.000000 0.000000
# 5 0.000000 0.000000 0.000000 0.000000 0.118936 0.000000
# 6 0.000000 0.000000 0.000000 0.000000 0.000000 0.028315
#
#
# Mechanical properties :
#
#
# Convention : Reuss Voigt Hill
#
# Bulk Modulus (GPa) = 27.48922 29.13965 28.31443
# Shear Modulus (GPa) = 16.07008 20.73906 18.40457
#
# Velocity S-wave (km/s) = 2.87445 3.26543 3.07616
# Velocity P-wave (km/s) = 5.01501 5.40367 5.21296
#
# Compressibility (1/GPa) = 0.03637790
#
# Stress axis : x y z
#
# Youngs Moduli (GPa) = 74.43058 44.35527 37.45826
#
# Poissons Ratio (x) = 0.08445 0.17019
# Poissons Ratio (y) = 0.14171 0.25105
# Poissons Ratio (z) = 0.33817 0.29728
#
# Static dielectric constant tensor:
#      x y z
#    x 1.786630 0.000000 0.000000 
#    y 0.000000 1.813740 0.000000 
#    z 0.000000 0.000000 1.674160 
# 
# From -- ./inp_files/22827.got.cif
#   From: 2010.05.17/outbox.cif.g08.bks.cpg/sg55_12_cif.got.tgz:22827.got - 2010.06.03 13:27:54.
