data_PCOD9427739
_publ_section_title
;
Structure prediction by ZEFSAII (Michael W. Deem and Ramdas Pophale) SiO2 
 PCOD9427739
Probable space group: P B A M
;
_chemical_formula_sum "Si O2"
_cell_formula_units_Z 64
_cell_length_a 5.327384
_cell_length_b 19.630206
_cell_length_c 28.217768
_cell_angle_alpha 90.000000
_cell_angle_beta 90.000000
_cell_angle_gamma 90.000000
_cell_volume 2950.947735
_symmetry_space_group_name_H-M "P B A M"
_symmetry_group_IT_number 55
_symmetry_cell_setting 'orthorhombic'
loop_
_space_group_symop_operation_xyz
x,y,z
-x,-y,z
1/2+x,1/2-y,-z
1/2-x,1/2+y,-z
-x,-y,-z
x,y,-z
1/2-x,1/2+y,z
1/2+x,1/2-y,z
loop_
_atom_site_type_symbol
_atom_site_label
_atom_site_fract_x
_atom_site_fract_y
_atom_site_fract_z
Si Si1 0.000676 0.785149 0.695582
Si Si2 0.997540 0.272936 0.799682
Si Si3 0.030139 0.924372 0.121800
Si Si4 0.324643 0.205401 0.553202
Si Si5 0.542937 0.293768 0.056059
Si Si6 0.897001 0.894955 0.628032
Si Si7 0.468693 0.075402 0.184915
Si Si8 0.748412 0.521583 0.580645
O O1 0.771109 0.738592 0.677244
O O2 0.004652 0.772659 0.751755
O O3 0.938070 0.860175 0.677987
O O4 0.247445 0.250146 0.826008
O O5 0.995683 0.352927 0.787358
O O6 0.992047 0.862134 0.086391
O O7 0.805579 0.921386 0.160746
O O8 0.303732 0.920968 0.146678
O O9 0.000000 0.000000 0.099737
O O10 0.309405 0.174836 0.500000
O O11 0.593751 0.241315 0.556882
O O12 0.267937 0.151691 0.593856
O O13 0.310270 0.242543 0.065007
O O14 0.534295 0.310692 0.000000
O O15 0.167438 0.906441 0.601945
O O16 0.765974 0.968305 0.625237
O O17 0.500000 0.000000 0.207937
O O18 0.500000 0.500000 0.552423
O O19 0.000000 0.500000 0.555992
#
# Coordination Sequence:
#
# PCOD9427739 Si02
#       8
#     8   8   8   8   8   8   8   8
#     4  10  21  33  56  80 105 132 176 217 269 321
#     4  10  21  37  56  81 112 137 182 230 278 333
#     4  10  21  36  57  86 109 149 201 226 275 342
#     4  10  21  33  51  81 109 139 174 216 271 318
#     4  10  21  36  54  81 120 153 186 239 290 327
#     4   9  20  34  59  74 110 139 175 223 261 319
#     4  10  21  37  58  80 112 147 181 237 284 333
#     4   8  20  32  52  79 102 138 182 210 266 314
#
# _framework density 21.687947999999999
#
# number of rings (size 3 to 8) (size 9 to 14) (size 15 to 20)
#    0.750    1.500    0.000    2.250    3.500    3.250 
#    0.000    1.250   22.000    5.250    0.000    0.000 
#    0.000    0.000    0.000    0.000    0.000    0.000 
#
# Total GULP energy -356532.716071 kJ/mol
# GULP energy per Si atom -5570.823689 kJ/mol
# Density = 2.163859 g / cm^3
# Si number density = 21.687948 Si / 1000 Ang^3
#
#
#
# Elastic Constant Matrix: (Units=GPa)
#
#
# Indices 1 2 3 4 5 6 
#
# 1 129.8194 -8.6710 -16.7763 0.0000 0.0000 0.0000
# 2 -8.6710 88.9835 14.0153 0.0000 0.0000 0.0000
# 3 -16.7763 14.0153 47.1191 0.0000 0.0000 0.0000
# 4 0.0000 0.0000 0.0000 328.4642 0.0000 0.0000
# 5 0.0000 0.0000 0.0000 0.0000 4.7064 0.0000
# 6 0.0000 0.0000 0.0000 0.0000 0.0000 31.2269
#
#
#
# Elastic Compliance Matrix: (Units=1/GPa)
#
#
# Indices 1 2 3 4 5 6 
#
# 1 0.008085 0.000351 0.002774 0.000000 0.000000 0.000000
# 2 0.000351 0.011806 -0.003387 0.000000 0.000000 0.000000
# 3 0.002774 -0.003387 0.023218 0.000000 0.000000 0.000000
# 4 0.000000 0.000000 0.000000 0.003044 0.000000 0.000000
# 5 0.000000 0.000000 0.000000 0.000000 0.212474 0.000000
# 6 0.000000 0.000000 0.000000 0.000000 0.000000 0.032024
#
#
# Mechanical properties :
#
#
# Convention : Reuss Voigt Hill
#
# Bulk Modulus (GPa) = 23.48220 27.00645 25.24432
# Shear Modulus (GPa) = 16.37362 91.36978 53.87170
#
# Velocity S-wave (km/s) = 2.75064 6.49775 4.98933
# Velocity P-wave (km/s) = 4.57590 8.29299 6.69748
#
# Compressibility (1/GPa) = 0.04258545
#
# Stress axis : x y z
#
# Youngs Moduli (GPa) = 123.68656 84.70535 43.07025
#
# Poissons Ratio (x) = -0.02972 -0.11949
# Poissons Ratio (y) = -0.04340 0.14586
# Poissons Ratio (z) = -0.34313 0.28686
#
# Static dielectric constant tensor:
#      x y z
#    x 2.073390 0.000000 0.000000 
#    y 0.000000 1.835660 0.000000 
#    z 0.000000 0.000000 1.776360 
# 
# From -- ./inp_files/24121.got.cif
#   From: 2010.05.17/outbox.cif.g08.bks.cpg/sg55_13_cif.got.tgz:24121.got - 2010.06.03 13:27:54.
