data_PCOD9427881
_publ_section_title
;
Structure prediction by ZEFSAII (Michael W. Deem and Ramdas Pophale) SiO2 
 PCOD9427881
Probable space group: P B A M
;
_chemical_formula_sum "Si O2"
_cell_formula_units_Z 36
_cell_length_a 6.897533
_cell_length_b 15.137088
_cell_length_c 12.852820
_cell_angle_alpha 90.000000
_cell_angle_beta 90.000000
_cell_angle_gamma 90.000000
_cell_volume 1341.944480
_symmetry_space_group_name_H-M "P B A M"
_symmetry_group_IT_number 55
_symmetry_cell_setting 'orthorhombic'
loop_
_space_group_symop_operation_xyz
x,y,z
-x,-y,z
1/2+x,1/2-y,-z
1/2-x,1/2+y,-z
-x,-y,-z
x,y,-z
1/2-x,1/2+y,z
1/2+x,1/2-y,z
loop_
_atom_site_type_symbol
_atom_site_label
_atom_site_fract_x
_atom_site_fract_y
_atom_site_fract_z
Si Si1 0.705942 0.380744 0.112244
Si Si2 0.225424 0.069283 0.660753
Si Si3 0.816976 0.623768 0.341215
Si Si4 0.649729 0.285108 0.500000
Si Si5 0.150994 0.325531 0.113364
O O1 0.663911 0.428830 0.219182
O O2 0.628265 0.280302 0.118416
O O3 0.939193 0.368917 0.111479
O O4 0.654119 0.420035 0.000000
O O5 0.450610 0.102859 0.654394
O O6 0.118874 0.140488 0.590766
O O7 0.223872 0.968483 0.624389
O O8 0.793563 0.709899 0.411299
O O9 0.759410 0.643910 0.221923
O O10 0.242464 0.344991 0.000000
#
# Coordination Sequence:
#
# PCOD9427881 Si02
#       5
#     8   8   8   4   8
#     4   9  17  32  56  84 112 143 181 227 280 335
#     4  10  21  36  56  82 109 142 186 233 279 328
#     4  10  21  36  56  82 109 142 186 233 279 328
#     4  12  20  34  54  74 104 150 184 224 274 324
#     4   9  17  32  56  84 112 143 181 227 280 335
#
# _framework density 26.826741999999999
#
# number of rings (size 3 to 8) (size 9 to 14) (size 15 to 20)
#    0.000    2.222    2.222    1.333    0.000    2.667 
#    0.000    4.444    0.000   17.333    0.000    6.222 
#    0.000    0.000    0.000    0.000    0.000    0.000 
#
# Total GULP energy -200656.074468 kJ/mol
# GULP energy per Si atom -5573.779846 kJ/mol
# Density = 2.676568 g / cm^3
# Si number density = 26.826742 Si / 1000 Ang^3
#
#
#
# Elastic Constant Matrix: (Units=GPa)
#
#
# Indices 1 2 3 4 5 6 
#
# 1 85.1823 23.8404 15.0096 0.0000 0.0000 0.0000
# 2 23.8404 193.5983 108.8103 0.0000 0.0000 0.0000
# 3 15.0096 108.8103 261.1627 0.0000 0.0000 0.0000
# 4 0.0000 0.0000 0.0000 518.9059 0.0000 0.0000
# 5 0.0000 0.0000 0.0000 0.0000 21.3114 0.0000
# 6 0.0000 0.0000 0.0000 0.0000 0.0000 14.4065
#
#
#
# Elastic Compliance Matrix: (Units=1/GPa)
#
#
# Indices 1 2 3 4 5 6 
#
# 1 0.012160 -0.001442 -0.000098 0.000000 0.000000 0.000000
# 2 -0.001442 0.006916 -0.002798 0.000000 0.000000 0.000000
# 3 -0.000098 -0.002798 0.005001 0.000000 0.000000 0.000000
# 4 0.000000 0.000000 0.000000 0.001927 0.000000 0.000000
# 5 0.000000 0.000000 0.000000 0.000000 0.046923 0.000000
# 6 0.000000 0.000000 0.000000 0.000000 0.000000 0.069413
#
#
# Mechanical properties :
#
#
# Convention : Reuss Voigt Hill
#
# Bulk Modulus (GPa) = 64.93840 92.80709 78.87275
# Shear Modulus (GPa) = 32.02018 137.07694 84.54856
#
# Velocity S-wave (km/s) = 3.45859 7.15598 5.62005
# Velocity P-wave (km/s) = 6.34100 10.14630 8.46037
#
# Compressibility (1/GPa) = 0.01539921
#
# Stress axis : x y z
#
# Youngs Moduli (GPa) = 82.23358 144.59571 199.97526
#
# Poissons Ratio (x) = 0.20857 0.01958
# Poissons Ratio (y) = 0.11862 0.55963
# Poissons Ratio (z) = 0.00805 0.40465
#
# Static dielectric constant tensor:
#      x y z
#    x 2.306170 0.000000 0.000000 
#    y 0.000000 1.941860 0.000000 
#    z 0.000000 0.000000 2.019410 
# 
# From -- ./inp_files/12866.got.cif
#   From: 2010.05.17/outbox.cif.g08.bks.cpg/sg55_7_cif.got.tgz:12866.got - 2010.06.03 13:27:54.
