data_PCOD9427701
_publ_section_title
;
Structure prediction by ZEFSAII (Michael W. Deem and Ramdas Pophale) SiO2 
 PCOD9427701
Probable space group: P B A M
;
_chemical_formula_sum "Si O2"
_cell_formula_units_Z 64
_cell_length_a 30.635069
_cell_length_b 12.268520
_cell_length_c 8.305705
_cell_angle_alpha 90.000000
_cell_angle_beta 90.000000
_cell_angle_gamma 90.000000
_cell_volume 3121.673948
_symmetry_space_group_name_H-M "P B A M"
_symmetry_group_IT_number 55
_symmetry_cell_setting 'orthorhombic'
loop_
_space_group_symop_operation_xyz
x,y,z
-x,-y,z
1/2+x,1/2-y,-z
1/2-x,1/2+y,-z
-x,-y,-z
x,y,-z
1/2-x,1/2+y,z
1/2+x,1/2-y,z
loop_
_atom_site_type_symbol
_atom_site_label
_atom_site_fract_x
_atom_site_fract_y
_atom_site_fract_z
Si Si1 0.379519 0.182290 0.812338
Si Si2 0.716436 0.450966 0.184224
Si Si3 0.323065 0.763827 0.311430
Si Si4 0.454954 0.554670 0.302402
Si Si5 0.689984 0.990031 0.312315
Si Si6 0.575772 0.221209 0.311589
Si Si7 0.948746 0.485876 0.693700
Si Si8 0.131869 0.924628 0.309771
O O1 0.423552 0.116674 0.766888
O O2 0.373785 0.295950 0.719493
O O3 0.339716 0.099928 0.773089
O O4 0.379600 0.208093 0.000000
O O5 0.701594 0.326826 0.211512
O O6 0.758832 0.469038 0.292739
O O7 0.675378 0.527154 0.228775
O O8 0.729017 0.470117 0.000000
O O9 0.309220 0.758505 0.500000
O O10 0.317483 0.887006 0.252470
O O11 0.374475 0.739846 0.306725
O O12 0.500000 0.500000 0.251910
O O13 0.454419 0.556712 0.500000
O O14 0.452131 0.679490 0.243671
O O15 0.411983 0.487143 0.253116
O O16 0.676770 0.988814 0.500000
O O17 0.563090 0.209386 0.500000
O O18 0.572119 0.099559 0.245389
O O19 0.943239 0.476334 0.500000
O O20 0.000000 0.500000 0.727052
O O21 0.136377 0.945788 0.500000
#
# Coordination Sequence:
#
# PCOD9427701 Si02
#       8
#     8   8   8   8   8   8   8   8
#     4  12  26  43  62  90 132 169 206 261 330 386
#     4  12  26  42  63  94 132 165 204 256 321 380
#     4  10  20  40  67  91 119 159 211 263 307 365
#     4   9  18  32  59  95 123 153 202 264 313 352
#     4  11  24  44  69  93 121 163 218 263 309 374
#     4   9  16  33  59  90 122 152 202 264 307 348
#     4  10  21  38  65  96 125 164 216 263 307 371
#     4  11  23  42  66  90 123 168 218 261 311 377
#
# _framework density 20.501819999999999
#
# number of rings (size 3 to 8) (size 9 to 14) (size 15 to 20)
#    0.000    1.500    2.500    3.000    3.500    1.250 
#    0.000    0.000    0.000    1.500    0.000    0.000 
#    0.000    0.000    0.000    0.000    0.000    0.000 
#
# Total GULP energy -357535.004373 kJ/mol
# GULP energy per Si atom -5586.484443 kJ/mol
# Density = 2.045516 g / cm^3
# Si number density = 20.501820 Si / 1000 Ang^3
#
#
#
# Elastic Constant Matrix: (Units=GPa)
#
#
# Indices 1 2 3 4 5 6 
#
# 1 65.6736 7.5152 -2.8341 0.0000 0.0000 0.0000
# 2 7.5152 84.4448 -7.6273 0.0000 0.0000 0.0000
# 3 -2.8341 -7.6273 17.1335 0.0000 0.0000 0.0000
# 4 0.0000 0.0000 0.0000 6.1399 0.0000 0.0000
# 5 0.0000 0.0000 0.0000 0.0000 9.0621 0.0000
# 6 0.0000 0.0000 0.0000 0.0000 0.0000 29.2613
#
#
#
# Elastic Compliance Matrix: (Units=1/GPa)
#
#
# Indices 1 2 3 4 5 6 
#
# 1 0.015451 -0.001192 0.002025 0.000000 0.000000 0.000000
# 2 -0.001192 0.012430 0.005336 0.000000 0.000000 0.000000
# 3 0.002025 0.005336 0.061076 0.000000 0.000000 0.000000
# 4 0.000000 0.000000 0.000000 0.162869 0.000000 0.000000
# 5 0.000000 0.000000 0.000000 0.000000 0.110349 0.000000
# 6 0.000000 0.000000 0.000000 0.000000 0.000000 0.034175
#
#
# Mechanical properties :
#
#
# Convention : Reuss Voigt Hill
#
# Bulk Modulus (GPa) = 9.87215 17.92883 13.90049
# Shear Modulus (GPa) = 11.96811 20.23920 16.10366
#
# Velocity S-wave (km/s) = 2.41873 3.14537 2.80567
# Velocity P-wave (km/s) = 3.55332 4.68563 4.15819
#
# Compressibility (1/GPa) = 0.10129508
#
# Stress axis : x y z
#
# Youngs Moduli (GPa) = 64.72225 80.44960 16.37308
#
# Poissons Ratio (x) = 0.09591 -0.03316
# Poissons Ratio (y) = 0.07716 -0.08737
# Poissons Ratio (z) = -0.13106 -0.42931
#
# Static dielectric constant tensor:
#      x y z
#    x 1.729960 0.000000 0.000000 
#    y 0.000000 1.731060 0.000000 
#    z 0.000000 0.000000 1.716770 
# 
# From -- ./inp_files/10761.got.cif
#   From: 2010.05.17/outbox.cif.g08.bks.cpg/sg55_6_cif.got.tgz:10761.got - 2010.06.03 13:27:54.
