data_PCOD9427832
_publ_section_title
;
Structure prediction by ZEFSAII (Michael W. Deem and Ramdas Pophale) SiO2 
 PCOD9427832
Probable space group: P B A M
;
_chemical_formula_sum "Si O2"
_cell_formula_units_Z 56
_cell_length_a 14.942427
_cell_length_b 7.395738
_cell_length_c 22.783196
_cell_angle_alpha 90.000000
_cell_angle_beta 90.000000
_cell_angle_gamma 90.000000
_cell_volume 2517.777259
_symmetry_space_group_name_H-M "P B A M"
_symmetry_group_IT_number 55
_symmetry_cell_setting 'orthorhombic'
loop_
_space_group_symop_operation_xyz
x,y,z
-x,-y,z
1/2+x,1/2-y,-z
1/2-x,1/2+y,-z
-x,-y,-z
x,y,-z
1/2-x,1/2+y,z
1/2+x,1/2-y,z
loop_
_atom_site_type_symbol
_atom_site_label
_atom_site_fract_x
_atom_site_fract_y
_atom_site_fract_z
Si Si1 0.176425 0.889129 0.500000
Si Si2 0.381007 0.796368 0.371148
Si Si3 0.970721 0.209875 0.714385
Si Si4 0.675669 0.624462 0.627531
Si Si5 0.032222 0.707761 0.850512
Si Si6 0.381372 0.693715 0.066235
Si Si7 0.118102 0.307285 0.500000
Si Si8 0.182482 0.609400 0.933901
O O1 0.154494 0.799158 0.437743
O O2 0.284058 0.900069 0.500000
O O3 0.135464 0.089846 0.500000
O O4 0.450274 0.819493 0.318286
O O5 0.282263 0.879689 0.363159
O O6 0.358622 0.581541 0.373328
O O7 0.420475 0.846034 0.435461
O O8 0.880005 0.227757 0.676830
O O9 0.958068 0.250279 0.782397
O O10 0.000000 0.000000 0.711050
O O11 0.123624 0.717577 0.887374
O O12 0.000000 0.500000 0.853608
O O13 0.956387 0.821384 0.884453
O O14 0.287131 0.600967 0.080450
O O15 0.355932 0.906922 0.063976
O O16 0.410576 0.643132 0.000000
O O17 0.174581 0.687180 0.000000
#
# Coordination Sequence:
#
# PCOD9427832 Si02
#       8
#     4   8   8   8   8   8   4   8
#     4   8  14  27  49  73  94 120 158 203 251 297
#     4   9  18  33  52  73  98 128 163 206 252 296
#     4  10  22  36  49  71 102 135 170 204 242 291
#     4   9  18  33  52  73  98 128 163 206 252 296
#     4  10  21  36  53  73 101 137 170 200 240 292
#     4   9  18  34  56  80 103 128 162 204 248 292
#     4   8  14  27  49  73  94 120 158 203 251 297
#     4   9  18  34  56  80 103 128 162 204 248 292
#
# _framework density 22.241841999999998
#
# number of rings (size 3 to 8) (size 9 to 14) (size 15 to 20)
#    0.000    2.857    0.000    0.429    0.000    5.714 
#    0.000    8.571    0.000    4.286    0.000   11.000 
#    0.000    0.000    0.000    0.000    0.000    0.000 
#
# Total GULP energy -312732.467910 kJ/mol
# GULP energy per Si atom -5584.508356 kJ/mol
# Density = 2.219122 g / cm^3
# Si number density = 22.241842 Si / 1000 Ang^3
#
#
#
# Elastic Constant Matrix: (Units=GPa)
#
#
# Indices 1 2 3 4 5 6 
#
# 1 97.8597 44.6027 101.1149 0.0000 0.0000 0.0000
# 2 44.6027 34.6277 41.3770 0.0000 0.0000 0.0000
# 3 101.1149 41.3770 195.4386 0.0000 0.0000 0.0000
# 4 0.0000 0.0000 0.0000 89.1787 0.0000 0.0000
# 5 0.0000 0.0000 0.0000 0.0000 41.4091 0.0000
# 6 0.0000 0.0000 0.0000 0.0000 0.0000 31.9414
#
#
#
# Elastic Compliance Matrix: (Units=1/GPa)
#
#
# Indices 1 2 3 4 5 6 
#
# 1 0.040410 -0.036235 -0.013236 0.000000 0.000000 0.000000
# 2 -0.036235 0.071150 0.003684 0.000000 0.000000 0.000000
# 3 -0.013236 0.003684 0.011185 0.000000 0.000000 0.000000
# 4 0.000000 0.000000 0.000000 0.011213 0.000000 0.000000
# 5 0.000000 0.000000 0.000000 0.000000 0.024149 0.000000
# 6 0.000000 0.000000 0.000000 0.000000 0.000000 0.031307
#
#
# Mechanical properties :
#
#
# Convention : Reuss Voigt Hill
#
# Bulk Modulus (GPa) = 32.08157 78.01278 55.04718
# Shear Modulus (GPa) = 17.15975 41.89460 29.52718
#
# Velocity S-wave (km/s) = 2.78062 4.34475 3.64751
# Velocity P-wave (km/s) = 4.97638 7.76660 6.52244
#
# Compressibility (1/GPa) = 0.03117055
#
# Stress axis : x y z
#
# Youngs Moduli (GPa) = 24.74637 14.05474 89.40917
#
# Poissons Ratio (x) = 0.50928 1.18338
# Poissons Ratio (y) = 0.89669 -0.32936
# Poissons Ratio (z) = 0.32753 -0.05177
#
# Static dielectric constant tensor:
#      x y z
#    x 1.795340 0.000000 0.000000 
#    y 0.000000 1.901800 0.000000 
#    z 0.000000 0.000000 1.794980 
# 
# From -- ./inp_files/22655.got.cif
#   From: 2010.05.17/outbox.cif.g08.bks.cpg/sg55_12_cif.got.tgz:22655.got - 2010.06.03 13:27:54.
