data_PCOD9427671
_publ_section_title
;
Structure prediction by ZEFSAII (Michael W. Deem and Ramdas Pophale) SiO2 
 PCOD9427671
Probable space group: P B A M
;
_chemical_formula_sum "Si O2"
_cell_formula_units_Z 34
_cell_length_a 8.391701
_cell_length_b 22.944239
_cell_length_c 7.519373
_cell_angle_alpha 90.000000
_cell_angle_beta 90.000000
_cell_angle_gamma 90.000000
_cell_volume 1447.789051
_symmetry_space_group_name_H-M "P B A M"
_symmetry_group_IT_number 55
_symmetry_cell_setting 'orthorhombic'
loop_
_space_group_symop_operation_xyz
x,y,z
-x,-y,z
1/2+x,1/2-y,-z
1/2-x,1/2+y,-z
-x,-y,-z
x,y,-z
1/2-x,1/2+y,z
1/2+x,1/2-y,z
loop_
_atom_site_type_symbol
_atom_site_label
_atom_site_fract_x
_atom_site_fract_y
_atom_site_fract_z
Si Si1 0.500000 0.000000 0.500000
Si Si2 0.392764 0.553309 0.704560
Si Si3 0.061026 0.827613 0.216798
Si Si4 0.585436 0.207315 0.214489
Si Si5 0.954689 0.412838 0.801023
O O1 0.458646 0.951826 0.343444
O O2 0.500000 0.500000 0.770818
O O3 0.343416 0.539251 0.500000
O O4 0.494369 0.612123 0.711089
O O5 0.227686 0.566015 0.801110
O O6 0.242099 0.814931 0.270747
O O7 0.961246 0.771217 0.277885
O O8 0.054505 0.831227 0.000000
O O9 0.462065 0.155266 0.252169
O O10 0.589891 0.212720 0.000000
O O11 0.023070 0.418463 0.000000
#
# Coordination Sequence:
#
# PCOD9427671 Si02
#       5
#     2   8   8   8   8
#     4  12  26  44  66 102 140 172 226 276 324 410
#     4  11  25  43  62  93 135 178 225 277 336 401
#     4  10  20  39  66  95 128 169 220 274 330 397
#     4   9  20  39  67  98 128 169 222 273 332 400
#     4  11  24  44  70  97 135 180 222 276 337 395
#
# _framework density 23.484082000000001
#
# number of rings (size 3 to 8) (size 9 to 14) (size 15 to 20)
#    0.000    1.647    1.176    2.471    3.294    5.647 
#    2.118    0.000    0.000    0.000    0.000    0.000 
#    0.000    0.000    0.000    0.000    0.000    0.000 
#
# Total GULP energy -189749.495627 kJ/mol
# GULP energy per Si atom -5580.867518 kJ/mol
# Density = 2.343063 g / cm^3
# Si number density = 23.484082 Si / 1000 Ang^3
#
#
#
# Elastic Constant Matrix: (Units=GPa)
#
#
# Indices 1 2 3 4 5 6 
#
# 1 64.6541 35.4708 9.0522 0.0000 0.0000 0.0000
# 2 35.4708 190.2924 34.2703 0.0000 0.0000 0.0000
# 3 9.0522 34.2703 98.2891 0.0000 0.0000 0.0000
# 4 0.0000 0.0000 0.0000 38.4231 0.0000 0.0000
# 5 0.0000 0.0000 0.0000 0.0000 -189.2881 0.0000
# 6 0.0000 0.0000 0.0000 0.0000 0.0000 45.3406
#
#
#
# Elastic Compliance Matrix: (Units=1/GPa)
#
#
# Indices 1 2 3 4 5 6 
#
# 1 0.017252 -0.003126 -0.000499 0.000000 0.000000 0.000000
# 2 -0.003126 0.006174 -0.001865 0.000000 0.000000 0.000000
# 3 -0.000499 -0.001865 0.010870 0.000000 0.000000 0.000000
# 4 0.000000 0.000000 0.000000 0.026026 0.000000 0.000000
# 5 0.000000 0.000000 0.000000 0.000000 -0.005283 0.000000
# 6 0.000000 0.000000 0.000000 0.000000 0.000000 0.022055
#
#
# Mechanical properties :
#
#
# Convention : Reuss Voigt Hill
#
# Bulk Modulus (GPa) = 42.88811 56.75802 49.82306
# Shear Modulus (GPa) = 52.16762 -2.80874 24.67944
#
# Velocity S-wave (km/s) = 4.71829 -1.09481 3.24528
# Velocity P-wave (km/s) = 6.92714 4.75637 5.94173
#
# Compressibility (1/GPa) = 0.02331649
#
# Stress axis : x y z
#
# Youngs Moduli (GPa) = 57.96527 161.98143 91.99500
#
# Poissons Ratio (x) = 0.50634 0.04590
# Poissons Ratio (y) = 0.18119 0.17154
# Poissons Ratio (z) = 0.02892 0.30204
#
# Static dielectric constant tensor:
#      x y z
#    x 1.863620 0.000000 0.000000 
#    y 0.000000 1.869670 0.000000 
#    z 0.000000 0.000000 1.888720 
# 
# From -- ./inp_files/2136.got.cif
#   From: 2010.05.17/outbox.cif.g08.bks.cpg/sg55_2_cif.got.tgz:2136.got - 2010.06.03 13:27:54.
