data_PCOD9427481
_publ_section_title
;
Structure prediction by ZEFSAII (Michael W. Deem and Ramdas Pophale) SiO2 
 PCOD9427481
Probable space group: P B A M
;
_chemical_formula_sum "Si O2"
_cell_formula_units_Z 40
_cell_length_a 10.188605
_cell_length_b 9.092828
_cell_length_c 20.512898
_cell_angle_alpha 90.000000
_cell_angle_beta 90.000000
_cell_angle_gamma 90.000000
_cell_volume 1900.381185
_symmetry_space_group_name_H-M "P B A M"
_symmetry_group_IT_number 55
_symmetry_cell_setting 'orthorhombic'
loop_
_space_group_symop_operation_xyz
x,y,z
-x,-y,z
1/2+x,1/2-y,-z
1/2-x,1/2+y,-z
-x,-y,-z
x,y,-z
1/2-x,1/2+y,z
1/2+x,1/2-y,z
loop_
_atom_site_type_symbol
_atom_site_label
_atom_site_fract_x
_atom_site_fract_y
_atom_site_fract_z
Si Si1 0.306159 0.095785 0.377130
Si Si2 0.347956 0.015857 0.928203
Si Si3 0.069540 0.293497 0.575346
Si Si4 0.747510 0.236911 0.163629
Si Si5 0.144885 0.021241 0.252590
O O1 0.435103 0.200268 0.382366
O O2 0.177451 0.170673 0.407955
O O3 0.258771 0.052467 0.304978
O O4 0.354798 0.947744 0.412582
O O5 0.302533 0.867191 0.893811
O O6 0.500000 0.000000 0.937652
O O7 0.330368 0.142778 0.874988
O O8 0.285420 0.041765 0.000000
O O9 0.029500 0.281837 0.500000
O O10 0.645572 0.337332 0.204396
O O11 0.818840 0.126096 0.213115
O O12 0.000000 0.000000 0.281557
#
# Coordination Sequence:
#
# PCOD9427481 Si02
#       5
#     8   8   8   8   8
#     4  11  25  42  68  97 131 172 217 269 325 390
#     4  10  20  37  62  92 125 165 212 262 318 380
#     4  11  24  46  69  99 133 170 216 269 327 391
#     4  10  22  40  60  91 126 171 209 268 318 386
#     4  11  24  41  62  92 129 169 219 267 325 392
#
# _framework density 21.048408999999999
#
# number of rings (size 3 to 8) (size 9 to 14) (size 15 to 20)
#    0.000    1.400    0.000    5.400    5.600    0.000 
#   14.400    2.000    0.000    9.600    0.000    0.000 
#    0.000    0.000    0.000    0.000    0.000    0.000 
#
# Total GULP energy -223236.997543 kJ/mol
# GULP energy per Si atom -5580.924939 kJ/mol
# Density = 2.100050 g / cm^3
# Si number density = 21.048409 Si / 1000 Ang^3
#
#
#
# Elastic Constant Matrix: (Units=GPa)
#
#
# Indices 1 2 3 4 5 6 
#
# 1 118.4461 26.0367 50.9845 0.0000 0.0000 0.0000
# 2 26.0367 84.0477 37.2055 0.0000 0.0000 0.0000
# 3 50.9845 37.2055 103.9604 0.0000 0.0000 0.0000
# 4 0.0000 0.0000 0.0000 22.5322 0.0000 0.0000
# 5 0.0000 0.0000 0.0000 0.0000 24.4642 0.0000
# 6 0.0000 0.0000 0.0000 0.0000 0.0000 13.1997
#
#
#
# Elastic Compliance Matrix: (Units=1/GPa)
#
#
# Indices 1 2 3 4 5 6 
#
# 1 0.010801 -0.001190 -0.004871 0.000000 0.000000 0.000000
# 2 -0.001190 0.014269 -0.004523 0.000000 0.000000 0.000000
# 3 -0.004871 -0.004523 0.013627 0.000000 0.000000 0.000000
# 4 0.000000 0.000000 0.000000 0.044381 0.000000 0.000000
# 5 0.000000 0.000000 0.000000 0.000000 0.040876 0.000000
# 6 0.000000 0.000000 0.000000 0.000000 0.000000 0.075759
#
#
# Mechanical properties :
#
#
# Convention : Reuss Voigt Hill
#
# Bulk Modulus (GPa) = 57.04999 59.43420 58.24209
# Shear Modulus (GPa) = 22.05327 24.85438 23.45382
#
# Velocity S-wave (km/s) = 3.24039 3.44003 3.34170
# Velocity P-wave (km/s) = 6.41586 6.63902 6.52839
#
# Compressibility (1/GPa) = 0.01752849
#
# Stress axis : x y z
#
# Youngs Moduli (GPa) = 92.58421 70.08302 73.38487
#
# Poissons Ratio (x) = 0.08337 0.35748
# Poissons Ratio (y) = 0.11014 0.33193
# Poissons Ratio (z) = 0.45101 0.31699
#
# Static dielectric constant tensor:
#      x y z
#    x 1.741860 0.000000 0.000000 
#    y 0.000000 1.782110 0.000000 
#    z 0.000000 0.000000 1.784010 
# 
# From -- ./inp_files/21181.got.cif
#   From: 2010.05.17/outbox.cif.g08.bks.cpg/sg55_11_cif.got.tgz:21181.got - 2010.06.03 13:27:54.
