data_PCOD9427475
_publ_section_title
;
Structure prediction by ZEFSAII (Michael W. Deem and Ramdas Pophale) SiO2 
 PCOD9427475
Probable space group: P B A M
;
_chemical_formula_sum "Si O2"
_cell_formula_units_Z 58
_cell_length_a 17.283346
_cell_length_b 18.924344
_cell_length_c 7.495998
_cell_angle_alpha 90.000000
_cell_angle_beta 90.000000
_cell_angle_gamma 90.000000
_cell_volume 2451.760931
_symmetry_space_group_name_H-M "P B A M"
_symmetry_group_IT_number 55
_symmetry_cell_setting 'orthorhombic'
loop_
_space_group_symop_operation_xyz
x,y,z
-x,-y,z
1/2+x,1/2-y,-z
1/2-x,1/2+y,-z
-x,-y,-z
x,y,-z
1/2-x,1/2+y,z
1/2+x,1/2-y,z
loop_
_atom_site_type_symbol
_atom_site_label
_atom_site_fract_x
_atom_site_fract_y
_atom_site_fract_z
Si Si1 0.773760 0.320175 0.714476
Si Si2 0.969012 0.154836 0.796402
Si Si3 0.627816 0.404710 0.707035
Si Si4 0.327208 0.437457 0.782732
Si Si5 0.915750 0.419976 0.705863
Si Si6 0.500000 0.000000 0.000000
Si Si7 0.961624 0.698640 0.781323
Si Si8 0.711496 0.173704 0.210698
O O1 0.773282 0.323231 0.500000
O O2 0.693123 0.352727 0.782370
O O3 0.844658 0.369935 0.768912
O O4 0.771892 0.238124 0.764674
O O5 0.045331 0.106134 0.796626
O O6 0.996212 0.229754 0.719069
O O7 0.898668 0.110849 0.717726
O O8 0.946244 0.170469 0.000000
O O9 0.615626 0.387265 0.500000
O O10 0.660383 0.483302 0.720879
O O11 0.249561 0.398256 0.721423
O O12 0.328435 0.439260 0.000000
O O13 0.903371 0.441693 0.500000
O O14 0.989957 0.368237 0.718417
O O15 0.935362 0.481539 0.843201
O O16 0.872892 0.694392 0.718753
O O17 0.962290 0.697794 0.000000
O O18 0.701175 0.164520 0.000000
#
# Coordination Sequence:
#
# PCOD9427475 Si02
#       8
#     8   8   8   8   8   2   8   8
#     4  10  23  42  63  93 128 169 220 266 327 398
#     4  10  20  37  62  90 127 166 208 262 321 388
#     4  11  23  39  59  88 127 168 213 261 319 390
#     4  10  22  38  57  90 126 160 205 260 318 385
#     4  11  25  45  70  99 133 176 225 282 341 401
#     4  12  26  48  68  94 132 172 226 284 340 410
#     4  10  20  39  65  99 129 167 222 271 330 397
#     4  10  21  38  66  96 127 166 215 269 324 390
#
# _framework density 23.656466000000002
#
# number of rings (size 3 to 8) (size 9 to 14) (size 15 to 20)
#    0.000    1.655    2.069    1.862    0.966    6.621 
#    2.483    1.379    0.000    0.000    0.000    0.000 
#    0.000    0.000    0.000    0.000    0.000    0.000 
#
# Total GULP energy -323854.079930 kJ/mol
# GULP energy per Si atom -5583.691033 kJ/mol
# Density = 2.360262 g / cm^3
# Si number density = 23.656466 Si / 1000 Ang^3
#
#
#
# Elastic Constant Matrix: (Units=GPa)
#
#
# Indices 1 2 3 4 5 6 
#
# 1 55.4869 -1.5088 -3.1134 0.0000 0.0000 0.0000
# 2 -1.5088 52.3387 -3.2961 0.0000 0.0000 0.0000
# 3 -3.1134 -3.2961 87.3993 0.0000 0.0000 0.0000
# 4 0.0000 0.0000 0.0000 11.4841 0.0000 0.0000
# 5 0.0000 0.0000 0.0000 0.0000 -4.0795 0.0000
# 6 0.0000 0.0000 0.0000 0.0000 0.0000 1.9052
#
#
#
# Elastic Compliance Matrix: (Units=1/GPa)
#
#
# Indices 1 2 3 4 5 6 
#
# 1 0.018075 0.000563 0.000665 0.000000 0.000000 0.000000
# 2 0.000563 0.019169 0.000743 0.000000 0.000000 0.000000
# 3 0.000665 0.000743 0.011493 0.000000 0.000000 0.000000
# 4 0.000000 0.000000 0.000000 0.087077 0.000000 0.000000
# 5 0.000000 0.000000 0.000000 0.000000 -0.245128 0.000000
# 6 0.000000 0.000000 0.000000 0.000000 0.000000 0.524878
#
#
# Mechanical properties :
#
#
# Convention : Reuss Voigt Hill
#
# Bulk Modulus (GPa) = 18.98263 19.93205 19.45734
# Shear Modulus (GPa) = 11.65003 15.40484 13.52743
#
# Velocity S-wave (km/s) = 2.22157 2.55461 2.39389
# Velocity P-wave (km/s) = 3.82390 4.14069 3.98544
#
# Compressibility (1/GPa) = 0.05267973
#
# Stress axis : x y z
#
# Youngs Moduli (GPa) = 55.32534 52.16666 87.00609
#
# Poissons Ratio (x) = -0.02937 -0.05787
# Poissons Ratio (y) = -0.03114 -0.06464
# Poissons Ratio (z) = -0.03680 -0.03876
#
# Static dielectric constant tensor:
#      x y z
#    x 1.907480 0.000000 0.000000 
#    y 0.000000 1.889220 0.000000 
#    z 0.000000 0.000000 1.934410 
# 
# From -- ./inp_files/7753.got.cif
#   From: 2010.05.17/outbox.cif.g08.bks.cpg/sg55_4_cif.got.tgz:7753.got - 2010.06.03 13:27:54.
