data_PCOD9427237
_publ_section_title
;
Structure prediction by ZEFSAII (Michael W. Deem and Ramdas Pophale) SiO2 
 PCOD9427237
Probable space group: P B A M
;
_chemical_formula_sum "Si O2"
_cell_formula_units_Z 48
_cell_length_a 19.274114
_cell_length_b 15.371558
_cell_length_c 7.611584
_cell_angle_alpha 90.000000
_cell_angle_beta 90.000000
_cell_angle_gamma 90.000000
_cell_volume 2255.108054
_symmetry_space_group_name_H-M "P B A M"
_symmetry_group_IT_number 55
_symmetry_cell_setting 'orthorhombic'
loop_
_space_group_symop_operation_xyz
x,y,z
-x,-y,z
1/2+x,1/2-y,-z
1/2-x,1/2+y,-z
-x,-y,-z
x,y,-z
1/2-x,1/2+y,z
1/2+x,1/2-y,z
loop_
_atom_site_type_symbol
_atom_site_label
_atom_site_fract_x
_atom_site_fract_y
_atom_site_fract_z
Si Si1 0.785113 0.001592 0.287263
Si Si2 0.918044 0.743452 0.712312
Si Si3 0.676942 0.849098 0.207320
Si Si4 0.027220 0.592567 0.790471
Si Si5 0.767366 0.686337 0.705838
Si Si6 0.063268 0.060412 0.284962
O O1 0.787804 0.004224 0.500000
O O2 0.758965 0.094861 0.220020
O O3 0.731315 0.926574 0.237648
O O4 0.862448 0.977370 0.228212
O O5 0.915291 0.747794 0.500000
O O6 0.840675 0.720605 0.778714
O O7 0.941317 0.839167 0.772434
O O8 0.970996 0.667626 0.761195
O O9 0.602027 0.877301 0.280156
O O10 0.709800 0.761020 0.281291
O O11 0.669662 0.834515 0.000000
O O12 0.000000 0.500000 0.719776
O O13 0.036346 0.580988 0.000000
O O14 0.780408 0.670233 0.500000
O O15 0.062537 0.060131 0.500000
O O16 0.000000 0.000000 0.226550
#
# Coordination Sequence:
#
# PCOD9427237 Si02
#       6
#     8   8   8   8   8   8
#     4  10  20  37  61  84 113 150 192 243 289 339
#     4  10  20  36  59  87 115 145 191 242 284 338
#     4  11  23  38  58  85 118 154 192 238 291 348
#     4  10  23  41  58  80 115 156 193 233 286 345
#     4  10  21  37  60  88 115 149 193 242 293 343
#     4   9  18  33  54  83 116 149 184 229 288 342
#
# _framework density 21.285011999999998
#
# number of rings (size 3 to 8) (size 9 to 14) (size 15 to 20)
#    0.000    2.000    1.667    1.500    2.333    3.000 
#    0.000    0.000    0.000    1.000    0.000    0.000 
#    0.000    0.000    0.000    0.000    0.000    0.000 
#
# Total GULP energy -268232.985106 kJ/mol
# GULP energy per Si atom -5588.187190 kJ/mol
# Density = 2.123657 g / cm^3
# Si number density = 21.285012 Si / 1000 Ang^3
#
#
#
# Elastic Constant Matrix: (Units=GPa)
#
#
# Indices 1 2 3 4 5 6 
#
# 1 113.6217 34.5938 -9.8084 0.0000 0.0000 0.0000
# 2 34.5938 139.2912 -17.8792 0.0000 0.0000 0.0000
# 3 -9.8084 -17.8792 33.2987 0.0000 0.0000 0.0000
# 4 0.0000 0.0000 0.0000 9.3712 0.0000 0.0000
# 5 0.0000 0.0000 0.0000 0.0000 3.4910 0.0000
# 6 0.0000 0.0000 0.0000 0.0000 0.0000 38.8530
#
#
#
# Elastic Compliance Matrix: (Units=1/GPa)
#
#
# Indices 1 2 3 4 5 6 
#
# 1 0.009606 -0.002172 0.001663 0.000000 0.000000 0.000000
# 2 -0.002172 0.008202 0.003764 0.000000 0.000000 0.000000
# 3 0.001663 0.003764 0.032542 0.000000 0.000000 0.000000
# 4 0.000000 0.000000 0.000000 0.106710 0.000000 0.000000
# 5 0.000000 0.000000 0.000000 0.000000 0.286447 0.000000
# 6 0.000000 0.000000 0.000000 0.000000 0.000000 0.025738
#
#
# Mechanical properties :
#
#
# Convention : Reuss Voigt Hill
#
# Bulk Modulus (GPa) = 17.58707 33.33599 25.46153
# Shear Modulus (GPa) = 10.38015 28.96341 19.67178
#
# Velocity S-wave (km/s) = 2.21073 3.69283 3.04338
# Velocity P-wave (km/s) = 3.84669 5.82051 4.93332
#
# Compressibility (1/GPa) = 0.05685995
#
# Stress axis : x y z
#
# Youngs Moduli (GPa) = 104.10069 121.92395 30.72940
#
# Poissons Ratio (x) = 0.26485 -0.05111
# Poissons Ratio (y) = 0.22613 -0.11567
# Poissons Ratio (z) = -0.17314 -0.45892
#
# Static dielectric constant tensor:
#      x y z
#    x 1.738100 0.000000 0.000000 
#    y 0.000000 1.726690 0.000000 
#    z 0.000000 0.000000 1.801030 
# 
# From -- ./inp_files/5590.got.cif
#   From: 2010.05.17/outbox.cif.g08.bks.cpg/sg55_3_cif.got.tgz:5590.got - 2010.06.03 13:27:54.
