data_PCOD9427587
_publ_section_title
;
Structure prediction by ZEFSAII (Michael W. Deem and Ramdas Pophale) SiO2 
 PCOD9427587
Probable space group: P B A M
;
_chemical_formula_sum "Si O2"
_cell_formula_units_Z 40
_cell_length_a 11.049293
_cell_length_b 13.259157
_cell_length_c 12.400118
_cell_angle_alpha 90.000000
_cell_angle_beta 90.000000
_cell_angle_gamma 90.000000
_cell_volume 1816.670739
_symmetry_space_group_name_H-M "P B A M"
_symmetry_group_IT_number 55
_symmetry_cell_setting 'orthorhombic'
loop_
_space_group_symop_operation_xyz
x,y,z
-x,-y,z
1/2+x,1/2-y,-z
1/2-x,1/2+y,-z
-x,-y,-z
x,y,-z
1/2-x,1/2+y,z
1/2+x,1/2-y,z
loop_
_atom_site_type_symbol
_atom_site_label
_atom_site_fract_x
_atom_site_fract_y
_atom_site_fract_z
Si Si1 0.604988 0.413533 0.380007
Si Si2 0.566262 0.660963 0.000000
Si Si3 0.459018 0.889164 0.193644
Si Si4 0.431023 0.314861 0.770406
Si Si5 0.327443 0.788916 0.000000
Si Si6 0.225352 0.408577 0.372868
O O1 0.500000 0.500000 0.383312
O O2 0.610398 0.367761 0.500000
O O3 0.557957 0.339219 0.289084
O O4 0.725722 0.476613 0.358436
O O5 0.578174 0.617186 0.120956
O O6 0.429386 0.702726 0.000000
O O7 0.685586 0.733819 0.000000
O O8 0.560223 0.802026 0.196473
O O9 0.360358 0.852127 0.106704
O O10 0.399354 0.896431 0.311224
O O11 0.500000 0.000000 0.161271
O O12 0.324368 0.339094 0.687543
O O13 0.222338 0.388220 0.500000
#
# Coordination Sequence:
#
# PCOD9427587 Si02
#       6
#     8   4   8   8   4   8
#     4   8  16  34  59  85 117 156 202 256 314 366
#     4  10  20  38  68  97 124 161 214 262 315 380
#     4  11  24  40  61  90 126 167 210 256 319 388
#     4  10  20  38  63  88 121 164 207 263 314 379
#     4  10  21  44  67  92 129 169 207 266 322 380
#     4  10  21  39  62  88 123 163 210 266 320 379
#
# _framework density 22.0183
#
# number of rings (size 3 to 8) (size 9 to 14) (size 15 to 20)
#    0.000    2.200    2.000    2.100    0.000    3.600 
#    3.600    7.500    0.000    0.000    0.000    0.000 
#    0.000    0.000    0.000    0.000    0.000    0.000 
#
# Total GULP energy -222948.383262 kJ/mol
# GULP energy per Si atom -5573.709582 kJ/mol
# Density = 2.196819 g / cm^3
# Si number density = 22.018300 Si / 1000 Ang^3
#
#
#
# Elastic Constant Matrix: (Units=GPa)
#
#
# Indices 1 2 3 4 5 6 
#
# 1 46.5715 -9.2323 8.2142 0.0000 0.0000 0.0000
# 2 -9.2323 46.9891 3.7870 0.0000 0.0000 0.0000
# 3 8.2142 3.7870 132.4966 0.0000 0.0000 0.0000
# 4 0.0000 0.0000 0.0000 21.3046 0.0000 0.0000
# 5 0.0000 0.0000 0.0000 0.0000 36.0394 0.0000
# 6 0.0000 0.0000 0.0000 0.0000 0.0000 22.9105
#
#
#
# Elastic Compliance Matrix: (Units=1/GPa)
#
#
# Indices 1 2 3 4 5 6 
#
# 1 0.022650 0.004574 -0.001535 0.000000 0.000000 0.000000
# 2 0.004574 0.022254 -0.000920 0.000000 0.000000 0.000000
# 3 -0.001535 -0.000920 0.007669 0.000000 0.000000 0.000000
# 4 0.000000 0.000000 0.000000 0.046938 0.000000 0.000000
# 5 0.000000 0.000000 0.000000 0.000000 0.027747 0.000000
# 6 0.000000 0.000000 0.000000 0.000000 0.000000 0.043648
#
#
# Mechanical properties :
#
#
# Convention : Reuss Voigt Hill
#
# Bulk Modulus (GPa) = 17.60201 25.73277 21.66739
# Shear Modulus (GPa) = 26.93889 30.93677 28.93783
#
# Velocity S-wave (km/s) = 3.50162 3.75246 3.62921
# Velocity P-wave (km/s) = 4.93559 5.52150 5.23675
#
# Compressibility (1/GPa) = 0.05681169
#
# Stress axis : x y z
#
# Youngs Moduli (GPa) = 44.15043 44.93506 130.39838
#
# Poissons Ratio (x) = -0.20553 0.20015
# Poissons Ratio (y) = -0.20194 0.11992
# Poissons Ratio (z) = 0.06777 0.04132
#
# Static dielectric constant tensor:
#      x y z
#    x 1.810320 0.000000 0.000000 
#    y 0.000000 1.862420 0.000000 
#    z 0.000000 0.000000 1.832580 
# 
# From -- ./inp_files/13039.got.cif
#   From: 2010.05.17/outbox.cif.g08.bks.cpg/sg55_7_cif.got.tgz:13039.got - 2010.06.03 13:27:54.
