data_PCOD9427549
_publ_section_title
;
Structure prediction by ZEFSAII (Michael W. Deem and Ramdas Pophale) SiO2 
 PCOD9427549
Probable space group: P B A M
;
_chemical_formula_sum "Si O2"
_cell_formula_units_Z 58
_cell_length_a 14.400138
_cell_length_b 23.801771
_cell_length_c 7.788255
_cell_angle_alpha 90.000000
_cell_angle_beta 90.000000
_cell_angle_gamma 90.000000
_cell_volume 2669.414954
_symmetry_space_group_name_H-M "P B A M"
_symmetry_group_IT_number 55
_symmetry_cell_setting 'orthorhombic'
loop_
_space_group_symop_operation_xyz
x,y,z
-x,-y,z
1/2+x,1/2-y,-z
1/2-x,1/2+y,-z
-x,-y,-z
x,y,-z
1/2-x,1/2+y,z
1/2+x,1/2-y,z
loop_
_atom_site_type_symbol
_atom_site_label
_atom_site_fract_x
_atom_site_fract_y
_atom_site_fract_z
Si Si1 0.948575 0.097858 0.206040
Si Si2 0.500000 0.000000 0.000000
Si Si3 0.287139 0.481086 0.701485
Si Si4 0.548661 0.921302 0.687522
Si Si5 0.836473 0.896883 0.296184
Si Si6 0.351045 0.884810 0.199988
Si Si7 0.679793 0.822384 0.198337
Si Si8 0.309918 0.304103 0.790411
O O1 0.889561 0.045558 0.276006
O O2 0.891889 0.153544 0.261146
O O3 0.054364 0.100105 0.262229
O O4 0.945012 0.094646 0.000000
O O5 0.553416 0.963810 0.846753
O O6 0.264629 0.480789 0.500000
O O7 0.290412 0.544707 0.765320
O O8 0.215907 0.439157 0.792184
O O9 0.565901 0.947302 0.500000
O O10 0.444030 0.896967 0.698290
O O11 0.617477 0.868848 0.709798
O O12 0.821778 0.893150 0.500000
O O13 0.784887 0.844964 0.209893
O O14 0.287249 0.833244 0.261114
O O15 0.378055 0.877144 0.000000
O O16 0.675544 0.759242 0.269005
O O17 0.649652 0.820629 0.000000
O O18 0.307585 0.303565 0.000000
#
# Coordination Sequence:
#
# PCOD9427549 Si02
#       8
#     8   2   8   8   8   8   8   8
#     4  10  20  38  61  89 115 158 207 252 309 376
#     4  12  26  48  68  94 128 182 218 264 338 394
#     4  10  21  36  57  86 124 161 198 252 311 370
#     4  12  26  44  67  99 133 169 223 274 326 395
#     4  11  24  38  55  85 124 159 198 253 314 373
#     4  10  20  40  65  95 124 168 216 260 320 384
#     4  11  23  43  63  90 124 169 214 262 326 386
#     4   8  19  39  66  89 122 164 213 263 316 387
#
# _framework density 21.727606999999999
#
# number of rings (size 3 to 8) (size 9 to 14) (size 15 to 20)
#    0.000    1.655    1.379    3.517    1.931    4.966 
#    0.000   13.793    0.000    0.000    0.000    0.000 
#    0.000    0.000    0.000    0.000    0.000    0.000 
#
# Total GULP energy -323897.705195 kJ/mol
# GULP energy per Si atom -5584.443193 kJ/mol
# Density = 2.167815 g / cm^3
# Si number density = 21.727607 Si / 1000 Ang^3
#
#
#
# Elastic Constant Matrix: (Units=GPa)
#
#
# Indices 1 2 3 4 5 6 
#
# 1 91.6118 13.7454 4.1889 0.0000 0.0000 0.0000
# 2 13.7454 108.3452 19.3297 0.0000 0.0000 0.0000
# 3 4.1889 19.3297 102.2474 0.0000 0.0000 0.0000
# 4 0.0000 0.0000 0.0000 117.5354 0.0000 0.0000
# 5 0.0000 0.0000 0.0000 0.0000 45.4411 0.0000
# 6 0.0000 0.0000 0.0000 0.0000 0.0000 21.0461
#
#
#
# Elastic Compliance Matrix: (Units=1/GPa)
#
#
# Indices 1 2 3 4 5 6 
#
# 1 0.011131 -0.001377 -0.000196 0.000000 0.000000 0.000000
# 2 -0.001377 0.009722 -0.001782 0.000000 0.000000 0.000000
# 3 -0.000196 -0.001782 0.010125 0.000000 0.000000 0.000000
# 4 0.000000 0.000000 0.000000 0.008508 0.000000 0.000000
# 5 0.000000 0.000000 0.000000 0.000000 0.022007 0.000000
# 6 0.000000 0.000000 0.000000 0.000000 0.000000 0.047515
#
#
# Mechanical properties :
#
#
# Convention : Reuss Voigt Hill
#
# Bulk Modulus (GPa) = 41.20386 41.85917 41.53152
# Shear Modulus (GPa) = 40.38556 54.46723 47.42640
#
# Velocity S-wave (km/s) = 4.31597 5.01225 4.67708
# Velocity P-wave (km/s) = 6.62131 7.26664 6.95147
#
# Compressibility (1/GPa) = 0.02426957
#
# Stress axis : x y z
#
# Youngs Moduli (GPa) = 89.83741 102.85598 98.76530
#
# Poissons Ratio (x) = 0.14166 0.01932
# Poissons Ratio (y) = 0.12373 0.17596
# Poissons Ratio (z) = 0.01758 0.18324
#
# Static dielectric constant tensor:
#      x y z
#    x 1.790020 0.000000 0.000000 
#    y 0.000000 1.783360 0.000000 
#    z 0.000000 0.000000 1.796630 
# 
# From -- ./inp_files/6453.got.cif
#   From: 2010.05.17/outbox.cif.g08.bks.cpg/sg55_4_cif.got.tgz:6453.got - 2010.06.03 13:27:54.
