data_PCOD9427720
_publ_section_title
;
Structure prediction by ZEFSAII (Michael W. Deem and Ramdas Pophale) SiO2 
 PCOD9427720
Probable space group: P B A M
;
_chemical_formula_sum "Si O2"
_cell_formula_units_Z 24
_cell_length_a 10.293496
_cell_length_b 9.146640
_cell_length_c 9.103814
_cell_angle_alpha 90.000000
_cell_angle_beta 90.000000
_cell_angle_gamma 90.000000
_cell_volume 857.132302
_symmetry_space_group_name_H-M "P B A M"
_symmetry_group_IT_number 55
_symmetry_cell_setting 'orthorhombic'
loop_
_space_group_symop_operation_xyz
x,y,z
-x,-y,z
1/2+x,1/2-y,-z
1/2-x,1/2+y,-z
-x,-y,-z
x,y,-z
1/2-x,1/2+y,z
1/2+x,1/2-y,z
loop_
_atom_site_type_symbol
_atom_site_label
_atom_site_fract_x
_atom_site_fract_y
_atom_site_fract_z
Si Si1 0.189025 0.478906 0.500000
Si Si2 0.949527 0.162743 0.807322
Si Si3 0.065426 0.170104 0.500000
Si Si4 0.656395 0.080632 0.838616
O O1 0.155722 0.310958 0.500000
O O2 0.328868 0.545687 0.500000
O O3 0.146434 0.505819 0.321220
O O4 0.973243 0.170416 0.636097
O O5 0.044144 0.296165 0.850848
O O6 0.796307 0.162001 0.835191
O O7 0.000000 0.000000 0.850989
O O8 0.655953 0.001317 0.000000
#
# Coordination Sequence:
#
# PCOD9427720 Si02
#       4
#     4   8   4   8
#     4  10  21  42  66 105 140 183 235 298 346 427
#     4  11  22  43  72  98 141 186 235 295 356 423
#     4  10  20  41  75 104 144 188 242 292 363 429
#     4  11  24  40  67 103 137 183 235 290 356 421
#
# _framework density 28.000344999999999
#
# number of rings (size 3 to 8) (size 9 to 14) (size 15 to 20)
#    0.000    1.333    3.333    2.500    0.000    2.667 
#    0.000    1.667    0.000   12.000    0.000    0.000 
#    0.000    0.000    0.000    0.000    0.000    0.000 
#
# Total GULP energy -133765.274667 kJ/mol
# GULP energy per Si atom -5573.553111 kJ/mol
# Density = 2.793661 g / cm^3
# Si number density = 28.000345 Si / 1000 Ang^3
#
#
#
# Elastic Constant Matrix: (Units=GPa)
#
#
# Indices 1 2 3 4 5 6 
#
# 1 252.6260 57.7251 56.5241 0.0000 0.0000 0.0000
# 2 57.7251 69.9539 41.9210 0.0000 0.0000 0.0000
# 3 56.5241 41.9210 341.4283 0.0000 0.0000 0.0000
# 4 0.0000 0.0000 0.0000 -58.5252 0.0000 0.0000
# 5 0.0000 0.0000 0.0000 0.0000 39.3307 0.0000
# 6 0.0000 0.0000 0.0000 0.0000 0.0000 40.7014
#
#
#
# Elastic Compliance Matrix: (Units=1/GPa)
#
#
# Indices 1 2 3 4 5 6 
#
# 1 0.004915 -0.003851 -0.000341 0.000000 0.000000 0.000000
# 2 -0.003851 0.018449 -0.001628 0.000000 0.000000 0.000000
# 3 -0.000341 -0.001628 0.003185 0.000000 0.000000 0.000000
# 4 0.000000 0.000000 0.000000 -0.017087 0.000000 0.000000
# 5 0.000000 0.000000 0.000000 0.000000 0.025425 0.000000
# 6 0.000000 0.000000 0.000000 0.000000 0.000000 0.024569
#
#
# Mechanical properties :
#
#
# Convention : Reuss Voigt Hill
#
# Bulk Modulus (GPa) = 67.07326 108.48316 87.77821
# Shear Modulus (GPa) = 65.73297 38.15723 51.94510
#
# Velocity S-wave (km/s) = 4.85044 3.69554 4.31183
# Velocity P-wave (km/s) = 7.44147 7.55228 7.49708
#
# Compressibility (1/GPa) = 0.01490907
#
# Stress axis : x y z
#
# Youngs Moduli (GPa) = 203.47134 54.20482 313.96006
#
# Poissons Ratio (x) = 0.20876 0.10699
# Poissons Ratio (y) = 0.78364 0.51098
# Poissons Ratio (z) = 0.06934 0.08822
#
# Static dielectric constant tensor:
#      x y z
#    x 2.064140 0.000000 0.000000 
#    y 0.000000 2.189510 0.000000 
#    z 0.000000 0.000000 2.326740 
# 
# From -- ./inp_files/3163.got.cif
#   From: 2010.05.17/outbox.cif.g08.bks.cpg/sg55_2_cif.got.tgz:3163.got - 2010.06.03 13:27:54.
