data_PCOD9427982
_publ_section_title
;
Structure prediction by ZEFSAII (Michael W. Deem and Ramdas Pophale) SiO2 
 PCOD9427982
Probable space group: P B A M
;
_chemical_formula_sum "Si O2"
_cell_formula_units_Z 40
_cell_length_a 7.850610
_cell_length_b 17.021022
_cell_length_c 13.226899
_cell_angle_alpha 90.000000
_cell_angle_beta 90.000000
_cell_angle_gamma 90.000000
_cell_volume 1767.449743
_symmetry_space_group_name_H-M "P B A M"
_symmetry_group_IT_number 55
_symmetry_cell_setting 'orthorhombic'
loop_
_space_group_symop_operation_xyz
x,y,z
-x,-y,z
1/2+x,1/2-y,-z
1/2-x,1/2+y,-z
-x,-y,-z
x,y,-z
1/2-x,1/2+y,z
1/2+x,1/2-y,z
loop_
_atom_site_type_symbol
_atom_site_label
_atom_site_fract_x
_atom_site_fract_y
_atom_site_fract_z
Si Si1 0.591510 0.124464 0.500000
Si Si2 0.621575 0.125792 0.886494
Si Si3 0.595228 0.376591 0.692939
Si Si4 0.725933 0.039238 0.692164
Si Si5 0.487835 0.288199 0.113903
Si Si6 0.728627 0.289229 0.500000
O O1 0.619653 0.071551 0.598276
O O2 0.729209 0.195268 0.500000
O O3 0.412230 0.169442 0.500000
O O4 0.639125 0.064271 0.797014
O O5 0.486126 0.194899 0.867312
O O6 0.801206 0.173480 0.885138
O O7 0.598831 0.093616 0.000000
O O8 0.729517 0.447632 0.689674
O O9 0.408791 0.416264 0.684507
O O10 0.592865 0.330280 0.798286
O O11 0.633210 0.318951 0.600484
O O12 0.557799 0.299567 0.000000
#
# Coordination Sequence:
#
# PCOD9427982 Si02
#       6
#     4   8   8   8   8   4
#     4  12  25  40  59  81 107 141 183 228 273 324
#     4   9  18  33  54  80 109 143 183 224 266 315
#     4  10  21  37  57  82 113 146 180 222 272 324
#     4  10  21  37  57  82 113 146 180 222 272 324
#     4   9  18  33  54  80 109 143 183 224 266 315
#     4  12  25  40  59  81 107 141 183 228 273 324
#
# _framework density 22.631477
#
# number of rings (size 3 to 8) (size 9 to 14) (size 15 to 20)
#    0.000    2.000    0.000    3.600    0.000    8.800 
#    0.000    4.000    0.000    0.000    0.000    8.400 
#    0.000    0.000    0.000    0.000    0.000    0.000 
#
# Total GULP energy -223905.262139 kJ/mol
# GULP energy per Si atom -5597.631553 kJ/mol
# Density = 2.257997 g / cm^3
# Si number density = 22.631477 Si / 1000 Ang^3
#
#
#
# Elastic Constant Matrix: (Units=GPa)
#
#
# Indices 1 2 3 4 5 6 
#
# 1 84.8941 23.6799 42.0427 0.0000 0.0000 0.0000
# 2 23.6799 81.6842 50.1325 0.0000 0.0000 0.0000
# 3 42.0427 50.1325 123.8903 0.0000 0.0000 0.0000
# 4 0.0000 0.0000 0.0000 1504.3078 0.0000 0.0000
# 5 0.0000 0.0000 0.0000 0.0000 -169.1993 0.0000
# 6 0.0000 0.0000 0.0000 0.0000 0.0000 41.1310
#
#
#
# Elastic Compliance Matrix: (Units=1/GPa)
#
#
# Indices 1 2 3 4 5 6 
#
# 1 0.014306 -0.001553 -0.004226 0.000000 0.000000 0.000000
# 2 -0.001553 0.016456 -0.006132 0.000000 0.000000 0.000000
# 3 -0.004226 -0.006132 0.011987 0.000000 0.000000 0.000000
# 4 0.000000 0.000000 0.000000 0.000665 0.000000 0.000000
# 5 0.000000 0.000000 0.000000 0.000000 -0.005910 0.000000
# 6 0.000000 0.000000 0.000000 0.000000 0.000000 0.024313
#
#
# Mechanical properties :
#
#
# Convention : Reuss Voigt Hill
#
# Bulk Modulus (GPa) = 52.83743 58.01988 55.42865
# Shear Modulus (GPa) = 54.37930 286.88880 170.63405
#
# Velocity S-wave (km/s) = 4.90717 11.27123 8.69255
# Velocity P-wave (km/s) = 7.45015 13.96710 11.19340
#
# Compressibility (1/GPa) = 0.01892598
#
# Stress axis : x y z
#
# Youngs Moduli (GPa) = 69.90271 60.76862 83.42361
#
# Poissons Ratio (x) = 0.09440 0.35255
# Poissons Ratio (y) = 0.10859 0.51153
# Poissons Ratio (z) = 0.29541 0.37262
#
# Static dielectric constant tensor:
#      x y z
#    x 1.896230 0.000000 0.000000 
#    y 0.000000 1.780410 0.000000 
#    z 0.000000 0.000000 1.783940 
# 
# From -- ./inp_files/11932.got.cif
#   From: 2010.05.17/outbox.cif.g08.bks.cpg/sg55_6_cif.got.tgz:11932.got - 2010.06.03 13:27:54.
