data_PCOD9427430
_publ_section_title
;
Structure prediction by ZEFSAII (Michael W. Deem and Ramdas Pophale) SiO2 
 PCOD9427430
Probable space group: P B A M
;
_chemical_formula_sum "Si O2"
_cell_formula_units_Z 64
_cell_length_a 10.664877
_cell_length_b 25.491502
_cell_length_c 12.472362
_cell_angle_alpha 90.000000
_cell_angle_beta 90.000000
_cell_angle_gamma 90.000000
_cell_volume 3390.782897
_symmetry_space_group_name_H-M "P B A M"
_symmetry_group_IT_number 55
_symmetry_cell_setting 'orthorhombic'
loop_
_space_group_symop_operation_xyz
x,y,z
-x,-y,z
1/2+x,1/2-y,-z
1/2-x,1/2+y,-z
-x,-y,-z
x,y,-z
1/2-x,1/2+y,z
1/2+x,1/2-y,z
loop_
_atom_site_type_symbol
_atom_site_label
_atom_site_fract_x
_atom_site_fract_y
_atom_site_fract_z
Si Si1 0.025208 0.233555 0.375229
Si Si2 0.850705 0.121903 0.124820
Si Si3 0.704982 0.827892 0.876932
Si Si4 0.768309 0.225488 0.753848
Si Si5 0.806167 0.525704 0.809099
Si Si6 0.448654 0.073159 0.123658
Si Si7 0.088134 0.125870 0.278101
Si Si8 0.855152 0.983249 0.622597
O O1 0.032456 0.249177 0.500000
O O2 0.133899 0.262659 0.303713
O O3 0.052106 0.171584 0.360612
O O4 0.883179 0.237270 0.329021
O O5 0.778607 0.168424 0.189982
O O6 0.775559 0.067278 0.125125
O O7 0.973316 0.113022 0.198414
O O8 0.875679 0.136651 0.000000
O O9 0.698989 0.767226 0.847361
O O10 0.587070 0.866440 0.859565
O O11 0.808306 0.850300 0.798780
O O12 0.740831 0.834700 0.000000
O O13 0.834770 0.468260 0.859704
O O14 0.734208 0.516270 0.699011
O O15 0.940892 0.553550 0.800542
O O16 0.490573 0.067007 0.000000
O O17 0.143331 0.076422 0.338746
O O18 0.817004 0.988553 0.500000
O O19 0.000000 0.000000 0.632910
#
# Coordination Sequence:
#
# PCOD9427430 Si02
#       8
#     8   8   8   8   8   8   8   8
#     4  10  21  40  63  85 114 154 201 250 296 344
#     4  11  22  37  58  88 123 154 191 244 301 358
#     4  10  20  37  61  86 118 157 191 235 296 359
#     4  10  23  38  60  88 123 154 200 246 297 359
#     4  11  21  38  58  84 118 153 199 243 286 355
#     4  10  21  37  60  84 117 159 195 238 293 351
#     4  10  20  38  59  88 115 149 192 245 294 360
#     4  11  22  39  60  82 112 150 193 243 300 346
#
# _framework density 18.874697999999999
#
# number of rings (size 3 to 8) (size 9 to 14) (size 15 to 20)
#    0.000    1.625    2.500    3.000    1.750    0.000 
#    0.000    3.750    0.000    0.000    0.000    0.000 
#    0.000    0.000    0.000    0.000    0.000    0.000 
#
# Total GULP energy -356687.305572 kJ/mol
# GULP energy per Si atom -5573.239150 kJ/mol
# Density = 1.883174 g / cm^3
# Si number density = 18.874698 Si / 1000 Ang^3
#
#
#
# Elastic Constant Matrix: (Units=GPa)
#
#
# Indices 1 2 3 4 5 6 
#
# 1 55.6166 1.5502 27.6054 0.0000 0.0000 0.0000
# 2 1.5502 42.7545 8.7142 0.0000 0.0000 0.0000
# 3 27.6054 8.7142 94.5647 0.0000 0.0000 0.0000
# 4 0.0000 0.0000 0.0000 19.3698 0.0000 0.0000
# 5 0.0000 0.0000 0.0000 0.0000 7.9295 0.0000
# 6 0.0000 0.0000 0.0000 0.0000 0.0000 23.0936
#
#
#
# Elastic Compliance Matrix: (Units=1/GPa)
#
#
# Indices 1 2 3 4 5 6 
#
# 1 0.021037 0.000498 -0.006187 0.000000 0.000000 0.000000
# 2 0.000498 0.023849 -0.002343 0.000000 0.000000 0.000000
# 3 -0.006187 -0.002343 0.012597 0.000000 0.000000 0.000000
# 4 0.000000 0.000000 0.000000 0.051627 0.000000 0.000000
# 5 0.000000 0.000000 0.000000 0.000000 0.126111 0.000000
# 6 0.000000 0.000000 0.000000 0.000000 0.000000 0.043302
#
#
# Mechanical properties :
#
#
# Convention : Reuss Voigt Hill
#
# Bulk Modulus (GPa) = 24.14348 29.85281 26.99815
# Shear Modulus (GPa) = 16.21307 20.41631 18.31469
#
# Velocity S-wave (km/s) = 2.93402 3.29245 3.11839
# Velocity P-wave (km/s) = 4.92922 5.50493 5.22501
#
# Compressibility (1/GPa) = 0.04141905
#
# Stress axis : x y z
#
# Youngs Moduli (GPa) = 47.53447 41.93076 79.38490
#
# Poissons Ratio (x) = -0.02089 0.49117
# Poissons Ratio (y) = -0.02369 0.18601
# Poissons Ratio (z) = 0.29410 0.09825
#
# Static dielectric constant tensor:
#      x y z
#    x 1.642730 0.000000 0.000000 
#    y 0.000000 1.660900 0.000000 
#    z 0.000000 0.000000 1.624710 
# 
# From -- ./inp_files/12613.got.cif
#   From: 2010.05.17/outbox.cif.g08.bks.cpg/sg55_7_cif.got.tgz:12613.got - 2010.06.03 13:27:54.
