data_PCOD9427629
_publ_section_title
;
Structure prediction by ZEFSAII (Michael W. Deem and Ramdas Pophale) SiO2 
 PCOD9427629
Probable space group: P B A M
;
_chemical_formula_sum "Si O2"
_cell_formula_units_Z 52
_cell_length_a 9.398456
_cell_length_b 16.641057
_cell_length_c 18.117134
_cell_angle_alpha 90.000000
_cell_angle_beta 90.000000
_cell_angle_gamma 90.000000
_cell_volume 2833.524142
_symmetry_space_group_name_H-M "P B A M"
_symmetry_group_IT_number 55
_symmetry_cell_setting 'orthorhombic'
loop_
_space_group_symop_operation_xyz
x,y,z
-x,-y,z
1/2+x,1/2-y,-z
1/2-x,1/2+y,-z
-x,-y,-z
x,y,-z
1/2-x,1/2+y,z
1/2+x,1/2-y,z
loop_
_atom_site_type_symbol
_atom_site_label
_atom_site_fract_x
_atom_site_fract_y
_atom_site_fract_z
Si Si1 0.167058 0.523262 0.585174
Si Si2 0.068085 0.087660 0.000000
Si Si3 0.298000 0.150458 0.106973
Si Si4 0.029508 0.240459 0.336080
Si Si5 0.530495 0.093834 0.000000
Si Si6 0.286917 0.145519 0.278502
Si Si7 0.299119 0.298453 0.000000
Si Si8 0.773993 0.154266 0.585984
O O1 0.194916 0.553401 0.500000
O O2 0.198331 0.582581 0.653415
O O3 0.253886 0.440891 0.596778
O O4 0.000000 0.500000 0.587133
O O5 0.172261 0.099917 0.930814
O O6 0.000000 0.000000 0.000000
O O7 0.952617 0.159351 0.000000
O O8 0.298813 0.127335 0.192290
O O9 0.448082 0.127375 0.071038
O O10 0.277471 0.240940 0.072405
O O11 0.132513 0.185429 0.288108
O O12 0.141412 0.298908 0.377189
O O13 0.916512 0.293028 0.291770
O O14 0.925989 0.186645 0.386702
O O15 0.500000 0.000000 0.000000
O O16 0.687403 0.128856 0.000000
O O17 0.762975 0.170952 0.500000
#
# Coordination Sequence:
#
# PCOD9427629 Si02
#       8
#     8   4   8   8   4   8   4   8
#     4  10  21  40  62  86 122 167 208 253 316 373
#     4  10  21  42  61  94 126 160 196 248 309 362
#     4  10  22  39  62  90 123 162 204 241 305 366
#     4  10  23  38  56  92 124 152 206 258 308 366
#     4  10  21  40  63  98 120 154 204 248 295 356
#     4  11  24  40  61  91 126 160 209 258 309 367
#     4  10  20  38  70  88 122 160 200 246 296 370
#     4  10  20  39  64  85 116 161 208 258 316 369
#
# _framework density 18.351704000000002
#
# number of rings (size 3 to 8) (size 9 to 14) (size 15 to 20)
#    0.000    2.000    1.538    3.231    4.308    4.308 
#    2.769    1.538    0.000    0.000    0.000    0.000 
#    0.000    0.000    0.000    0.000    0.000    0.000 
#
# Total GULP energy -289680.731281 kJ/mol
# GULP energy per Si atom -5570.783294 kJ/mol
# Density = 1.830993 g / cm^3
# Si number density = 18.351704 Si / 1000 Ang^3
#
#
#
# Elastic Constant Matrix: (Units=GPa)
#
#
# Indices 1 2 3 4 5 6 
#
# 1 77.7049 6.5578 17.8800 0.0000 0.0000 0.0000
# 2 6.5578 45.1374 36.6765 0.0000 0.0000 0.0000
# 3 17.8800 36.6765 134.4154 0.0000 0.0000 0.0000
# 4 0.0000 0.0000 0.0000 3.4598 0.0000 0.0000
# 5 0.0000 0.0000 0.0000 0.0000 -7.3697 0.0000
# 6 0.0000 0.0000 0.0000 0.0000 0.0000 14.7244
#
#
#
# Elastic Compliance Matrix: (Units=1/GPa)
#
#
# Indices 1 2 3 4 5 6 
#
# 1 0.013290 -0.000635 -0.001594 0.000000 0.000000 0.000000
# 2 -0.000635 0.028496 -0.007691 0.000000 0.000000 0.000000
# 3 -0.001594 -0.007691 0.009750 0.000000 0.000000 0.000000
# 4 0.000000 0.000000 0.000000 0.289032 0.000000 0.000000
# 5 0.000000 0.000000 0.000000 0.000000 -0.135691 0.000000
# 6 0.000000 0.000000 0.000000 0.000000 0.000000 0.067915
#
#
# Mechanical properties :
#
#
# Convention : Reuss Voigt Hill
#
# Bulk Modulus (GPa) = 31.55084 42.16515 36.85799
# Shear Modulus (GPa) = 16.49087 15.23913 15.86500
#
# Velocity S-wave (km/s) = 3.00092 2.88478 2.94342
# Velocity P-wave (km/s) = 5.40713 5.84140 5.62845
#
# Compressibility (1/GPa) = 0.03169488
#
# Stress axis : x y z
#
# Youngs Moduli (GPa) = 75.24626 35.09243 102.56132
#
# Poissons Ratio (x) = 0.02229 0.16353
# Poissons Ratio (y) = 0.04780 0.78879
# Poissons Ratio (z) = 0.11998 0.26989
#
# Static dielectric constant tensor:
#      x y z
#    x 1.557830 0.000000 0.000000 
#    y 0.000000 1.726590 0.000000 
#    z 0.000000 0.000000 1.707450 
# 
# From -- ./inp_files/20974.got.cif
#   From: 2010.05.17/outbox.cif.g08.bks.cpg/sg55_11_cif.got.tgz:20974.got - 2010.06.03 13:27:54.
