data_PCOD9427121
_publ_section_title
;
Structure prediction by ZEFSAII (Michael W. Deem and Ramdas Pophale) SiO2 
 PCOD9427121
Probable space group: P B A M
;
_chemical_formula_sum "Si O2"
_cell_formula_units_Z 64
_cell_length_a 25.077182
_cell_length_b 9.797722
_cell_length_c 13.865367
_cell_angle_alpha 90.000000
_cell_angle_beta 90.000000
_cell_angle_gamma 90.000000
_cell_volume 3406.710381
_symmetry_space_group_name_H-M "P B A M"
_symmetry_group_IT_number 55
_symmetry_cell_setting 'orthorhombic'
loop_
_space_group_symop_operation_xyz
x,y,z
-x,-y,z
1/2+x,1/2-y,-z
1/2-x,1/2+y,-z
-x,-y,-z
x,y,-z
1/2-x,1/2+y,z
1/2+x,1/2-y,z
loop_
_atom_site_type_symbol
_atom_site_label
_atom_site_fract_x
_atom_site_fract_y
_atom_site_fract_z
Si Si1 0.484024 0.846488 0.731719
Si Si2 0.122513 0.294046 0.386008
Si Si3 0.194380 0.331725 0.113019
Si Si4 0.916677 0.229634 0.386478
Si Si5 0.367748 0.517799 0.267722
Si Si6 0.683472 0.932142 0.390578
Si Si7 0.254331 0.570436 0.214390
Si Si8 0.080193 0.194818 0.113879
O O1 0.431802 0.845532 0.663694
O O2 0.531328 0.779885 0.670001
O O3 0.468181 0.761914 0.827128
O O4 0.500000 0.000000 0.756971
O O5 0.114644 0.273938 0.500000
O O6 0.136767 0.154439 0.332516
O O7 0.166977 0.410531 0.373377
O O8 0.212826 0.473316 0.159417
O O9 0.226487 0.204192 0.157765
O O10 0.131703 0.295521 0.124877
O O11 0.205573 0.337155 0.000000
O O12 0.927695 0.204615 0.500000
O O13 0.870330 0.343713 0.381312
O O14 0.894656 0.096975 0.332092
O O15 0.308030 0.483987 0.234520
O O16 0.402095 0.560430 0.173677
O O17 0.703006 0.917448 0.500000
O O18 0.727006 0.888056 0.314138
O O19 0.071237 0.173088 0.000000
#
# Coordination Sequence:
#
# PCOD9427121 Si02
#       8
#     8   8   8   8   8   8   8   8
#     4  11  21  36  62  85 111 150 191 236 296 343
#     4  10  20  36  56  80 112 153 199 230 276 345
#     4  10  21  37  61  86 111 147 192 238 290 339
#     4  11  23  37  56  87 122 148 189 241 282 331
#     4  10  22  38  56  84 115 156 187 237 287 339
#     4  10  21  35  55  83 115 155 193 230 276 338
#     4  11  20  37  59  83 117 153 189 238 282 338
#     4   9  21  41  61  83 113 151 191 236 290 354
#
# _framework density 18.786452000000001
#
# number of rings (size 3 to 8) (size 9 to 14) (size 15 to 20)
#    0.000    1.750    1.250    4.125    0.000    4.250 
#    0.000    7.500    0.000    0.000    0.000    0.000 
#    0.000    0.000    0.000    0.000    0.000    0.000 
#
# Total GULP energy -357471.738525 kJ/mol
# GULP energy per Si atom -5585.495914 kJ/mol
# Density = 1.874369 g / cm^3
# Si number density = 18.786452 Si / 1000 Ang^3
#
#
#
# Elastic Constant Matrix: (Units=GPa)
#
#
# Indices 1 2 3 4 5 6 
#
# 1 43.0467 2.4650 32.0281 0.0000 0.0000 0.0000
# 2 2.4650 46.4929 21.2033 0.0000 0.0000 0.0000
# 3 32.0281 21.2033 128.2796 0.0000 0.0000 0.0000
# 4 0.0000 0.0000 0.0000 13.5951 0.0000 0.0000
# 5 0.0000 0.0000 0.0000 0.0000 32.0730 0.0000
# 6 0.0000 0.0000 0.0000 0.0000 0.0000 14.9096
#
#
#
# Elastic Compliance Matrix: (Units=1/GPa)
#
#
# Indices 1 2 3 4 5 6 
#
# 1 0.028683 0.001888 -0.007473 0.000000 0.000000 0.000000
# 2 0.001888 0.023386 -0.004337 0.000000 0.000000 0.000000
# 3 -0.007473 -0.004337 0.010378 0.000000 0.000000 0.000000
# 4 0.000000 0.000000 0.000000 0.073556 0.000000 0.000000
# 5 0.000000 0.000000 0.000000 0.000000 0.031179 0.000000
# 6 0.000000 0.000000 0.000000 0.000000 0.000000 0.067071
#
#
# Mechanical properties :
#
#
# Convention : Reuss Voigt Hill
#
# Bulk Modulus (GPa) = 23.47293 36.57913 30.02603
# Shear Modulus (GPa) = 18.63591 22.92373 20.77982
#
# Velocity S-wave (km/s) = 3.15300 3.49696 3.32943
# Velocity P-wave (km/s) = 5.07710 5.98484 5.54956
#
# Compressibility (1/GPa) = 0.04260227
#
# Stress axis : x y z
#
# Youngs Moduli (GPa) = 34.86395 42.75992 96.35572
#
# Poissons Ratio (x) = -0.08071 0.72010
# Poissons Ratio (y) = -0.06581 0.41788
# Poissons Ratio (z) = 0.26055 0.18544
#
# Static dielectric constant tensor:
#      x y z
#    x 1.649050 0.000000 0.000000 
#    y 0.000000 1.647310 0.000000 
#    z 0.000000 0.000000 1.647350 
# 
# From -- ./inp_files/19975.got.cif
#   From: 2010.05.17/outbox.cif.g08.bks.cpg/sg55_10_cif.got.tgz:19975.got - 2010.06.03 13:27:54.
