data_PCOD9427190
_publ_section_title
;
Structure prediction by ZEFSAII (Michael W. Deem and Ramdas Pophale) SiO2 
 PCOD9427190
Probable space group: P B A M
;
_chemical_formula_sum "Si O2"
_cell_formula_units_Z 40
_cell_length_a 12.293611
_cell_length_b 8.967513
_cell_length_c 14.996343
_cell_angle_alpha 90.000000
_cell_angle_beta 90.000000
_cell_angle_gamma 90.000000
_cell_volume 1653.243588
_symmetry_space_group_name_H-M "P B A M"
_symmetry_group_IT_number 55
_symmetry_cell_setting 'orthorhombic'
loop_
_space_group_symop_operation_xyz
x,y,z
-x,-y,z
1/2+x,1/2-y,-z
1/2-x,1/2+y,-z
-x,-y,-z
x,y,-z
1/2-x,1/2+y,z
1/2+x,1/2-y,z
loop_
_atom_site_type_symbol
_atom_site_label
_atom_site_fract_x
_atom_site_fract_y
_atom_site_fract_z
Si Si1 0.702205 0.280612 0.899222
Si Si2 0.821141 0.998832 0.603084
Si Si3 0.442075 0.730213 0.265435
Si Si4 0.896924 0.087216 0.128808
Si Si5 0.599640 0.840520 0.397917
O O1 0.635816 0.212562 0.814771
O O2 0.691498 0.455040 0.874443
O O3 0.825718 0.225306 0.903148
O O4 0.657168 0.255171 0.000000
O O5 0.849475 0.958054 0.500000
O O6 0.883572 0.892120 0.672004
O O7 0.694943 0.959404 0.616438
O O8 0.846212 0.174127 0.612223
O O9 0.542461 0.651046 0.214714
O O10 0.499356 0.843437 0.331390
O O11 0.000000 0.000000 0.086609
O O12 0.562454 0.850100 0.500000
#
# Coordination Sequence:
#
# PCOD9427190 Si02
#       5
#     8   8   8   8   8
#     4  11  23  40  64  91 121 161 208 257 311 371
#     4  10  20  36  58  85 118 158 203 248 300 364
#     4  11  22  38  62  90 120 159 207 256 308 365
#     4  10  23  43  66  90 124 163 205 255 312 368
#     4  10  20  36  59  86 119 158 198 246 303 362
#
# _framework density 24.194863000000002
#
# number of rings (size 3 to 8) (size 9 to 14) (size 15 to 20)
#    0.000    1.600    0.000    6.600    0.000    8.800 
#    0.000    7.000    0.000   14.400    0.000    0.000 
#    0.000    0.000    0.000    0.000    0.000    0.000 
#
# Total GULP energy -223161.284398 kJ/mol
# GULP energy per Si atom -5579.032110 kJ/mol
# Density = 2.413979 g / cm^3
# Si number density = 24.194863 Si / 1000 Ang^3
#
#
#
# Elastic Constant Matrix: (Units=GPa)
#
#
# Indices 1 2 3 4 5 6 
#
# 1 110.1822 70.4542 86.8438 0.0000 0.0000 0.0000
# 2 70.4542 98.0394 32.0862 0.0000 0.0000 0.0000
# 3 86.8438 32.0862 178.5173 0.0000 0.0000 0.0000
# 4 0.0000 0.0000 0.0000 -16.8933 0.0000 0.0000
# 5 0.0000 0.0000 0.0000 0.0000 43.6599 0.0000
# 6 0.0000 0.0000 0.0000 0.0000 0.0000 63.5584
#
#
#
# Elastic Compliance Matrix: (Units=1/GPa)
#
#
# Indices 1 2 3 4 5 6 
#
# 1 0.028300 -0.016821 -0.010744 0.000000 0.000000 0.000000
# 2 -0.016821 0.020836 0.004438 0.000000 0.000000 0.000000
# 3 -0.010744 0.004438 0.010031 0.000000 0.000000 0.000000
# 4 0.000000 0.000000 0.000000 -0.059195 0.000000 0.000000
# 5 0.000000 0.000000 0.000000 0.000000 0.022904 0.000000
# 6 0.000000 0.000000 0.000000 0.000000 0.000000 0.015734
#
#
# Mechanical properties :
#
#
# Convention : Reuss Voigt Hill
#
# Bulk Modulus (GPa) = 77.44380 85.05638 81.25009
# Shear Modulus (GPa) = 56.07507 31.22199 43.64853
#
# Velocity S-wave (km/s) = 4.81941 3.59616 4.25201
# Velocity P-wave (km/s) = 7.94020 7.24391 7.60004
#
# Compressibility (1/GPa) = 0.01291259
#
# Stress axis : x y z
#
# Youngs Moduli (GPa) = 35.33598 47.99486 99.69546
#
# Poissons Ratio (x) = 0.80732 1.07110
# Poissons Ratio (y) = 0.59438 -0.44245
# Poissons Ratio (z) = 0.37964 -0.21300
#
# Static dielectric constant tensor:
#      x y z
#    x 1.936740 0.000000 0.000000 
#    y 0.000000 1.934880 0.000000 
#    z 0.000000 0.000000 2.004240 
# 
# From -- ./inp_files/18142.got.cif
#   From: 2010.05.17/outbox.cif.g08.bks.cpg/sg55_10_cif.got.tgz:18142.got - 2010.06.03 13:27:54.
