data_PCOD9427650
_publ_section_title
;
Structure prediction by ZEFSAII (Michael W. Deem and Ramdas Pophale) SiO2 
 PCOD9427650
Probable space group: P B A M
;
_chemical_formula_sum "Si O2"
_cell_formula_units_Z 48
_cell_length_a 28.334445
_cell_length_b 10.370025
_cell_length_c 7.585600
_cell_angle_alpha 90.000000
_cell_angle_beta 90.000000
_cell_angle_gamma 90.000000
_cell_volume 2228.868527
_symmetry_space_group_name_H-M "P B A M"
_symmetry_group_IT_number 55
_symmetry_cell_setting 'orthorhombic'
loop_
_space_group_symop_operation_xyz
x,y,z
-x,-y,z
1/2+x,1/2-y,-z
1/2-x,1/2+y,-z
-x,-y,-z
x,y,-z
1/2-x,1/2+y,z
1/2+x,1/2-y,z
loop_
_atom_site_type_symbol
_atom_site_label
_atom_site_fract_x
_atom_site_fract_y
_atom_site_fract_z
Si Si1 0.355661 0.520759 0.791235
Si Si2 0.711502 0.249025 0.705751
Si Si3 0.639706 0.031061 0.285509
Si Si4 0.817984 0.260475 0.287584
Si Si5 0.960063 0.899243 0.216198
Si Si6 0.033560 0.389663 0.207141
O O1 0.315628 0.615357 0.716869
O O2 0.343954 0.372243 0.756228
O O3 0.407616 0.559916 0.725386
O O4 0.355323 0.542239 0.000000
O O5 0.717546 0.216339 0.500000
O O6 0.677356 0.137760 0.778388
O O7 0.764134 0.255955 0.780980
O O8 0.638890 0.034051 0.500000
O O9 0.587721 0.068220 0.224047
O O10 0.655472 0.889107 0.226287
O O11 0.816019 0.270734 0.500000
O O12 0.971271 0.754832 0.278917
O O13 0.959358 0.898879 0.000000
O O14 0.000000 0.000000 0.270817
O O15 0.000000 0.500000 0.284755
O O16 0.021547 0.379263 0.000000
#
# Coordination Sequence:
#
# PCOD9427650 Si02
#       6
#     8   8   8   8   8   8
#     4  11  22  36  59  89 119 149 185 241 292 330
#     4  10  20  39  63  82 111 156 197 231 280 345
#     4  10  21  37  59  85 115 150 190 241 285 326
#     4  10  22  39  59  84 115 157 199 230 274 344
#     4   9  19  36  56  81 113 148 186 227 281 346
#     4  10  21  37  60  84 110 149 190 231 285 347
#
# _framework density 21.535589000000002
#
# number of rings (size 3 to 8) (size 9 to 14) (size 15 to 20)
#    0.000    2.000    1.667    1.500    2.333    4.333 
#    0.000    1.667    0.000    2.500    0.000    0.000 
#    0.000    0.000    0.000    0.000    0.000    0.000 
#
# Total GULP energy -268272.083521 kJ/mol
# GULP energy per Si atom -5589.001740 kJ/mol
# Density = 2.148657 g / cm^3
# Si number density = 21.535589 Si / 1000 Ang^3
#
#
#
# Elastic Constant Matrix: (Units=GPa)
#
#
# Indices 1 2 3 4 5 6 
#
# 1 123.8167 88.7693 -5.6375 0.0000 0.0000 0.0000
# 2 88.7693 202.9012 -11.5885 0.0000 0.0000 0.0000
# 3 -5.6375 -11.5885 41.1438 0.0000 0.0000 0.0000
# 4 0.0000 0.0000 0.0000 10.0903 0.0000 0.0000
# 5 0.0000 0.0000 0.0000 0.0000 -416.8453 0.0000
# 6 0.0000 0.0000 0.0000 0.0000 0.0000 69.9860
#
#
#
# Elastic Compliance Matrix: (Units=1/GPa)
#
#
# Indices 1 2 3 4 5 6 
#
# 1 0.011769 -0.005139 0.000165 0.000000 0.000000 0.000000
# 2 -0.005139 0.007253 0.001339 0.000000 0.000000 0.000000
# 3 0.000165 0.001339 0.024705 0.000000 0.000000 0.000000
# 4 0.000000 0.000000 0.000000 0.099105 0.000000 0.000000
# 5 0.000000 0.000000 0.000000 0.000000 -0.002399 0.000000
# 6 0.000000 0.000000 0.000000 0.000000 0.000000 0.014289
#
#
# Mechanical properties :
#
#
# Convention : Reuss Voigt Hill
#
# Bulk Modulus (GPa) = 27.43062 56.77205 42.10133
# Shear Modulus (GPa) = 28.71178 -47.59925 -9.44373
#
# Velocity S-wave (km/s) = 3.65530 -4.70644 -2.09635
# Velocity P-wave (km/s) = 5.52991 1.76491 3.70574
#
# Compressibility (1/GPa) = 0.03645562
#
# Stress axis : x y z
#
# Youngs Moduli (GPa) = 84.97217 137.86589 40.47810
#
# Poissons Ratio (x) = 0.70854 -0.00668
# Poissons Ratio (y) = 0.43670 -0.05419
# Poissons Ratio (z) = -0.01402 -0.18458
#
# Static dielectric constant tensor:
#      x y z
#    x 1.742850 0.000000 0.000000 
#    y 0.000000 1.751420 0.000000 
#    z 0.000000 0.000000 1.842440 
# 
# From -- ./inp_files/2854.got.cif
#   From: 2010.05.17/outbox.cif.g08.bks.cpg/sg55_2_cif.got.tgz:2854.got - 2010.06.03 13:27:54.
