data_PCOD9427448
_publ_section_title
;
Structure prediction by ZEFSAII (Michael W. Deem and Ramdas Pophale) SiO2 
 PCOD9427448
Probable space group: P B A M
;
_chemical_formula_sum "Si O2"
_cell_formula_units_Z 48
_cell_length_a 10.820428
_cell_length_b 25.740604
_cell_length_c 8.055506
_cell_angle_alpha 90.000000
_cell_angle_beta 90.000000
_cell_angle_gamma 90.000000
_cell_volume 2243.654591
_symmetry_space_group_name_H-M "P B A M"
_symmetry_group_IT_number 55
_symmetry_cell_setting 'orthorhombic'
loop_
_space_group_symop_operation_xyz
x,y,z
-x,-y,z
1/2+x,1/2-y,-z
1/2-x,1/2+y,-z
-x,-y,-z
x,y,-z
1/2-x,1/2+y,z
1/2+x,1/2-y,z
loop_
_atom_site_type_symbol
_atom_site_label
_atom_site_fract_x
_atom_site_fract_y
_atom_site_fract_z
Si Si1 0.469861 0.908342 0.190268
Si Si2 0.003389 0.937462 0.815114
Si Si3 0.058089 0.293286 0.305485
Si Si4 0.741126 0.889744 0.799773
Si Si5 0.704492 0.771225 0.799772
Si Si6 0.886045 0.040080 0.500000
Si Si7 0.377733 0.966519 0.500000
O O1 0.452876 0.846304 0.200809
O O2 0.613085 0.918007 0.243522
O O3 0.386415 0.933689 0.330250
O O4 0.450045 0.926013 0.000000
O O5 0.097981 0.926532 0.667114
O O6 0.869100 0.917250 0.759153
O O7 0.032050 0.916483 0.000000
O O8 0.000000 0.000000 0.831673
O O9 0.052384 0.306442 0.500000
O O10 0.935302 0.260121 0.260170
O O11 0.186104 0.264889 0.265755
O O12 0.734044 0.830288 0.740879
O O13 0.737921 0.887653 0.000000
O O14 0.705704 0.769896 0.000000
O O15 0.758082 0.009618 0.500000
O O16 0.000000 0.000000 0.500000
O O17 0.500000 0.000000 0.500000
#
# Coordination Sequence:
#
# PCOD9427448 Si02
#       7
#     8   8   8   8   8   4   4
#     4  10  22  43  68  92 129 170 210 264 325 386
#     4   9  18  35  60  86 120 159 202 256 311 370
#     4  11  21  40  63  95 130 169 215 269 322 383
#     4   8  17  35  62  93 118 160 215 255 311 386
#     4  10  20  37  61  89 125 169 215 259 319 387
#     4  10  24  42  60  91 121 159 203 251 317 373
#     4  12  28  44  66  97 127 163 221 271 314 389
#
# _framework density 21.393666
#
# number of rings (size 3 to 8) (size 9 to 14) (size 15 to 20)
#    0.000    2.167    0.833    3.000    4.667    1.000 
#    6.000    0.000    0.000    0.000    0.000    0.000 
#    0.000    0.000    0.000    0.000    0.000    0.000 
#
# Total GULP energy -267831.438203 kJ/mol
# GULP energy per Si atom -5579.821629 kJ/mol
# Density = 2.134497 g / cm^3
# Si number density = 21.393666 Si / 1000 Ang^3
#
#
#
# Elastic Constant Matrix: (Units=GPa)
#
#
# Indices 1 2 3 4 5 6 
#
# 1 133.3788 22.3318 37.9840 0.0000 0.0000 0.0000
# 2 22.3318 18.6327 7.1259 0.0000 0.0000 0.0000
# 3 37.9840 7.1259 134.9704 0.0000 0.0000 0.0000
# 4 0.0000 0.0000 0.0000 30.6737 0.0000 0.0000
# 5 0.0000 0.0000 0.0000 0.0000 -84.8369 0.0000
# 6 0.0000 0.0000 0.0000 0.0000 0.0000 34.2174
#
#
#
# Elastic Compliance Matrix: (Units=1/GPa)
#
#
# Indices 1 2 3 4 5 6 
#
# 1 0.009994 -0.011127 -0.002225 0.000000 0.000000 0.000000
# 2 -0.011127 0.067164 -0.000415 0.000000 0.000000 0.000000
# 3 -0.002225 -0.000415 0.008057 0.000000 0.000000 0.000000
# 4 0.000000 0.000000 0.000000 0.032601 0.000000 0.000000
# 5 0.000000 0.000000 0.000000 0.000000 -0.011787 0.000000
# 6 0.000000 0.000000 0.000000 0.000000 0.000000 0.029225
#
#
# Mechanical properties :
#
#
# Convention : Reuss Voigt Hill
#
# Bulk Modulus (GPa) = 17.33659 46.87392 32.10526
# Shear Modulus (GPa) = 27.47023 10.64683 19.05853
#
# Velocity S-wave (km/s) = 3.58723 2.23326 2.98795
# Velocity P-wave (km/s) = 5.02781 5.34861 5.19069
#
# Compressibility (1/GPa) = 0.05768146
#
# Stress axis : x y z
#
# Youngs Moduli (GPa) = 100.05831 14.88892 124.11379
#
# Poissons Ratio (x) = 0.16567 0.27617
# Poissons Ratio (y) = 1.11338 0.05145
# Poissons Ratio (z) = 0.22264 0.00617
#
# Static dielectric constant tensor:
#      x y z
#    x 1.777740 0.000000 0.000000 
#    y 0.000000 1.757710 0.000000 
#    z 0.000000 0.000000 1.810140 
# 
# From -- ./inp_files/2941.got.cif
#   From: 2010.05.17/outbox.cif.g08.bks.cpg/sg55_2_cif.got.tgz:2941.got - 2010.06.03 13:27:54.
