data_PCOD9427595
_publ_section_title
;
Structure prediction by ZEFSAII (Michael W. Deem and Ramdas Pophale) SiO2 
 PCOD9427595
Probable space group: P B A M
;
_chemical_formula_sum "Si O2"
_cell_formula_units_Z 56
_cell_length_a 21.645313
_cell_length_b 14.977523
_cell_length_c 8.781534
_cell_angle_alpha 90.000000
_cell_angle_beta 90.000000
_cell_angle_gamma 90.000000
_cell_volume 2846.913374
_symmetry_space_group_name_H-M "P B A M"
_symmetry_group_IT_number 55
_symmetry_cell_setting 'orthorhombic'
loop_
_space_group_symop_operation_xyz
x,y,z
-x,-y,z
1/2+x,1/2-y,-z
1/2-x,1/2+y,-z
-x,-y,-z
x,y,-z
1/2-x,1/2+y,z
1/2+x,1/2-y,z
loop_
_atom_site_type_symbol
_atom_site_label
_atom_site_fract_x
_atom_site_fract_y
_atom_site_fract_z
Si Si1 0.170086 0.434337 0.183027
Si Si2 0.739046 0.885490 0.185118
Si Si3 0.092104 0.907568 0.319134
Si Si4 0.618767 0.404635 0.816704
Si Si5 0.035165 0.410152 0.682005
Si Si6 0.788360 0.185580 0.183278
Si Si7 0.010097 0.223361 0.818345
O O1 0.198367 0.529884 0.232200
O O2 0.105588 0.414882 0.261887
O O3 0.222290 0.360081 0.213735
O O4 0.160711 0.436184 0.000000
O O5 0.810275 0.895654 0.234545
O O6 0.713054 0.789126 0.230214
O O7 0.740255 0.886203 0.000000
O O8 0.087059 0.907536 0.500000
O O9 0.157956 0.868428 0.265683
O O10 0.040129 0.844295 0.247829
O O11 0.088552 0.008069 0.256488
O O12 0.577487 0.318233 0.782337
O O13 0.618866 0.416186 0.000000
O O14 0.033131 0.405308 0.500000
O O15 0.004543 0.321603 0.750352
O O16 0.000000 0.500000 0.731694
O O17 0.798549 0.179995 0.000000
O O18 0.003674 0.227213 0.000000
#
# Coordination Sequence:
#
# PCOD9427595 Si02
#       7
#     8   8   8   8   8   8   8
#     4  10  20  38  64  92 122 159 206 258 305 361
#     4   9  18  34  62  93 118 150 199 256 305 354
#     4  12  25  39  59  92 132 167 203 252 318 380
#     4  10  20  41  67  94 123 158 206 257 309 369
#     4  11  26  45  63  89 130 170 206 256 315 376
#     4  10  20  38  63  91 123 161 210 261 308 361
#     4  11  24  42  68  93 118 162 217 264 308 364
#
# _framework density 19.670427
#
# number of rings (size 3 to 8) (size 9 to 14) (size 15 to 20)
#    0.000    1.571    1.429    3.429    2.000    6.857 
#    0.000    0.714    0.000    0.000    0.000    0.000 
#    0.000    0.000    0.000    0.000    0.000    0.000 
#
# Total GULP energy -313125.070058 kJ/mol
# GULP energy per Si atom -5591.519108 kJ/mol
# Density = 1.962566 g / cm^3
# Si number density = 19.670427 Si / 1000 Ang^3
#
#
#
# Elastic Constant Matrix: (Units=GPa)
#
#
# Indices 1 2 3 4 5 6 
#
# 1 38.1947 -8.1140 12.7628 0.0000 0.0000 0.0000
# 2 -8.1140 108.9516 20.1964 0.0000 0.0000 0.0000
# 3 12.7628 20.1964 24.2798 0.0000 0.0000 0.0000
# 4 0.0000 0.0000 0.0000 10.3001 0.0000 0.0000
# 5 0.0000 0.0000 0.0000 0.0000 1301.5503 0.0000
# 6 0.0000 0.0000 0.0000 0.0000 0.0000 24.8504
#
#
#
# Elastic Compliance Matrix: (Units=1/GPa)
#
#
# Indices 1 2 3 4 5 6 
#
# 1 0.036129 0.007343 -0.025099 0.000000 0.000000 0.000000
# 2 0.007343 0.012344 -0.014128 0.000000 0.000000 0.000000
# 3 -0.025099 -0.014128 0.066132 0.000000 0.000000 0.000000
# 4 0.000000 0.000000 0.000000 0.097087 0.000000 0.000000
# 5 0.000000 0.000000 0.000000 0.000000 0.000768 0.000000
# 6 0.000000 0.000000 0.000000 0.000000 0.000000 0.040241
#
#
# Mechanical properties :
#
#
# Convention : Reuss Voigt Hill
#
# Bulk Modulus (GPa) = 19.67096 24.56850 22.11973
# Shear Modulus (GPa) = 14.99634 277.11222 146.05428
#
# Velocity S-wave (km/s) = 2.76412 11.88206 8.62623
# Velocity P-wave (km/s) = 4.49545 14.16904 10.51120
#
# Compressibility (1/GPa) = 0.05083637
#
# Stress axis : x y z
#
# Youngs Moduli (GPa) = 27.67886 81.00970 15.12124
#
# Poissons Ratio (x) = -0.59488 0.37953
# Poissons Ratio (y) = -0.20325 0.21364
# Poissons Ratio (z) = 0.69472 1.14452
#
# Static dielectric constant tensor:
#      x y z
#    x 1.672580 0.000000 0.000000 
#    y 0.000000 1.676640 0.000000 
#    z 0.000000 0.000000 1.663300 
# 
# From -- ./inp_files/8690.got.cif
#   From: 2010.05.17/outbox.cif.g08.bks.cpg/sg55_5_cif.got.tgz:8690.got - 2010.06.03 13:27:54.
