data_PCOD9427015
_publ_section_title
;
Structure prediction by ZEFSAII (Michael W. Deem and Ramdas Pophale) SiO2 
 PCOD9427015
Probable space group: P B A M
;
_chemical_formula_sum "Si O2"
_cell_formula_units_Z 48
_cell_length_a 21.809959
_cell_length_b 12.160037
_cell_length_c 7.984644
_cell_angle_alpha 90.000000
_cell_angle_beta 90.000000
_cell_angle_gamma 90.000000
_cell_volume 2117.606704
_symmetry_space_group_name_H-M "P B A M"
_symmetry_group_IT_number 55
_symmetry_cell_setting 'orthorhombic'
loop_
_space_group_symop_operation_xyz
x,y,z
-x,-y,z
1/2+x,1/2-y,-z
1/2-x,1/2+y,-z
-x,-y,-z
x,y,-z
1/2-x,1/2+y,z
1/2+x,1/2-y,z
loop_
_atom_site_type_symbol
_atom_site_label
_atom_site_fract_x
_atom_site_fract_y
_atom_site_fract_z
Si Si1 0.278458 0.538007 0.500000
Si Si2 0.643257 0.183319 0.812599
Si Si3 0.030781 0.146741 0.191515
Si Si4 0.094543 0.771822 0.691151
Si Si5 0.769857 0.716848 0.500000
Si Si6 0.636970 0.509699 0.190388
Si Si7 0.070569 0.525728 0.296596
O O1 0.254162 0.411092 0.500000
O O2 0.241699 0.656025 0.500000
O O3 0.319368 0.538363 0.331626
O O4 0.584132 0.262195 0.801403
O O5 0.689780 0.215322 0.668360
O O6 0.616620 0.062531 0.778227
O O7 0.669030 0.191064 0.000000
O O8 0.975382 0.185021 0.304712
O O9 0.068395 0.035975 0.227436
O O10 0.007339 0.141704 0.000000
O O11 0.116642 0.774497 0.500000
O O12 0.134400 0.858906 0.792750
O O13 0.090551 0.647845 0.754001
O O14 0.651861 0.476771 0.000000
O O15 0.072802 0.519494 0.500000
O O16 0.000000 0.500000 0.247465
#
# Coordination Sequence:
#
# PCOD9427015 Si02
#       7
#     4   8   8   8   4   8   8
#     4  12  28  50  76 101 126 175 218 288 359 408
#     4  11  23  41  69  98 130 179 223 266 331 398
#     4  10  21  36  60  95 133 176 221 260 312 390
#     4  11  22  33  60 100 141 184 226 267 321 385
#     4  12  28  50  76 100 134 161 228 295 349 410
#     4  11  24  44  67  96 134 175 222 272 332 405
#     4  10  20  35  57  91 138 184 223 266 316 385
#
# _framework density 22.667097999999999
#
# number of rings (size 3 to 8) (size 9 to 14) (size 15 to 20)
#    0.000    1.167    5.000    1.000    2.333    5.667 
#    0.000    0.000    0.000    0.000    0.000    0.000 
#    0.000    0.000    0.000    0.000    0.000    0.000 
#
# Total GULP energy -268196.037467 kJ/mol
# GULP energy per Si atom -5587.417447 kJ/mol
# Density = 2.261551 g / cm^3
# Si number density = 22.667098 Si / 1000 Ang^3
#
#
#
# Elastic Constant Matrix: (Units=GPa)
#
#
# Indices 1 2 3 4 5 6 
#
# 1 29.7570 22.7017 35.0229 0.0000 0.0000 0.0000
# 2 22.7017 199.6090 32.5915 0.0000 0.0000 0.0000
# 3 35.0229 32.5915 97.4261 0.0000 0.0000 0.0000
# 4 0.0000 0.0000 0.0000 -5.3948 0.0000 0.0000
# 5 0.0000 0.0000 0.0000 0.0000 -34.8727 0.0000
# 6 0.0000 0.0000 0.0000 0.0000 0.0000 34.1277
#
#
#
# Elastic Compliance Matrix: (Units=1/GPa)
#
#
# Indices 1 2 3 4 5 6 
#
# 1 0.060506 -0.003522 -0.020572 0.000000 0.000000 0.000000
# 2 -0.003522 0.005504 -0.000575 0.000000 0.000000 0.000000
# 3 -0.020572 -0.000575 0.017852 0.000000 0.000000 0.000000
# 4 0.000000 0.000000 0.000000 -0.185365 0.000000 0.000000
# 5 0.000000 0.000000 0.000000 0.000000 -0.028676 0.000000
# 6 0.000000 0.000000 0.000000 0.000000 0.000000 0.029302
#
#
# Mechanical properties :
#
#
# Convention : Reuss Voigt Hill
#
# Bulk Modulus (GPa) = 28.96682 56.38046 42.67364
# Shear Modulus (GPa) = -124.90677 14.53711 -55.18483
#
# Velocity S-wave (km/s) = -7.43132 2.53520 -4.93950
# Velocity P-wave (km/s) = 7.79908 5.78765 3.69654
#
# Compressibility (1/GPa) = 0.03452226
#
# Stress axis : x y z
#
# Youngs Moduli (GPa) = 16.52740 181.67621 56.01631
#
# Poissons Ratio (x) = 0.63993 1.15238
# Poissons Ratio (y) = 0.05822 0.03222
# Poissons Ratio (z) = 0.34001 0.10448
#
# Static dielectric constant tensor:
#      x y z
#    x 1.839170 0.000000 0.000000 
#    y 0.000000 1.919250 0.000000 
#    z 0.000000 0.000000 1.877870 
# 
# From -- ./inp_files/9481.got.cif
#   From: 2010.05.17/outbox.cif.g08.bks.cpg/sg55_5_cif.got.tgz:9481.got - 2010.06.03 13:27:54.
