data_PCOD9427436
_publ_section_title
;
Structure prediction by ZEFSAII (Michael W. Deem and Ramdas Pophale) SiO2 
 PCOD9427436
Probable space group: P B A M
;
_chemical_formula_sum "Si O2"
_cell_formula_units_Z 40
_cell_length_a 14.364782
_cell_length_b 14.340686
_cell_length_c 9.000113
_cell_angle_alpha 90.000000
_cell_angle_beta 90.000000
_cell_angle_gamma 90.000000
_cell_volume 1854.030731
_symmetry_space_group_name_H-M "P B A M"
_symmetry_group_IT_number 55
_symmetry_cell_setting 'orthorhombic'
loop_
_space_group_symop_operation_xyz
x,y,z
-x,-y,z
1/2+x,1/2-y,-z
1/2-x,1/2+y,-z
-x,-y,-z
x,y,-z
1/2-x,1/2+y,z
1/2+x,1/2-y,z
loop_
_atom_site_type_symbol
_atom_site_label
_atom_site_fract_x
_atom_site_fract_y
_atom_site_fract_z
Si Si1 0.207751 0.273430 0.323428
Si Si2 0.498767 0.762438 0.672611
Si Si3 0.120976 0.882638 0.824227
Si Si4 0.592303 0.955100 0.324093
Si Si5 0.202906 0.052201 0.678263
O O1 0.226410 0.286561 0.500000
O O2 0.288732 0.325180 0.235542
O O3 0.200086 0.162554 0.293707
O O4 0.102100 0.305612 0.290929
O O5 0.493175 0.732965 0.500000
O O6 0.532277 0.675829 0.768274
O O7 0.574701 0.844352 0.683684
O O8 0.128959 0.985442 0.754778
O O9 0.122259 0.887487 0.000000
O O10 0.594072 0.980474 0.500000
O O11 0.694096 0.978917 0.267067
O O12 0.500000 0.000000 0.256274
O O13 0.197291 0.039874 0.500000
#
# Coordination Sequence:
#
# PCOD9427436 Si02
#       5
#     8   8   8   8   8
#     4  10  21  40  67  92 116 155 207 266 308 349
#     4  10  20  38  64  90 118 154 205 258 305 354
#     4  12  25  39  58  87 129 169 198 242 306 374
#     4   9  16  30  57  90 116 143 189 254 309 348
#     4  10  20  37  61  87 117 155 206 256 303 356
#
# _framework density 21.574615999999999
#
# number of rings (size 3 to 8) (size 9 to 14) (size 15 to 20)
#    0.000    1.800    2.000    3.000    0.000    5.600 
#    0.000    4.000    0.000    2.400    0.000    0.000 
#    0.000    0.000    0.000    0.000    0.000    0.000 
#
# Total GULP energy -223505.466287 kJ/mol
# GULP energy per Si atom -5587.636657 kJ/mol
# Density = 2.152551 g / cm^3
# Si number density = 21.574616 Si / 1000 Ang^3
#
#
#
# Elastic Constant Matrix: (Units=GPa)
#
#
# Indices 1 2 3 4 5 6 
#
# 1 46.5171 -3.0071 8.3638 0.0000 0.0000 0.0000
# 2 -3.0071 56.1051 21.6076 0.0000 0.0000 0.0000
# 3 8.3638 21.6076 49.7451 0.0000 0.0000 0.0000
# 4 0.0000 0.0000 0.0000 -6.8827 0.0000 0.0000
# 5 0.0000 0.0000 0.0000 0.0000 9.4387 0.0000
# 6 0.0000 0.0000 0.0000 0.0000 0.0000 40.3437
#
#
#
# Elastic Compliance Matrix: (Units=1/GPa)
#
#
# Indices 1 2 3 4 5 6 
#
# 1 0.022641 0.003218 -0.005205 0.000000 0.000000 0.000000
# 2 0.003218 0.021862 -0.010037 0.000000 0.000000 0.000000
# 3 -0.005205 -0.010037 0.025337 0.000000 0.000000 0.000000
# 4 0.000000 0.000000 0.000000 -0.145291 0.000000 0.000000
# 5 0.000000 0.000000 0.000000 0.000000 0.105947 0.000000
# 6 0.000000 0.000000 0.000000 0.000000 0.000000 0.024787
#
#
# Mechanical properties :
#
#
# Convention : Reuss Voigt Hill
#
# Bulk Modulus (GPa) = 21.83740 22.92178 22.37959
# Shear Modulus (GPa) = 52.85722 16.94012 34.89867
#
# Velocity S-wave (km/s) = 4.95509 2.80516 4.02628
# Velocity P-wave (km/s) = 6.54836 4.59776 5.65775
#
# Compressibility (1/GPa) = 0.04579300
#
# Stress axis : x y z
#
# Youngs Moduli (GPa) = 44.16713 45.74205 39.46751
#
# Poissons Ratio (x) = -0.14719 0.20541
# Poissons Ratio (y) = -0.14213 0.39614
# Poissons Ratio (z) = 0.22987 0.45912
#
# Static dielectric constant tensor:
#      x y z
#    x 1.828810 0.000000 0.000000 
#    y 0.000000 1.827800 0.000000 
#    z 0.000000 0.000000 1.711880 
# 
# From -- ./inp_files/5180.got.cif
#   From: 2010.05.17/outbox.cif.g08.bks.cpg/sg55_3_cif.got.tgz:5180.got - 2010.06.03 13:27:54.
