data_PCOD9427078
_publ_section_title
;
Structure prediction by ZEFSAII (Michael W. Deem and Ramdas Pophale) SiO2 
 PCOD9427078
Probable space group: P B A M
;
_chemical_formula_sum "Si O2"
_cell_formula_units_Z 64
_cell_length_a 23.218805
_cell_length_b 14.915738
_cell_length_c 7.825846
_cell_angle_alpha 90.000000
_cell_angle_beta 90.000000
_cell_angle_gamma 90.000000
_cell_volume 2710.290906
_symmetry_space_group_name_H-M "P B A M"
_symmetry_group_IT_number 55
_symmetry_cell_setting 'orthorhombic'
loop_
_space_group_symop_operation_xyz
x,y,z
-x,-y,z
1/2+x,1/2-y,-z
1/2-x,1/2+y,-z
-x,-y,-z
x,y,-z
1/2-x,1/2+y,z
1/2+x,1/2-y,z
loop_
_atom_site_type_symbol
_atom_site_label
_atom_site_fract_x
_atom_site_fract_y
_atom_site_fract_z
Si Si1 0.905455 0.451226 0.692045
Si Si2 0.914797 0.958963 0.704991
Si Si3 0.503013 0.172080 0.200795
Si Si4 0.967237 0.137469 0.706562
Si Si5 0.873277 0.642277 0.194731
Si Si6 0.812671 0.306494 0.207035
Si Si7 0.289138 0.566889 0.203323
Si Si8 0.755745 0.130362 0.210184
O O1 0.899444 0.484421 0.500000
O O2 0.968496 0.410559 0.720976
O O3 0.886330 0.535129 0.806006
O O4 0.863786 0.366645 0.722167
O O5 0.916764 0.961605 0.500000
O O6 0.855464 0.915909 0.759619
O O7 0.971015 0.904336 0.759385
O O8 0.921552 0.062416 0.764970
O O9 0.466561 0.262600 0.224538
O O10 0.567960 0.182737 0.272683
O O11 0.508269 0.153773 0.000000
O O12 0.965093 0.142927 0.500000
O O13 0.809314 0.654445 0.268218
O O14 0.869659 0.676524 0.000000
O O15 0.754568 0.357801 0.262570
O O16 0.802785 0.204231 0.261484
O O17 0.817698 0.307790 0.000000
O O18 0.271783 0.468836 0.270978
O O19 0.282115 0.562949 0.000000
O O20 0.754241 0.129624 0.000000
#
# Coordination Sequence:
#
# PCOD9427078 Si02
#       8
#     8   8   8   8   8   8   8   8
#     4  12  25  41  61  86 120 156 194 240 292 355
#     4   9  20  38  59  81 119 163 196 237 293 352
#     4  11  24  38  63  92 115 148 196 249 296 348
#     4   9  20  40  59  82 118 161 198 239 294 347
#     4  10  21  42  65  86 115 151 194 241 294 352
#     4  10  21  39  63  87 120 158 196 244 297 348
#     4  10  20  35  60  90 118 152 197 248 293 346
#     4   9  19  37  61  88 117 152 192 241 295 345
#
# _framework density 23.613700000000001
#
# number of rings (size 3 to 8) (size 9 to 14) (size 15 to 20)
#    0.000    2.000    1.250    2.625    3.500    4.000 
#    0.000    1.875    0.000    0.000    0.000    0.000 
#    0.000    0.000    0.000    0.000    0.000    0.000 
#
# Total GULP energy -357761.138204 kJ/mol
# GULP energy per Si atom -5590.017784 kJ/mol
# Density = 2.355995 g / cm^3
# Si number density = 23.613700 Si / 1000 Ang^3
#
#
#
# Elastic Constant Matrix: (Units=GPa)
#
#
# Indices 1 2 3 4 5 6 
#
# 1 41.1428 -16.1365 -3.0874 0.0000 0.0000 0.0000
# 2 -16.1365 72.4324 -0.8605 0.0000 0.0000 0.0000
# 3 -3.0874 -0.8605 37.9238 0.0000 0.0000 0.0000
# 4 0.0000 0.0000 0.0000 27.2345 0.0000 0.0000
# 5 0.0000 0.0000 0.0000 0.0000 30.0100 0.0000
# 6 0.0000 0.0000 0.0000 0.0000 0.0000 90.2611
#
#
#
# Elastic Compliance Matrix: (Units=1/GPa)
#
#
# Indices 1 2 3 4 5 6 
#
# 1 0.026835 0.006006 0.002321 0.000000 0.000000 0.000000
# 2 0.006006 0.015154 0.000833 0.000000 0.000000 0.000000
# 3 0.002321 0.000833 0.026576 0.000000 0.000000 0.000000
# 4 0.000000 0.000000 0.000000 0.036718 0.000000 0.000000
# 5 0.000000 0.000000 0.000000 0.000000 0.033322 0.000000
# 6 0.000000 0.000000 0.000000 0.000000 0.000000 0.011079
#
#
# Mechanical properties :
#
#
# Convention : Reuss Voigt Hill
#
# Bulk Modulus (GPa) = 11.50947 12.37004 11.93976
# Shear Modulus (GPa) = 31.18619 40.94000 36.06309
#
# Velocity S-wave (km/s) = 3.63806 4.16834 3.91219
# Velocity P-wave (km/s) = 4.74678 5.33072 5.04720
#
# Compressibility (1/GPa) = 0.08688496
#
# Stress axis : x y z
#
# Youngs Moduli (GPa) = 37.26434 65.98974 37.62725
#
# Poissons Ratio (x) = -0.39633 -0.08733
# Poissons Ratio (y) = -0.22381 -0.03134
# Poissons Ratio (z) = -0.08649 -0.05496
#
# Static dielectric constant tensor:
#      x y z
#    x 1.917410 0.000000 0.000000 
#    y 0.000000 1.873510 0.000000 
#    z 0.000000 0.000000 1.881320 
# 
# From -- ./inp_files/9640.got.cif
#   From: 2010.05.17/outbox.cif.g08.bks.cpg/sg55_5_cif.got.tgz:9640.got - 2010.06.03 13:27:54.
