data_PCOD9427828
_publ_section_title
;
Structure prediction by ZEFSAII (Michael W. Deem and Ramdas Pophale) SiO2 
 PCOD9427828
Probable space group: P B A M
;
_chemical_formula_sum "Si O2"
_cell_formula_units_Z 64
_cell_length_a 34.187289
_cell_length_b 11.857465
_cell_length_c 7.621503
_cell_angle_alpha 90.000000
_cell_angle_beta 90.000000
_cell_angle_gamma 90.000000
_cell_volume 3089.563599
_symmetry_space_group_name_H-M "P B A M"
_symmetry_group_IT_number 55
_symmetry_cell_setting 'orthorhombic'
loop_
_space_group_symop_operation_xyz
x,y,z
-x,-y,z
1/2+x,1/2-y,-z
1/2-x,1/2+y,-z
-x,-y,-z
x,y,-z
1/2-x,1/2+y,z
1/2+x,1/2-y,z
loop_
_atom_site_type_symbol
_atom_site_label
_atom_site_fract_x
_atom_site_fract_y
_atom_site_fract_z
Si Si1 0.943175 0.920706 0.712208
Si Si2 0.527027 0.664597 0.714652
Si Si3 0.912033 0.336125 0.296011
Si Si4 0.302198 0.536595 0.215404
Si Si5 0.634505 0.287804 0.203749
Si Si6 0.139794 0.464691 0.296910
Si Si7 0.715769 0.913661 0.204551
Si Si8 0.664804 0.704745 0.213830
O O1 0.941717 0.919909 0.500000
O O2 0.903790 0.864819 0.779008
O O3 0.981966 0.851465 0.766363
O O4 0.950395 0.049996 0.767787
O O5 0.527664 0.665756 0.500000
O O6 0.549768 0.774898 0.779287
O O7 0.920996 0.359645 0.500000
O O8 0.892859 0.450096 0.219681
O O9 0.877169 0.244385 0.283055
O O10 0.328907 0.640839 0.274232
O O11 0.257603 0.549887 0.277285
O O12 0.321720 0.418777 0.269265
O O13 0.302720 0.534800 0.000000
O O14 0.628978 0.165432 0.286146
O O15 0.642237 0.265660 0.000000
O O16 0.144016 0.496946 0.500000
O O17 0.182142 0.491804 0.216778
O O18 0.696003 0.799267 0.274518
O O19 0.722976 0.890729 0.000000
O O20 0.662762 0.708198 0.000000
#
# Coordination Sequence:
#
# PCOD9427828 Si02
#       8
#     8   8   8   8   8   8   8   8
#     4   9  17  32  54  80 108 134 168 211 259 312
#     4   8  15  30  55  81 103 134 170 208 257 317
#     4   9  17  32  53  74  98 130 170 209 252 303
#     4   9  19  32  51  76  98 129 170 207 247 303
#     4  11  22  35  52  75 105 140 176 211 255 309
#     4  10  21  36  52  72 101 136 171 212 256 301
#     4   9  18  33  54  74  95 127 166 206 248 296
#     4   9  17  30  49  74 100 124 160 207 250 296
#
# _framework density 20.7149
#
# number of rings (size 3 to 8) (size 9 to 14) (size 15 to 20)
#    0.000    2.750    0.000    2.250    1.750    0.500 
#    0.000    5.000    0.000    3.750    0.000    0.000 
#    0.000    0.000    0.000    0.000    0.000    0.000 
#
# Total GULP energy -357058.059877 kJ/mol
# GULP energy per Si atom -5579.032186 kJ/mol
# Density = 2.066775 g / cm^3
# Si number density = 20.714900 Si / 1000 Ang^3
#
#
#
# Elastic Constant Matrix: (Units=GPa)
#
#
# Indices 1 2 3 4 5 6 
#
# 1 56.1956 9.0910 -8.9251 0.0000 0.0000 0.0000
# 2 9.0910 44.2919 0.9246 0.0000 0.0000 0.0000
# 3 -8.9251 0.9246 39.3501 0.0000 0.0000 0.0000
# 4 0.0000 0.0000 0.0000 5.8031 0.0000 0.0000
# 5 0.0000 0.0000 0.0000 0.0000 15.3853 0.0000
# 6 0.0000 0.0000 0.0000 0.0000 0.0000 12.9318
#
#
#
# Elastic Compliance Matrix: (Units=1/GPa)
#
#
# Indices 1 2 3 4 5 6 
#
# 1 0.019151 -0.004023 0.004438 0.000000 0.000000 0.000000
# 2 -0.004023 0.023434 -0.001463 0.000000 0.000000 0.000000
# 3 0.004438 -0.001463 0.026454 0.000000 0.000000 0.000000
# 4 0.000000 0.000000 0.000000 0.172322 0.000000 0.000000
# 5 0.000000 0.000000 0.000000 0.000000 0.064997 0.000000
# 6 0.000000 0.000000 0.000000 0.000000 0.000000 0.077329
#
#
# Mechanical properties :
#
#
# Convention : Reuss Voigt Hill
#
# Bulk Modulus (GPa) = 14.93834 15.77982 15.35908
# Shear Modulus (GPa) = 12.25199 16.07383 14.16291
#
# Velocity S-wave (km/s) = 2.43463 2.78862 2.61761
# Velocity P-wave (km/s) = 3.88977 4.24296 4.07019
#
# Compressibility (1/GPa) = 0.06694185
#
# Stress axis : x y z
#
# Youngs Moduli (GPa) = 52.21725 42.67330 37.80157
#
# Poissons Ratio (x) = 0.17169 -0.16777
# Poissons Ratio (y) = 0.21009 0.05531
# Poissons Ratio (z) = -0.23175 0.06244
#
# Static dielectric constant tensor:
#      x y z
#    x 1.728410 0.000000 0.000000 
#    y 0.000000 1.723240 0.000000 
#    z 0.000000 0.000000 1.784300 
# 
# From -- ./inp_files/10832.got.cif
#   From: 2010.05.17/outbox.cif.g08.bks.cpg/sg55_6_cif.got.tgz:10832.got - 2010.06.03 13:27:54.
