data_PCOD9427366
_publ_section_title
;
Structure prediction by ZEFSAII (Michael W. Deem and Ramdas Pophale) SiO2 
 PCOD9427366
Probable space group: P B A M
;
_chemical_formula_sum "Si O2"
_cell_formula_units_Z 64
_cell_length_a 30.832576
_cell_length_b 11.920228
_cell_length_c 7.732833
_cell_angle_alpha 90.000000
_cell_angle_beta 90.000000
_cell_angle_gamma 90.000000
_cell_volume 2842.058442
_symmetry_space_group_name_H-M "P B A M"
_symmetry_group_IT_number 55
_symmetry_cell_setting 'orthorhombic'
loop_
_space_group_symop_operation_xyz
x,y,z
-x,-y,z
1/2+x,1/2-y,-z
1/2-x,1/2+y,-z
-x,-y,-z
x,y,-z
1/2-x,1/2+y,z
1/2+x,1/2-y,z
loop_
_atom_site_type_symbol
_atom_site_label
_atom_site_fract_x
_atom_site_fract_y
_atom_site_fract_z
Si Si1 0.814995 0.779805 0.301216
Si Si2 0.639840 0.679763 0.787682
Si Si3 0.831924 0.531176 0.709106
Si Si4 0.391314 0.560961 0.201217
Si Si5 0.279471 0.185911 0.800616
Si Si6 0.030697 0.207830 0.799295
Si Si7 0.054886 0.691630 0.790819
Si Si8 0.931896 0.554971 0.703970
O O1 0.829683 0.776106 0.500000
O O2 0.813322 0.651830 0.238800
O O3 0.851121 0.853286 0.208000
O O4 0.766536 0.826202 0.290375
O O5 0.624955 0.557423 0.725923
O O6 0.687228 0.720377 0.729359
O O7 0.602303 0.767026 0.734601
O O8 0.641478 0.680448 0.000000
O O9 0.829355 0.519466 0.500000
O O10 0.806132 0.429070 0.789743
O O11 0.882306 0.533840 0.759382
O O12 0.433947 0.622098 0.276982
O O13 0.401207 0.538037 0.000000
O O14 0.269824 0.212430 0.000000
O O15 0.050295 0.333726 0.793099
O O16 0.982518 0.224228 0.725241
O O17 0.025078 0.175947 0.000000
O O18 0.045401 0.564356 0.735708
O O19 0.054242 0.693435 0.000000
O O20 0.932589 0.578915 0.500000
#
# Coordination Sequence:
#
# PCOD9427366 Si02
#       8
#     8   8   8   8   8   8   8   8
#     4  11  24  42  61  86 119 155 192 239 291 346
#     4   9  20  38  59  84 116 149 189 238 287 338
#     4  10  22  40  61  86 117 154 194 238 289 344
#     4  10  21  39  60  86 116 152 196 240 287 344
#     4  11  23  39  62  90 117 151 192 241 291 344
#     4  10  21  35  58  87 117 152 193 239 289 345
#     4  10  20  37  58  85 117 152 192 237 291 347
#     4  11  21  36  58  85 118 152 192 239 288 344
#
# _framework density 22.518889000000001
#
# number of rings (size 3 to 8) (size 9 to 14) (size 15 to 20)
#    0.000    1.750    2.500    1.500    1.750    4.000 
#    0.000    3.750    0.000    0.000    0.000    2.625 
#    0.000    0.000    0.000    0.000    0.000    0.000 
#
# Total GULP energy -357625.075768 kJ/mol
# GULP energy per Si atom -5587.891809 kJ/mol
# Density = 2.246764 g / cm^3
# Si number density = 22.518889 Si / 1000 Ang^3
#
#
#
# Elastic Constant Matrix: (Units=GPa)
#
#
# Indices 1 2 3 4 5 6 
#
# 1 50.6533 -33.1241 -6.5874 0.0000 0.0000 0.0000
# 2 -33.1241 39.6582 -7.9575 0.0000 0.0000 0.0000
# 3 -6.5874 -7.9575 37.1943 0.0000 0.0000 0.0000
# 4 0.0000 0.0000 0.0000 -1.5632 0.0000 0.0000
# 5 0.0000 0.0000 0.0000 0.0000 2.1830 0.0000
# 6 0.0000 0.0000 0.0000 0.0000 0.0000 23.9336
#
#
#
# Elastic Compliance Matrix: (Units=1/GPa)
#
#
# Indices 1 2 3 4 5 6 
#
# 1 0.055350 0.050359 0.020577 0.000000 0.000000 0.000000
# 2 0.050359 0.072165 0.024358 0.000000 0.000000 0.000000
# 3 0.020577 0.024358 0.035741 0.000000 0.000000 0.000000
# 4 0.000000 0.000000 0.000000 -0.639700 0.000000 0.000000
# 5 0.000000 0.000000 0.000000 0.000000 0.458091 0.000000
# 6 0.000000 0.000000 0.000000 0.000000 0.000000 0.041782
#
#
# Mechanical properties :
#
#
# Convention : Reuss Voigt Hill
#
# Bulk Modulus (GPa) = 2.82610 3.57420 3.20015
# Shear Modulus (GPa) = -101.60416 16.58900 -42.50758
#
# Velocity S-wave (km/s) = -6.72439 2.71711 -4.34941
# Velocity P-wave (km/s) = 7.68324 3.38146 4.87842
#
# Compressibility (1/GPa) = 0.35384434
#
# Stress axis : x y z
#
# Youngs Moduli (GPa) = 18.06694 13.85716 27.97873
#
# Poissons Ratio (x) = -0.69783 -0.57572
# Poissons Ratio (y) = -0.90983 -0.68151
# Poissons Ratio (z) = -0.37176 -0.33754
#
# Static dielectric constant tensor:
#      x y z
#    x 1.836630 0.000000 0.000000 
#    y 0.000000 1.819200 0.000000 
#    z 0.000000 0.000000 1.849280 
# 
# From -- ./inp_files/4536.got.cif
#   From: 2010.05.17/outbox.cif.g08.bks.cpg/sg55_3_cif.got.tgz:4536.got - 2010.06.03 13:27:54.
