data_PCOD9427915
_publ_section_title
;
Structure prediction by ZEFSAII (Michael W. Deem and Ramdas Pophale) SiO2 
 PCOD9427915
Probable space group: P B A M
;
_chemical_formula_sum "Si O2"
_cell_formula_units_Z 56
_cell_length_a 30.709895
_cell_length_b 5.488406
_cell_length_c 13.252919
_cell_angle_alpha 90.000000
_cell_angle_beta 90.000000
_cell_angle_gamma 90.000000
_cell_volume 2233.757921
_symmetry_space_group_name_H-M "P B A M"
_symmetry_group_IT_number 55
_symmetry_cell_setting 'orthorhombic'
loop_
_space_group_symop_operation_xyz
x,y,z
-x,-y,z
1/2+x,1/2-y,-z
1/2-x,1/2+y,-z
-x,-y,-z
x,y,-z
1/2-x,1/2+y,z
1/2+x,1/2-y,z
loop_
_atom_site_type_symbol
_atom_site_label
_atom_site_fract_x
_atom_site_fract_y
_atom_site_fract_z
Si Si1 0.731208 0.523395 0.326686
Si Si2 0.639617 0.473214 0.614711
Si Si3 0.851391 0.374928 0.889369
Si Si4 0.987771 0.759210 0.815656
Si Si5 0.452214 0.246992 0.387109
Si Si6 0.704286 0.379141 0.112035
Si Si7 0.903134 0.603115 0.270639
O O1 0.759959 0.748572 0.367140
O O2 0.682143 0.616519 0.349856
O O3 0.734092 0.453815 0.207119
O O4 0.647078 0.402723 0.500000
O O5 0.591201 0.587289 0.618664
O O6 0.637527 0.246865 0.688817
O O7 0.820596 0.617759 0.878590
O O8 0.886547 0.388962 0.800613
O O9 0.828150 0.113195 0.888314
O O10 0.872017 0.402883 0.000000
O O11 0.936721 0.759104 0.793755
O O12 0.000000 0.500000 0.860698
O O13 0.015253 0.769975 0.708108
O O14 0.000000 0.000000 0.873661
O O15 0.471028 0.266956 0.500000
O O16 0.430596 0.984493 0.367043
O O17 0.725508 0.375278 0.000000
#
# Coordination Sequence:
#
# PCOD9427915 Si02
#       7
#     8   8   8   8   8   8   8
#     4  12  27  44  65  92 128 167 205 260 316 376
#     4  11  24  41  64  90 120 170 220 261 311 378
#     4  10  21  37  66  97 128 165 209 257 311 380
#     4  10  21  36  57  92 126 167 201 260 319 367
#     4  10  22  38  61  92 127 166 214 268 320 372
#     4  10  21  41  67  98 127 159 204 260 321 380
#     4  11  21  37  65  89 131 165 215 254 321 379
#
# _framework density 25.069861
#
# number of rings (size 3 to 8) (size 9 to 14) (size 15 to 20)
#    0.000    1.429    2.857    2.143    2.000    4.571 
#    0.000    0.000    0.000    4.286    0.000    0.000 
#    0.000    0.000    0.000    0.000    0.000    0.000 
#
# Total GULP energy -312484.446615 kJ/mol
# GULP energy per Si atom -5580.079404 kJ/mol
# Density = 2.501280 g / cm^3
# Si number density = 25.069861 Si / 1000 Ang^3
#
#
#
# Elastic Constant Matrix: (Units=GPa)
#
#
# Indices 1 2 3 4 5 6 
#
# 1 70.3115 16.7808 6.5951 0.0000 0.0000 0.0000
# 2 16.7808 136.3693 -2.4804 0.0000 0.0000 0.0000
# 3 6.5951 -2.4804 72.3633 0.0000 0.0000 0.0000
# 4 0.0000 0.0000 0.0000 12.0502 0.0000 0.0000
# 5 0.0000 0.0000 0.0000 0.0000 7.4465 0.0000
# 6 0.0000 0.0000 0.0000 0.0000 0.0000 44.3696
#
#
#
# Elastic Compliance Matrix: (Units=1/GPa)
#
#
# Indices 1 2 3 4 5 6 
#
# 1 0.014796 -0.001846 -0.001412 0.000000 0.000000 0.000000
# 2 -0.001846 0.007568 0.000428 0.000000 0.000000 0.000000
# 3 -0.001412 0.000428 0.013962 0.000000 0.000000 0.000000
# 4 0.000000 0.000000 0.000000 0.082986 0.000000 0.000000
# 5 0.000000 0.000000 0.000000 0.000000 0.134292 0.000000
# 6 0.000000 0.000000 0.000000 0.000000 0.000000 0.022538
#
#
# Mechanical properties :
#
#
# Convention : Reuss Voigt Hill
#
# Bulk Modulus (GPa) = 32.61021 35.64834 34.12928
# Shear Modulus (GPa) = 17.12184 29.98316 23.55250
#
# Velocity S-wave (km/s) = 2.61620 3.46205 3.06841
# Velocity P-wave (km/s) = 4.70765 5.49832 5.11828
#
# Compressibility (1/GPa) = 0.03066524
#
# Stress axis : x y z
#
# Youngs Moduli (GPa) = 67.58811 132.13522 71.62049
#
# Poissons Ratio (x) = 0.24396 0.10111
# Poissons Ratio (y) = 0.12479 -0.03063
# Poissons Ratio (z) = 0.09542 -0.05651
#
# Static dielectric constant tensor:
#      x y z
#    x 2.018820 0.000000 0.000000 
#    y 0.000000 2.108190 0.000000 
#    z 0.000000 0.000000 1.969420 
# 
# From -- ./inp_files/16751.got.cif
#   From: 2010.05.17/outbox.cif.g08.bks.cpg/sg55_9_cif.got.tgz:16751.got - 2010.06.03 13:27:54.
