data_PCOD9427255
_publ_section_title
;
Structure prediction by ZEFSAII (Michael W. Deem and Ramdas Pophale) SiO2 
 PCOD9427255
Probable space group: P B A M
;
_chemical_formula_sum "Si O2"
_cell_formula_units_Z 48
_cell_length_a 28.134855
_cell_length_b 7.130278
_cell_length_c 10.746341
_cell_angle_alpha 90.000000
_cell_angle_beta 90.000000
_cell_angle_gamma 90.000000
_cell_volume 2155.816350
_symmetry_space_group_name_H-M "P B A M"
_symmetry_group_IT_number 55
_symmetry_cell_setting 'orthorhombic'
loop_
_space_group_symop_operation_xyz
x,y,z
-x,-y,z
1/2+x,1/2-y,-z
1/2-x,1/2+y,-z
-x,-y,-z
x,y,-z
1/2-x,1/2+y,z
1/2+x,1/2-y,z
loop_
_atom_site_type_symbol
_atom_site_label
_atom_site_fract_x
_atom_site_fract_y
_atom_site_fract_z
Si Si1 0.637511 0.024767 0.362446
Si Si2 0.685553 0.527795 0.860725
Si Si3 0.103503 0.077166 0.290219
Si Si4 0.478185 0.708137 0.863933
Si Si5 0.705473 0.087410 0.141133
Si Si6 0.044015 0.728747 0.637792
O O1 0.656711 0.974008 0.500000
O O2 0.624931 0.247258 0.362928
O O3 0.674008 0.993186 0.248524
O O4 0.588279 0.912307 0.346457
O O5 0.644595 0.558779 0.761203
O O6 0.738495 0.592955 0.828316
O O7 0.689095 0.302018 0.864855
O O8 0.673134 0.593189 0.000000
O O9 0.076072 0.175925 0.175362
O O10 0.065551 0.940446 0.354706
O O11 0.500000 0.500000 0.873779
O O12 0.506950 0.795326 0.749302
O O13 0.482281 0.796963 0.000000
O O14 0.701426 0.008216 0.000000
O O15 0.023059 0.702874 0.500000
#
# Coordination Sequence:
#
# PCOD9427255 Si02
#       6
#     8   8   8   8   8   8
#     4  10  22  39  56  81 114 146 186 231 275 328
#     4   9  18  33  55  82 110 142 182 227 279 331
#     4  10  20  36  60  81 112 148 185 227 280 329
#     4   9  19  36  58  87 116 145 185 232 278 327
#     4   9  19  35  55  81 110 142 184 229 276 331
#     4  10  22  38  58  83 112 150 189 226 274 332
#
# _framework density 22.265346999999998
#
# number of rings (size 3 to 8) (size 9 to 14) (size 15 to 20)
#    0.000    2.500    0.000    1.000    2.333    6.333 
#    0.000    6.667    0.000    0.000    0.000    0.000 
#    0.000    0.000    0.000    0.000    0.000    0.000 
#
# Total GULP energy -268002.643140 kJ/mol
# GULP energy per Si atom -5583.388399 kJ/mol
# Density = 2.221467 g / cm^3
# Si number density = 22.265347 Si / 1000 Ang^3
#
#
#
# Elastic Constant Matrix: (Units=GPa)
#
#
# Indices 1 2 3 4 5 6 
#
# 1 85.1865 3.8355 67.5587 0.0000 0.0000 0.0000
# 2 3.8355 63.2964 11.6671 0.0000 0.0000 0.0000
# 3 67.5587 11.6671 154.0441 0.0000 0.0000 0.0000
# 4 0.0000 0.0000 0.0000 -22.8163 0.0000 0.0000
# 5 0.0000 0.0000 0.0000 0.0000 7.5072 0.0000
# 6 0.0000 0.0000 0.0000 0.0000 0.0000 32.7021
#
#
#
# Elastic Compliance Matrix: (Units=1/GPa)
#
#
# Indices 1 2 3 4 5 6 
#
# 1 0.018008 0.000370 -0.007926 0.000000 0.000000 0.000000
# 2 0.000370 0.016030 -0.001376 0.000000 0.000000 0.000000
# 3 -0.007926 -0.001376 0.010072 0.000000 0.000000 0.000000
# 4 0.000000 0.000000 0.000000 -0.043828 0.000000 0.000000
# 5 0.000000 0.000000 0.000000 0.000000 0.133205 0.000000
# 6 0.000000 0.000000 0.000000 0.000000 0.000000 0.030579
#
#
# Mechanical properties :
#
#
# Convention : Reuss Voigt Hill
#
# Bulk Modulus (GPa) = 38.10212 52.07219 45.08716
# Shear Modulus (GPa) = 26.22218 18.10965 22.16591
#
# Velocity S-wave (km/s) = 3.43550 2.85503 3.15863
# Velocity P-wave (km/s) = 5.73470 5.85715 5.79625
#
# Compressibility (1/GPa) = 0.02624526
#
# Stress axis : x y z
#
# Youngs Moduli (GPa) = 55.53111 62.38320 99.28679
#
# Poissons Ratio (x) = -0.02306 0.78692
# Poissons Ratio (y) = -0.02053 0.13664
# Poissons Ratio (z) = 0.44012 0.08585
#
# Static dielectric constant tensor:
#      x y z
#    x 1.814620 0.000000 0.000000 
#    y 0.000000 1.841680 0.000000 
#    z 0.000000 0.000000 1.847100 
# 
# From -- ./inp_files/15606.got.cif
#   From: 2010.05.17/outbox.cif.g08.bks.cpg/sg55_8_cif.got.tgz:15606.got - 2010.06.03 13:27:54.
