data_PCOD9427286
_publ_section_title
;
Structure prediction by ZEFSAII (Michael W. Deem and Ramdas Pophale) SiO2 
 PCOD9427286
Probable space group: P B A M
;
_chemical_formula_sum "Si O2"
_cell_formula_units_Z 58
_cell_length_a 15.393241
_cell_length_b 24.408345
_cell_length_c 8.741716
_cell_angle_alpha 90.000000
_cell_angle_beta 90.000000
_cell_angle_gamma 90.000000
_cell_volume 3284.468455
_symmetry_space_group_name_H-M "P B A M"
_symmetry_group_IT_number 55
_symmetry_cell_setting 'orthorhombic'
loop_
_space_group_symop_operation_xyz
x,y,z
-x,-y,z
1/2+x,1/2-y,-z
1/2-x,1/2+y,-z
-x,-y,-z
x,y,-z
1/2-x,1/2+y,z
1/2+x,1/2-y,z
loop_
_atom_site_type_symbol
_atom_site_label
_atom_site_fract_x
_atom_site_fract_y
_atom_site_fract_z
Si Si1 0.500000 0.500000 0.500000
Si Si2 0.594439 0.297330 0.814866
Si Si3 0.764268 0.885495 0.183134
Si Si4 0.898477 0.326534 0.682052
Si Si5 0.911639 0.672144 0.815119
Si Si6 0.238383 0.888674 0.815355
Si Si7 0.680604 0.497769 0.331809
Si Si8 0.395956 0.293551 0.184988
O O1 0.577891 0.499121 0.368933
O O2 0.663505 0.341611 0.759697
O O3 0.614122 0.234585 0.770814
O O4 0.494755 0.308887 0.769420
O O5 0.596607 0.299110 0.000000
O O6 0.672590 0.868164 0.253662
O O7 0.793790 0.945647 0.231940
O O8 0.758828 0.881585 0.000000
O O9 0.897872 0.325994 0.500000
O O10 0.876139 0.265682 0.744898
O O11 0.995018 0.339564 0.742938
O O12 0.834879 0.631092 0.771943
O O13 0.920482 0.671738 0.000000
O O14 0.171236 0.840558 0.770265
O O15 0.210668 0.945694 0.742769
O O16 0.235319 0.892809 0.000000
O O17 0.723042 0.491706 0.500000
O O18 0.393539 0.287927 0.000000
#
# Coordination Sequence:
#
# PCOD9427286 Si02
#       8
#     2   8   8   8   8   8   8   8
#     4   8  24  44  58  76 122 168 178 224 280 338
#     4   8  16  30  54  84 110 141 181 228 280 330
#     4  11  21  37  61  84 110 148 197 244 282 328
#     4  11  22  36  54  83 117 152 188 229 286 348
#     4   9  18  36  58  82 114 146 185 237 287 333
#     4  10  20  36  61  87 111 146 196 244 281 329
#     4  10  23  40  57  81 117 152 187 222 281 336
#     4   9  18  34  56  83 115 148 187 232 282 337
#
# _framework density 17.658871000000001
#
# number of rings (size 3 to 8) (size 9 to 14) (size 15 to 20)
#    0.414    1.931    0.000    3.724    1.931    3.310 
#    0.000    9.655    0.000    4.138    0.000    0.000 
#    0.000    0.000    0.000    0.000    0.000    0.000 
#
# Total GULP energy -322958.812971 kJ/mol
# GULP energy per Si atom -5568.255396 kJ/mol
# Density = 1.761868 g / cm^3
# Si number density = 17.658871 Si / 1000 Ang^3
#
#
#
# Elastic Constant Matrix: (Units=GPa)
#
#
# Indices 1 2 3 4 5 6 
#
# 1 129.0061 99.2627 45.0810 0.0000 0.0000 0.0000
# 2 99.2627 112.3842 39.7443 0.0000 0.0000 0.0000
# 3 45.0810 39.7443 50.0307 0.0000 0.0000 0.0000
# 4 0.0000 0.0000 0.0000 1.2127 0.0000 0.0000
# 5 0.0000 0.0000 0.0000 0.0000 21.7268 0.0000
# 6 0.0000 0.0000 0.0000 0.0000 0.0000 6.9350
#
#
#
# Elastic Compliance Matrix: (Units=1/GPa)
#
#
# Indices 1 2 3 4 5 6 
#
# 1 0.025930 -0.020359 -0.007191 0.000000 0.000000 0.000000
# 2 -0.020359 0.028360 -0.004184 0.000000 0.000000 0.000000
# 3 -0.007191 -0.004184 0.029791 0.000000 0.000000 0.000000
# 4 0.000000 0.000000 0.000000 0.824622 0.000000 0.000000
# 5 0.000000 0.000000 0.000000 0.000000 0.046026 0.000000
# 6 0.000000 0.000000 0.000000 0.000000 0.000000 0.144197
#
#
# Mechanical properties :
#
#
# Convention : Reuss Voigt Hill
#
# Bulk Modulus (GPa) = 48.51521 73.28855 60.90188
# Shear Modulus (GPa) = 4.27619 13.13043 8.70331
#
# Velocity S-wave (km/s) = 1.55782 2.72979 2.22245
# Velocity P-wave (km/s) = 5.54698 7.17831 6.41471
#
# Compressibility (1/GPa) = 0.02061209
#
# Stress axis : x y z
#
# Youngs Moduli (GPa) = 38.56603 35.26129 33.56699
#
# Poissons Ratio (x) = 0.71789 0.24138
# Poissons Ratio (y) = 0.78517 0.14045
# Poissons Ratio (z) = 0.27733 0.14754
#
# Static dielectric constant tensor:
#      x y z
#    x 1.597230 0.000000 0.000000 
#    y 0.000000 1.579670 0.000000 
#    z 0.000000 0.000000 1.600810 
# 
# From -- ./inp_files/6473.got.cif
#   From: 2010.05.17/outbox.cif.g08.bks.cpg/sg55_4_cif.got.tgz:6473.got - 2010.06.03 13:27:54.
