data_PCOD9427763
_publ_section_title
;
Structure prediction by ZEFSAII (Michael W. Deem and Ramdas Pophale) SiO2 
 PCOD9427763
Probable space group: P B A M
;
_chemical_formula_sum "Si O2"
_cell_formula_units_Z 34
_cell_length_a 4.819323
_cell_length_b 24.507652
_cell_length_c 13.681206
_cell_angle_alpha 90.000000
_cell_angle_beta 90.000000
_cell_angle_gamma 90.000000
_cell_volume 1615.891221
_symmetry_space_group_name_H-M "P B A M"
_symmetry_group_IT_number 55
_symmetry_cell_setting 'orthorhombic'
loop_
_space_group_symop_operation_xyz
x,y,z
-x,-y,z
1/2+x,1/2-y,-z
1/2-x,1/2+y,-z
-x,-y,-z
x,y,-z
1/2-x,1/2+y,z
1/2+x,1/2-y,z
loop_
_atom_site_type_symbol
_atom_site_label
_atom_site_fract_x
_atom_site_fract_y
_atom_site_fract_z
Si Si1 0.059703 0.214565 0.614756
Si Si2 0.178982 0.449579 0.309693
Si Si3 0.355420 0.212136 0.116531
Si Si4 0.164656 0.118575 0.258712
Si Si5 0.000000 0.000000 0.500000
O O1 0.029902 0.204685 0.500000
O O2 0.367470 0.234287 0.638597
O O3 0.000591 0.160151 0.671318
O O4 0.434407 0.428240 0.243558
O O5 0.313655 0.469077 0.412507
O O6 0.000000 0.500000 0.268267
O O7 0.933950 0.404536 0.315143
O O8 0.654764 0.236733 0.141054
O O9 0.268951 0.156688 0.170457
O O10 0.337548 0.203513 0.000000
#
# Coordination Sequence:
#
# PCOD9427763 Si02
#       5
#     8   8   8   8   2
#     4  10  21  35  49  79 119 154 193 238 295 377
#     4  12  26  42  62  89 123 162 220 278 314 373
#     4  10  21  40  68 102 136 166 207 263 319 389
#     4  12  23  38  66  90 121 170 212 260 321 383
#     4  12  26  48  62  88 124 164 226 280 322 368
#
# _framework density 21.041022000000002
#
# number of rings (size 3 to 8) (size 9 to 14) (size 15 to 20)
#    0.000    0.941    2.353    4.588    3.294    0.000 
#    0.000    0.000    0.000    4.235    0.000    0.000 
#    0.000    0.000    0.000    0.000    0.000    0.000 
#
# Total GULP energy -189269.317110 kJ/mol
# GULP energy per Si atom -5566.744621 kJ/mol
# Density = 2.099313 g / cm^3
# Si number density = 21.041022 Si / 1000 Ang^3
#
#
#
# Elastic Constant Matrix: (Units=GPa)
#
#
# Indices 1 2 3 4 5 6 
#
# 1 75.1055 26.7998 12.3507 0.0000 0.0000 0.0000
# 2 26.7998 91.3708 33.4158 0.0000 0.0000 0.0000
# 3 12.3507 33.4158 68.3414 0.0000 0.0000 0.0000
# 4 0.0000 0.0000 0.0000 18.8577 0.0000 0.0000
# 5 0.0000 0.0000 0.0000 0.0000 21.0188 0.0000
# 6 0.0000 0.0000 0.0000 0.0000 0.0000 19.8628
#
#
#
# Elastic Compliance Matrix: (Units=1/GPa)
#
#
# Indices 1 2 3 4 5 6 
#
# 1 0.014897 -0.004122 -0.000677 0.000000 0.000000 0.000000
# 2 -0.004122 0.014468 -0.006329 0.000000 0.000000 0.000000
# 3 -0.000677 -0.006329 0.017849 0.000000 0.000000 0.000000
# 4 0.000000 0.000000 0.000000 0.053029 0.000000 0.000000
# 5 0.000000 0.000000 0.000000 0.000000 0.047576 0.000000
# 6 0.000000 0.000000 0.000000 0.000000 0.000000 0.050345
#
#
# Mechanical properties :
#
#
# Convention : Reuss Voigt Hill
#
# Bulk Modulus (GPa) = 40.06662 42.21670 41.14166
# Shear Modulus (GPa) = 21.85888 22.76463 22.31176
#
# Velocity S-wave (km/s) = 3.22665 3.29282 3.25990
# Velocity P-wave (km/s) = 5.74153 5.87915 5.81075
#
# Compressibility (1/GPa) = 0.02495843
#
# Stress axis : x y z
#
# Youngs Moduli (GPa) = 67.12905 69.11743 56.02403
#
# Poissons Ratio (x) = 0.28489 0.03792
# Poissons Ratio (y) = 0.27669 0.35460
# Poissons Ratio (z) = 0.04543 0.43747
#
# Static dielectric constant tensor:
#      x y z
#    x 1.793530 0.000000 0.000000 
#    y 0.000000 1.955080 0.000000 
#    z 0.000000 0.000000 1.747460 
# 
# From -- ./inp_files/16492.got.cif
#   From: 2010.05.17/outbox.cif.g08.bks.cpg/sg55_9_cif.got.tgz:16492.got - 2010.06.03 13:27:54.
