data_PCOD9427736
_publ_section_title
;
Structure prediction by ZEFSAII (Michael W. Deem and Ramdas Pophale) SiO2 
 PCOD9427736
Probable space group: P B A M
;
_chemical_formula_sum "Si O2"
_cell_formula_units_Z 40
_cell_length_a 28.487842
_cell_length_b 5.009323
_cell_length_c 13.358223
_cell_angle_alpha 90.000000
_cell_angle_beta 90.000000
_cell_angle_gamma 90.000000
_cell_volume 1906.282570
_symmetry_space_group_name_H-M "P B A M"
_symmetry_group_IT_number 55
_symmetry_cell_setting 'orthorhombic'
loop_
_space_group_symop_operation_xyz
x,y,z
-x,-y,z
1/2+x,1/2-y,-z
1/2-x,1/2+y,-z
-x,-y,-z
x,y,-z
1/2-x,1/2+y,z
1/2+x,1/2-y,z
loop_
_atom_site_type_symbol
_atom_site_label
_atom_site_fract_x
_atom_site_fract_y
_atom_site_fract_z
Si Si1 0.719007 0.439601 0.617597
Si Si2 0.049313 0.535895 0.231646
Si Si3 0.781999 0.323904 0.117550
Si Si4 0.353249 0.826981 0.236161
Si Si5 0.575097 0.444687 0.885683
O O1 0.707347 0.416541 0.500000
O O2 0.737504 0.737210 0.636504
O O3 0.676776 0.336646 0.684854
O O4 0.098086 0.442426 0.282061
O O5 0.046963 0.326389 0.138600
O O6 0.000000 0.500000 0.287253
O O7 0.057376 0.828225 0.188597
O O8 0.738553 0.529924 0.135382
O O9 0.823591 0.437051 0.185356
O O10 0.794814 0.345848 0.000000
O O11 0.372180 0.637021 0.146685
O O12 0.571950 0.525611 0.000000
#
# Coordination Sequence:
#
# PCOD9427736 Si02
#       5
#     8   8   8   8   8
#     4  10  22  39  62  89 114 141 182 231 283 345
#     4  10  23  37  54  80 111 153 193 237 276 322
#     4  10  21  33  47  71 104 141 177 213 259 324
#     4  10  23  35  58  79 111 146 183 230 282 330
#     4  10  22  35  53  79 110 149 190 228 272 324
#
# _framework density 20.983246999999999
#
# number of rings (size 3 to 8) (size 9 to 14) (size 15 to 20)
#    1.200    0.800    0.000    3.000    5.600    2.400 
#    0.000    0.000    0.000    0.600    0.000    1.400 
#    0.000    0.000    0.000    0.000    0.000    0.000 
#
# Total GULP energy -223386.641364 kJ/mol
# GULP energy per Si atom -5584.666034 kJ/mol
# Density = 2.093549 g / cm^3
# Si number density = 20.983247 Si / 1000 Ang^3
#
#
#
# Elastic Constant Matrix: (Units=GPa)
#
#
# Indices 1 2 3 4 5 6 
#
# 1 123.0070 4.7194 21.3184 0.0000 0.0000 0.0000
# 2 4.7194 92.2846 1.4245 0.0000 0.0000 0.0000
# 3 21.3184 1.4245 39.8399 0.0000 0.0000 0.0000
# 4 0.0000 0.0000 0.0000 20.2102 0.0000 0.0000
# 5 0.0000 0.0000 0.0000 0.0000 11.9967 0.0000
# 6 0.0000 0.0000 0.0000 0.0000 0.0000 23.5651
#
#
#
# Elastic Compliance Matrix: (Units=1/GPa)
#
#
# Indices 1 2 3 4 5 6 
#
# 1 0.008974 -0.000385 -0.004788 0.000000 0.000000 0.000000
# 2 -0.000385 0.010859 -0.000182 0.000000 0.000000 0.000000
# 3 -0.004788 -0.000182 0.027669 0.000000 0.000000 0.000000
# 4 0.000000 0.000000 0.000000 0.049480 0.000000 0.000000
# 5 0.000000 0.000000 0.000000 0.000000 0.083356 0.000000
# 6 0.000000 0.000000 0.000000 0.000000 0.000000 0.042436
#
#
# Mechanical properties :
#
#
# Convention : Reuss Voigt Hill
#
# Bulk Modulus (GPa) = 27.18071 34.45068 30.81569
# Shear Modulus (GPa) = 20.34599 26.33235 23.33917
#
# Velocity S-wave (km/s) = 3.11727 3.54633 3.33870
# Velocity P-wave (km/s) = 5.09295 5.76389 5.43878
#
# Compressibility (1/GPa) = 0.03679080
#
# Stress axis : x y z
#
# Youngs Moduli (GPa) = 111.42974 92.09339 36.14117
#
# Poissons Ratio (x) = 0.03546 0.17306
# Poissons Ratio (y) = 0.04290 0.00659
# Poissons Ratio (z) = 0.53357 0.01678
#
# Static dielectric constant tensor:
#      x y z
#    x 1.847690 0.000000 0.000000 
#    y 0.000000 1.766440 0.000000 
#    z 0.000000 0.000000 1.734030 
# 
# From -- ./inp_files/16552.got.cif
#   From: 2010.05.17/outbox.cif.g08.bks.cpg/sg55_9_cif.got.tgz:16552.got - 2010.06.03 13:27:54.
