data_PCOD9427772
_publ_section_title
;
Structure prediction by ZEFSAII (Michael W. Deem and Ramdas Pophale) SiO2 
 PCOD9427772
Probable space group: P B A M
;
_chemical_formula_sum "Si O2"
_cell_formula_units_Z 64
_cell_length_a 25.072105
_cell_length_b 9.045902
_cell_length_c 14.326876
_cell_angle_alpha 90.000000
_cell_angle_beta 90.000000
_cell_angle_gamma 90.000000
_cell_volume 3249.332680
_symmetry_space_group_name_H-M "P B A M"
_symmetry_group_IT_number 55
_symmetry_cell_setting 'orthorhombic'
loop_
_space_group_symop_operation_xyz
x,y,z
-x,-y,z
1/2+x,1/2-y,-z
1/2-x,1/2+y,-z
-x,-y,-z
x,y,-z
1/2-x,1/2+y,z
1/2+x,1/2-y,z
loop_
_atom_site_type_symbol
_atom_site_label
_atom_site_fract_x
_atom_site_fract_y
_atom_site_fract_z
Si Si1 0.793610 0.338631 0.112107
Si Si2 0.181767 0.005185 0.111564
Si Si3 0.557726 0.922532 0.604872
Si Si4 0.890104 0.856281 0.256627
Si Si5 0.648423 0.027660 0.740498
Si Si6 0.824809 0.035633 0.606348
Si Si7 0.222359 0.645885 0.607237
Si Si8 0.015523 0.168009 0.604787
O O1 0.804453 0.166239 0.136069
O O2 0.733933 0.395907 0.138641
O O3 0.836072 0.444200 0.164044
O O4 0.797712 0.353193 0.000000
O O5 0.127740 0.066108 0.159445
O O6 0.176838 0.012976 0.000000
O O7 0.579622 0.949913 0.500000
O O8 0.595813 0.969377 0.687653
O O9 0.540036 0.754364 0.613519
O O10 0.500000 0.000000 0.610397
O O11 0.857692 0.702473 0.252413
O O12 0.946152 0.808885 0.305507
O O13 0.870998 0.983171 0.327517
O O14 0.694319 0.973936 0.671092
O O15 0.842691 0.053512 0.500000
O O16 0.795473 0.188512 0.633428
O O17 0.783976 0.897410 0.610464
O O18 0.205917 0.625269 0.500000
O O19 0.038409 0.209041 0.500000
O O20 0.000000 0.000000 0.602090
#
# Coordination Sequence:
#
# PCOD9427772 Si02
#       8
#     8   8   8   8   8   8   8   8
#     4  10  22  41  64  90 119 152 191 239 292 352
#     4  10  22  41  64  89 119 152 191 239 293 352
#     4  10  21  40  60  84 118 156 199 242 286 339
#     4  12  23  36  58  86 115 150 192 238 290 348
#     4  12  23  35  59  86 114 151 192 237 290 346
#     4  10  21  35  51  75 112 150 188 230 278 339
#     4  10  21  35  51  76 111 151 188 229 279 338
#     4  10  23  40  60  86 118 156 198 245 292 339
#
# _framework density 19.696351
#
# number of rings (size 3 to 8) (size 9 to 14) (size 15 to 20)
#    0.000    1.500    1.250    3.750    3.500    4.000 
#    0.000    0.000    0.000    1.500    0.000    0.000 
#    0.000    0.000    0.000    0.000    0.000    0.000 
#
# Total GULP energy -356815.402519 kJ/mol
# GULP energy per Si atom -5575.240664 kJ/mol
# Density = 1.965152 g / cm^3
# Si number density = 19.696351 Si / 1000 Ang^3
#
#
#
# Elastic Constant Matrix: (Units=GPa)
#
#
# Indices 1 2 3 4 5 6 
#
# 1 39.7216 1.7150 37.2414 0.0000 0.0000 0.0000
# 2 1.7150 105.8073 28.8053 0.0000 0.0000 0.0000
# 3 37.2414 28.8053 88.8816 0.0000 0.0000 0.0000
# 4 0.0000 0.0000 0.0000 27.0336 0.0000 0.0000
# 5 0.0000 0.0000 0.0000 0.0000 34.1000 0.0000
# 6 0.0000 0.0000 0.0000 0.0000 0.0000 29.2548
#
#
#
# Elastic Compliance Matrix: (Units=1/GPa)
#
#
# Indices 1 2 3 4 5 6 
#
# 1 0.043467 0.004665 -0.019725 0.000000 0.000000 0.000000
# 2 0.004665 0.010866 -0.005476 0.000000 0.000000 0.000000
# 3 -0.019725 -0.005476 0.021290 0.000000 0.000000 0.000000
# 4 0.000000 0.000000 0.000000 0.036991 0.000000 0.000000
# 5 0.000000 0.000000 0.000000 0.000000 0.029326 0.000000
# 6 0.000000 0.000000 0.000000 0.000000 0.000000 0.034182
#
#
# Mechanical properties :
#
#
# Convention : Reuss Voigt Hill
#
# Bulk Modulus (GPa) = 28.94169 41.10377 35.02273
# Shear Modulus (GPa) = 21.86163 29.18759 25.52461
#
# Velocity S-wave (km/s) = 3.33518 3.85369 3.60377
# Velocity P-wave (km/s) = 5.43664 6.38085 5.92758
#
# Compressibility (1/GPa) = 0.03455223
#
# Stress axis : x y z
#
# Youngs Moduli (GPa) = 23.00609 92.02642 46.96969
#
# Poissons Ratio (x) = -0.42933 0.92645
# Poissons Ratio (y) = -0.10733 0.25723
# Poissons Ratio (z) = 0.45378 0.50398
#
# Static dielectric constant tensor:
#      x y z
#    x 1.744400 0.000000 0.000000 
#    y 0.000000 1.764040 0.000000 
#    z 0.000000 0.000000 1.728810 
# 
# From -- ./inp_files/19993.got.cif
#   From: 2010.05.17/outbox.cif.g08.bks.cpg/sg55_10_cif.got.tgz:19993.got - 2010.06.03 13:27:54.
