data_PCOD9427514
_publ_section_title
;
Structure prediction by ZEFSAII (Michael W. Deem and Ramdas Pophale) SiO2 
 PCOD9427514
Probable space group: P B A M
;
_chemical_formula_sum "Si O2"
_cell_formula_units_Z 54
_cell_length_a 19.358665
_cell_length_b 10.479137
_cell_length_c 12.893736
_cell_angle_alpha 90.000000
_cell_angle_beta 90.000000
_cell_angle_gamma 90.000000
_cell_volume 2615.650396
_symmetry_space_group_name_H-M "P B A M"
_symmetry_group_IT_number 55
_symmetry_cell_setting 'orthorhombic'
loop_
_space_group_symop_operation_xyz
x,y,z
-x,-y,z
1/2+x,1/2-y,-z
1/2-x,1/2+y,-z
-x,-y,-z
x,y,-z
1/2-x,1/2+y,z
1/2+x,1/2-y,z
loop_
_atom_site_type_symbol
_atom_site_label
_atom_site_fract_x
_atom_site_fract_y
_atom_site_fract_z
Si Si1 0.942594 0.827144 0.885178
Si Si2 0.744250 0.508622 0.247408
Si Si3 0.875313 0.125082 0.383123
Si Si4 0.878846 0.419656 0.663242
Si Si5 0.000000 0.500000 0.500000
Si Si6 0.500000 0.500000 0.716090
Si Si7 0.943868 0.387923 0.887557
Si Si8 0.789156 0.751901 0.120770
O O1 0.872834 0.746352 0.873078
O O2 0.949113 0.925705 0.792944
O O3 0.010836 0.740583 0.881109
O O4 0.938534 0.887559 0.000000
O O5 0.676338 0.550668 0.308719
O O6 0.807919 0.498182 0.328334
O O7 0.759461 0.621554 0.166241
O O8 0.734312 0.374061 0.188289
O O9 0.864113 0.081839 0.500000
O O10 0.864223 0.276224 0.374821
O O11 0.954208 0.095021 0.351499
O O12 0.939576 0.476982 0.591664
O O13 0.900970 0.405501 0.783952
O O14 0.000000 0.500000 0.889702
O O15 0.906723 0.389631 0.000000
O O16 0.770734 0.768679 0.000000
#
# Coordination Sequence:
#
# PCOD9427514 Si02
#       8
#     8   8   8   8   2   4   8   8
#     4  10  21  37  64 102 141 177 224 284 353 430
#     4  12  26  48  71 105 148 197 235 303 366 435
#     4  12  27  47  71 100 142 185 251 305 362 431
#     4  12  25  47  73 104 142 184 245 305 358 439
#     4  12  28  48  78 106 136 182 236 310 370 418
#     4  12  22  44  70  98 134 188 230 294 354 424
#     4  10  20  37  65  99 136 175 220 288 359 421
#     4  11  24  44  72 108 148 192 242 292 364 450
#
# _framework density 20.644960000000001
#
# number of rings (size 3 to 8) (size 9 to 14) (size 15 to 20)
#    0.000    0.741    5.926    1.778    1.037    2.370 
#    0.000    0.000    0.000    0.000    0.000    0.000 
#    0.000    0.000    0.000    0.000    0.000    0.000 
#
# Total GULP energy -301247.098977 kJ/mol
# GULP energy per Si atom -5578.649981 kJ/mol
# Density = 2.059797 g / cm^3
# Si number density = 20.644960 Si / 1000 Ang^3
#
#
#
# Elastic Constant Matrix: (Units=GPa)
#
#
# Indices 1 2 3 4 5 6 
#
# 1 98.9078 11.8785 43.6275 0.0000 0.0000 0.0000
# 2 11.8785 63.3044 12.0342 0.0000 0.0000 0.0000
# 3 43.6275 12.0342 107.8886 0.0000 0.0000 0.0000
# 4 0.0000 0.0000 0.0000 0.4751 0.0000 0.0000
# 5 0.0000 0.0000 0.0000 0.0000 16.1789 0.0000
# 6 0.0000 0.0000 0.0000 0.0000 0.0000 25.6401
#
#
#
# Elastic Compliance Matrix: (Units=1/GPa)
#
#
# Indices 1 2 3 4 5 6 
#
# 1 0.012427 -0.001406 -0.004868 0.000000 0.000000 0.000000
# 2 -0.001406 0.016298 -0.001249 0.000000 0.000000 0.000000
# 3 -0.004868 -0.001249 0.011377 0.000000 0.000000 0.000000
# 4 0.000000 0.000000 0.000000 2.104755 0.000000 0.000000
# 5 0.000000 0.000000 0.000000 0.000000 0.061809 0.000000
# 6 0.000000 0.000000 0.000000 0.000000 0.000000 0.039001
#
#
# Mechanical properties :
#
#
# Convention : Reuss Voigt Hill
#
# Bulk Modulus (GPa) = 39.91385 45.02016 42.46700
# Shear Modulus (GPa) = 2.20355 21.96287 12.08321
#
# Velocity S-wave (km/s) = 1.03425 3.26519 2.42189
# Velocity P-wave (km/s) = 4.56088 6.00579 5.33250
#
# Compressibility (1/GPa) = 0.02505396
#
# Stress axis : x y z
#
# Youngs Moduli (GPa) = 80.47235 61.35702 87.89874
#
# Poissons Ratio (x) = 0.08629 0.42791
# Poissons Ratio (y) = 0.11317 0.10981
# Poissons Ratio (z) = 0.39175 0.07665
#
# Static dielectric constant tensor:
#      x y z
#    x 1.728550 0.000000 0.000000 
#    y 0.000000 1.758260 0.000000 
#    z 0.000000 0.000000 1.738050 
# 
# From -- ./inp_files/15358.got.cif
#   From: 2010.05.17/outbox.cif.g08.bks.cpg/sg55_8_cif.got.tgz:15358.got - 2010.06.03 13:27:54.
