data_PCOD9427869
_publ_section_title
;
Structure prediction by ZEFSAII (Michael W. Deem and Ramdas Pophale) SiO2 
 PCOD9427869
Probable space group: P B A M
;
_chemical_formula_sum "Si O2"
_cell_formula_units_Z 64
_cell_length_a 15.446531
_cell_length_b 11.324003
_cell_length_c 18.821791
_cell_angle_alpha 90.000000
_cell_angle_beta 90.000000
_cell_angle_gamma 90.000000
_cell_volume 3292.242998
_symmetry_space_group_name_H-M "P B A M"
_symmetry_group_IT_number 55
_symmetry_cell_setting 'orthorhombic'
loop_
_space_group_symop_operation_xyz
x,y,z
-x,-y,z
1/2+x,1/2-y,-z
1/2-x,1/2+y,-z
-x,-y,-z
x,y,-z
1/2-x,1/2+y,z
1/2+x,1/2-y,z
loop_
_atom_site_type_symbol
_atom_site_label
_atom_site_fract_x
_atom_site_fract_y
_atom_site_fract_z
Si Si1 0.856930 0.430991 0.290235
Si Si2 0.906832 0.063379 0.422133
Si Si3 0.740630 0.793386 0.819021
Si Si4 0.150712 0.299870 0.309532
Si Si5 0.081460 0.863728 0.859210
Si Si6 0.896958 0.872650 0.916248
Si Si7 0.533982 0.704091 0.290661
Si Si8 0.734778 0.356238 0.417458
O O1 0.794883 0.410316 0.221569
O O2 0.879742 0.566223 0.302306
O O3 0.932346 0.336605 0.276786
O O4 0.809133 0.391425 0.362479
O O5 0.893179 0.118531 0.500000
O O6 0.915801 0.155245 0.358848
O O7 0.834914 0.962978 0.412034
O O8 0.000000 0.000000 0.422944
O O9 0.778478 0.720128 0.752090
O O10 0.662534 0.725322 0.858342
O O11 0.819357 0.816395 0.871748
O O12 0.192361 0.262568 0.384680
O O13 0.068946 0.213095 0.299120
O O14 0.058880 0.876466 0.775932
O O15 0.991245 0.821459 0.894375
O O16 0.101753 0.988683 0.895063
O O17 0.884639 0.860138 0.000000
O O18 0.758124 0.344188 0.500000
#
# Coordination Sequence:
#
# PCOD9427869 Si02
#       8
#     8   8   8   8   8   8   8   8
#     4  10  24  38  58  89 118 157 203 248 303 365
#     4  10  21  36  55  82 112 149 200 250 296 352
#     4  10  22  40  62  90 123 166 201 248 308 366
#     4  11  21  39  61  86 119 154 208 248 301 364
#     4  10  22  38  62  94 124 157 205 254 302 363
#     4  11  23  39  64  95 124 160 203 254 310 365
#     4  11  22  37  63  87 117 158 200 255 305 356
#     4  10  23  38  56  83 117 158 201 252 308 358
#
# _framework density 19.439634999999999
#
# number of rings (size 3 to 8) (size 9 to 14) (size 15 to 20)
#    0.000    1.625    2.500    1.875   10.500    2.000 
#    0.000    0.000    0.000    2.250    0.000    3.500 
#    0.000    0.000    0.000    0.000    0.000    0.000 
#
# Total GULP energy -357242.514819 kJ/mol
# GULP energy per Si atom -5581.914294 kJ/mol
# Density = 1.939539 g / cm^3
# Si number density = 19.439635 Si / 1000 Ang^3
#
#
#
# Elastic Constant Matrix: (Units=GPa)
#
#
# Indices 1 2 3 4 5 6 
#
# 1 100.5126 14.0332 39.0130 0.0000 0.0000 0.0000
# 2 14.0332 57.5843 24.7625 0.0000 0.0000 0.0000
# 3 39.0130 24.7625 124.5204 0.0000 0.0000 0.0000
# 4 0.0000 0.0000 0.0000 23.0778 0.0000 0.0000
# 5 0.0000 0.0000 0.0000 0.0000 12.2884 0.0000
# 6 0.0000 0.0000 0.0000 0.0000 0.0000 32.0421
#
#
#
# Elastic Compliance Matrix: (Units=1/GPa)
#
#
# Indices 1 2 3 4 5 6 
#
# 1 0.011423 -0.001361 -0.003308 0.000000 0.000000 0.000000
# 2 -0.001361 0.019152 -0.003382 0.000000 0.000000 0.000000
# 3 -0.003308 -0.003382 0.009740 0.000000 0.000000 0.000000
# 4 0.000000 0.000000 0.000000 0.043332 0.000000 0.000000
# 5 0.000000 0.000000 0.000000 0.000000 0.081378 0.000000
# 6 0.000000 0.000000 0.000000 0.000000 0.000000 0.031209
#
#
# Mechanical properties :
#
#
# Convention : Reuss Voigt Hill
#
# Bulk Modulus (GPa) = 41.30217 48.69277 44.99747
# Shear Modulus (GPa) = 22.68532 27.13556 24.91044
#
# Velocity S-wave (km/s) = 3.41979 3.74021 3.58358
# Velocity P-wave (km/s) = 6.07337 6.61474 6.34983
#
# Compressibility (1/GPa) = 0.02421180
#
# Stress axis : x y z
#
# Youngs Moduli (GPa) = 87.54187 52.21401 102.67057
#
# Poissons Ratio (x) = 0.07107 0.33966
# Poissons Ratio (y) = 0.11916 0.34725
# Poissons Ratio (z) = 0.28961 0.17660
#
# Static dielectric constant tensor:
#      x y z
#    x 1.717330 0.000000 0.000000 
#    y 0.000000 1.696290 0.000000 
#    z 0.000000 0.000000 1.660860 
# 
# From -- ./inp_files/21632.got.cif
#   From: 2010.05.17/outbox.cif.g08.bks.cpg/sg55_11_cif.got.tgz:21632.got - 2010.06.03 13:27:54.
