data_PCOD9427668
_publ_section_title
;
Structure prediction by ZEFSAII (Michael W. Deem and Ramdas Pophale) SiO2 
 PCOD9427668
Probable space group: P B A M
;
_chemical_formula_sum "Si O2"
_cell_formula_units_Z 64
_cell_length_a 32.985986
_cell_length_b 10.949117
_cell_length_c 8.154191
_cell_angle_alpha 90.000000
_cell_angle_beta 90.000000
_cell_angle_gamma 90.000000
_cell_volume 2945.028126
_symmetry_space_group_name_H-M "P B A M"
_symmetry_group_IT_number 55
_symmetry_cell_setting 'orthorhombic'
loop_
_space_group_symop_operation_xyz
x,y,z
-x,-y,z
1/2+x,1/2-y,-z
1/2-x,1/2+y,-z
-x,-y,-z
x,y,-z
1/2-x,1/2+y,z
1/2+x,1/2-y,z
loop_
_atom_site_type_symbol
_atom_site_label
_atom_site_fract_x
_atom_site_fract_y
_atom_site_fract_z
Si Si1 0.031760 0.895679 0.697816
Si Si2 0.414600 0.837356 0.188395
Si Si3 0.000394 0.362566 0.312469
Si Si4 0.787407 0.554482 0.698410
Si Si5 0.132560 0.568282 0.691381
Si Si6 0.166878 0.204857 0.191189
Si Si7 0.115554 0.832807 0.809494
Si Si8 0.695273 0.541556 0.687275
O O1 0.028361 0.892113 0.500000
O O2 0.078628 0.915925 0.744609
O O3 0.021545 0.757337 0.759469
O O4 0.000000 0.000000 0.755572
O O5 0.452520 0.826975 0.306223
O O6 0.379623 0.739787 0.222901
O O7 0.393494 0.969253 0.210497
O O8 0.428096 0.823714 0.000000
O O9 0.985267 0.376855 0.500000
O O10 0.000000 0.500000 0.236981
O O11 0.786354 0.563110 0.500000
O O12 0.819777 0.447120 0.737606
O O13 0.807425 0.674255 0.774076
O O14 0.741058 0.545901 0.753987
O O15 0.128943 0.535292 0.500000
O O16 0.116463 0.703218 0.718386
O O17 0.182652 0.099077 0.305794
O O18 0.170747 0.169490 0.000000
O O19 0.159792 0.890194 0.782787
O O20 0.108808 0.811066 0.000000
O O21 0.695181 0.588069 0.500000
#
# Coordination Sequence:
#
# PCOD9427668 Si02
#       8
#     8   8   8   8   8   8   8   8
#     4  10  23  43  65  92 124 164 213 262 314 378
#     4  10  21  37  60  91 126 160 198 247 308 368
#     4  10  21  37  61  91 121 157 206 259 310 370
#     4   9  21  40  63  90 118 159 208 254 303 358
#     4  10  20  39  65  92 125 164 207 256 304 361
#     4  10  22  39  59  89 125 158 197 249 308 366
#     4  12  26  42  62  92 127 165 205 251 318 377
#     4  11  24  41  63  88 120 163 213 257 299 363
#
# _framework density 21.731542999999999
#
# number of rings (size 3 to 8) (size 9 to 14) (size 15 to 20)
#    0.000    1.750    0.000    3.375    3.500    5.000 
#    0.000    0.000    0.000    0.000    0.000    0.000 
#    0.000    0.000    0.000    0.000    0.000    0.000 
#
# Total GULP energy -357419.787717 kJ/mol
# GULP energy per Si atom -5584.684183 kJ/mol
# Density = 2.168208 g / cm^3
# Si number density = 21.731543 Si / 1000 Ang^3
#
#
#
# Elastic Constant Matrix: (Units=GPa)
#
#
# Indices 1 2 3 4 5 6 
#
# 1 108.9518 9.6574 11.6067 0.0000 0.0000 0.0000
# 2 9.6574 46.0256 -0.3597 0.0000 0.0000 0.0000
# 3 11.6067 -0.3597 16.1708 0.0000 0.0000 0.0000
# 4 0.0000 0.0000 0.0000 24.4088 0.0000 0.0000
# 5 0.0000 0.0000 0.0000 0.0000 -6.1548 0.0000
# 6 0.0000 0.0000 0.0000 0.0000 0.0000 18.0609
#
#
#
# Elastic Compliance Matrix: (Units=1/GPa)
#
#
# Indices 1 2 3 4 5 6 
#
# 1 0.010154 -0.002188 -0.007337 0.000000 0.000000 0.000000
# 2 -0.002188 0.022202 0.002064 0.000000 0.000000 0.000000
# 3 -0.007337 0.002064 0.067151 0.000000 0.000000 0.000000
# 4 0.000000 0.000000 0.000000 0.040969 0.000000 0.000000
# 5 0.000000 0.000000 0.000000 0.000000 -0.162474 0.000000
# 6 0.000000 0.000000 0.000000 0.000000 0.000000 0.055368
#
#
# Mechanical properties :
#
#
# Convention : Reuss Voigt Hill
#
# Bulk Modulus (GPa) = 11.82214 23.66188 17.74201
# Shear Modulus (GPa) = 65.37095 17.27924 41.32510
#
# Velocity S-wave (km/s) = 5.49058 2.82285 4.36549
# Velocity P-wave (km/s) = 6.75627 4.64075 5.79585
#
# Compressibility (1/GPa) = 0.08458706
#
# Stress axis : x y z
#
# Youngs Moduli (GPa) = 98.48456 45.04052 14.89170
#
# Poissons Ratio (x) = 0.09854 0.10925
# Poissons Ratio (y) = 0.21547 -0.03074
# Poissons Ratio (z) = 0.72254 -0.09297
#
# Static dielectric constant tensor:
#      x y z
#    x 1.845320 0.000000 0.000000 
#    y 0.000000 1.801710 0.000000 
#    z 0.000000 0.000000 1.761270 
# 
# From -- ./inp_files/10804.got.cif
#   From: 2010.05.17/outbox.cif.g08.bks.cpg/sg55_6_cif.got.tgz:10804.got - 2010.06.03 13:27:54.
