data_PCOD9427235
_publ_section_title
;
Structure prediction by ZEFSAII (Michael W. Deem and Ramdas Pophale) SiO2 
 PCOD9427235
Probable space group: P B A M
;
_chemical_formula_sum "Si O2"
_cell_formula_units_Z 64
_cell_length_a 23.349717
_cell_length_b 16.411696
_cell_length_c 8.548241
_cell_angle_alpha 90.000000
_cell_angle_beta 90.000000
_cell_angle_gamma 90.000000
_cell_volume 3275.758244
_symmetry_space_group_name_H-M "P B A M"
_symmetry_group_IT_number 55
_symmetry_cell_setting 'orthorhombic'
loop_
_space_group_symop_operation_xyz
x,y,z
-x,-y,z
1/2+x,1/2-y,-z
1/2-x,1/2+y,-z
-x,-y,-z
x,y,-z
1/2-x,1/2+y,z
1/2+x,1/2-y,z
loop_
_atom_site_type_symbol
_atom_site_label
_atom_site_fract_x
_atom_site_fract_y
_atom_site_fract_z
Si Si1 0.553126 0.439075 0.179059
Si Si2 0.160038 0.604788 0.821823
Si Si3 0.134013 0.336806 0.187935
Si Si4 0.036119 0.231278 0.317533
Si Si5 0.356732 0.426232 0.811818
Si Si6 0.058711 0.481487 0.180098
Si Si7 0.593881 0.744458 0.312385
Si Si8 0.770970 0.551283 0.313778
O O1 0.500000 0.500000 0.173243
O O2 0.537127 0.365163 0.290078
O O3 0.606611 0.493719 0.230390
O O4 0.562641 0.408885 0.000000
O O5 0.099273 0.558346 0.826441
O O6 0.141769 0.688946 0.739160
O O7 0.201500 0.534438 0.750030
O O8 0.179153 0.621032 0.000000
O O9 0.094974 0.260784 0.235040
O O10 0.093139 0.408605 0.252479
O O11 0.194079 0.368227 0.256008
O O12 0.139931 0.339273 0.000000
O O13 0.040036 0.252272 0.500000
O O14 0.972724 0.261213 0.258647
O O15 0.386414 0.343958 0.748893
O O16 0.293203 0.437729 0.746828
O O17 0.355869 0.421074 0.000000
O O18 0.000000 0.500000 0.262458
O O19 0.046787 0.455006 0.000000
O O20 0.591902 0.743266 0.500000
O O21 0.773196 0.548032 0.500000
#
# Coordination Sequence:
#
# PCOD9427235 Si02
#       8
#     8   8   8   8   8   8   8   8
#     4  10  21  40  65  91 118 154 202 253 305 362
#     4  10  20  36  59  87 119 159 207 252 296 357
#     4  10  20  36  59  86 120 161 206 249 295 355
#     4  11  23  37  59  93 132 164 198 249 313 373
#     4  11  23  42  67  90 117 158 209 257 306 368
#     4   8  14  26  48  79 111 146 189 237 287 338
#     4  11  23  38  59  92 129 162 199 250 313 370
#     4  11  23  42  64  88 125 163 204 255 313 373
#
# _framework density 19.537462000000001
#
# number of rings (size 3 to 8) (size 9 to 14) (size 15 to 20)
#    0.000    1.750    1.250    4.500    0.000    3.750 
#    2.250    0.000    0.000    6.000    0.000    0.000 
#    0.000    0.000    0.000    0.000    0.000    0.000 
#
# Total GULP energy -356521.510477 kJ/mol
# GULP energy per Si atom -5570.648601 kJ/mol
# Density = 1.949299 g / cm^3
# Si number density = 19.537462 Si / 1000 Ang^3
#
#
#
# Elastic Constant Matrix: (Units=GPa)
#
#
# Indices 1 2 3 4 5 6 
#
# 1 117.5273 16.2740 21.8850 0.0000 0.0000 0.0000
# 2 16.2740 57.2015 21.9908 0.0000 0.0000 0.0000
# 3 21.8850 21.9908 66.3720 0.0000 0.0000 0.0000
# 4 0.0000 0.0000 0.0000 25.8832 0.0000 0.0000
# 5 0.0000 0.0000 0.0000 0.0000 13.5058 0.0000
# 6 0.0000 0.0000 0.0000 0.0000 0.0000 21.3955
#
#
#
# Elastic Compliance Matrix: (Units=1/GPa)
#
#
# Indices 1 2 3 4 5 6 
#
# 1 0.009201 -0.001663 -0.002483 0.000000 0.000000 0.000000
# 2 -0.001663 0.020335 -0.006189 0.000000 0.000000 0.000000
# 3 -0.002483 -0.006189 0.017936 0.000000 0.000000 0.000000
# 4 0.000000 0.000000 0.000000 0.038635 0.000000 0.000000
# 5 0.000000 0.000000 0.000000 0.000000 0.074042 0.000000
# 6 0.000000 0.000000 0.000000 0.000000 0.000000 0.046739
#
#
# Mechanical properties :
#
#
# Convention : Reuss Voigt Hill
#
# Bulk Modulus (GPa) = 37.31133 40.15562 38.73348
# Shear Modulus (GPa) = 21.14237 24.22029 22.68133
#
# Velocity S-wave (km/s) = 3.29317 3.52474 3.41092
# Velocity P-wave (km/s) = 5.79644 6.09613 5.94817
#
# Compressibility (1/GPa) = 0.02680151
#
# Stress axis : x y z
#
# Youngs Moduli (GPa) = 108.68002 49.17732 55.75421
#
# Poissons Ratio (x) = 0.08180 0.13843
# Poissons Ratio (y) = 0.18076 0.34506
# Poissons Ratio (z) = 0.26984 0.30436
#
# Static dielectric constant tensor:
#      x y z
#    x 1.518630 0.000000 0.000000 
#    y 0.000000 1.904840 0.000000 
#    z 0.000000 0.000000 1.694370 
# 
# From -- ./inp_files/9795.got.cif
#   From: 2010.05.17/outbox.cif.g08.bks.cpg/sg55_5_cif.got.tgz:9795.got - 2010.06.03 13:27:54.
