data_PCOD9427501
_publ_section_title
;
Structure prediction by ZEFSAII (Michael W. Deem and Ramdas Pophale) SiO2 
 PCOD9427501
Probable space group: P B A M
;
_chemical_formula_sum "Si O2"
_cell_formula_units_Z 48
_cell_length_a 8.637648
_cell_length_b 13.138394
_cell_length_c 20.998296
_cell_angle_alpha 90.000000
_cell_angle_beta 90.000000
_cell_angle_gamma 90.000000
_cell_volume 2382.987898
_symmetry_space_group_name_H-M "P B A M"
_symmetry_group_IT_number 55
_symmetry_cell_setting 'orthorhombic'
loop_
_space_group_symop_operation_xyz
x,y,z
-x,-y,z
1/2+x,1/2-y,-z
1/2-x,1/2+y,-z
-x,-y,-z
x,y,-z
1/2-x,1/2+y,z
1/2+x,1/2-y,z
loop_
_atom_site_type_symbol
_atom_site_label
_atom_site_fract_x
_atom_site_fract_y
_atom_site_fract_z
Si Si1 0.373246 0.701600 0.362987
Si Si2 0.341451 0.056943 0.427675
Si Si3 0.520337 0.119435 0.923782
Si Si4 0.683677 0.645670 0.571642
Si Si5 0.015122 0.123947 0.226382
Si Si6 0.233034 0.751191 0.149670
O O1 0.216327 0.640236 0.379148
O O2 0.307598 0.813416 0.376702
O O3 0.510175 0.678304 0.412641
O O4 0.440626 0.665464 0.296188
O O5 0.359920 0.096103 0.500000
O O6 0.500000 0.000000 0.412069
O O7 0.204149 0.974775 0.427583
O O8 0.383175 0.186264 0.893697
O O9 0.672986 0.168264 0.892875
O O10 0.500000 0.000000 0.908003
O O11 0.523074 0.128972 0.000000
O O12 0.728984 0.678750 0.500000
O O13 0.150943 0.169701 0.181709
O O14 0.861608 0.182277 0.201545
O O15 0.000000 0.000000 0.225188
#
# Coordination Sequence:
#
# PCOD9427501 Si02
#       6
#     8   8   8   8   8   8
#     4  12  23  38  58  82 111 148 194 238 292 361
#     4  10  21  37  56  79 107 139 181 237 298 356
#     4  10  20  37  63  93 124 160 202 248 298 351
#     4  11  22  36  56  80 107 140 182 240 302 354
#     4  11  23  40  60  85 121 163 204 247 297 358
#     4  10  22  39  60  89 125 162 202 247 297 352
#
# _framework density 20.142778
#
# number of rings (size 3 to 8) (size 9 to 14) (size 15 to 20)
#    0.000    1.333    0.000    6.500    0.000    2.667 
#    0.000    2.500    0.000    8.000    0.000    0.000 
#    0.000    0.000    0.000    0.000    0.000    0.000 
#
# Total GULP energy -268000.172686 kJ/mol
# GULP energy per Si atom -5583.336931 kJ/mol
# Density = 2.009693 g / cm^3
# Si number density = 20.142778 Si / 1000 Ang^3
#
#
#
# Elastic Constant Matrix: (Units=GPa)
#
#
# Indices 1 2 3 4 5 6 
#
# 1 81.2348 31.3691 33.9099 0.0000 0.0000 0.0000
# 2 31.3691 130.9804 56.1438 0.0000 0.0000 0.0000
# 3 33.9099 56.1438 104.7872 0.0000 0.0000 0.0000
# 4 0.0000 0.0000 0.0000 24.2659 0.0000 0.0000
# 5 0.0000 0.0000 0.0000 0.0000 32.4710 0.0000
# 6 0.0000 0.0000 0.0000 0.0000 0.0000 29.4942
#
#
#
# Elastic Compliance Matrix: (Units=1/GPa)
#
#
# Indices 1 2 3 4 5 6 
#
# 1 0.014591 -0.001909 -0.003699 0.000000 0.000000 0.000000
# 2 -0.001909 0.010161 -0.004826 0.000000 0.000000 0.000000
# 3 -0.003699 -0.004826 0.013326 0.000000 0.000000 0.000000
# 4 0.000000 0.000000 0.000000 0.041210 0.000000 0.000000
# 5 0.000000 0.000000 0.000000 0.000000 0.030797 0.000000
# 6 0.000000 0.000000 0.000000 0.000000 0.000000 0.033905
#
#
# Mechanical properties :
#
#
# Convention : Reuss Voigt Hill
#
# Bulk Modulus (GPa) = 58.10746 62.20533 60.15640
# Shear Modulus (GPa) = 29.30928 30.28487 29.79708
#
# Velocity S-wave (km/s) = 3.81868 3.88172 3.85033
# Velocity P-wave (km/s) = 6.95367 7.14420 7.04958
#
# Compressibility (1/GPa) = 0.01720949
#
# Stress axis : x y z
#
# Youngs Moduli (GPa) = 68.53434 98.41915 75.04129
#
# Poissons Ratio (x) = 0.18788 0.27758
# Poissons Ratio (y) = 0.13083 0.36216
# Poissons Ratio (z) = 0.25351 0.47499
#
# Static dielectric constant tensor:
#      x y z
#    x 1.715040 0.000000 0.000000 
#    y 0.000000 1.752010 0.000000 
#    z 0.000000 0.000000 1.694570 
# 
# From -- ./inp_files/23436.got.cif
#   From: 2010.05.17/outbox.cif.g08.bks.cpg/sg55_12_cif.got.tgz:23436.got - 2010.06.03 13:27:54.
