data_PCOD9427426
_publ_section_title
;
Structure prediction by ZEFSAII (Michael W. Deem and Ramdas Pophale) SiO2 
 PCOD9427426
Probable space group: P B A M
;
_chemical_formula_sum "Si O2"
_cell_formula_units_Z 56
_cell_length_a 14.560605
_cell_length_b 18.781583
_cell_length_c 8.781212
_cell_angle_alpha 90.000000
_cell_angle_beta 90.000000
_cell_angle_gamma 90.000000
_cell_volume 2401.408683
_symmetry_space_group_name_H-M "P B A M"
_symmetry_group_IT_number 55
_symmetry_cell_setting 'orthorhombic'
loop_
_space_group_symop_operation_xyz
x,y,z
-x,-y,z
1/2+x,1/2-y,-z
1/2-x,1/2+y,-z
-x,-y,-z
x,y,-z
1/2-x,1/2+y,z
1/2+x,1/2-y,z
loop_
_atom_site_type_symbol
_atom_site_label
_atom_site_fract_x
_atom_site_fract_y
_atom_site_fract_z
Si Si1 0.899518 0.511738 0.322971
Si Si2 0.456632 0.362560 0.820376
Si Si3 0.276440 0.428942 0.179879
Si Si4 0.219746 0.200753 0.820449
Si Si5 0.623776 0.435683 0.321178
Si Si6 0.890368 0.348325 0.327398
Si Si7 0.443883 0.790784 0.176536
O O1 0.911918 0.531477 0.500000
O O2 0.824047 0.562884 0.251316
O O3 0.861318 0.430757 0.318423
O O4 0.000000 0.500000 0.250505
O O5 0.350265 0.368772 0.773141
O O6 0.519544 0.416922 0.725722
O O7 0.502696 0.285112 0.807393
O O8 0.461788 0.381755 0.000000
O O9 0.331513 0.501093 0.224215
O O10 0.263233 0.423615 0.000000
O O11 0.176868 0.137095 0.721686
O O12 0.326861 0.197365 0.784321
O O13 0.161134 0.271384 0.785453
O O14 0.204156 0.186855 0.000000
O O15 0.631728 0.451348 0.500000
O O16 0.878098 0.323631 0.500000
O O17 0.996898 0.342075 0.281481
O O18 0.449011 0.813328 0.000000
#
# Coordination Sequence:
#
# PCOD9427426 Si02
#       7
#     8   8   8   8   8   8   8
#     4  10  23  43  62  83 117 155 195 246 301 355
#     4   9  20  37  55  82 120 155 191 237 289 347
#     4  11  21  35  58  85 114 152 196 242 288 346
#     4  10  20  37  61  85 114 155 198 242 293 350
#     4  11  20  31  53  86 119 151 189 233 288 352
#     4  11  22  38  63  90 117 153 196 245 296 353
#     4   9  20  39  60  84 118 157 196 243 295 350
#
# _framework density 23.319645000000001
#
# number of rings (size 3 to 8) (size 9 to 14) (size 15 to 20)
#    0.000    1.857    1.429    3.857    0.000    6.571 
#    2.571    0.000    0.000    0.000    0.000    0.000 
#    0.000    0.000    0.000    0.000    0.000    0.000 
#
# Total GULP energy -313082.945953 kJ/mol
# GULP energy per Si atom -5590.766892 kJ/mol
# Density = 2.326657 g / cm^3
# Si number density = 23.319645 Si / 1000 Ang^3
#
#
#
# Elastic Constant Matrix: (Units=GPa)
#
#
# Indices 1 2 3 4 5 6 
#
# 1 155.0478 2.7156 18.6106 0.0000 0.0000 0.0000
# 2 2.7156 49.8122 2.6957 0.0000 0.0000 0.0000
# 3 18.6106 2.6957 24.8412 0.0000 0.0000 0.0000
# 4 0.0000 0.0000 0.0000 7.9435 0.0000 0.0000
# 5 0.0000 0.0000 0.0000 0.0000 36.0604 0.0000
# 6 0.0000 0.0000 0.0000 0.0000 0.0000 38.2985
#
#
#
# Elastic Compliance Matrix: (Units=1/GPa)
#
#
# Indices 1 2 3 4 5 6 
#
# 1 0.007087 -0.000100 -0.005299 0.000000 0.000000 0.000000
# 2 -0.000100 0.020195 -0.002117 0.000000 0.000000 0.000000
# 3 -0.005299 -0.002117 0.044455 0.000000 0.000000 0.000000
# 4 0.000000 0.000000 0.000000 0.125889 0.000000 0.000000
# 5 0.000000 0.000000 0.000000 0.000000 0.027731 0.000000
# 6 0.000000 0.000000 0.000000 0.000000 0.000000 0.026111
#
#
# Mechanical properties :
#
#
# Convention : Reuss Voigt Hill
#
# Bulk Modulus (GPa) = 17.63446 30.86056 24.24751
# Shear Modulus (GPa) = 17.51913 30.17244 23.84579
#
# Velocity S-wave (km/s) = 2.74389 3.60093 3.20122
# Velocity P-wave (km/s) = 4.19726 5.52733 4.90757
#
# Compressibility (1/GPa) = 0.05670715
#
# Stress axis : x y z
#
# Youngs Moduli (GPa) = 141.09530 49.51622 22.49450
#
# Poissons Ratio (x) = 0.00493 0.11920
# Poissons Ratio (y) = 0.01406 0.04762
# Poissons Ratio (z) = 0.74766 0.10482
#
# Static dielectric constant tensor:
#      x y z
#    x 1.943510 0.000000 0.000000 
#    y 0.000000 1.913050 0.000000 
#    z 0.000000 0.000000 1.782280 
# 
# From -- ./inp_files/6054.got.cif
#   From: 2010.05.17/outbox.cif.g08.bks.cpg/sg55_4_cif.got.tgz:6054.got - 2010.06.03 13:27:54.
