data_PCOD9427310
_publ_section_title
;
Structure prediction by ZEFSAII (Michael W. Deem and Ramdas Pophale) SiO2 
 PCOD9427310
Probable space group: P B A M
;
_chemical_formula_sum "Si O2"
_cell_formula_units_Z 64
_cell_length_a 14.497614
_cell_length_b 24.919832
_cell_length_c 8.983071
_cell_angle_alpha 90.000000
_cell_angle_beta 90.000000
_cell_angle_gamma 90.000000
_cell_volume 3245.386870
_symmetry_space_group_name_H-M "P B A M"
_symmetry_group_IT_number 55
_symmetry_cell_setting 'orthorhombic'
loop_
_space_group_symop_operation_xyz
x,y,z
-x,-y,z
1/2+x,1/2-y,-z
1/2-x,1/2+y,-z
-x,-y,-z
x,y,-z
1/2-x,1/2+y,z
1/2+x,1/2-y,z
loop_
_atom_site_type_symbol
_atom_site_label
_atom_site_fract_x
_atom_site_fract_y
_atom_site_fract_z
Si Si1 0.233241 0.660126 0.673998
Si Si2 0.952222 0.826382 0.676158
Si Si3 0.716637 0.052187 0.176231
Si Si4 0.058686 0.285369 0.824160
Si Si5 0.040593 0.395142 0.676458
Si Si6 0.375192 0.387368 0.325226
Si Si7 0.632512 0.937189 0.824797
Si Si8 0.744181 0.719924 0.325304
O O1 0.213030 0.648230 0.500000
O O2 0.344243 0.660834 0.694033
O O3 0.188241 0.615391 0.775752
O O4 0.202279 0.721342 0.704921
O O5 0.968267 0.816074 0.500000
O O6 0.974540 0.772150 0.764809
O O7 0.019873 0.874802 0.719599
O O8 0.639515 0.087271 0.260267
O O9 0.816590 0.070128 0.232976
O O10 0.691454 0.990410 0.206907
O O11 0.708388 0.061636 0.000000
O O12 0.016258 0.336530 0.741140
O O13 0.166914 0.286860 0.778147
O O14 0.046733 0.290286 0.000000
O O15 0.043559 0.393297 0.500000
O O16 0.962903 0.435564 0.735074
O O17 0.372005 0.401910 0.500000
O O18 0.323794 0.329814 0.308749
O O19 0.611402 0.936164 0.000000
O O20 0.775255 0.721231 0.500000
#
# Coordination Sequence:
#
# PCOD9427310 Si02
#       8
#     8   8   8   8   8   8   8   8
#     4   9  19  37  59  86 120 156 199 247 294 344
#     4   9  20  38  60  88 123 158 197 248 296 342
#     4  11  24  42  61  86 122 155 193 248 299 350
#     4  11  21  34  55  87 123 157 191 233 291 354
#     4  12  24  39  61  87 117 155 198 242 291 355
#     4  10  20  36  62  90 118 156 200 243 292 349
#     4  11  25  42  60  85 118 156 199 248 300 352
#     4   9  18  34  56  85 118 154 193 239 290 342
#
# _framework density 19.720300000000002
#
# number of rings (size 3 to 8) (size 9 to 14) (size 15 to 20)
#    0.000    1.750    1.250    4.125    1.750    6.000 
#    0.000    0.625    0.000    3.750    0.000    0.000 
#    0.000    0.000    0.000    0.000    0.000    0.000 
#
# Total GULP energy -357709.570985 kJ/mol
# GULP energy per Si atom -5589.212047 kJ/mol
# Density = 1.967542 g / cm^3
# Si number density = 19.720300 Si / 1000 Ang^3
#
#
#
# Elastic Constant Matrix: (Units=GPa)
#
#
# Indices 1 2 3 4 5 6 
#
# 1 23.7748 -1.0311 5.8261 0.0000 0.0000 0.0000
# 2 -1.0311 58.8402 31.3444 0.0000 0.0000 0.0000
# 3 5.8261 31.3444 70.8004 0.0000 0.0000 0.0000
# 4 0.0000 0.0000 0.0000 26.7462 0.0000 0.0000
# 5 0.0000 0.0000 0.0000 0.0000 -113.5733 0.0000
# 6 0.0000 0.0000 0.0000 0.0000 0.0000 30.2440
#
#
#
# Elastic Compliance Matrix: (Units=1/GPa)
#
#
# Indices 1 2 3 4 5 6 
#
# 1 0.043468 0.003490 -0.005122 0.000000 0.000000 0.000000
# 2 0.003490 0.022521 -0.010257 0.000000 0.000000 0.000000
# 3 -0.005122 -0.010257 0.019087 0.000000 0.000000 0.000000
# 4 0.000000 0.000000 0.000000 0.037388 0.000000 0.000000
# 5 0.000000 0.000000 0.000000 0.000000 -0.008805 0.000000
# 6 0.000000 0.000000 0.000000 0.000000 0.000000 0.033064
#
#
# Mechanical properties :
#
#
# Convention : Reuss Voigt Hill
#
# Bulk Modulus (GPa) = 16.31408 25.07714 20.69561
# Shear Modulus (GPa) = 26.18706 -3.49822 11.34442
#
# Velocity S-wave (km/s) = 3.64802 -1.33333 2.40107
# Velocity P-wave (km/s) = 5.10243 3.22082 4.26664
#
# Compressibility (1/GPa) = 0.06129675
#
# Stress axis : x y z
#
# Youngs Moduli (GPa) = 23.00546 44.40397 52.39218
#
# Poissons Ratio (x) = -0.15498 0.26836
# Poissons Ratio (y) = -0.08030 0.53741
# Poissons Ratio (z) = 0.11784 0.45547
#
# Static dielectric constant tensor:
#      x y z
#    x 1.718110 0.000000 0.000000 
#    y 0.000000 1.695860 0.000000 
#    z 0.000000 0.000000 1.661080 
# 
# From -- ./inp_files/6695.got.cif
#   From: 2010.05.17/outbox.cif.g08.bks.cpg/sg55_4_cif.got.tgz:6695.got - 2010.06.03 13:27:54.
