data_PCOD9427234
_publ_section_title
;
Structure prediction by ZEFSAII (Michael W. Deem and Ramdas Pophale) SiO2 
 PCOD9427234
Probable space group: P B A M
;
_chemical_formula_sum "Si O2"
_cell_formula_units_Z 64
_cell_length_a 23.555767
_cell_length_b 15.940975
_cell_length_c 8.584426
_cell_angle_alpha 90.000000
_cell_angle_beta 90.000000
_cell_angle_gamma 90.000000
_cell_volume 3223.468212
_symmetry_space_group_name_H-M "P B A M"
_symmetry_group_IT_number 55
_symmetry_cell_setting 'orthorhombic'
loop_
_space_group_symop_operation_xyz
x,y,z
-x,-y,z
1/2+x,1/2-y,-z
1/2-x,1/2+y,-z
-x,-y,-z
x,y,-z
1/2-x,1/2+y,z
1/2+x,1/2-y,z
loop_
_atom_site_type_symbol
_atom_site_label
_atom_site_fract_x
_atom_site_fract_y
_atom_site_fract_z
Si Si1 0.070760 0.748865 0.814449
Si Si2 0.549499 0.564893 0.811515
Si Si3 0.667405 0.492018 0.312290
Si Si4 0.998869 0.406156 0.319609
Si Si5 0.685840 0.302045 0.311308
Si Si6 0.130453 0.365052 0.681401
Si Si7 0.790179 0.496260 0.816645
Si Si8 0.812835 0.312571 0.313721
O O1 0.043461 0.837488 0.760267
O O2 0.038645 0.665560 0.757736
O O3 0.135482 0.738727 0.757747
O O4 0.070153 0.749804 0.000000
O O5 0.500000 0.500000 0.758369
O O6 0.611534 0.535762 0.754118
O O7 0.548958 0.563460 0.000000
O O8 0.666598 0.497007 0.500000
O O9 0.667440 0.394249 0.260149
O O10 0.728909 0.522654 0.252967
O O11 0.979196 0.413708 0.500000
O O12 0.000000 0.500000 0.250489
O O13 0.063708 0.377637 0.315938
O O14 0.685728 0.305770 0.500000
O O15 0.645486 0.227655 0.261680
O O16 0.750357 0.281847 0.264053
O O17 0.149204 0.373712 0.500000
O O18 0.163986 0.433056 0.779933
O O19 0.811755 0.410168 0.736948
O O20 0.784196 0.481734 0.000000
O O21 0.817193 0.308344 0.500000
#
# Coordination Sequence:
#
# PCOD9427234 Si02
#       8
#     8   8   8   8   8   8   8   8
#     4  11  24  40  62  91 125 163 207 256 307 368
#     4  10  24  44  62  86 125 168 207 255 315 374
#     4  10  21  39  63  89 118 156 207 258 304 357
#     4  10  22  39  61  89 122 162 204 249 306 366
#     4   8  18  35  57  86 115 148 192 249 304 355
#     4  10  20  36  59  86 120 156 199 251 300 359
#     4  11  22  37  59  91 126 161 196 241 305 373
#     4  10  20  38  61  86 118 155 200 250 306 363
#
# _framework density 19.854391
#
# number of rings (size 3 to 8) (size 9 to 14) (size 15 to 20)
#    0.000    2.000    0.000    3.750    3.500    3.000 
#    0.000    3.125    0.000    0.000    0.000    0.000 
#    0.000    0.000    0.000    0.000    0.000    0.000 
#
# Total GULP energy -357316.777789 kJ/mol
# GULP energy per Si atom -5583.074653 kJ/mol
# Density = 1.980920 g / cm^3
# Si number density = 19.854391 Si / 1000 Ang^3
#
#
#
# Elastic Constant Matrix: (Units=GPa)
#
#
# Indices 1 2 3 4 5 6 
#
# 1 60.1152 43.9677 15.3448 0.0000 0.0000 0.0000
# 2 43.9677 95.7254 20.0574 0.0000 0.0000 0.0000
# 3 15.3448 20.0574 36.8247 0.0000 0.0000 0.0000
# 4 0.0000 0.0000 0.0000 82.7852 0.0000 0.0000
# 5 0.0000 0.0000 0.0000 0.0000 15.1854 0.0000
# 6 0.0000 0.0000 0.0000 0.0000 0.0000 29.5649
#
#
#
# Elastic Compliance Matrix: (Units=1/GPa)
#
#
# Indices 1 2 3 4 5 6 
#
# 1 0.025795 -0.010832 -0.004849 0.000000 0.000000 0.000000
# 2 -0.010832 0.016341 -0.004387 0.000000 0.000000 0.000000
# 3 -0.004849 -0.004387 0.031566 0.000000 0.000000 0.000000
# 4 0.000000 0.000000 0.000000 0.012079 0.000000 0.000000
# 5 0.000000 0.000000 0.000000 0.000000 0.065853 0.000000
# 6 0.000000 0.000000 0.000000 0.000000 0.000000 0.033824
#
#
# Mechanical properties :
#
#
# Convention : Reuss Voigt Hill
#
# Bulk Modulus (GPa) = 29.79184 39.04501 34.41843
# Shear Modulus (GPa) = 21.11657 33.06013 27.08835
#
# Velocity S-wave (km/s) = 3.26478 4.08503 3.69772
# Velocity P-wave (km/s) = 5.40828 6.47752 5.96690
#
# Compressibility (1/GPa) = 0.03356623
#
# Stress axis : x y z
#
# Youngs Moduli (GPa) = 38.76764 61.19613 31.68007
#
# Poissons Ratio (x) = 0.66287 0.15361
# Poissons Ratio (y) = 0.41992 0.13898
# Poissons Ratio (z) = 0.18798 0.26846
#
# Static dielectric constant tensor:
#      x y z
#    x 1.671320 0.000000 0.000000 
#    y 0.000000 1.701720 0.000000 
#    z 0.000000 0.000000 1.692990 
# 
# From -- ./inp_files/9823.got.cif
#   From: 2010.05.17/outbox.cif.g08.bks.cpg/sg55_5_cif.got.tgz:9823.got - 2010.06.03 13:27:54.
