data_PCOD9427661
_publ_section_title
;
Structure prediction by ZEFSAII (Michael W. Deem and Ramdas Pophale) SiO2 
 PCOD9427661
Probable space group: P B A M
;
_chemical_formula_sum "Si O2"
_cell_formula_units_Z 48
_cell_length_a 13.080909
_cell_length_b 11.074672
_cell_length_c 14.381233
_cell_angle_alpha 90.000000
_cell_angle_beta 90.000000
_cell_angle_gamma 90.000000
_cell_volume 2083.362869
_symmetry_space_group_name_H-M "P B A M"
_symmetry_group_IT_number 55
_symmetry_cell_setting 'orthorhombic'
loop_
_space_group_symop_operation_xyz
x,y,z
-x,-y,z
1/2+x,1/2-y,-z
1/2-x,1/2+y,-z
-x,-y,-z
x,y,-z
1/2-x,1/2+y,z
1/2+x,1/2-y,z
loop_
_atom_site_type_symbol
_atom_site_label
_atom_site_fract_x
_atom_site_fract_y
_atom_site_fract_z
Si Si1 0.370475 0.416151 0.196387
Si Si2 0.685079 0.291318 0.000000
Si Si3 0.531521 0.715462 0.500000
Si Si4 0.054522 0.678408 0.703506
Si Si5 0.350501 0.425077 0.000000
Si Si6 0.723283 0.392379 0.306837
Si Si7 0.147300 0.321305 0.196736
Si Si8 0.842685 0.975221 0.500000
O O1 0.417849 0.309700 0.254888
O O2 0.413987 0.418331 0.094078
O O3 0.367689 0.536926 0.254544
O O4 0.247197 0.402563 0.178597
O O5 0.700238 0.437915 0.000000
O O6 0.634206 0.252702 0.099202
O O7 0.783704 0.200367 0.000000
O O8 0.534227 0.796474 0.406224
O O9 0.435465 0.622762 0.500000
O O10 0.622828 0.615257 0.500000
O O11 0.157928 0.603444 0.720640
O O12 0.959387 0.632279 0.763827
O O13 0.689647 0.257277 0.283941
O O14 0.720168 0.442970 0.409375
#
# Coordination Sequence:
#
# PCOD9427661 Si02
#       8
#     8   4   4   8   4   8   8   4
#     4  10  22  39  62  89 121 165 208 258 314 388
#     4  10  20  39  66  95 131 171 221 274 323 388
#     4  11  21  36  60  91 120 152 202 265 318 372
#     4  11  23  39  61  88 126 164 202 262 324 375
#     4  10  20  39  64  95 129 171 215 268 324 386
#     4  11  21  39  62  83 121 165 205 252 317 382
#     4  10  22  39  60  91 123 160 210 258 318 383
#     4  11  21  36  62  89 118 158 206 259 314 384
#
# _framework density 23.039674000000002
#
# number of rings (size 3 to 8) (size 9 to 14) (size 15 to 20)
#    0.000    1.500    5.000    0.500    0.000    2.000 
#    0.000    3.333    0.000    5.000    0.000    0.000 
#    0.000    0.000    0.000    0.000    0.000    0.000 
#
# Total GULP energy -267469.554587 kJ/mol
# GULP energy per Si atom -5572.282387 kJ/mol
# Density = 2.298724 g / cm^3
# Si number density = 23.039674 Si / 1000 Ang^3
#
#
#
# Elastic Constant Matrix: (Units=GPa)
#
#
# Indices 1 2 3 4 5 6 
#
# 1 95.5795 7.8805 0.5392 0.0000 0.0000 0.0000
# 2 7.8805 50.4107 0.8758 0.0000 0.0000 0.0000
# 3 0.5392 0.8758 120.8651 0.0000 0.0000 0.0000
# 4 0.0000 0.0000 0.0000 205.8348 0.0000 0.0000
# 5 0.0000 0.0000 0.0000 0.0000 104.3765 0.0000
# 6 0.0000 0.0000 0.0000 0.0000 0.0000 37.0442
#
#
#
# Elastic Compliance Matrix: (Units=1/GPa)
#
#
# Indices 1 2 3 4 5 6 
#
# 1 0.010599 -0.001656 -0.000035 0.000000 0.000000 0.000000
# 2 -0.001656 0.020098 -0.000138 0.000000 0.000000 0.000000
# 3 -0.000035 -0.000138 0.008275 0.000000 0.000000 0.000000
# 4 0.000000 0.000000 0.000000 0.004858 0.000000 0.000000
# 5 0.000000 0.000000 0.000000 0.000000 0.009581 0.000000
# 6 0.000000 0.000000 0.000000 0.000000 0.000000 0.026995
#
#
# Mechanical properties :
#
#
# Convention : Reuss Voigt Hill
#
# Bulk Modulus (GPa) = 28.31837 31.71627 30.01732
# Shear Modulus (GPa) = 52.17199 86.62175 69.39687
#
# Velocity S-wave (km/s) = 4.76378 6.13827 5.49418
# Velocity P-wave (km/s) = 6.52502 8.00210 7.30101
#
# Compressibility (1/GPa) = 0.03531277
#
# Stress axis : x y z
#
# Youngs Moduli (GPa) = 94.34627 49.75525 120.84815
#
# Poissons Ratio (x) = 0.08241 0.00426
# Poissons Ratio (y) = 0.15627 0.01671
# Poissons Ratio (z) = 0.00333 0.00688
#
# Static dielectric constant tensor:
#      x y z
#    x 1.931060 0.000000 0.000000 
#    y 0.000000 1.908330 0.000000 
#    z 0.000000 0.000000 1.912860 
# 
# From -- ./inp_files/18331.got.cif
#   From: 2010.05.17/outbox.cif.g08.bks.cpg/sg55_10_cif.got.tgz:18331.got - 2010.06.03 13:27:54.
