data_PCOD9427642
_publ_section_title
;
Structure prediction by ZEFSAII (Michael W. Deem and Ramdas Pophale) SiO2 
 PCOD9427642
Probable space group: P B A M
;
_chemical_formula_sum "Si O2"
_cell_formula_units_Z 48
_cell_length_a 20.788318
_cell_length_b 14.450895
_cell_length_c 8.537634
_cell_angle_alpha 90.000000
_cell_angle_beta 90.000000
_cell_angle_gamma 90.000000
_cell_volume 2564.788928
_symmetry_space_group_name_H-M "P B A M"
_symmetry_group_IT_number 55
_symmetry_cell_setting 'orthorhombic'
loop_
_space_group_symop_operation_xyz
x,y,z
-x,-y,z
1/2+x,1/2-y,-z
1/2-x,1/2+y,-z
-x,-y,-z
x,y,-z
1/2-x,1/2+y,z
1/2+x,1/2-y,z
loop_
_atom_site_type_symbol
_atom_site_label
_atom_site_fract_x
_atom_site_fract_y
_atom_site_fract_z
Si Si1 0.439528 0.068605 0.682304
Si Si2 0.003123 0.751271 0.185265
Si Si3 0.562033 0.558964 0.809578
Si Si4 0.815013 0.547705 0.310427
Si Si5 0.857609 0.751657 0.687560
Si Si6 0.812479 0.948135 0.188220
O O1 0.429963 0.095641 0.500000
O O2 0.458886 0.157840 0.779675
O O3 0.500000 0.000000 0.687302
O O4 0.377051 0.012879 0.736943
O O5 0.932876 0.751227 0.264259
O O6 0.046917 0.836936 0.240676
O O7 0.991857 0.762410 0.000000
O O8 0.500000 0.500000 0.762384
O O9 0.626743 0.509533 0.755114
O O10 0.564751 0.558328 0.000000
O O11 0.813313 0.548453 0.500000
O O12 0.825829 0.654285 0.259244
O O13 0.751784 0.497619 0.247632
O O14 0.854005 0.754732 0.500000
O O15 0.823476 0.843146 0.754438
O O16 0.812366 0.947021 0.000000
#
# Coordination Sequence:
#
# PCOD9427642 Si02
#       6
#     8   8   8   8   8   8
#     4  10  20  39  61  84 117 158 200 244 300 358
#     4  11  21  35  61  93 121 153 203 256 304 352
#     4   9  18  36  58  83 119 155 188 239 301 352
#     4  10  23  42  62  85 121 163 200 245 300 364
#     4  11  22  40  63  87 120 162 204 244 304 368
#     4  11  23  40  63  90 122 158 200 251 306 361
#
# _framework density 18.71499
#
# number of rings (size 3 to 8) (size 9 to 14) (size 15 to 20)
#    0.000    1.667    3.333    1.500    0.000    3.667 
#    0.000    7.500    0.000    0.000    0.000    0.000 
#    0.000    0.000    0.000    0.000    0.000    0.000 
#
# Total GULP energy -268012.931481 kJ/mol
# GULP energy per Si atom -5583.602739 kJ/mol
# Density = 1.867239 g / cm^3
# Si number density = 18.714990 Si / 1000 Ang^3
#
#
#
# Elastic Constant Matrix: (Units=GPa)
#
#
# Indices 1 2 3 4 5 6 
#
# 1 165.5461 87.7684 24.6352 0.0000 0.0000 0.0000
# 2 87.7684 170.7604 31.0903 0.0000 0.0000 0.0000
# 3 24.6352 31.0903 23.1337 0.0000 0.0000 0.0000
# 4 0.0000 0.0000 0.0000 75.2925 0.0000 0.0000
# 5 0.0000 0.0000 0.0000 0.0000 25.5744 0.0000
# 6 0.0000 0.0000 0.0000 0.0000 0.0000 30.0131
#
#
#
# Elastic Compliance Matrix: (Units=1/GPa)
#
#
# Indices 1 2 3 4 5 6 
#
# 1 0.008610 -0.003649 -0.004265 0.000000 0.000000 0.000000
# 2 -0.003649 0.009300 -0.008613 0.000000 0.000000 0.000000
# 3 -0.004265 -0.008613 0.059343 0.000000 0.000000 0.000000
# 4 0.000000 0.000000 0.000000 0.013282 0.000000 0.000000
# 5 0.000000 0.000000 0.000000 0.000000 0.039102 0.000000
# 6 0.000000 0.000000 0.000000 0.000000 0.000000 0.033319
#
#
# Mechanical properties :
#
#
# Convention : Reuss Voigt Hill
#
# Bulk Modulus (GPa) = 22.62418 71.82531 47.22474
# Shear Modulus (GPa) = 23.72583 40.57244 32.14914
#
# Velocity S-wave (km/s) = 3.56440 4.66113 4.14917
# Velocity P-wave (km/s) = 5.39027 8.21158 6.94568
#
# Compressibility (1/GPa) = 0.04420051
#
# Stress axis : x y z
#
# Youngs Moduli (GPa) = 116.14716 107.53046 16.85105
#
# Poissons Ratio (x) = 0.39236 0.07187
# Poissons Ratio (y) = 0.42380 0.14513
# Poissons Ratio (z) = 0.49534 0.92612
#
# Static dielectric constant tensor:
#      x y z
#    x 1.613100 0.000000 0.000000 
#    y 0.000000 1.687930 0.000000 
#    z 0.000000 0.000000 1.649080 
# 
# From -- ./inp_files/7423.got.cif
#   From: 2010.05.17/outbox.cif.g08.bks.cpg/sg55_4_cif.got.tgz:7423.got - 2010.06.03 13:27:54.
