data_PCOD9427454
_publ_section_title
;
Structure prediction by ZEFSAII (Michael W. Deem and Ramdas Pophale) SiO2 
 PCOD9427454
Probable space group: P B A M
;
_chemical_formula_sum "Si O2"
_cell_formula_units_Z 32
_cell_length_a 10.252356
_cell_length_b 15.213645
_cell_length_c 10.656144
_cell_angle_alpha 90.000000
_cell_angle_beta 90.000000
_cell_angle_gamma 90.000000
_cell_volume 1662.099569
_symmetry_space_group_name_H-M "P B A M"
_symmetry_group_IT_number 55
_symmetry_cell_setting 'orthorhombic'
loop_
_space_group_symop_operation_xyz
x,y,z
-x,-y,z
1/2+x,1/2-y,-z
1/2-x,1/2+y,-z
-x,-y,-z
x,y,-z
1/2-x,1/2+y,z
1/2+x,1/2-y,z
loop_
_atom_site_type_symbol
_atom_site_label
_atom_site_fract_x
_atom_site_fract_y
_atom_site_fract_z
Si Si1 0.793947 0.728720 0.733264
Si Si2 0.639640 0.402703 0.855023
Si Si3 0.135960 0.457384 0.150397
Si Si4 0.978960 0.162888 0.637867
O O1 0.840839 0.637875 0.792598
O O2 0.656128 0.710259 0.669542
O O3 0.904528 0.765744 0.640842
O O4 0.788963 0.807944 0.835018
O O5 0.521473 0.398031 0.755451
O O6 0.598205 0.411484 0.000000
O O7 0.256259 0.522437 0.177832
O O8 0.000000 0.500000 0.194272
O O9 0.129051 0.449088 0.000000
O O10 0.972826 0.121079 0.500000
#
# Coordination Sequence:
#
# PCOD9427454 Si02
#       4
#     8   8   8   8
#     4  10  21  38  64  86 124 161 206 249 312 356
#     4   9  21  37  60  91 121 153 203 253 305 364
#     4  10  20  37  61  94 127 159 203 257 311 372
#     4  10  22  40  62  86 124 166 207 250 303 367
#
# _framework density 19.252756999999999
#
# number of rings (size 3 to 8) (size 9 to 14) (size 15 to 20)
#    1.500    0.750    0.000    3.000    0.000    3.000 
#    0.000    6.250    0.000    5.250    0.000    0.000 
#    0.000    0.000    0.000    0.000    0.000    0.000 
#
# Total GULP energy -178272.046908 kJ/mol
# GULP energy per Si atom -5571.001466 kJ/mol
# Density = 1.920894 g / cm^3
# Si number density = 19.252757 Si / 1000 Ang^3
#
#
#
# Elastic Constant Matrix: (Units=GPa)
#
#
# Indices 1 2 3 4 5 6 
#
# 1 106.2007 9.1137 32.6333 0.0000 0.0000 0.0000
# 2 9.1137 98.2778 18.8199 0.0000 0.0000 0.0000
# 3 32.6333 18.8199 58.4102 0.0000 0.0000 0.0000
# 4 0.0000 0.0000 0.0000 6.2610 0.0000 0.0000
# 5 0.0000 0.0000 0.0000 0.0000 269.9129 0.0000
# 6 0.0000 0.0000 0.0000 0.0000 0.0000 23.5009
#
#
#
# Elastic Compliance Matrix: (Units=1/GPa)
#
#
# Indices 1 2 3 4 5 6 
#
# 1 0.011370 0.000173 -0.006408 0.000000 0.000000 0.000000
# 2 0.000173 0.010847 -0.003591 0.000000 0.000000 0.000000
# 3 -0.006408 -0.003591 0.021858 0.000000 0.000000 0.000000
# 4 0.000000 0.000000 0.000000 0.159720 0.000000 0.000000
# 5 0.000000 0.000000 0.000000 0.000000 0.003705 0.000000
# 6 0.000000 0.000000 0.000000 0.000000 0.000000 0.042552
#
#
# Mechanical properties :
#
#
# Convention : Reuss Voigt Hill
#
# Bulk Modulus (GPa) = 40.94793 42.66916 41.80854
# Shear Modulus (GPa) = 17.99562 73.42309 45.70935
#
# Velocity S-wave (km/s) = 3.06061 6.18217 4.87783
# Velocity P-wave (km/s) = 5.81417 8.55393 7.31349
#
# Compressibility (1/GPa) = 0.02442126
#
# Stress axis : x y z
#
# Youngs Moduli (GPa) = 87.94756 92.19171 45.75056
#
# Poissons Ratio (x) = -0.01592 0.29318
# Poissons Ratio (y) = -0.01519 0.16431
# Poissons Ratio (z) = 0.56359 0.33110
#
# Static dielectric constant tensor:
#      x y z
#    x 1.661360 0.000000 0.000000 
#    y 0.000000 1.656990 0.000000 
#    z 0.000000 0.000000 1.672310 
# 
# From -- ./inp_files/3533.got.cif
#   From: 2010.05.17/outbox.cif.g08.bks.cpg/sg55_2_cif.got.tgz:3533.got - 2010.06.03 13:27:54.
