data_PCOD9427807
_publ_section_title
;
Structure prediction by ZEFSAII (Michael W. Deem and Ramdas Pophale) SiO2 
 PCOD9427807
Probable space group: P B A M
;
_chemical_formula_sum "Si O2"
_cell_formula_units_Z 32
_cell_length_a 10.209211
_cell_length_b 13.136886
_cell_length_c 9.987121
_cell_angle_alpha 90.000000
_cell_angle_beta 90.000000
_cell_angle_gamma 90.000000
_cell_volume 1339.445115
_symmetry_space_group_name_H-M "P B A M"
_symmetry_group_IT_number 55
_symmetry_cell_setting 'orthorhombic'
loop_
_space_group_symop_operation_xyz
x,y,z
-x,-y,z
1/2+x,1/2-y,-z
1/2-x,1/2+y,-z
-x,-y,-z
x,y,-z
1/2-x,1/2+y,z
1/2+x,1/2-y,z
loop_
_atom_site_type_symbol
_atom_site_label
_atom_site_fract_x
_atom_site_fract_y
_atom_site_fract_z
Si Si1 0.442366 0.401362 0.727636
Si Si2 0.331773 0.879703 0.849450
Si Si3 0.708269 0.360578 0.855339
Si Si4 0.932216 0.336596 0.345304
O O1 0.500000 0.500000 0.649815
O O2 0.302565 0.427552 0.793473
O O3 0.556632 0.387755 0.836981
O O4 0.434014 0.288725 0.661255
O O5 0.292724 0.761692 0.860195
O O6 0.447293 0.880259 0.741141
O O7 0.371629 0.909926 0.000000
O O8 0.803406 0.377695 0.729657
O O9 0.758393 0.395622 0.000000
O O10 0.938191 0.365898 0.500000
#
# Coordination Sequence:
#
# PCOD9427807 Si02
#       4
#     8   8   8   8
#     4  10  21  35  57  90 119 141 179 239 294 334
#     4   9  18  34  57  83 111 145 187 233 280 333
#     4   9  18  34  57  83 111 145 187 233 280 333
#     4  10  21  38  59  81 111 155 197 227 268 334
#
# _framework density 23.890488999999999
#
# number of rings (size 3 to 8) (size 9 to 14) (size 15 to 20)
#    0.000    2.500    0.000    1.500    0.000   17.500 
#    0.000    1.250    0.000    4.500    0.000    0.000 
#    0.000    0.000    0.000    0.000    0.000    0.000 
#
# Total GULP energy -178564.079899 kJ/mol
# GULP energy per Si atom -5580.127497 kJ/mol
# Density = 2.383611 g / cm^3
# Si number density = 23.890489 Si / 1000 Ang^3
#
#
#
# Elastic Constant Matrix: (Units=GPa)
#
#
# Indices 1 2 3 4 5 6 
#
# 1 154.0716 36.2489 109.0729 0.0000 0.0000 0.0000
# 2 36.2489 104.5424 24.5983 0.0000 0.0000 0.0000
# 3 109.0729 24.5983 243.8639 0.0000 0.0000 0.0000
# 4 0.0000 0.0000 0.0000 -23.4381 0.0000 0.0000
# 5 0.0000 0.0000 0.0000 0.0000 12.2648 0.0000
# 6 0.0000 0.0000 0.0000 0.0000 0.0000 46.9971
#
#
#
# Elastic Compliance Matrix: (Units=1/GPa)
#
#
# Indices 1 2 3 4 5 6 
#
# 1 0.010097 -0.002498 -0.004264 0.000000 0.000000 0.000000
# 2 -0.002498 0.010416 0.000066 0.000000 0.000000 0.000000
# 3 -0.004264 0.000066 0.006001 0.000000 0.000000 0.000000
# 4 0.000000 0.000000 0.000000 -0.042666 0.000000 0.000000
# 5 0.000000 0.000000 0.000000 0.000000 0.081534 0.000000
# 6 0.000000 0.000000 0.000000 0.000000 0.000000 0.021278
#
#
# Mechanical properties :
#
#
# Convention : Reuss Voigt Hill
#
# Bulk Modulus (GPa) = 76.19994 93.59090 84.89542
# Shear Modulus (GPa) = 47.88114 29.33528 38.60821
#
# Velocity S-wave (km/s) = 4.48168 3.50795 4.02437
# Velocity P-wave (km/s) = 7.66455 7.46107 7.56350
#
# Compressibility (1/GPa) = 0.01312337
#
# Stress axis : x y z
#
# Youngs Moduli (GPa) = 99.04124 96.00724 166.63537
#
# Poissons Ratio (x) = 0.23979 0.71054
# Poissons Ratio (y) = 0.24737 -0.01108
# Poissons Ratio (z) = 0.42232 -0.00638
#
# Static dielectric constant tensor:
#      x y z
#    x 1.865110 0.000000 0.000000 
#    y 0.000000 2.080420 0.000000 
#    z 0.000000 0.000000 1.831170 
# 
# From -- ./inp_files/11601.got.cif
#   From: 2010.05.17/outbox.cif.g08.bks.cpg/sg55_6_cif.got.tgz:11601.got - 2010.06.03 13:27:54.
