data_PCOD9427765
_publ_section_title
;
Structure prediction by ZEFSAII (Michael W. Deem and Ramdas Pophale) SiO2 
 PCOD9427765
Probable space group: P B A M
;
_chemical_formula_sum "Si O2"
_cell_formula_units_Z 64
_cell_length_a 24.609111
_cell_length_b 14.790698
_cell_length_c 7.463259
_cell_angle_alpha 90.000000
_cell_angle_beta 90.000000
_cell_angle_gamma 90.000000
_cell_volume 2716.521259
_symmetry_space_group_name_H-M "P B A M"
_symmetry_group_IT_number 55
_symmetry_cell_setting 'orthorhombic'
loop_
_space_group_symop_operation_xyz
x,y,z
-x,-y,z
1/2+x,1/2-y,-z
1/2-x,1/2+y,-z
-x,-y,-z
x,y,-z
1/2-x,1/2+y,z
1/2+x,1/2-y,z
loop_
_atom_site_type_symbol
_atom_site_label
_atom_site_fract_x
_atom_site_fract_y
_atom_site_fract_z
Si Si1 0.507404 0.806443 0.218810
Si Si2 0.120519 0.024476 0.202442
Si Si3 0.758603 0.965748 0.708041
Si Si4 0.575501 0.964360 0.203153
Si Si5 0.337173 0.897442 0.782351
Si Si6 0.671181 0.830050 0.287952
Si Si7 0.398094 0.329219 0.215595
Si Si8 0.391968 0.724915 0.781231
O O1 0.525479 0.906609 0.280739
O O2 0.552199 0.733218 0.278632
O O3 0.448528 0.771684 0.269339
O O4 0.509233 0.809684 0.000000
O O5 0.185595 0.015628 0.194268
O O6 0.109963 0.122502 0.285256
O O7 0.100067 0.931058 0.286133
O O8 0.097714 0.028083 0.000000
O O9 0.772455 0.953538 0.500000
O O10 0.727153 0.875509 0.773612
O O11 0.715489 0.047345 0.723420
O O12 0.622740 0.887079 0.197863
O O13 0.609134 0.047557 0.282736
O O14 0.561568 0.991448 0.000000
O O15 0.344150 0.793614 0.726453
O O16 0.337702 0.901503 0.000000
O O17 0.667502 0.848325 0.500000
O O18 0.657185 0.725613 0.258276
O O19 0.401047 0.333902 0.000000
O O20 0.389910 0.721179 0.000000
#
# Coordination Sequence:
#
# PCOD9427765 Si02
#       8
#     8   8   8   8   8   8   8   8
#     4   8  14  27  48  75 104 131 162 202 245 288
#     4  10  21  35  50  71  99 132 171 210 245 287
#     4  10  21  36  53  73  98 129 163 203 253 302
#     4   8  14  26  47  75 104 131 160 195 236 287
#     4   9  17  31  52  78 106 134 164 200 245 297
#     4   9  17  30  50  74  97 122 157 202 248 293
#     4   9  18  32  51  74  98 128 167 206 244 288
#     4   9  18  31  49  76 106 133 164 203 246 291
#
# _framework density 23.559543999999999
#
# number of rings (size 3 to 8) (size 9 to 14) (size 15 to 20)
#    0.000    3.000    0.000    1.500    0.000    4.000 
#    0.000    9.375    0.000    6.000    0.000   15.750 
#    0.000    0.000    0.000    0.000    0.000    0.000 
#
# Total GULP energy -357211.217562 kJ/mol
# GULP energy per Si atom -5581.425274 kJ/mol
# Density = 2.350592 g / cm^3
# Si number density = 23.559544 Si / 1000 Ang^3
#
#
#
# Elastic Constant Matrix: (Units=GPa)
#
#
# Indices 1 2 3 4 5 6 
#
# 1 51.2517 20.5464 -5.9924 0.0000 0.0000 0.0000
# 2 20.5464 163.2892 -2.8844 0.0000 0.0000 0.0000
# 3 -5.9924 -2.8844 78.0107 0.0000 0.0000 0.0000
# 4 0.0000 0.0000 0.0000 -7.7071 0.0000 0.0000
# 5 0.0000 0.0000 0.0000 0.0000 21.3868 0.0000
# 6 0.0000 0.0000 0.0000 0.0000 0.0000 27.1417
#
#
#
# Elastic Compliance Matrix: (Units=1/GPa)
#
#
# Indices 1 2 3 4 5 6 
#
# 1 0.020721 -0.002581 0.001496 0.000000 0.000000 0.000000
# 2 -0.002581 0.006450 0.000040 0.000000 0.000000 0.000000
# 3 0.001496 0.000040 0.012935 0.000000 0.000000 0.000000
# 4 0.000000 0.000000 0.000000 -0.129751 0.000000 0.000000
# 5 0.000000 0.000000 0.000000 0.000000 0.046758 0.000000
# 6 0.000000 0.000000 0.000000 0.000000 0.000000 0.036844
#
#
# Mechanical properties :
#
#
# Convention : Reuss Voigt Hill
#
# Bulk Modulus (GPa) = 26.30394 35.09899 30.70146
# Shear Modulus (GPa) = 573.55413 26.88976 300.22195
#
# Velocity S-wave (km/s) = 15.61977 3.38206 11.30079
# Velocity P-wave (km/s) = 18.34372 5.49376 13.54019
#
# Compressibility (1/GPa) = 0.03801713
#
# Stress axis : x y z
#
# Youngs Moduli (GPa) = 48.25984 155.04927 77.30860
#
# Poissons Ratio (x) = 0.40016 -0.11568
# Poissons Ratio (y) = 0.12455 -0.00311
# Poissons Ratio (z) = -0.07221 -0.00624
#
# Static dielectric constant tensor:
#      x y z
#    x 1.882080 0.000000 0.000000 
#    y 0.000000 1.925960 0.000000 
#    z 0.000000 0.000000 1.900030 
# 
# From -- ./inp_files/9793.got.cif
#   From: 2010.05.17/outbox.cif.g08.bks.cpg/sg55_5_cif.got.tgz:9793.got - 2010.06.03 13:27:54.
