data_PCOD9427975
_publ_section_title
;
Structure prediction by ZEFSAII (Michael W. Deem and Ramdas Pophale) SiO2 
 PCOD9427975
Probable space group: P B A M
;
_chemical_formula_sum "Si O2"
_cell_formula_units_Z 56
_cell_length_a 21.727026
_cell_length_b 14.900751
_cell_length_c 9.220107
_cell_angle_alpha 90.000000
_cell_angle_beta 90.000000
_cell_angle_gamma 90.000000
_cell_volume 2985.000462
_symmetry_space_group_name_H-M "P B A M"
_symmetry_group_IT_number 55
_symmetry_cell_setting 'orthorhombic'
loop_
_space_group_symop_operation_xyz
x,y,z
-x,-y,z
1/2+x,1/2-y,-z
1/2-x,1/2+y,-z
-x,-y,-z
x,y,-z
1/2-x,1/2+y,z
1/2+x,1/2-y,z
loop_
_atom_site_type_symbol
_atom_site_label
_atom_site_fract_x
_atom_site_fract_y
_atom_site_fract_z
Si Si1 0.122577 0.796736 0.172029
Si Si2 0.648261 0.988644 0.832081
Si Si3 0.528978 0.865210 0.835585
Si Si4 0.282713 0.170370 0.327195
Si Si5 0.571845 0.508146 0.825018
Si Si6 0.861919 0.843562 0.672442
Si Si7 0.093319 0.352326 0.328404
O O1 0.065460 0.727820 0.188831
O O2 0.179144 0.752955 0.258636
O O3 0.101158 0.895771 0.216821
O O4 0.137545 0.797266 0.000000
O O5 0.581064 0.941256 0.828447
O O6 0.691555 0.920215 0.746070
O O7 0.640706 0.083868 0.755608
O O8 0.666872 0.995874 0.000000
O O9 0.475132 0.877305 0.721840
O O10 0.503173 0.865157 0.000000
O O11 0.293030 0.168388 0.500000
O O12 0.210096 0.173611 0.299021
O O13 0.500000 0.500000 0.781317
O O14 0.610483 0.427151 0.757833
O O15 0.573711 0.503084 0.000000
O O16 0.868802 0.859669 0.500000
O O17 0.896711 0.751580 0.709659
O O18 0.101387 0.363572 0.500000
#
# Coordination Sequence:
#
# PCOD9427975 Si02
#       7
#     8   8   8   8   8   8   8
#     4   9  19  36  58  84 113 144 182 229 279 331
#     4  10  21  37  57  81 110 143 180 224 274 326
#     4   9  18  34  55  80 112 144 174 216 271 327
#     4  10  21  39  59  79 108 146 187 228 276 332
#     4  10  21  38  61  88 116 149 191 237 284 336
#     4  10  24  41  55  78 113 149 185 231 280 329
#     4  11  22  35  53  80 112 144 181 222 268 325
#
# _framework density 18.760465
#
# number of rings (size 3 to 8) (size 9 to 14) (size 15 to 20)
#    0.000    2.143    0.000    3.429    0.000   10.000 
#    0.000    4.286    0.000    0.000    0.000    0.000 
#    0.000    0.000    0.000    0.000    0.000    0.000 
#
# Total GULP energy -312743.956425 kJ/mol
# GULP energy per Si atom -5584.713508 kJ/mol
# Density = 1.871777 g / cm^3
# Si number density = 18.760465 Si / 1000 Ang^3
#
#
#
# Elastic Constant Matrix: (Units=GPa)
#
#
# Indices 1 2 3 4 5 6 
#
# 1 43.3710 7.5323 21.7571 0.0000 0.0000 0.0000
# 2 7.5323 99.2376 30.2191 0.0000 0.0000 0.0000
# 3 21.7571 30.2191 49.9299 0.0000 0.0000 0.0000
# 4 0.0000 0.0000 0.0000 27.8629 0.0000 0.0000
# 5 0.0000 0.0000 0.0000 0.0000 36.7841 0.0000
# 6 0.0000 0.0000 0.0000 0.0000 0.0000 7.8228
#
#
#
# Elastic Compliance Matrix: (Units=1/GPa)
#
#
# Indices 1 2 3 4 5 6 
#
# 1 0.029853 0.002078 -0.014266 0.000000 0.000000 0.000000
# 2 0.002078 0.012498 -0.008470 0.000000 0.000000 0.000000
# 3 -0.014266 -0.008470 0.031371 0.000000 0.000000 0.000000
# 4 0.000000 0.000000 0.000000 0.035890 0.000000 0.000000
# 5 0.000000 0.000000 0.000000 0.000000 0.027186 0.000000
# 6 0.000000 0.000000 0.000000 0.000000 0.000000 0.127831
#
#
# Mechanical properties :
#
#
# Convention : Reuss Voigt Hill
#
# Bulk Modulus (GPa) = 30.85840 34.61728 32.73784
# Shear Modulus (GPa) = 15.78551 23.36265 19.57408
#
# Velocity S-wave (km/s) = 2.90388 3.53273 3.23363
# Velocity P-wave (km/s) = 5.26571 5.92727 5.60626
#
# Compressibility (1/GPa) = 0.03240608
#
# Stress axis : x y z
#
# Youngs Moduli (GPa) = 33.49798 80.01092 31.87669
#
# Poissons Ratio (x) = -0.16629 0.45476
# Poissons Ratio (y) = -0.06962 0.27000
# Poissons Ratio (z) = 0.47789 0.67769
#
# Static dielectric constant tensor:
#      x y z
#    x 1.646430 0.000000 0.000000 
#    y 0.000000 1.649450 0.000000 
#    z 0.000000 0.000000 1.629710 
# 
# From -- ./inp_files/8770.got.cif
#   From: 2010.05.17/outbox.cif.g08.bks.cpg/sg55_5_cif.got.tgz:8770.got - 2010.06.03 13:27:54.
