data_PCOD9427313
_publ_section_title
;
Structure prediction by ZEFSAII (Michael W. Deem and Ramdas Pophale) SiO2 
 PCOD9427313
Probable space group: P B A M
;
_chemical_formula_sum "Si O2"
_cell_formula_units_Z 56
_cell_length_a 13.201470
_cell_length_b 9.597056
_cell_length_c 20.249513
_cell_angle_alpha 90.000000
_cell_angle_beta 90.000000
_cell_angle_gamma 90.000000
_cell_volume 2565.517049
_symmetry_space_group_name_H-M "P B A M"
_symmetry_group_IT_number 55
_symmetry_cell_setting 'orthorhombic'
loop_
_space_group_symop_operation_xyz
x,y,z
-x,-y,z
1/2+x,1/2-y,-z
1/2-x,1/2+y,-z
-x,-y,-z
x,y,-z
1/2-x,1/2+y,z
1/2+x,1/2-y,z
loop_
_atom_site_type_symbol
_atom_site_label
_atom_site_fract_x
_atom_site_fract_y
_atom_site_fract_z
Si Si1 0.645256 0.890095 0.073664
Si Si2 0.289142 0.621346 0.332353
Si Si3 0.500440 0.158689 0.198565
Si Si4 0.529753 0.338974 0.424158
Si Si5 0.102380 0.584847 0.577857
Si Si6 0.707348 0.174049 0.869926
Si Si7 0.338974 0.349877 0.746667
O O1 0.565578 0.855993 0.131387
O O2 0.744863 0.801047 0.090664
O O3 0.673010 0.051135 0.082138
O O4 0.608286 0.859775 0.000000
O O5 0.376428 0.689710 0.376701
O O6 0.200705 0.557599 0.378836
O O7 0.234712 0.735725 0.286935
O O8 0.337251 0.493599 0.292185
O O9 0.610817 0.205347 0.176021
O O10 0.445445 0.270615 0.244475
O O11 0.500000 0.000000 0.227122
O O12 0.500000 0.500000 0.419351
O O13 0.560163 0.308287 0.500000
O O14 0.431977 0.244549 0.410891
O O15 0.123678 0.563184 0.500000
O O16 0.000000 0.500000 0.594092
O O17 0.793015 0.120519 0.819180
#
# Coordination Sequence:
#
# PCOD9427313 Si02
#       7
#     8   8   8   8   8   8   8
#     4  10  20  36  62  92 116 149 201 247 293 358
#     4  12  23  39  62  90 121 160 209 259 312 368
#     4   9  20  39  61  85 119 162 200 242 300 359
#     4  10  22  40  60  86 120 156 198 251 312 374
#     4  10  22  40  62  89 120 155 200 257 318 374
#     4  10  21  40  58  81 122 158 190 244 301 349
#     4  11  24  39  60  89 120 160 207 249 298 366
#
# _framework density 21.827960000000001
#
# number of rings (size 3 to 8) (size 9 to 14) (size 15 to 20)
#    0.000    1.714    0.000    5.143    0.000    7.143 
#    0.000   12.857    0.000    4.286    0.000    0.000 
#    0.000    0.000    0.000    0.000    0.000    0.000 
#
# Total GULP energy -313327.546588 kJ/mol
# GULP energy per Si atom -5595.134761 kJ/mol
# Density = 2.177828 g / cm^3
# Si number density = 21.827960 Si / 1000 Ang^3
#
#
#
# Elastic Constant Matrix: (Units=GPa)
#
#
# Indices 1 2 3 4 5 6 
#
# 1 59.5969 10.3311 8.2072 0.0000 0.0000 0.0000
# 2 10.3311 66.9898 14.3876 0.0000 0.0000 0.0000
# 3 8.2072 14.3876 68.5219 0.0000 0.0000 0.0000
# 4 0.0000 0.0000 0.0000 24.5269 0.0000 0.0000
# 5 0.0000 0.0000 0.0000 0.0000 12.8762 0.0000
# 6 0.0000 0.0000 0.0000 0.0000 0.0000 32.3406
#
#
#
# Elastic Compliance Matrix: (Units=1/GPa)
#
#
# Indices 1 2 3 4 5 6 
#
# 1 0.017405 -0.002342 -0.001593 0.000000 0.000000 0.000000
# 2 -0.002342 0.015948 -0.003068 0.000000 0.000000 0.000000
# 3 -0.001593 -0.003068 0.015429 0.000000 0.000000 0.000000
# 4 0.000000 0.000000 0.000000 0.040771 0.000000 0.000000
# 5 0.000000 0.000000 0.000000 0.000000 0.077662 0.000000
# 6 0.000000 0.000000 0.000000 0.000000 0.000000 0.030921
#
#
# Mechanical properties :
#
#
# Convention : Reuss Voigt Hill
#
# Bulk Modulus (GPa) = 28.75595 28.99561 28.87578
# Shear Modulus (GPa) = 22.34797 24.76093 23.55445
#
# Velocity S-wave (km/s) = 3.20319 3.37169 3.28852
# Velocity P-wave (km/s) = 5.18489 5.33575 5.26086
#
# Compressibility (1/GPa) = 0.03477542
#
# Stress axis : x y z
#
# Youngs Moduli (GPa) = 57.45556 62.70465 64.81353
#
# Poissons Ratio (x) = 0.14686 0.10324
# Poissons Ratio (y) = 0.13456 0.19885
# Poissons Ratio (z) = 0.09152 0.19238
#
# Static dielectric constant tensor:
#      x y z
#    x 1.788760 0.000000 0.000000 
#    y 0.000000 1.784660 0.000000 
#    z 0.000000 0.000000 1.814960 
# 
# From -- ./inp_files/22984.got.cif
#   From: 2010.05.17/outbox.cif.g08.bks.cpg/sg55_12_cif.got.tgz:22984.got - 2010.06.03 13:27:54.
