data_PCOD9427035
_publ_section_title
;
Structure prediction by ZEFSAII (Michael W. Deem and Ramdas Pophale) SiO2 
 PCOD9427035
Probable space group: P B A M
;
_chemical_formula_sum "Si O2"
_cell_formula_units_Z 64
_cell_length_a 11.682089
_cell_length_b 28.452163
_cell_length_c 9.406127
_cell_angle_alpha 90.000000
_cell_angle_beta 90.000000
_cell_angle_gamma 90.000000
_cell_volume 3126.415080
_symmetry_space_group_name_H-M "P B A M"
_symmetry_group_IT_number 55
_symmetry_cell_setting 'orthorhombic'
loop_
_space_group_symop_operation_xyz
x,y,z
-x,-y,z
1/2+x,1/2-y,-z
1/2-x,1/2+y,-z
-x,-y,-z
x,y,-z
1/2-x,1/2+y,z
1/2+x,1/2-y,z
loop_
_atom_site_type_symbol
_atom_site_label
_atom_site_fract_x
_atom_site_fract_y
_atom_site_fract_z
Si Si1 0.103973 0.766088 0.158360
Si Si2 0.348190 0.646040 0.655153
Si Si3 0.145774 0.251759 0.717651
Si Si4 0.278522 0.931889 0.833540
Si Si5 0.370110 0.018982 0.666001
Si Si6 0.424868 0.854972 0.661573
Si Si7 0.549096 0.624152 0.841593
Si Si8 0.361936 0.117744 0.169471
O O1 0.218992 0.750762 0.240630
O O2 0.100875 0.823096 0.165499
O O3 0.972145 0.750597 0.187426
O O4 0.130026 0.750173 0.000000
O O5 0.309976 0.628835 0.500000
O O6 0.369882 0.701622 0.643316
O O7 0.461408 0.620812 0.712484
O O8 0.257696 0.638693 0.779953
O O9 0.131061 0.303606 0.653274
O O10 0.349591 0.891968 0.749835
O O11 0.148859 0.913746 0.832712
O O12 0.296248 0.980029 0.748848
O O13 0.315335 0.935535 0.000000
O O14 0.336743 0.025165 0.500000
O O15 0.368256 0.066516 0.757357
O O16 0.500000 0.000000 0.666460
O O17 0.445198 0.872102 0.500000
O O18 0.541524 0.852164 0.750483
O O19 0.494981 0.620502 0.000000
O O20 0.376305 0.116277 0.000000
#
# Coordination Sequence:
#
# PCOD9427035 Si02
#       8
#     8   8   8   8   8   8   8   8
#     4  10  20  35  58  86 124 168 219 273 331 391
#     4  11  24  43  64  90 128 174 218 269 327 389
#     4  11  23  39  59  93 128 178 224 277 329 396
#     4  11  22  39  65  96 128 164 210 265 319 383
#     4  11  23  41  67  99 133 169 208 263 329 394
#     4  12  24  39  61  93 131 171 215 267 321 387
#     4   9  20  40  62  89 122 163 213 265 318 381
#     4  12  26  44  68  98 132 173 216 269 329 390
#
# _framework density 20.470728999999999
#
# number of rings (size 3 to 8) (size 9 to 14) (size 15 to 20)
#    0.000    1.125    2.500    4.125    0.000    5.500 
#    0.000    1.875    0.000    3.750    0.000    0.000 
#    0.000    0.000    0.000    0.000    0.000    0.000 
#
# Total GULP energy -356725.645791 kJ/mol
# GULP energy per Si atom -5573.838215 kJ/mol
# Density = 2.042414 g / cm^3
# Si number density = 20.470729 Si / 1000 Ang^3
#
#
#
# Elastic Constant Matrix: (Units=GPa)
#
#
# Indices 1 2 3 4 5 6 
#
# 1 61.2028 -3.3713 29.2065 0.0000 0.0000 0.0000
# 2 -3.3713 62.3218 21.8630 0.0000 0.0000 0.0000
# 3 29.2065 21.8630 153.7444 0.0000 0.0000 0.0000
# 4 0.0000 0.0000 0.0000 8.2052 0.0000 0.0000
# 5 0.0000 0.0000 0.0000 0.0000 3.3678 0.0000
# 6 0.0000 0.0000 0.0000 0.0000 0.0000 25.3685
#
#
#
# Elastic Compliance Matrix: (Units=1/GPa)
#
#
# Indices 1 2 3 4 5 6 
#
# 1 0.018282 0.002323 -0.003803 0.000000 0.000000 0.000000
# 2 0.002323 0.017183 -0.002885 0.000000 0.000000 0.000000
# 3 -0.003803 -0.002885 0.007637 0.000000 0.000000 0.000000
# 4 0.000000 0.000000 0.000000 0.121874 0.000000 0.000000
# 5 0.000000 0.000000 0.000000 0.000000 0.296926 0.000000
# 6 0.000000 0.000000 0.000000 0.000000 0.000000 0.039419
#
#
# Mechanical properties :
#
#
# Convention : Reuss Voigt Hill
#
# Bulk Modulus (GPa) = 29.09298 41.40726 35.25012
# Shear Modulus (GPa) = 9.58756 22.69303 16.14030
#
# Velocity S-wave (km/s) = 2.16650 3.33312 2.81099
# Velocity P-wave (km/s) = 4.52782 5.92320 5.27188
#
# Compressibility (1/GPa) = 0.03437255
#
# Stress axis : x y z
#
# Youngs Moduli (GPa) = 54.69835 58.19544 130.94043
#
# Poissons Ratio (x) = -0.13520 0.49802
# Poissons Ratio (y) = -0.12708 0.37775
# Poissons Ratio (z) = 0.20804 0.16789
#
# Static dielectric constant tensor:
#      x y z
#    x 1.702010 0.000000 0.000000 
#    y 0.000000 1.727210 0.000000 
#    z 0.000000 0.000000 1.741770 
# 
# From -- ./inp_files/4644.got.cif
#   From: 2010.05.17/outbox.cif.g08.bks.cpg/sg55_3_cif.got.tgz:4644.got - 2010.06.03 13:27:54.
