data_PCOD9428185
_publ_section_title
;
Structure prediction by ZEFSAII (Michael W. Deem and Ramdas Pophale) SiO2 
 PCOD9428185
Probable space group: P B A M
;
_chemical_formula_sum "Si O2"
_cell_formula_units_Z 56
_cell_length_a 11.925507
_cell_length_b 20.171290
_cell_length_c 12.591689
_cell_angle_alpha 90.000000
_cell_angle_beta 90.000000
_cell_angle_gamma 90.000000
_cell_volume 3028.966802
_symmetry_space_group_name_H-M "P B A M"
_symmetry_group_IT_number 55
_symmetry_cell_setting 'orthorhombic'
loop_
_space_group_symop_operation_xyz
x,y,z
-x,-y,z
1/2+x,1/2-y,-z
1/2-x,1/2+y,-z
-x,-y,-z
x,y,-z
1/2-x,1/2+y,z
1/2+x,1/2-y,z
loop_
_atom_site_type_symbol
_atom_site_label
_atom_site_fract_x
_atom_site_fract_y
_atom_site_fract_z
Si Si1 0.455858 0.165712 0.378527
Si Si2 0.870295 0.514835 0.123828
Si Si3 0.896954 0.780057 0.125970
Si Si4 0.566685 0.434562 0.377258
Si Si5 0.263868 0.110256 0.224918
Si Si6 0.172824 0.351196 0.754948
Si Si7 0.575730 0.687504 0.302747
O O1 0.436821 0.144871 0.500000
O O2 0.368892 0.133892 0.295401
O O3 0.581496 0.150055 0.339356
O O4 0.437554 0.244511 0.367042
O O5 0.803143 0.447546 0.146613
O O6 0.827361 0.576582 0.192305
O O7 0.000000 0.500000 0.150713
O O8 0.863977 0.532258 0.000000
O O9 0.796569 0.828443 0.165616
O O10 0.868396 0.705244 0.162210
O O11 0.007447 0.801573 0.192252
O O12 0.911723 0.784855 0.000000
O O13 0.500000 0.500000 0.343100
O O14 0.599350 0.442353 0.500000
O O15 0.673041 0.420609 0.304648
O O16 0.485289 0.371945 0.363274
O O17 0.295649 0.330225 0.717015
#
# Coordination Sequence:
#
# PCOD9428185 Si02
#       7
#     8   8   8   8   8   8   8
#     4  11  23  39  61  89 123 166 205 256 315 360
#     4  11  23  39  62  88 124 165 199 246 312 371
#     4  10  22  39  63  90 122 160 202 253 310 360
#     4  10  21  38  62  87 116 160 201 247 305 361
#     4  11  21  42  60  89 125 159 203 255 301 371
#     4  11  22  42  60  93 123 159 207 258 302 370
#     4  10  22  40  60  90 121 154 207 257 302 365
#
# _framework density 18.488153000000001
#
# number of rings (size 3 to 8) (size 9 to 14) (size 15 to 20)
#    0.000    1.429    2.857    2.571    0.000    2.286 
#    0.000    2.143    0.000    4.714    0.000    0.000 
#    0.000    0.000    0.000    0.000    0.000    0.000 
#
# Total GULP energy -312876.251618 kJ/mol
# GULP energy per Si atom -5587.075922 kJ/mol
# Density = 1.844607 g / cm^3
# Si number density = 18.488153 Si / 1000 Ang^3
#
#
#
# Elastic Constant Matrix: (Units=GPa)
#
#
# Indices 1 2 3 4 5 6 
#
# 1 85.2634 -7.7501 6.2582 0.0000 0.0000 0.0000
# 2 -7.7501 71.6971 -7.7600 0.0000 0.0000 0.0000
# 3 6.2582 -7.7600 57.9077 0.0000 0.0000 0.0000
# 4 0.0000 0.0000 0.0000 17.5560 0.0000 0.0000
# 5 0.0000 0.0000 0.0000 0.0000 10.5678 0.0000
# 6 0.0000 0.0000 0.0000 0.0000 0.0000 22.9431
#
#
#
# Elastic Compliance Matrix: (Units=1/GPa)
#
#
# Indices 1 2 3 4 5 6 
#
# 1 0.011917 0.001166 -0.001132 0.000000 0.000000 0.000000
# 2 0.001166 0.014267 0.001786 0.000000 0.000000 0.000000
# 3 -0.001132 0.001786 0.017630 0.000000 0.000000 0.000000
# 4 0.000000 0.000000 0.000000 0.056960 0.000000 0.000000
# 5 0.000000 0.000000 0.000000 0.000000 0.094627 0.000000
# 6 0.000000 0.000000 0.000000 0.000000 0.000000 0.043586
#
#
# Mechanical properties :
#
#
# Convention : Reuss Voigt Hill
#
# Bulk Modulus (GPa) = 21.07283 21.81827 21.44555
# Shear Modulus (GPa) = 19.90712 25.15473 22.53093
#
# Velocity S-wave (km/s) = 3.28495 3.69261 3.49473
# Velocity P-wave (km/s) = 5.08041 5.47790 5.28290
#
# Compressibility (1/GPa) = 0.04745446
#
# Stress axis : x y z
#
# Youngs Moduli (GPa) = 83.91103 70.09248 56.71997
#
# Poissons Ratio (x) = -0.08171 0.06419
# Poissons Ratio (y) = -0.09782 -0.10129
# Poissons Ratio (z) = 0.09496 -0.12518
#
# Static dielectric constant tensor:
#      x y z
#    x 1.618560 0.000000 0.000000 
#    y 0.000000 1.620350 0.000000 
#    z 0.000000 0.000000 1.601770 
# 
# From -- ./inp_files/13345.got.cif
#   From: 2010.05.17/outbox.cif.g08.bks.cpg/sg55_7_cif.got.tgz:13345.got - 2010.06.03 13:27:54.
