data_PCOD9428582
_publ_section_title
;
Structure prediction by ZEFSAII (Michael W. Deem and Ramdas Pophale) SiO2 
 PCOD9428582
Probable space group: P B A M
;
_chemical_formula_sum "Si O2"
_cell_formula_units_Z 38
_cell_length_a 5.136642
_cell_length_b 18.013556
_cell_length_c 15.935951
_cell_angle_alpha 90.000000
_cell_angle_beta 90.000000
_cell_angle_gamma 90.000000
_cell_volume 1474.540611
_symmetry_space_group_name_H-M "P B A M"
_symmetry_group_IT_number 55
_symmetry_cell_setting 'orthorhombic'
loop_
_space_group_symop_operation_xyz
x,y,z
-x,-y,z
1/2+x,1/2-y,-z
1/2-x,1/2+y,-z
-x,-y,-z
x,y,-z
1/2-x,1/2+y,z
1/2+x,1/2-y,z
loop_
_atom_site_type_symbol
_atom_site_label
_atom_site_fract_x
_atom_site_fract_y
_atom_site_fract_z
Si Si1 0.746820 0.553742 0.500000
Si Si2 0.944934 0.587835 0.331758
Si Si3 0.768429 0.300676 0.910656
Si Si4 0.766076 0.045404 0.829994
Si Si5 0.500000 0.500000 0.000000
Si Si6 0.691857 0.302404 0.273587
O O1 0.500000 0.500000 0.500000
O O2 0.775785 0.600316 0.414532
O O3 0.000000 0.500000 0.500000
O O4 0.809223 0.604319 0.241659
O O5 0.213791 0.632657 0.334554
O O6 0.000000 0.500000 0.327389
O O7 0.055651 0.265436 0.910689
O O8 0.709119 0.336524 0.821460
O O9 0.748911 0.342407 0.000000
O O10 0.500000 0.000000 0.845497
O O11 0.000000 0.000000 0.787308
O O12 0.873875 0.053673 0.924324
O O13 0.926777 0.242461 0.283023
#
# Coordination Sequence:
#
# PCOD9428582 Si02
#       6
#     4   8   8   8   2   8
#     4  10  22  40  66  96 126 162 209 260 315 380
#     4  10  22  42  67  95 126 168 216 267 321 385
#     4   8  14  28  50  73 105 151 201 242 291 363
#     4   9  18  32  55  82 121 158 198 249 311 365
#     4   8  18  32  54  82 130 156 198 252 320 368
#     4  10  22  39  61  88 124 163 206 259 321 375
#
# _framework density 25.77074
#
# number of rings (size 3 to 8) (size 9 to 14) (size 15 to 20)
#    0.632    2.105    0.000    0.947    0.000    6.737 
#    1.895    1.053    0.000    0.000    0.000    0.000 
#    0.000    0.000    0.000    0.000    0.000    0.000 
#
# Total GULP energy -211640.627641 kJ/mol
# GULP energy per Si atom -5569.490201 kJ/mol
# Density = 2.571208 g / cm^3
# Si number density = 25.770740 Si / 1000 Ang^3
#
#
#
# Elastic Constant Matrix: (Units=GPa)
#
#
# Indices 1 2 3 4 5 6 
#
# 1 131.4584 43.3943 26.4311 0.0000 0.0000 0.0000
# 2 43.3943 85.9100 19.6217 0.0000 0.0000 0.0000
# 3 26.4311 19.6217 176.5600 0.0000 0.0000 0.0000
# 4 0.0000 0.0000 0.0000 20.5597 0.0000 0.0000
# 5 0.0000 0.0000 0.0000 0.0000 31.9970 0.0000
# 6 0.0000 0.0000 0.0000 0.0000 0.0000 55.0442
#
#
#
# Elastic Compliance Matrix: (Units=1/GPa)
#
#
# Indices 1 2 3 4 5 6 
#
# 1 0.009263 -0.004476 -0.000889 0.000000 0.000000 0.000000
# 2 -0.004476 0.014106 -0.000898 0.000000 0.000000 0.000000
# 3 -0.000889 -0.000898 0.005897 0.000000 0.000000 0.000000
# 4 0.000000 0.000000 0.000000 0.048639 0.000000 0.000000
# 5 0.000000 0.000000 0.000000 0.000000 0.031253 0.000000
# 6 0.000000 0.000000 0.000000 0.000000 0.000000 0.018167
#
#
# Mechanical properties :
#
#
# Convention : Reuss Voigt Hill
#
# Bulk Modulus (GPa) = 59.73603 63.64696 61.69150
# Shear Modulus (GPa) = 34.38067 41.81893 38.09980
#
# Velocity S-wave (km/s) = 3.65649 4.03268 3.84918
# Velocity P-wave (km/s) = 6.40755 6.81428 6.61404
#
# Compressibility (1/GPa) = 0.01674031
#
# Stress axis : x y z
#
# Youngs Moduli (GPa) = 107.95336 70.89215 169.58698
#
# Poissons Ratio (x) = 0.31731 0.15081
# Poissons Ratio (y) = 0.48319 0.15222
# Poissons Ratio (z) = 0.09600 0.06363
#
# Static dielectric constant tensor:
#      x y z
#    x 2.071850 0.000000 0.000000 
#    y 0.000000 2.148360 0.000000 
#    z 0.000000 0.000000 2.150060 
# 
# From -- ./inp_files/20345.got.cif
#   From: 2010.05.17/outbox.cif.g08.bks.cpg/sg55_11_cif.got.tgz:20345.got - 2010.06.03 13:27:54.
