data_PCOD9428252
_publ_section_title
;
Structure prediction by ZEFSAII (Michael W. Deem and Ramdas Pophale) SiO2 
 PCOD9428252
Probable space group: P B A M
;
_chemical_formula_sum "Si O2"
_cell_formula_units_Z 32
_cell_length_a 10.294092
_cell_length_b 17.123722
_cell_length_c 8.512859
_cell_angle_alpha 90.000000
_cell_angle_beta 90.000000
_cell_angle_gamma 90.000000
_cell_volume 1500.588639
_symmetry_space_group_name_H-M "P B A M"
_symmetry_group_IT_number 55
_symmetry_cell_setting 'orthorhombic'
loop_
_space_group_symop_operation_xyz
x,y,z
-x,-y,z
1/2+x,1/2-y,-z
1/2-x,1/2+y,-z
-x,-y,-z
x,y,-z
1/2-x,1/2+y,z
1/2+x,1/2-y,z
loop_
_atom_site_type_symbol
_atom_site_label
_atom_site_fract_x
_atom_site_fract_y
_atom_site_fract_z
Si Si1 0.654757 0.990576 0.821386
Si Si2 0.214091 0.966536 0.500000
Si Si3 0.622789 0.809537 0.819615
Si Si4 0.954234 0.875644 0.500000
Si Si5 0.138931 0.267761 0.326956
O O1 0.710709 0.033754 0.667376
O O2 0.675237 0.897562 0.798900
O O3 0.500000 0.000000 0.822460
O O4 0.701379 0.012405 0.000000
O O5 0.138075 0.049709 0.500000
O O6 0.101091 0.902958 0.500000
O O7 0.470542 0.809150 0.775283
O O8 0.715518 0.749348 0.728024
O O9 0.634505 0.788323 0.000000
O O10 0.921111 0.818924 0.355255
O O11 0.139641 0.305153 0.500000
#
# Coordination Sequence:
#
# PCOD9428252 Si02
#       5
#     8   4   8   4   8
#     4  10  22  39  61  90 122 161 205 250 302 368
#     4  11  19  41  61  89 117 160 196 251 296 365
#     4  11  22  39  61  89 122 160 202 251 311 360
#     4   9  22  35  63  87 113 151 208 234 306 365
#     4  10  21  39  60  86 119 157 199 253 295 367
#
# _framework density 21.324964000000001
#
# number of rings (size 3 to 8) (size 9 to 14) (size 15 to 20)
#    0.750    1.000    2.500    1.875    1.750    2.000 
#    0.000    7.500    0.000    0.000    0.000    0.000 
#    0.000    0.000    0.000    0.000    0.000    0.000 
#
# Total GULP energy -178430.862354 kJ/mol
# GULP energy per Si atom -5575.964449 kJ/mol
# Density = 2.127643 g / cm^3
# Si number density = 21.324964 Si / 1000 Ang^3
#
#
#
# Elastic Constant Matrix: (Units=GPa)
#
#
# Indices 1 2 3 4 5 6 
#
# 1 89.0097 8.1825 43.3107 0.0000 0.0000 0.0000
# 2 8.1825 36.2411 21.5851 0.0000 0.0000 0.0000
# 3 43.3107 21.5851 111.1462 0.0000 0.0000 0.0000
# 4 0.0000 0.0000 0.0000 19.0393 0.0000 0.0000
# 5 0.0000 0.0000 0.0000 0.0000 2004.1651 0.0000
# 6 0.0000 0.0000 0.0000 0.0000 0.0000 42.5316
#
#
#
# Elastic Compliance Matrix: (Units=1/GPa)
#
#
# Indices 1 2 3 4 5 6 
#
# 1 0.013864 0.000099 -0.005421 0.000000 0.000000 0.000000
# 2 0.000099 0.031203 -0.006098 0.000000 0.000000 0.000000
# 3 -0.005421 -0.006098 0.012294 0.000000 0.000000 0.000000
# 4 0.000000 0.000000 0.000000 0.052523 0.000000 0.000000
# 5 0.000000 0.000000 0.000000 0.000000 0.000499 0.000000
# 6 0.000000 0.000000 0.000000 0.000000 0.000000 0.023512
#
#
# Mechanical properties :
#
#
# Convention : Reuss Voigt Hill
#
# Bulk Modulus (GPa) = 28.96973 42.50594 35.73784
# Shear Modulus (GPa) = 29.71906 424.03512 226.87709
#
# Velocity S-wave (km/s) = 3.73718 14.11652 10.32576
# Velocity P-wave (km/s) = 5.67771 16.90199 12.60781
#
# Compressibility (1/GPa) = 0.03451879
#
# Stress axis : x y z
#
# Youngs Moduli (GPa) = 72.13106 32.04846 81.33996
#
# Poissons Ratio (x) = -0.00317 0.44098
# Poissons Ratio (y) = -0.00713 0.49603
# Poissons Ratio (z) = 0.39106 0.19544
#
# Static dielectric constant tensor:
#      x y z
#    x 1.738430 0.000000 0.000000 
#    y 0.000000 1.838580 0.000000 
#    z 0.000000 0.000000 1.770240 
# 
# From -- ./inp_files/2047.got.cif
#   From: 2010.05.17/outbox.cif.g08.bks.cpg/sg55_2_cif.got.tgz:2047.got - 2010.06.03 13:27:54.
