data_PCOD9428050
_publ_section_title
;
Structure prediction by ZEFSAII (Michael W. Deem and Ramdas Pophale) SiO2 
 PCOD9428050
Probable space group: P B A M
;
_chemical_formula_sum "Si O2"
_cell_formula_units_Z 32
_cell_length_a 11.355332
_cell_length_b 8.924374
_cell_length_c 12.984811
_cell_angle_alpha 90.000000
_cell_angle_beta 90.000000
_cell_angle_gamma 90.000000
_cell_volume 1315.870744
_symmetry_space_group_name_H-M "P B A M"
_symmetry_group_IT_number 55
_symmetry_cell_setting 'orthorhombic'
loop_
_space_group_symop_operation_xyz
x,y,z
-x,-y,z
1/2+x,1/2-y,-z
1/2-x,1/2+y,-z
-x,-y,-z
x,y,-z
1/2-x,1/2+y,z
1/2+x,1/2-y,z
loop_
_atom_site_type_symbol
_atom_site_label
_atom_site_fract_x
_atom_site_fract_y
_atom_site_fract_z
Si Si1 0.428040 0.709980 0.778347
Si Si2 0.238785 0.487870 0.219397
Si Si3 0.583858 0.855432 0.385417
Si Si4 0.516313 0.719727 0.000000
Si Si5 0.283859 0.509074 0.000000
O O1 0.375071 0.541642 0.784093
O O2 0.510056 0.735657 0.679810
O O3 0.314585 0.822091 0.768979
O O4 0.496282 0.769466 0.880727
O O5 0.185766 0.581214 0.313044
O O6 0.206959 0.526898 0.101251
O O7 0.619514 0.805917 0.500000
O O8 0.500000 0.000000 0.395261
O O9 0.397023 0.615948 0.000000
O O10 0.647871 0.650114 0.000000
#
# Coordination Sequence:
#
# PCOD9428050 Si02
#       5
#     8   8   8   4   4
#     4  10  21  37  60  90 122 164 202 252 309 371
#     4  10  21  37  61  89 123 160 206 250 310 375
#     4   9  20  39  59  84 122 164 208 258 310 364
#     4   9  19  35  57  87 126 164 191 248 314 363
#     4   9  19  35  57  88 125 156 199 250 304 373
#
# _framework density 24.318498000000002
#
# number of rings (size 3 to 8) (size 9 to 14) (size 15 to 20)
#    0.000    2.500    0.000    0.750    3.500    2.000 
#    0.000    3.750    0.000    1.500    0.000    0.000 
#    0.000    0.000    0.000    0.000    0.000    0.000 
#
# Total GULP energy -178202.623827 kJ/mol
# GULP energy per Si atom -5568.831995 kJ/mol
# Density = 2.426315 g / cm^3
# Si number density = 24.318498 Si / 1000 Ang^3
#
#
#
# Elastic Constant Matrix: (Units=GPa)
#
#
# Indices 1 2 3 4 5 6 
#
# 1 88.4597 24.6245 48.9677 0.0000 0.0000 0.0000
# 2 24.6245 59.1436 31.5320 0.0000 0.0000 0.0000
# 3 48.9677 31.5320 232.2133 0.0000 0.0000 0.0000
# 4 0.0000 0.0000 0.0000 31.5582 0.0000 0.0000
# 5 0.0000 0.0000 0.0000 0.0000 34.5760 0.0000
# 6 0.0000 0.0000 0.0000 0.0000 0.0000 41.9272
#
#
#
# Elastic Compliance Matrix: (Units=1/GPa)
#
#
# Indices 1 2 3 4 5 6 
#
# 1 0.013842 -0.004535 -0.002303 0.000000 0.000000 0.000000
# 2 -0.004535 0.019714 -0.001721 0.000000 0.000000 0.000000
# 3 -0.002303 -0.001721 0.005026 0.000000 0.000000 0.000000
# 4 0.000000 0.000000 0.000000 0.031687 0.000000 0.000000
# 5 0.000000 0.000000 0.000000 0.000000 0.028922 0.000000
# 6 0.000000 0.000000 0.000000 0.000000 0.000000 0.023851
#
#
# Mechanical properties :
#
#
# Convention : Reuss Voigt Hill
#
# Bulk Modulus (GPa) = 46.59075 65.56279 56.07677
# Shear Modulus (GPa) = 33.94122 39.92509 36.93315
#
# Velocity S-wave (km/s) = 3.73995 4.05626 3.90131
# Velocity P-wave (km/s) = 6.15222 6.99687 6.58810
#
# Compressibility (1/GPa) = 0.02146349
#
# Stress axis : x y z
#
# Youngs Moduli (GPa) = 72.24415 50.72654 198.97840
#
# Poissons Ratio (x) = 0.23006 0.45826
# Poissons Ratio (y) = 0.32765 0.34235
# Poissons Ratio (z) = 0.16638 0.08728
#
# Static dielectric constant tensor:
#      x y z
#    x 1.955080 0.000000 0.000000 
#    y 0.000000 2.076570 0.000000 
#    z 0.000000 0.000000 2.024220 
# 
# From -- ./inp_files/12808.got.cif
#   From: 2010.05.17/outbox.cif.g08.bks.cpg/sg55_7_cif.got.tgz:12808.got - 2010.06.03 13:27:54.
