data_PCOD9428802
_publ_section_title
;
Structure prediction by ZEFSAII (Michael W. Deem and Ramdas Pophale) SiO2 
 PCOD9428802
Probable space group: P B A M
;
_chemical_formula_sum "Si O2"
_cell_formula_units_Z 48
_cell_length_a 31.411520
_cell_length_b 9.307594
_cell_length_c 8.652457
_cell_angle_alpha 90.000000
_cell_angle_beta 90.000000
_cell_angle_gamma 90.000000
_cell_volume 2529.681432
_symmetry_space_group_name_H-M "P B A M"
_symmetry_group_IT_number 55
_symmetry_cell_setting 'orthorhombic'
loop_
_space_group_symop_operation_xyz
x,y,z
-x,-y,z
1/2+x,1/2-y,-z
1/2-x,1/2+y,-z
-x,-y,-z
x,y,-z
1/2-x,1/2+y,z
1/2+x,1/2-y,z
loop_
_atom_site_type_symbol
_atom_site_label
_atom_site_fract_x
_atom_site_fract_y
_atom_site_fract_z
Si Si1 0.369792 0.828547 0.185220
Si Si2 0.950230 0.834759 0.313174
Si Si3 0.626568 0.840083 0.814031
Si Si4 0.209591 0.839074 0.186063
Si Si5 0.210994 0.160796 0.315771
Si Si6 0.952544 0.169441 0.685777
O O1 0.414928 0.762032 0.233727
O O2 0.332479 0.737433 0.263538
O O3 0.367516 0.994977 0.234927
O O4 0.364692 0.821359 0.000000
O O5 0.946738 0.823139 0.500000
O O6 0.998765 0.796377 0.269029
O O7 0.943780 0.002877 0.272139
O O8 0.666420 0.742391 0.764429
O O9 0.582786 0.772815 0.754561
O O10 0.625810 0.839049 0.000000
O O11 0.249805 0.747436 0.242151
O O12 0.211222 0.997940 0.255427
O O13 0.210156 0.848230 0.000000
O O14 0.214522 0.162610 0.500000
O O15 0.950824 0.177004 0.500000
#
# Coordination Sequence:
#
# PCOD9428802 Si02
#       6
#     8   8   8   8   8   8
#     4  11  23  39  58  84 118 157 196 240 292 349
#     4   9  19  37  58  84 114 149 193 242 293 349
#     4  10  23  39  57  83 116 152 194 238 285 344
#     4  11  23  42  65  88 118 158 197 238 291 354
#     4  12  25  41  63  92 121 152 194 246 295 347
#     4   9  19  36  59  83 113 150 191 240 295 349
#
# _framework density 18.974720999999999
#
# number of rings (size 3 to 8) (size 9 to 14) (size 15 to 20)
#    0.000    1.667    0.000    5.500    0.000    8.667 
#    0.000    5.000    0.000    0.000    0.000    0.000 
#    0.000    0.000    0.000    0.000    0.000    0.000 
#
# Total GULP energy -268352.727918 kJ/mol
# GULP energy per Si atom -5590.681832 kJ/mol
# Density = 1.893153 g / cm^3
# Si number density = 18.974721 Si / 1000 Ang^3
#
#
#
# Elastic Constant Matrix: (Units=GPa)
#
#
# Indices 1 2 3 4 5 6 
#
# 1 113.4422 78.4354 11.0333 0.0000 0.0000 0.0000
# 2 78.4354 147.8359 20.9529 0.0000 0.0000 0.0000
# 3 11.0333 20.9529 29.9232 0.0000 0.0000 0.0000
# 4 0.0000 0.0000 0.0000 26.5458 0.0000 0.0000
# 5 0.0000 0.0000 0.0000 0.0000 38.0642 0.0000
# 6 0.0000 0.0000 0.0000 0.0000 0.0000 42.1536
#
#
#
# Elastic Compliance Matrix: (Units=1/GPa)
#
#
# Indices 1 2 3 4 5 6 
#
# 1 0.013922 -0.007393 0.000043 0.000000 0.000000 0.000000
# 2 -0.007393 0.011435 -0.005281 0.000000 0.000000 0.000000
# 3 0.000043 -0.005281 0.037101 0.000000 0.000000 0.000000
# 4 0.000000 0.000000 0.000000 0.037671 0.000000 0.000000
# 5 0.000000 0.000000 0.000000 0.000000 0.026271 0.000000
# 6 0.000000 0.000000 0.000000 0.000000 0.000000 0.023723
#
#
# Mechanical properties :
#
#
# Convention : Reuss Voigt Hill
#
# Bulk Modulus (GPa) = 26.88410 56.89384 41.88897
# Shear Modulus (GPa) = 26.62638 33.40471 30.01555
#
# Velocity S-wave (km/s) = 3.75007 4.20036 3.98159
# Velocity P-wave (km/s) = 5.74019 7.31937 6.57735
#
# Compressibility (1/GPa) = 0.03719670
#
# Stress axis : x y z
#
# Youngs Moduli (GPa) = 71.82754 87.45088 26.95340
#
# Poissons Ratio (x) = 0.64649 -0.00116
# Poissons Ratio (y) = 0.53100 0.14235
# Poissons Ratio (z) = -0.00309 0.46185
#
# Static dielectric constant tensor:
#      x y z
#    x 1.633060 0.000000 0.000000 
#    y 0.000000 1.633900 0.000000 
#    z 0.000000 0.000000 1.641780 
# 
# From -- ./inp_files/2810.got.cif
#   From: 2010.05.17/outbox.cif.g08.bks.cpg/sg55_2_cif.got.tgz:2810.got - 2010.06.03 13:27:54.
