data_PCOD9428889
_publ_section_title
;
Structure prediction by ZEFSAII (Michael W. Deem and Ramdas Pophale) SiO2 
 PCOD9428889
Probable space group: P B A M
;
_chemical_formula_sum "Si O2"
_cell_formula_units_Z 46
_cell_length_a 10.264306
_cell_length_b 8.416372
_cell_length_c 24.024627
_cell_angle_alpha 90.000000
_cell_angle_beta 90.000000
_cell_angle_gamma 90.000000
_cell_volume 2075.444705
_symmetry_space_group_name_H-M "P B A M"
_symmetry_group_IT_number 55
_symmetry_cell_setting 'orthorhombic'
loop_
_space_group_symop_operation_xyz
x,y,z
-x,-y,z
1/2+x,1/2-y,-z
1/2-x,1/2+y,-z
-x,-y,-z
x,y,-z
1/2-x,1/2+y,z
1/2+x,1/2-y,z
loop_
_atom_site_type_symbol
_atom_site_label
_atom_site_fract_x
_atom_site_fract_y
_atom_site_fract_z
Si Si1 0.000000 0.000000 0.236910
Si Si2 0.432393 0.773382 0.066460
Si Si3 0.888368 0.607230 0.614440
Si Si4 0.304556 0.099328 0.109327
Si Si5 0.500000 0.000000 0.500000
Si Si6 0.709354 0.399661 0.321754
Si Si7 0.092974 0.656250 0.773749
O O1 0.876240 0.987179 0.276758
O O2 0.018520 0.822250 0.211428
O O3 0.583254 0.782383 0.084962
O O4 0.338716 0.630450 0.085415
O O5 0.360535 0.927031 0.093155
O O6 0.429134 0.786475 0.000000
O O7 0.875812 0.768299 0.647413
O O8 0.757965 0.512741 0.628844
O O9 0.000000 0.500000 0.641054
O O10 0.926356 0.604081 0.549818
O O11 0.308255 0.122938 0.175453
O O12 0.827044 0.331936 0.283881
O O13 0.000000 0.500000 0.772100
#
# Coordination Sequence:
#
# PCOD9428889 Si02
#       7
#     4   8   8   8   2   8   8
#     4  12  28  40  70 107 137 196 234 284 364 452
#     4  11  23  46  70  98 136 189 244 306 373 447
#     4  10  23  45  67 101 139 187 237 299 354 418
#     4  11  26  43  69 101 142 185 243 312 378 447
#     4   8  24  44  68 104 144 184 246 302 362 414
#     4  12  23  43  72  98 143 189 242 290 364 444
#     4  12  27  47  69 108 150 188 240 304 371 447
#
# _framework density 22.163926
#
# number of rings (size 3 to 8) (size 9 to 14) (size 15 to 20)
#    0.522    0.348    3.478    4.696    4.870    1.391 
#    0.000    1.739    0.000    2.087    0.000    0.000 
#    0.000    0.000    0.000    0.000    0.000    0.000 
#
# Total GULP energy -256192.353779 kJ/mol
# GULP energy per Si atom -5569.398995 kJ/mol
# Density = 2.211348 g / cm^3
# Si number density = 22.163926 Si / 1000 Ang^3
#
#
#
# Elastic Constant Matrix: (Units=GPa)
#
#
# Indices 1 2 3 4 5 6 
#
# 1 43.6111 -1.4272 -1.9965 0.0000 0.0000 0.0000
# 2 -1.4272 84.4395 7.6090 0.0000 0.0000 0.0000
# 3 -1.9965 7.6090 142.2524 0.0000 0.0000 0.0000
# 4 0.0000 0.0000 0.0000 23.2707 0.0000 0.0000
# 5 0.0000 0.0000 0.0000 0.0000 36.8005 0.0000
# 6 0.0000 0.0000 0.0000 0.0000 0.0000 36.4186
#
#
#
# Elastic Compliance Matrix: (Units=1/GPa)
#
#
# Indices 1 2 3 4 5 6 
#
# 1 0.022956 0.000361 0.000303 0.000000 0.000000 0.000000
# 2 0.000361 0.011906 -0.000632 0.000000 0.000000 0.000000
# 3 0.000303 -0.000632 0.007068 0.000000 0.000000 0.000000
# 4 0.000000 0.000000 0.000000 0.042973 0.000000 0.000000
# 5 0.000000 0.000000 0.000000 0.000000 0.027174 0.000000
# 6 0.000000 0.000000 0.000000 0.000000 0.000000 0.027459
#
#
# Mechanical properties :
#
#
# Convention : Reuss Voigt Hill
#
# Bulk Modulus (GPa) = 23.81357 30.96374 27.38865
# Shear Modulus (GPa) = 32.58010 37.03912 34.80961
#
# Velocity S-wave (km/s) = 3.83817 4.09240 3.96732
# Velocity P-wave (km/s) = 5.51449 6.02752 5.77670
#
# Compressibility (1/GPa) = 0.04199287
#
# Stress axis : x y z
#
# Youngs Moduli (GPa) = 43.56233 83.99245 141.48669
#
# Poissons Ratio (x) = -0.03030 -0.04285
# Poissons Ratio (y) = -0.01571 0.08939
# Poissons Ratio (z) = -0.01319 0.05306
#
# Static dielectric constant tensor:
#      x y z
#    x 1.870600 0.000000 0.000000 
#    y 0.000000 1.910270 0.000000 
#    z 0.000000 0.000000 1.743890 
# 
# From -- ./inp_files/23556.got.cif
#   From: 2010.05.17/outbox.cif.g08.bks.cpg/sg55_12_cif.got.tgz:23556.got - 2010.06.03 13:27:54.
