data_PCOD9428882
_publ_section_title
;
Structure prediction by ZEFSAII (Michael W. Deem and Ramdas Pophale) SiO2 
 PCOD9428882
Probable space group: P B A M
;
_chemical_formula_sum "Si O2"
_cell_formula_units_Z 38
_cell_length_a 8.355175
_cell_length_b 10.001157
_cell_length_c 20.096684
_cell_angle_alpha 90.000000
_cell_angle_beta 90.000000
_cell_angle_gamma 90.000000
_cell_volume 1679.307391
_symmetry_space_group_name_H-M "P B A M"
_symmetry_group_IT_number 55
_symmetry_cell_setting 'orthorhombic'
loop_
_space_group_symop_operation_xyz
x,y,z
-x,-y,z
1/2+x,1/2-y,-z
1/2-x,1/2+y,-z
-x,-y,-z
x,y,-z
1/2-x,1/2+y,z
1/2+x,1/2-y,z
loop_
_atom_site_type_symbol
_atom_site_label
_atom_site_fract_x
_atom_site_fract_y
_atom_site_fract_z
Si Si1 0.364673 0.644927 0.295256
Si Si2 0.841619 0.568271 0.637663
Si Si3 0.829879 0.077245 0.073853
Si Si4 0.395766 0.241359 0.800689
Si Si5 0.000000 0.500000 0.500000
Si Si6 0.500000 0.000000 0.872741
O O1 0.341048 0.778363 0.339943
O O2 0.309375 0.520319 0.339851
O O3 0.242718 0.657341 0.234024
O O4 0.530677 0.661988 0.255609
O O5 0.877722 0.552933 0.559485
O O6 0.000000 0.500000 0.670161
O O7 0.844924 0.179433 0.134259
O O8 0.666489 0.992889 0.086377
O O9 0.815090 0.138620 0.000000
O O10 0.000000 0.000000 0.075088
O O11 0.517431 0.129628 0.826537
#
# Coordination Sequence:
#
# PCOD9428882 Si02
#       6
#     8   8   8   8   2   4
#     4  12  23  42  71 104 140 182 233 291 356 415
#     4  10  23  44  68 103 141 182 226 286 345 430
#     4  11  27  46  67 100 136 186 246 298 359 439
#     4  12  24  42  70  96 137 177 234 297 353 427
#     4   8  20  50  68  98 152 188 214 292 348 424
#     4  12  25  49  70  97 138 195 224 312 372 425
#
# _framework density 22.628377
#
# number of rings (size 3 to 8) (size 9 to 14) (size 15 to 20)
#    0.632    0.211    4.211    2.842    2.947    2.526 
#    0.000    0.000    0.000    2.526    0.000    0.000 
#    0.000    0.000    0.000    0.000    0.000    0.000 
#
# Total GULP energy -211631.801399 kJ/mol
# GULP energy per Si atom -5569.257932 kJ/mol
# Density = 2.257687 g / cm^3
# Si number density = 22.628377 Si / 1000 Ang^3
#
#
#
# Elastic Constant Matrix: (Units=GPa)
#
#
# Indices 1 2 3 4 5 6 
#
# 1 91.1798 22.4476 31.8603 0.0000 0.0000 0.0000
# 2 22.4476 98.1735 68.0785 0.0000 0.0000 0.0000
# 3 31.8603 68.0785 192.4614 0.0000 0.0000 0.0000
# 4 0.0000 0.0000 0.0000 -4.9069 0.0000 0.0000
# 5 0.0000 0.0000 0.0000 0.0000 44.3073 0.0000
# 6 0.0000 0.0000 0.0000 0.0000 0.0000 27.9620
#
#
#
# Elastic Compliance Matrix: (Units=1/GPa)
#
#
# Indices 1 2 3 4 5 6 
#
# 1 0.011874 -0.001791 -0.001332 0.000000 0.000000 0.000000
# 2 -0.001791 0.013767 -0.004573 0.000000 0.000000 0.000000
# 3 -0.001332 -0.004573 0.007034 0.000000 0.000000 0.000000
# 4 0.000000 0.000000 0.000000 -0.203795 0.000000 0.000000
# 5 0.000000 0.000000 0.000000 0.000000 0.022570 0.000000
# 6 0.000000 0.000000 0.000000 0.000000 0.000000 0.035763
#
#
# Mechanical properties :
#
#
# Convention : Reuss Voigt Hill
#
# Bulk Modulus (GPa) = 57.86444 69.62084 63.74264
# Shear Modulus (GPa) = -54.56492 30.76771 -11.89861
#
# Velocity S-wave (km/s) = -4.91588 3.69141 -2.29558
# Velocity P-wave (km/s) = 2.56787 7.00018 4.60481
#
# Compressibility (1/GPa) = 0.01728177
#
# Stress axis : x y z
#
# Youngs Moduli (GPa) = 84.21931 72.63792 142.16684
#
# Poissons Ratio (x) = 0.13012 0.18936
# Poissons Ratio (y) = 0.15086 0.65015
# Poissons Ratio (z) = 0.11218 0.33219
#
# Static dielectric constant tensor:
#      x y z
#    x 1.981410 0.000000 0.000000 
#    y 0.000000 1.896260 0.000000 
#    z 0.000000 0.000000 1.768990 
# 
# From -- ./inp_files/23422.got.cif
#   From: 2010.05.17/outbox.cif.g08.bks.cpg/sg55_12_cif.got.tgz:23422.got - 2010.06.03 13:27:54.
