data_PCOD9428636
_publ_section_title
;
Structure prediction by ZEFSAII (Michael W. Deem and Ramdas Pophale) SiO2 
 PCOD9428636
Probable space group: P B A M
;
_chemical_formula_sum "Si O2"
_cell_formula_units_Z 64
_cell_length_a 30.481273
_cell_length_b 12.046234
_cell_length_c 9.021968
_cell_angle_alpha 90.000000
_cell_angle_beta 90.000000
_cell_angle_gamma 90.000000
_cell_volume 3312.727235
_symmetry_space_group_name_H-M "P B A M"
_symmetry_group_IT_number 55
_symmetry_cell_setting 'orthorhombic'
loop_
_space_group_symop_operation_xyz
x,y,z
-x,-y,z
1/2+x,1/2-y,-z
1/2-x,1/2+y,-z
-x,-y,-z
x,y,-z
1/2-x,1/2+y,z
1/2+x,1/2-y,z
loop_
_atom_site_type_symbol
_atom_site_label
_atom_site_fract_x
_atom_site_fract_y
_atom_site_fract_z
Si Si1 0.923340 0.226801 0.175698
Si Si2 0.885178 0.827854 0.823206
Si Si3 0.332772 0.267457 0.326024
Si Si4 0.044971 0.566059 0.675241
Si Si5 0.875626 0.569460 0.177994
Si Si6 0.052479 0.002345 0.673365
Si Si7 0.690404 0.505798 0.173422
Si Si8 0.710243 0.927014 0.825855
O O1 0.875958 0.265071 0.233900
O O2 0.956808 0.314460 0.246009
O O3 0.930013 0.103357 0.236661
O O4 0.925395 0.228530 0.000000
O O5 0.877760 0.699709 0.782137
O O6 0.924900 0.887650 0.738062
O O7 0.841794 0.902404 0.796032
O O8 0.893867 0.832140 0.000000
O O9 0.341290 0.260246 0.500000
O O10 0.321090 0.391456 0.277200
O O11 0.296080 0.181132 0.274182
O O12 0.051636 0.582011 0.500000
O O13 0.085384 0.496484 0.742203
O O14 0.000000 0.500000 0.698819
O O15 0.828302 0.514659 0.211578
O O16 0.881789 0.560404 0.000000
O O17 0.063803 0.990626 0.500000
O O18 0.000000 0.000000 0.687276
O O19 0.741180 0.474965 0.191351
O O20 0.683187 0.537844 0.000000
O O21 0.704914 0.896911 0.000000
#
# Coordination Sequence:
#
# PCOD9428636 Si02
#       8
#     8   8   8   8   8   8   8   8
#     4  12  24  42  68  93 122 163 214 267 313 367
#     4  10  22  40  62  92 127 165 210 258 305 366
#     4  12  24  40  64  93 128 165 208 263 319 375
#     4  11  25  43  64  92 127 166 206 256 318 377
#     4  10  22  40  62  92 127 165 210 258 305 366
#     4  11  25  43  64  92 127 166 206 256 318 377
#     4  10  22  40  66  94 124 166 212 258 309 369
#     4  10  22  40  66  94 124 166 212 258 309 369
#
# _framework density 19.319430000000001
#
# number of rings (size 3 to 8) (size 9 to 14) (size 15 to 20)
#    0.000    1.250    2.500    3.000    3.500    3.000 
#    0.000    0.000    0.000    0.000    0.000    0.000 
#    0.000    0.000    0.000    0.000    0.000    0.000 
#
# Total GULP energy -357828.436369 kJ/mol
# GULP energy per Si atom -5591.069318 kJ/mol
# Density = 1.927546 g / cm^3
# Si number density = 19.319430 Si / 1000 Ang^3
#
#
#
# Elastic Constant Matrix: (Units=GPa)
#
#
# Indices 1 2 3 4 5 6 
#
# 1 69.9986 11.8714 35.5435 0.0000 0.0000 0.0000
# 2 11.8714 95.2543 37.7917 0.0000 0.0000 0.0000
# 3 35.5435 37.7917 66.2819 0.0000 0.0000 0.0000
# 4 0.0000 0.0000 0.0000 1.3018 0.0000 0.0000
# 5 0.0000 0.0000 0.0000 0.0000 23.1672 0.0000
# 6 0.0000 0.0000 0.0000 0.0000 0.0000 19.7008
#
#
#
# Elastic Compliance Matrix: (Units=1/GPa)
#
#
# Indices 1 2 3 4 5 6 
#
# 1 0.020007 0.002279 -0.012028 0.000000 0.000000 0.000000
# 2 0.002279 0.013827 -0.009105 0.000000 0.000000 0.000000
# 3 -0.012028 -0.009105 0.026729 0.000000 0.000000 0.000000
# 4 0.000000 0.000000 0.000000 0.768188 0.000000 0.000000
# 5 0.000000 0.000000 0.000000 0.000000 0.043164 0.000000
# 6 0.000000 0.000000 0.000000 0.000000 0.000000 0.050759
#
#
# Mechanical properties :
#
#
# Convention : Reuss Voigt Hill
#
# Bulk Modulus (GPa) = 43.75809 44.66087 44.20948
# Shear Modulus (GPa) = 5.16528 18.58917 11.87723
#
# Velocity S-wave (km/s) = 1.63689 3.10530 2.48217
# Velocity P-wave (km/s) = 5.12557 6.00204 5.58104
#
# Compressibility (1/GPa) = 0.02285292
#
# Stress axis : x y z
#
# Youngs Moduli (GPa) = 49.98254 72.32349 37.41320
#
# Poissons Ratio (x) = -0.16479 0.45000
# Poissons Ratio (y) = -0.11389 0.34066
# Poissons Ratio (z) = 0.60118 0.65853
#
# Static dielectric constant tensor:
#      x y z
#    x 1.685020 0.000000 0.000000 
#    y 0.000000 1.664630 0.000000 
#    z 0.000000 0.000000 1.647550 
# 
# From -- ./inp_files/10749.got.cif
#   From: 2010.05.17/outbox.cif.g08.bks.cpg/sg55_6_cif.got.tgz:10749.got - 2010.06.03 13:27:54.
