data_PCOD9428332
_publ_section_title
;
Structure prediction by ZEFSAII (Michael W. Deem and Ramdas Pophale) SiO2 
 PCOD9428332
Probable space group: P B A M
;
_chemical_formula_sum "Si O2"
_cell_formula_units_Z 64
_cell_length_a 10.805307
_cell_length_b 19.059516
_cell_length_c 13.757229
_cell_angle_alpha 90.000000
_cell_angle_beta 90.000000
_cell_angle_gamma 90.000000
_cell_volume 2833.217691
_symmetry_space_group_name_H-M "P B A M"
_symmetry_group_IT_number 55
_symmetry_cell_setting 'orthorhombic'
loop_
_space_group_symop_operation_xyz
x,y,z
-x,-y,z
1/2+x,1/2-y,-z
1/2-x,1/2+y,-z
-x,-y,-z
x,y,-z
1/2-x,1/2+y,z
1/2+x,1/2-y,z
loop_
_atom_site_type_symbol
_atom_site_label
_atom_site_fract_x
_atom_site_fract_y
_atom_site_fract_z
Si Si1 0.696416 0.526467 0.695662
Si Si2 0.407093 0.884916 0.391542
Si Si3 0.702847 0.269714 0.609189
Si Si4 0.595286 0.821118 0.241860
Si Si5 0.527449 0.690250 0.114587
Si Si6 0.448494 0.613240 0.700594
Si Si7 0.462416 0.074904 0.111056
Si Si8 0.259315 0.904649 0.893194
O O1 0.815525 0.552307 0.636852
O O2 0.579682 0.577838 0.673097
O O3 0.652764 0.447111 0.681499
O O4 0.725386 0.542209 0.808288
O O5 0.457106 0.894881 0.500000
O O6 0.329877 0.812065 0.389919
O O7 0.509938 0.868139 0.312058
O O8 0.744487 0.288100 0.500000
O O9 0.803174 0.286005 0.690874
O O10 0.585549 0.318215 0.637992
O O11 0.529854 0.761579 0.176768
O O12 0.638489 0.879182 0.164750
O O13 0.456103 0.635886 0.185644
O O14 0.669202 0.661734 0.115193
O O15 0.490460 0.695813 0.000000
O O16 0.596094 0.113724 0.112520
O O17 0.500000 0.000000 0.154299
O O18 0.426224 0.063851 0.000000
O O19 0.237283 0.935586 0.000000
#
# Coordination Sequence:
#
# PCOD9428332 Si02
#       8
#     8   8   8   8   8   8   8   8
#     4  10  21  40  66  96 126 169 213 272 333 392
#     4  11  24  42  65  91 124 169 220 269 328 389
#     4  11  25  42  63  91 127 171 219 271 325 386
#     4  12  23  40  66  92 131 169 216 273 325 392
#     4  10  21  39  65  99 132 169 213 267 334 399
#     4  10  22  41  66  95 132 164 214 274 330 392
#     4  10  22  39  61  91 127 173 220 261 319 393
#     4   9  18  35  61  88 123 165 208 253 314 390
#
# _framework density 22.589157
#
# number of rings (size 3 to 8) (size 9 to 14) (size 15 to 20)
#    0.000    1.625    2.500    2.250    1.750    1.500 
#    0.000    5.000    0.000    2.250    0.000    0.000 
#    0.000    0.000    0.000    0.000    0.000    0.000 
#
# Total GULP energy -357464.815517 kJ/mol
# GULP energy per Si atom -5585.387742 kJ/mol
# Density = 2.253774 g / cm^3
# Si number density = 22.589157 Si / 1000 Ang^3
#
#
#
# Elastic Constant Matrix: (Units=GPa)
#
#
# Indices 1 2 3 4 5 6 
#
# 1 37.3689 10.3781 -8.4730 0.0000 0.0000 0.0000
# 2 10.3781 67.8965 20.8126 0.0000 0.0000 0.0000
# 3 -8.4730 20.8126 83.3734 0.0000 0.0000 0.0000
# 4 0.0000 0.0000 0.0000 13.0429 0.0000 0.0000
# 5 0.0000 0.0000 0.0000 0.0000 23.0069 0.0000
# 6 0.0000 0.0000 0.0000 0.0000 0.0000 29.9566
#
#
#
# Elastic Compliance Matrix: (Units=1/GPa)
#
#
# Indices 1 2 3 4 5 6 
#
# 1 0.029396 -0.005857 0.004450 0.000000 0.000000 0.000000
# 2 -0.005857 0.017116 -0.004868 0.000000 0.000000 0.000000
# 3 0.004450 -0.004868 0.013662 0.000000 0.000000 0.000000
# 4 0.000000 0.000000 0.000000 0.076670 0.000000 0.000000
# 5 0.000000 0.000000 0.000000 0.000000 0.043465 0.000000
# 6 0.000000 0.000000 0.000000 0.000000 0.000000 0.033382
#
#
# Mechanical properties :
#
#
# Convention : Reuss Voigt Hill
#
# Bulk Modulus (GPa) = 20.99863 26.00824 23.50344
# Shear Modulus (GPa) = 20.65135 24.26268 22.45701
#
# Velocity S-wave (km/s) = 3.02688 3.28088 3.15644
# Velocity P-wave (km/s) = 4.64027 5.08830 4.86944
#
# Compressibility (1/GPa) = 0.04762216
#
# Stress axis : x y z
#
# Youngs Moduli (GPa) = 34.01852 58.42581 73.19788
#
# Poissons Ratio (x) = 0.34221 -0.32570
# Poissons Ratio (y) = 0.19925 0.35632
# Poissons Ratio (z) = -0.15137 0.28441
#
# Static dielectric constant tensor:
#      x y z
#    x 1.873170 0.000000 0.000000 
#    y 0.000000 1.840870 0.000000 
#    z 0.000000 0.000000 1.845300 
# 
# From -- ./inp_files/18576.got.cif
#   From: 2010.05.17/outbox.cif.g08.bks.cpg/sg55_10_cif.got.tgz:18576.got - 2010.06.03 13:27:54.
