data_PCOD9428521
_publ_section_title
;
Structure prediction by ZEFSAII (Michael W. Deem and Ramdas Pophale) SiO2 
 PCOD9428521
Probable space group: P B A M
;
_chemical_formula_sum "Si O2"
_cell_formula_units_Z 64
_cell_length_a 9.571656
_cell_length_b 19.087423
_cell_length_c 19.571990
_cell_angle_alpha 90.000000
_cell_angle_beta 90.000000
_cell_angle_gamma 90.000000
_cell_volume 3575.768261
_symmetry_space_group_name_H-M "P B A M"
_symmetry_group_IT_number 55
_symmetry_cell_setting 'orthorhombic'
loop_
_space_group_symop_operation_xyz
x,y,z
-x,-y,z
1/2+x,1/2-y,-z
1/2-x,1/2+y,-z
-x,-y,-z
x,y,-z
1/2-x,1/2+y,z
1/2+x,1/2-y,z
loop_
_atom_site_type_symbol
_atom_site_label
_atom_site_fract_x
_atom_site_fract_y
_atom_site_fract_z
Si Si1 0.999724 0.213667 0.580175
Si Si2 0.513864 0.696388 0.919442
Si Si3 0.904722 0.901841 0.320141
Si Si4 0.604009 0.432796 0.834713
Si Si5 0.846494 0.529960 0.170703
Si Si6 0.812053 0.657803 0.579448
Si Si7 0.662266 0.169934 0.918925
Si Si8 0.276707 0.458106 0.677885
O O1 0.026977 0.196265 0.500000
O O2 0.088338 0.164899 0.631350
O O3 0.056424 0.291762 0.591132
O O4 0.834483 0.200172 0.591687
O O5 0.456514 0.626956 0.882988
O O6 0.442064 0.768467 0.895730
O O7 0.680124 0.698142 0.910567
O O8 0.483114 0.690511 0.000000
O O9 0.874939 0.896618 0.239323
O O10 0.064389 0.929753 0.322544
O O11 0.796595 0.961396 0.344454
O O12 0.500000 0.500000 0.827680
O O13 0.746679 0.469004 0.859274
O O14 0.848641 0.598929 0.124192
O O15 0.782382 0.545928 0.245516
O O16 0.000000 0.500000 0.178898
O O17 0.809665 0.637150 0.500000
O O18 0.809737 0.590678 0.627669
O O19 0.639410 0.156115 0.000000
#
# Coordination Sequence:
#
# PCOD9428521 Si02
#       8
#     8   8   8   8   8   8   8   8
#     4   9  18  32  51  77 105 136 175 218 263 317
#     4  10  22  38  59  84 113 146 184 225 273 329
#     4   9  16  32  56  75 100 136 178 219 258 314
#     4  11  19  38  60  79 108 147 183 226 274 327
#     4  11  23  38  57  83 114 144 185 234 276 324
#     4   9  18  33  53  76 105 138 174 217 264 316
#     4  10  22  40  58  83 115 146 182 227 273 326
#     4   9  17  34  53  75 105 136 173 219 266 313
#
# _framework density 17.898251999999999
#
# number of rings (size 3 to 8) (size 9 to 14) (size 15 to 20)
#    0.000    2.250    3.750    0.000    1.750    2.500 
#    4.500    2.500    0.000    0.375    0.000    0.000 
#    0.000    0.000    0.000    0.000    0.000    0.000 
#
# Total GULP energy -356637.380941 kJ/mol
# GULP energy per Si atom -5572.459077 kJ/mol
# Density = 1.785752 g / cm^3
# Si number density = 17.898252 Si / 1000 Ang^3
#
#
#
# Elastic Constant Matrix: (Units=GPa)
#
#
# Indices 1 2 3 4 5 6 
#
# 1 35.8961 3.4631 5.8822 0.0000 0.0000 0.0000
# 2 3.4631 16.7912 7.2835 0.0000 0.0000 0.0000
# 3 5.8822 7.2835 19.9120 0.0000 0.0000 0.0000
# 4 0.0000 0.0000 0.0000 37.3022 0.0000 0.0000
# 5 0.0000 0.0000 0.0000 0.0000 15.3038 0.0000
# 6 0.0000 0.0000 0.0000 0.0000 0.0000 30.6314
#
#
#
# Elastic Compliance Matrix: (Units=1/GPa)
#
#
# Indices 1 2 3 4 5 6 
#
# 1 0.029380 -0.002728 -0.007681 0.000000 0.000000 0.000000
# 2 -0.002728 0.071039 -0.025179 0.000000 0.000000 0.000000
# 3 -0.007681 -0.025179 0.061700 0.000000 0.000000 0.000000
# 4 0.000000 0.000000 0.000000 0.026808 0.000000 0.000000
# 5 0.000000 0.000000 0.000000 0.000000 0.065343 0.000000
# 6 0.000000 0.000000 0.000000 0.000000 0.000000 0.032646
#
#
# Mechanical properties :
#
#
# Convention : Reuss Voigt Hill
#
# Bulk Modulus (GPa) = 10.99587 11.76188 11.37887
# Shear Modulus (GPa) = 12.87305 20.37884 16.62594
#
# Velocity S-wave (km/s) = 2.68477 3.37797 3.05112
# Velocity P-wave (km/s) = 3.97083 4.66905 4.33402
#
# Compressibility (1/GPa) = 0.09094324
#
# Stress axis : x y z
#
# Youngs Moduli (GPa) = 34.03670 14.07668 16.20740
#
# Poissons Ratio (x) = 0.03840 0.12450
# Poissons Ratio (y) = 0.09284 0.40809
# Poissons Ratio (z) = 0.26145 0.35444
#
# Static dielectric constant tensor:
#      x y z
#    x 1.628030 0.000000 0.000000 
#    y 0.000000 1.598660 0.000000 
#    z 0.000000 0.000000 1.604220 
# 
# From -- ./inp_files/22712.got.cif
#   From: 2010.05.17/outbox.cif.g08.bks.cpg/sg55_12_cif.got.tgz:22712.got - 2010.06.03 13:27:54.
