data_PCOD9428720
_publ_section_title
;
Structure prediction by ZEFSAII (Michael W. Deem and Ramdas Pophale) SiO2 
 PCOD9428720
Probable space group: P B A M
;
_chemical_formula_sum "Si O2"
_cell_formula_units_Z 64
_cell_length_a 9.569370
_cell_length_b 13.430117
_cell_length_c 22.654314
_cell_angle_alpha 90.000000
_cell_angle_beta 90.000000
_cell_angle_gamma 90.000000
_cell_volume 2911.481661
_symmetry_space_group_name_H-M "P B A M"
_symmetry_group_IT_number 55
_symmetry_cell_setting 'orthorhombic'
loop_
_space_group_symop_operation_xyz
x,y,z
-x,-y,z
1/2+x,1/2-y,-z
1/2-x,1/2+y,-z
-x,-y,-z
x,y,-z
1/2-x,1/2+y,z
1/2+x,1/2-y,z
loop_
_atom_site_type_symbol
_atom_site_label
_atom_site_fract_x
_atom_site_fract_y
_atom_site_fract_z
Si Si1 0.865999 0.216089 0.262962
Si Si2 0.565956 0.155968 0.566188
Si Si3 0.413933 0.096559 0.189440
Si Si4 0.996222 0.676099 0.933855
Si Si5 0.826073 0.126314 0.065658
Si Si6 0.155248 0.971983 0.811270
Si Si7 0.231927 0.544596 0.432374
Si Si8 0.126220 0.176064 0.339653
O O1 0.939770 0.300126 0.222343
O O2 0.800756 0.129275 0.222291
O O3 0.752438 0.275763 0.301601
O O4 0.986635 0.164948 0.301577
O O5 0.585233 0.194701 0.500000
O O6 0.410822 0.109824 0.570135
O O7 0.587876 0.240713 0.612565
O O8 0.677427 0.067680 0.575371
O O9 0.444361 0.112570 0.120216
O O10 0.500000 0.000000 0.210094
O O11 0.255623 0.063936 0.200540
O O12 0.060293 0.786238 0.928132
O O13 0.828526 0.674600 0.929797
O O14 0.034140 0.639351 0.000000
O O15 0.839836 0.050914 0.119117
O O16 0.838722 0.082151 0.000000
O O17 0.000000 0.000000 0.794382
O O18 0.288008 0.554330 0.500000
O O19 0.326102 0.581482 0.378390
#
# Coordination Sequence:
#
# PCOD9428720 Si02
#       8
#     8   8   8   8   8   8   8   8
#     4  12  28  44  63  96 139 172 233 278 314 392
#     4   9  19  39  67  98 131 167 214 267 324 394
#     4  12  25  45  72  94 127 183 225 274 339 401
#     4  10  22  41  70 101 132 168 215 281 343 407
#     4  10  22  42  69 100 132 167 215 279 344 406
#     4  12  27  45  67  95 133 178 223 282 340 391
#     4   9  19  39  67  99 131 167 215 268 325 390
#     4  12  23  42  67  95 132 177 215 269 324 387
#
# _framework density 21.981936000000001
#
# number of rings (size 3 to 8) (size 9 to 14) (size 15 to 20)
#    0.000    1.250    3.750    2.625    1.750    4.000 
#    0.000    0.000    0.000    1.500    0.000    0.000 
#    0.000    0.000    0.000    0.000    0.000    0.000 
#
# Total GULP energy -357964.446444 kJ/mol
# GULP energy per Si atom -5593.194476 kJ/mol
# Density = 2.193190 g / cm^3
# Si number density = 21.981936 Si / 1000 Ang^3
#
#
#
# Elastic Constant Matrix: (Units=GPa)
#
#
# Indices 1 2 3 4 5 6 
#
# 1 38.9292 -7.6925 7.0476 0.0000 0.0000 0.0000
# 2 -7.6925 45.4556 33.3947 0.0000 0.0000 0.0000
# 3 7.0476 33.3947 97.1215 0.0000 0.0000 0.0000
# 4 0.0000 0.0000 0.0000 33.3001 0.0000 0.0000
# 5 0.0000 0.0000 0.0000 0.0000 20.6052 0.0000
# 6 0.0000 0.0000 0.0000 0.0000 0.0000 29.3905
#
#
#
# Elastic Compliance Matrix: (Units=1/GPa)
#
#
# Indices 1 2 3 4 5 6 
#
# 1 0.028244 0.008410 -0.004941 0.000000 0.000000 0.000000
# 2 0.008410 0.031939 -0.011592 0.000000 0.000000 0.000000
# 3 -0.004941 -0.011592 0.014641 0.000000 0.000000 0.000000
# 4 0.000000 0.000000 0.000000 0.030030 0.000000 0.000000
# 5 0.000000 0.000000 0.000000 0.000000 0.048531 0.000000
# 6 0.000000 0.000000 0.000000 0.000000 0.000000 0.034025
#
#
# Mechanical properties :
#
#
# Convention : Reuss Voigt Hill
#
# Bulk Modulus (GPa) = 17.07162 27.44510 22.25836
# Shear Modulus (GPa) = 22.40313 26.57626 24.48970
#
# Velocity S-wave (km/s) = 3.19589 3.48085 3.34141
# Velocity P-wave (km/s) = 4.62616 5.35420 5.00344
#
# Compressibility (1/GPa) = 0.05857673
#
# Stress axis : x y z
#
# Youngs Moduli (GPa) = 35.40576 31.30948 68.30177
#
# Poissons Ratio (x) = -0.26331 0.33749
# Poissons Ratio (y) = -0.29776 0.79178
# Poissons Ratio (z) = 0.17495 0.36295
#
# Static dielectric constant tensor:
#      x y z
#    x 1.808720 0.000000 0.000000 
#    y 0.000000 1.762460 0.000000 
#    z 0.000000 0.000000 1.810520 
# 
# From -- ./inp_files/23482.got.cif
#   From: 2010.05.17/outbox.cif.g08.bks.cpg/sg55_12_cif.got.tgz:23482.got - 2010.06.03 13:27:54.
