data_PCOD9428445
_publ_section_title
;
Structure prediction by ZEFSAII (Michael W. Deem and Ramdas Pophale) SiO2 
 PCOD9428445
Probable space group: P B A M
;
_chemical_formula_sum "Si O2"
_cell_formula_units_Z 48
_cell_length_a 25.581205
_cell_length_b 9.704592
_cell_length_c 8.854057
_cell_angle_alpha 90.000000
_cell_angle_beta 90.000000
_cell_angle_gamma 90.000000
_cell_volume 2198.065314
_symmetry_space_group_name_H-M "P B A M"
_symmetry_group_IT_number 55
_symmetry_cell_setting 'orthorhombic'
loop_
_space_group_symop_operation_xyz
x,y,z
-x,-y,z
1/2+x,1/2-y,-z
1/2-x,1/2+y,-z
-x,-y,-z
x,y,-z
1/2-x,1/2+y,z
1/2+x,1/2-y,z
loop_
_atom_site_type_symbol
_atom_site_label
_atom_site_fract_x
_atom_site_fract_y
_atom_site_fract_z
Si Si1 0.577886 0.787654 0.677220
Si Si2 0.080784 0.006439 0.825650
Si Si3 0.030742 0.294051 0.820022
Si Si4 0.201812 0.037613 0.173926
Si Si5 0.766354 0.683600 0.678446
Si Si6 0.134809 0.470270 0.179758
O O1 0.585172 0.806712 0.500000
O O2 0.579040 0.627483 0.722860
O O3 0.520512 0.837411 0.730396
O O4 0.620808 0.876130 0.766998
O O5 0.043282 0.133429 0.787167
O O6 0.139916 0.063708 0.820613
O O7 0.070138 0.964861 0.000000
O O8 0.082812 0.380411 0.786299
O O9 0.020785 0.307749 0.000000
O O10 0.230813 0.170510 0.238516
O O11 0.216671 0.905008 0.271063
O O12 0.216628 0.013326 0.000000
O O13 0.767835 0.703746 0.500000
O O14 0.816278 0.594932 0.734092
O O15 0.144036 0.464547 0.000000
#
# Coordination Sequence:
#
# PCOD9428445 Si02
#       6
#     8   8   8   8   8   8
#     4  12  26  39  59  97 136 171 211 263 329 383
#     4  10  22  43  68  93 124 169 221 266 311 376
#     4  10  21  42  68  93 122 165 222 269 315 381
#     4  11  24  46  72  97 127 173 222 262 314 391
#     4  12  26  44  68 101 136 167 207 271 334 382
#     4  11  23  44  69  93 125 172 222 266 316 385
#
# _framework density 21.837385000000001
#
# number of rings (size 3 to 8) (size 9 to 14) (size 15 to 20)
#    0.000    1.000    1.667    5.000    2.333    7.333 
#    0.000    0.000    0.000    0.000    0.000    0.000 
#    0.000    0.000    0.000    0.000    0.000    0.000 
#
# Total GULP energy -268869.452081 kJ/mol
# GULP energy per Si atom -5601.446918 kJ/mol
# Density = 2.178768 g / cm^3
# Si number density = 21.837385 Si / 1000 Ang^3
#
#
#
# Elastic Constant Matrix: (Units=GPa)
#
#
# Indices 1 2 3 4 5 6 
#
# 1 35.1154 -4.7352 -3.2443 0.0000 0.0000 0.0000
# 2 -4.7352 62.9047 -1.6822 0.0000 0.0000 0.0000
# 3 -3.2443 -1.6822 43.2304 0.0000 0.0000 0.0000
# 4 0.0000 0.0000 0.0000 -109.3844 0.0000 0.0000
# 5 0.0000 0.0000 0.0000 0.0000 14.0171 0.0000
# 6 0.0000 0.0000 0.0000 0.0000 0.0000 40.3047
#
#
#
# Elastic Compliance Matrix: (Units=1/GPa)
#
#
# Indices 1 2 3 4 5 6 
#
# 1 0.028989 0.002243 0.002263 0.000000 0.000000 0.000000
# 2 0.002243 0.016087 0.000794 0.000000 0.000000 0.000000
# 3 0.002263 0.000794 0.023333 0.000000 0.000000 0.000000
# 4 0.000000 0.000000 0.000000 -0.009142 0.000000 0.000000
# 5 0.000000 0.000000 0.000000 0.000000 0.071341 0.000000
# 6 0.000000 0.000000 0.000000 0.000000 0.000000 0.024811
#
#
# Mechanical properties :
#
#
# Convention : Reuss Voigt Hill
#
# Bulk Modulus (GPa) = 12.65691 13.54747 13.10219
# Shear Modulus (GPa) = 29.21317 -0.95173 14.13072
#
# Velocity S-wave (km/s) = 3.66151 -0.66089 2.54655
# Velocity P-wave (km/s) = 4.86663 2.37380 3.82877
#
# Compressibility (1/GPa) = 0.07900826
#
# Stress axis : x y z
#
# Youngs Moduli (GPa) = 34.49584 62.16157 42.85846
#
# Poissons Ratio (x) = -0.13941 -0.09698
# Poissons Ratio (y) = -0.07736 -0.03404
# Poissons Ratio (z) = -0.07806 -0.04937
#
# Static dielectric constant tensor:
#      x y z
#    x 1.806430 0.000000 0.000000 
#    y 0.000000 1.802090 0.000000 
#    z 0.000000 0.000000 1.729020 
# 
# From -- ./inp_files/10500.got.cif
#   From: 2010.05.17/outbox.cif.g08.bks.cpg/sg55_6_cif.got.tgz:10500.got - 2010.06.03 13:27:54.
