data_PCOD9428630
_publ_section_title
;
Structure prediction by ZEFSAII (Michael W. Deem and Ramdas Pophale) SiO2 
 PCOD9428630
Probable space group: P B A M
;
_chemical_formula_sum "Si O2"
_cell_formula_units_Z 48
_cell_length_a 14.260861
_cell_length_b 9.380448
_cell_length_c 17.826407
_cell_angle_alpha 90.000000
_cell_angle_beta 90.000000
_cell_angle_gamma 90.000000
_cell_volume 2384.696668
_symmetry_space_group_name_H-M "P B A M"
_symmetry_group_IT_number 55
_symmetry_cell_setting 'orthorhombic'
loop_
_space_group_symop_operation_xyz
x,y,z
-x,-y,z
1/2+x,1/2-y,-z
1/2-x,1/2+y,-z
-x,-y,-z
x,y,-z
1/2-x,1/2+y,z
1/2+x,1/2-y,z
loop_
_atom_site_type_symbol
_atom_site_label
_atom_site_fract_x
_atom_site_fract_y
_atom_site_fract_z
Si Si1 0.248281 0.540950 0.121653
Si Si2 0.902864 0.916345 0.000000
Si Si3 0.616269 0.336219 0.500000
Si Si4 0.890389 0.331912 0.350922
Si Si5 0.739416 0.708327 0.773626
Si Si6 0.612005 0.661442 0.500000
Si Si7 0.101844 0.427462 0.000000
Si Si8 0.884681 0.665744 0.650052
O O1 0.233552 0.700822 0.150278
O O2 0.261586 0.452380 0.197544
O O3 0.340688 0.538181 0.071234
O O4 0.162568 0.480392 0.071944
O O5 0.909841 0.743894 0.000000
O O6 0.000000 0.000000 0.000000
O O7 0.648835 0.499935 0.500000
O O8 0.502130 0.342466 0.500000
O O9 0.642816 0.251326 0.424868
O O10 0.843979 0.255901 0.280189
O O11 0.862113 0.247584 0.425683
O O12 0.861742 0.497626 0.356641
O O13 0.002942 0.325584 0.343286
O O14 0.832325 0.726542 0.722957
O O15 0.000000 0.500000 0.000000
#
# Coordination Sequence:
#
# PCOD9428630 Si02
#       8
#     8   4   4   8   8   4   4   8
#     4  11  26  46  66  95 139 164 208 263 315 382
#     4  11  26  46  73 103 127 169 215 253 314 382
#     4   9  19  36  59  88 124 160 216 276 311 367
#     4  10  22  40  63  87 123 172 217 261 319 379
#     4  12  24  42  64  96 132 169 204 267 322 376
#     4   9  19  36  59  88 122 164 216 270 317 365
#     4  11  26  46  75  99 127 173 213 253 314 384
#     4  10  22  40  62  89 123 169 219 262 318 379
#
# _framework density 20.128347000000002
#
# number of rings (size 3 to 8) (size 9 to 14) (size 15 to 20)
#    0.000    1.500    3.333    0.500    4.667    5.333 
#    0.000    0.000    0.000    0.000    0.000    0.000 
#    0.000    0.000    0.000    0.000    0.000    0.000 
#
# Total GULP energy -268235.328494 kJ/mol
# GULP energy per Si atom -5588.236010 kJ/mol
# Density = 2.008253 g / cm^3
# Si number density = 20.128347 Si / 1000 Ang^3
#
#
#
# Elastic Constant Matrix: (Units=GPa)
#
#
# Indices 1 2 3 4 5 6 
#
# 1 107.5887 47.5946 47.4862 0.0000 0.0000 0.0000
# 2 47.5946 90.2089 28.6382 0.0000 0.0000 0.0000
# 3 47.4862 28.6382 108.8286 0.0000 0.0000 0.0000
# 4 0.0000 0.0000 0.0000 33.8119 0.0000 0.0000
# 5 0.0000 0.0000 0.0000 0.0000 3.4562 0.0000
# 6 0.0000 0.0000 0.0000 0.0000 0.0000 24.9774
#
#
#
# Elastic Compliance Matrix: (Units=1/GPa)
#
#
# Indices 1 2 3 4 5 6 
#
# 1 0.013895 -0.005899 -0.004511 0.000000 0.000000 0.000000
# 2 -0.005899 0.014600 -0.001268 0.000000 0.000000 0.000000
# 3 -0.004511 -0.001268 0.011491 0.000000 0.000000 0.000000
# 4 0.000000 0.000000 0.000000 0.029575 0.000000 0.000000
# 5 0.000000 0.000000 0.000000 0.000000 0.289337 0.000000
# 6 0.000000 0.000000 0.000000 0.000000 0.000000 0.040036
#
#
# Mechanical properties :
#
#
# Convention : Reuss Voigt Hill
#
# Bulk Modulus (GPa) = 60.13071 61.56269 60.84670
# Shear Modulus (GPa) = 11.68677 24.64292 18.16485
#
# Velocity S-wave (km/s) = 2.41220 3.50278 3.00734
# Velocity P-wave (km/s) = 6.13977 6.85644 6.50798
#
# Compressibility (1/GPa) = 0.01663044
#
# Stress axis : x y z
#
# Youngs Moduli (GPa) = 71.96753 68.49140 87.02759
#
# Poissons Ratio (x) = 0.40404 0.39255
# Poissons Ratio (y) = 0.42455 0.11035
# Poissons Ratio (z) = 0.32462 0.08685
#
# Static dielectric constant tensor:
#      x y z
#    x 1.700980 0.000000 0.000000 
#    y 0.000000 1.683770 0.000000 
#    z 0.000000 0.000000 1.700900 
# 
# From -- ./inp_files/20861.got.cif
#   From: 2010.05.17/outbox.cif.g08.bks.cpg/sg55_11_cif.got.tgz:20861.got - 2010.06.03 13:27:54.
