data_PCOD9428553
_publ_section_title
;
Structure prediction by ZEFSAII (Michael W. Deem and Ramdas Pophale) SiO2 
 PCOD9428553
Probable space group: P B A M
;
_chemical_formula_sum "Si O2"
_cell_formula_units_Z 64
_cell_length_a 10.893015
_cell_length_b 33.515585
_cell_length_c 9.097867
_cell_angle_alpha 90.000000
_cell_angle_beta 90.000000
_cell_angle_gamma 90.000000
_cell_volume 3321.501780
_symmetry_space_group_name_H-M "P B A M"
_symmetry_group_IT_number 55
_symmetry_cell_setting 'orthorhombic'
loop_
_space_group_symop_operation_xyz
x,y,z
-x,-y,z
1/2+x,1/2-y,-z
1/2-x,1/2+y,-z
-x,-y,-z
x,y,-z
1/2-x,1/2+y,z
1/2+x,1/2-y,z
loop_
_atom_site_type_symbol
_atom_site_label
_atom_site_fract_x
_atom_site_fract_y
_atom_site_fract_z
Si Si1 0.644487 0.119178 0.178574
Si Si2 0.510295 0.200057 0.174355
Si Si3 0.410762 0.353364 0.174212
Si Si4 0.107293 0.469344 0.179897
Si Si5 0.972795 0.781768 0.333640
Si Si6 0.861826 0.991446 0.822879
Si Si7 0.783234 0.328948 0.665673
Si Si8 0.167225 0.101562 0.172662
O O1 0.577553 0.159642 0.226791
O O2 0.787320 0.124012 0.219714
O O3 0.589917 0.076695 0.226815
O O4 0.638310 0.118788 0.000000
O O5 0.551249 0.240868 0.249188
O O6 0.370473 0.193739 0.222340
O O7 0.524741 0.203128 0.000000
O O8 0.431212 0.311393 0.255240
O O9 0.530084 0.381074 0.196353
O O10 0.402232 0.345287 0.000000
O O11 0.243982 0.483216 0.227934
O O12 0.000000 0.500000 0.226535
O O13 0.106735 0.470076 0.000000
O O14 0.012674 0.773159 0.500000
O O15 0.846868 0.806619 0.336915
O O16 0.832058 0.945146 0.797423
O O17 0.867495 0.997752 0.000000
O O18 0.000000 0.000000 0.766438
O O19 0.833331 0.329141 0.500000
O O20 0.757839 0.373040 0.726983
O O21 0.197659 0.107921 0.000000
#
# Coordination Sequence:
#
# PCOD9428553 Si02
#       8
#     8   8   8   8   8   8   8   8
#     4   9  19  33  50  78 113 145 178 221 273 328
#     4  11  23  36  56  81 109 141 182 226 271 328
#     4   9  17  33  55  81 113 145 177 221 274 324
#     4   9  17  28  45  72 111 148 177 217 276 332
#     4  10  22  39  57  80 108 140 181 226 275 326
#     4   9  16  26  46  78 111 142 178 227 281 331
#     4  10  22  39  56  77 109 145 182 224 271 326
#     4   9  17  30  54  83 111 142 181 226 273 325
#
# _framework density 19.268393
#
# number of rings (size 3 to 8) (size 9 to 14) (size 15 to 20)
#    0.000    2.500    0.000    1.875    3.500    4.500 
#    0.000    0.625    0.000    0.375    0.000    3.500 
#    0.000    0.000    0.000    0.000    0.000    0.000 
#
# Total GULP energy -356891.869395 kJ/mol
# GULP energy per Si atom -5576.435459 kJ/mol
# Density = 1.922454 g / cm^3
# Si number density = 19.268393 Si / 1000 Ang^3
#
#
#
# Elastic Constant Matrix: (Units=GPa)
#
#
# Indices 1 2 3 4 5 6 
#
# 1 30.3791 24.9285 7.4615 0.0000 0.0000 0.0000
# 2 24.9285 98.6612 22.0512 0.0000 0.0000 0.0000
# 3 7.4615 22.0512 23.5134 0.0000 0.0000 0.0000
# 4 0.0000 0.0000 0.0000 -5.0414 0.0000 0.0000
# 5 0.0000 0.0000 0.0000 0.0000 10.7377 0.0000
# 6 0.0000 0.0000 0.0000 0.0000 0.0000 20.6626
#
#
#
# Elastic Compliance Matrix: (Units=1/GPa)
#
#
# Indices 1 2 3 4 5 6 
#
# 1 0.041862 -0.009626 -0.004257 0.000000 0.000000 0.000000
# 2 -0.009626 0.015037 -0.011047 0.000000 0.000000 0.000000
# 3 -0.004257 -0.011047 0.054240 0.000000 0.000000 0.000000
# 4 0.000000 0.000000 0.000000 -0.198358 0.000000 0.000000
# 5 0.000000 0.000000 0.000000 0.000000 0.093130 0.000000
# 6 0.000000 0.000000 0.000000 0.000000 0.000000 0.048397
#
#
# Mechanical properties :
#
#
# Convention : Reuss Voigt Hill
#
# Bulk Modulus (GPa) = 16.31882 29.04844 22.68363
# Shear Modulus (GPa) = 40.13091 11.81262 25.97177
#
# Velocity S-wave (km/s) = 4.56865 2.47868 3.67535
# Velocity P-wave (km/s) = 6.02641 4.82703 5.45976
#
# Compressibility (1/GPa) = 0.06127893
#
# Stress axis : x y z
#
# Youngs Moduli (GPa) = 23.88826 66.50306 18.43659
#
# Poissons Ratio (x) = 0.64013 0.07848
# Poissons Ratio (y) = 0.22994 0.20367
# Poissons Ratio (z) = 0.10169 0.73468
#
# Static dielectric constant tensor:
#      x y z
#    x 1.697750 0.000000 0.000000 
#    y 0.000000 1.665340 0.000000 
#    z 0.000000 0.000000 1.654080 
# 
# From -- ./inp_files/4686.got.cif
#   From: 2010.05.17/outbox.cif.g08.bks.cpg/sg55_3_cif.got.tgz:4686.got - 2010.06.03 13:27:54.
