data_PCOD9428010
_publ_section_title
;
Structure prediction by ZEFSAII (Michael W. Deem and Ramdas Pophale) SiO2 
 PCOD9428010
Probable space group: P B A M
;
_chemical_formula_sum "Si O2"
_cell_formula_units_Z 64
_cell_length_a 12.982338
_cell_length_b 28.930345
_cell_length_c 8.592053
_cell_angle_alpha 90.000000
_cell_angle_beta 90.000000
_cell_angle_gamma 90.000000
_cell_volume 3227.033486
_symmetry_space_group_name_H-M "P B A M"
_symmetry_group_IT_number 55
_symmetry_cell_setting 'orthorhombic'
loop_
_space_group_symop_operation_xyz
x,y,z
-x,-y,z
1/2+x,1/2-y,-z
1/2-x,1/2+y,-z
-x,-y,-z
x,y,-z
1/2-x,1/2+y,z
1/2+x,1/2-y,z
loop_
_atom_site_type_symbol
_atom_site_label
_atom_site_fract_x
_atom_site_fract_y
_atom_site_fract_z
Si Si1 0.389258 0.017138 0.811495
Si Si2 0.750689 0.903877 0.186345
Si Si3 0.606262 0.625671 0.179135
Si Si4 0.455466 0.550302 0.315038
Si Si5 0.829522 0.579251 0.178051
Si Si6 0.727142 0.712463 0.186913
Si Si7 0.834723 0.311861 0.313506
Si Si8 0.432778 0.835327 0.684550
O O1 0.345668 0.065308 0.754946
O O2 0.500000 0.000000 0.757567
O O3 0.318300 0.973492 0.770133
O O4 0.391927 0.021082 0.000000
O O5 0.738994 0.853495 0.259281
O O6 0.850621 0.933431 0.232833
O O7 0.747916 0.899354 0.000000
O O8 0.534057 0.592094 0.276922
O O9 0.718114 0.601894 0.176048
O O10 0.636058 0.676865 0.238659
O O11 0.567363 0.628296 0.000000
O O12 0.500000 0.500000 0.262902
O O13 0.438534 0.547262 0.500000
O O14 0.905110 0.611649 0.274898
O O15 0.869677 0.578913 0.000000
O O16 0.703650 0.763325 0.246911
O O17 0.838778 0.694168 0.242618
O O18 0.727081 0.710853 0.000000
O O19 0.835007 0.310031 0.500000
O O20 0.952668 0.322053 0.259785
O O21 0.429372 0.828810 0.500000
#
# Coordination Sequence:
#
# PCOD9428010 Si02
#       8
#     8   8   8   8   8   8   8   8
#     4   9  17  30  52  82 111 141 181 228 278 330
#     4  11  23  39  61  86 115 154 197 243 293 348
#     4   9  19  36  58  84 112 147 196 247 292 344
#     4  11  24  40  59  86 124 166 203 246 302 363
#     4   9  17  32  55  82 112 144 185 236 278 325
#     4  10  22  40  63  89 115 149 198 251 297 350
#     4  11  24  41  60  85 120 156 191 237 294 354
#     4  10  21  37  58  85 118 154 188 230 289 350
#
# _framework density 19.832455
#
# number of rings (size 3 to 8) (size 9 to 14) (size 15 to 20)
#    0.000    2.000    0.000    4.125    0.000    8.500 
#    0.000    3.750    0.000    3.375    0.000    0.000 
#    0.000    0.000    0.000    0.000    0.000    0.000 
#
# Total GULP energy -357120.736814 kJ/mol
# GULP energy per Si atom -5580.011513 kJ/mol
# Density = 1.978732 g / cm^3
# Si number density = 19.832455 Si / 1000 Ang^3
#
#
#
# Elastic Constant Matrix: (Units=GPa)
#
#
# Indices 1 2 3 4 5 6 
#
# 1 60.4473 30.5028 11.8097 0.0000 0.0000 0.0000
# 2 30.5028 146.4597 19.4870 0.0000 0.0000 0.0000
# 3 11.8097 19.4870 40.5699 0.0000 0.0000 0.0000
# 4 0.0000 0.0000 0.0000 23.7449 0.0000 0.0000
# 5 0.0000 0.0000 0.0000 0.0000 24.9679 0.0000
# 6 0.0000 0.0000 0.0000 0.0000 0.0000 29.4587
#
#
#
# Elastic Compliance Matrix: (Units=1/GPa)
#
#
# Indices 1 2 3 4 5 6 
#
# 1 0.019043 -0.003449 -0.003887 0.000000 0.000000 0.000000
# 2 -0.003449 0.007919 -0.002800 0.000000 0.000000 0.000000
# 3 -0.003887 -0.002800 0.027125 0.000000 0.000000 0.000000
# 4 0.000000 0.000000 0.000000 0.042114 0.000000 0.000000
# 5 0.000000 0.000000 0.000000 0.000000 0.040051 0.000000
# 6 0.000000 0.000000 0.000000 0.000000 0.000000 0.033946
#
#
# Mechanical properties :
#
#
# Convention : Reuss Voigt Hill
#
# Bulk Modulus (GPa) = 29.57166 41.23067 35.40116
# Shear Modulus (GPa) = 24.78430 28.01280 26.39855
#
# Velocity S-wave (km/s) = 3.53892 3.76236 3.65235
# Velocity P-wave (km/s) = 5.62510 6.30147 5.97286
#
# Compressibility (1/GPa) = 0.03381617
#
# Stress axis : x y z
#
# Youngs Moduli (GPa) = 52.51251 126.28481 36.86646
#
# Poissons Ratio (x) = 0.43555 0.14329
# Poissons Ratio (y) = 0.18111 0.10321
# Poissons Ratio (z) = 0.20410 0.35355
#
# Static dielectric constant tensor:
#      x y z
#    x 1.722860 0.000000 0.000000 
#    y 0.000000 1.711420 0.000000 
#    z 0.000000 0.000000 1.684380 
# 
# From -- ./inp_files/4623.got.cif
#   From: 2010.05.17/outbox.cif.g08.bks.cpg/sg55_3_cif.got.tgz:4623.got - 2010.06.03 13:27:54.
