data_PCOD9428774
_publ_section_title
;
Structure prediction by ZEFSAII (Michael W. Deem and Ramdas Pophale) SiO2 
 PCOD9428774
Probable space group: P B A M
;
_chemical_formula_sum "Si O2"
_cell_formula_units_Z 48
_cell_length_a 8.424331
_cell_length_b 10.505913
_cell_length_c 22.535673
_cell_angle_alpha 90.000000
_cell_angle_beta 90.000000
_cell_angle_gamma 90.000000
_cell_volume 1994.526242
_symmetry_space_group_name_H-M "P B A M"
_symmetry_group_IT_number 55
_symmetry_cell_setting 'orthorhombic'
loop_
_space_group_symop_operation_xyz
x,y,z
-x,-y,z
1/2+x,1/2-y,-z
1/2-x,1/2+y,-z
-x,-y,-z
x,y,-z
1/2-x,1/2+y,z
1/2+x,1/2-y,z
loop_
_atom_site_type_symbol
_atom_site_label
_atom_site_fract_x
_atom_site_fract_y
_atom_site_fract_z
Si Si1 0.615743 0.379966 0.932263
Si Si2 0.819333 0.644847 0.220708
Si Si3 0.617239 0.110306 0.568655
Si Si4 0.399460 0.206880 0.860513
Si Si5 0.647819 0.422066 0.721897
Si Si6 0.532633 0.629392 0.598349
O O1 0.500000 0.500000 0.928407
O O2 0.510930 0.259081 0.912652
O O3 0.762660 0.382034 0.886927
O O4 0.671780 0.368141 0.000000
O O5 0.686456 0.672122 0.170358
O O6 0.783844 0.526000 0.263838
O O7 0.987265 0.642201 0.187537
O O8 0.815960 0.783199 0.253009
O O9 0.659871 0.080225 0.500000
O O10 0.519953 0.240659 0.569317
O O11 0.777588 0.130477 0.605880
O O12 0.500000 0.000000 0.591076
O O13 0.500000 0.500000 0.749960
O O14 0.578881 0.389462 0.656407
O O15 0.500000 0.500000 0.563482
#
# Coordination Sequence:
#
# PCOD9428774 Si02
#       6
#     8   8   8   8   8   8
#     4  10  22  43  70 103 148 189 241 312 384 458
#     4  11  24  46  75 104 147 197 257 309 378 454
#     4  11  25  49  81 115 153 201 256 312 383 459
#     4  10  23  40  72 105 139 194 245 312 367 463
#     4  11  26  48  72 108 150 195 252 314 379 458
#     4  11  26  45  75 110 154 199 248 316 378 458
#
# _framework density 24.065866
#
# number of rings (size 3 to 8) (size 9 to 14) (size 15 to 20)
#    0.000    1.333    1.667    2.000    9.333    3.333 
#    3.000    0.000    0.000    5.000    0.000    0.000 
#    0.000    0.000    0.000    0.000    0.000    0.000 
#
# Total GULP energy -268199.223585 kJ/mol
# GULP energy per Si atom -5587.483825 kJ/mol
# Density = 2.401109 g / cm^3
# Si number density = 24.065866 Si / 1000 Ang^3
#
#
#
# Elastic Constant Matrix: (Units=GPa)
#
#
# Indices 1 2 3 4 5 6 
#
# 1 151.4454 53.8231 61.6984 0.0000 0.0000 0.0000
# 2 53.8231 166.4118 44.3508 0.0000 0.0000 0.0000
# 3 61.6984 44.3508 127.1041 0.0000 0.0000 0.0000
# 4 0.0000 0.0000 0.0000 32.5277 0.0000 0.0000
# 5 0.0000 0.0000 0.0000 0.0000 24.6472 0.0000
# 6 0.0000 0.0000 0.0000 0.0000 0.0000 43.7442
#
#
#
# Elastic Compliance Matrix: (Units=1/GPa)
#
#
# Indices 1 2 3 4 5 6 
#
# 1 0.008727 -0.001867 -0.003585 0.000000 0.000000 0.000000
# 2 -0.001867 0.007025 -0.001545 0.000000 0.000000 0.000000
# 3 -0.003585 -0.001545 0.010147 0.000000 0.000000 0.000000
# 4 0.000000 0.000000 0.000000 0.030743 0.000000 0.000000
# 5 0.000000 0.000000 0.000000 0.000000 0.040573 0.000000
# 6 0.000000 0.000000 0.000000 0.000000 0.000000 0.022860
#
#
# Mechanical properties :
#
#
# Convention : Reuss Voigt Hill
#
# Bulk Modulus (GPa) = 83.99804 84.96731 84.48267
# Shear Modulus (GPa) = 36.22236 39.18974 37.70605
#
# Velocity S-wave (km/s) = 3.88382 4.03977 3.96256
# Velocity P-wave (km/s) = 7.42234 7.55926 7.49112
#
# Compressibility (1/GPa) = 0.01190504
#
# Stress axis : x y z
#
# Youngs Moduli (GPa) = 114.58627 142.35227 98.55445
#
# Poissons Ratio (x) = 0.26581 0.35329
# Poissons Ratio (y) = 0.21396 0.15225
# Poissons Ratio (z) = 0.41076 0.21991
#
# Static dielectric constant tensor:
#      x y z
#    x 1.981600 0.000000 0.000000 
#    y 0.000000 1.928450 0.000000 
#    z 0.000000 0.000000 1.970790 
# 
# From -- ./inp_files/23434.got.cif
#   From: 2010.05.17/outbox.cif.g08.bks.cpg/sg55_12_cif.got.tgz:23434.got - 2010.06.03 13:27:54.
