data_PCOD9428461
_publ_section_title
;
Structure prediction by ZEFSAII (Michael W. Deem and Ramdas Pophale) SiO2 
 PCOD9428461
Probable space group: P B A M
;
_chemical_formula_sum "Si O2"
_cell_formula_units_Z 44
_cell_length_a 8.220574
_cell_length_b 13.362002
_cell_length_c 18.144597
_cell_angle_alpha 90.000000
_cell_angle_beta 90.000000
_cell_angle_gamma 90.000000
_cell_volume 1993.062888
_symmetry_space_group_name_H-M "P B A M"
_symmetry_group_IT_number 55
_symmetry_cell_setting 'orthorhombic'
loop_
_space_group_symop_operation_xyz
x,y,z
-x,-y,z
1/2+x,1/2-y,-z
1/2-x,1/2+y,-z
-x,-y,-z
x,y,-z
1/2-x,1/2+y,z
1/2+x,1/2-y,z
loop_
_atom_site_type_symbol
_atom_site_label
_atom_site_fract_x
_atom_site_fract_y
_atom_site_fract_z
Si Si1 0.000000 0.500000 0.128088
Si Si2 0.651935 0.637864 0.000000
Si Si3 0.215257 0.628319 0.369605
Si Si4 0.252962 0.988029 0.760204
Si Si5 0.000000 0.000000 0.124558
Si Si6 0.042286 0.635610 0.000000
Si Si7 0.607209 0.642572 0.369445
Si Si8 0.789567 0.517333 0.500000
O O1 0.116909 0.441315 0.183889
O O2 0.907611 0.425288 0.072837
O O3 0.577852 0.582507 0.928730
O O4 0.846361 0.631868 0.000000
O O5 0.603853 0.753095 0.000000
O O6 0.175464 0.571460 0.294122
O O7 0.412851 0.628687 0.378287
O O8 0.150029 0.740618 0.370623
O O9 0.147837 0.563156 0.436576
O O10 0.165567 0.908930 0.706678
O O11 0.131255 0.040866 0.817394
O O12 0.702547 0.586452 0.435027
#
# Coordination Sequence:
#
# PCOD9428461 Si02
#       8
#     4   4   8   8   4   4   8   4
#     4  11  26  44  66  89 132 160 212 261 306 370
#     4  11  26  40  69  93 127 163 213 251 314 374
#     4  11  23  40  65  93 125 166 210 257 310 369
#     4  11  23  43  64  89 128 167 204 256 316 368
#     4  11  22  46  64  91 126 172 202 253 314 380
#     4  11  26  44  63  99 121 167 209 257 310 374
#     4  11  23  40  65  94 125 164 213 252 312 372
#     4  10  21  44  65  86 129 174 205 252 311 372
#
# _framework density 22.076574000000001
#
# number of rings (size 3 to 8) (size 9 to 14) (size 15 to 20)
#    0.000    1.091    3.636    3.273    5.091    2.909 
#    0.000    0.909    0.000    0.000    0.000    0.000 
#    0.000    0.000    0.000    0.000    0.000    0.000 
#
# Total GULP energy -244986.173945 kJ/mol
# GULP energy per Si atom -5567.867590 kJ/mol
# Density = 2.202633 g / cm^3
# Si number density = 22.076574 Si / 1000 Ang^3
#
#
#
# Elastic Constant Matrix: (Units=GPa)
#
#
# Indices 1 2 3 4 5 6 
#
# 1 34.2687 18.0707 33.2259 0.0000 0.0000 0.0000
# 2 18.0707 147.8465 58.4517 0.0000 0.0000 0.0000
# 3 33.2259 58.4517 195.5800 0.0000 0.0000 0.0000
# 4 0.0000 0.0000 0.0000 -0.4815 0.0000 0.0000
# 5 0.0000 0.0000 0.0000 0.0000 -43.9537 0.0000
# 6 0.0000 0.0000 0.0000 0.0000 0.0000 37.8806
#
#
#
# Elastic Compliance Matrix: (Units=1/GPa)
#
#
# Indices 1 2 3 4 5 6 
#
# 1 0.035567 -0.002221 -0.005379 0.000000 0.000000 0.000000
# 2 -0.002221 0.007809 -0.001956 0.000000 0.000000 0.000000
# 3 -0.005379 -0.001956 0.006611 0.000000 0.000000 0.000000
# 4 0.000000 0.000000 0.000000 -2.076987 0.000000 0.000000
# 5 0.000000 0.000000 0.000000 0.000000 -0.022751 0.000000
# 6 0.000000 0.000000 0.000000 0.000000 0.000000 0.026399
#
#
# Mechanical properties :
#
#
# Convention : Reuss Voigt Hill
#
# Bulk Modulus (GPa) = 32.38800 66.35464 49.37132
# Shear Modulus (GPa) = -2.50759 16.55222 7.02232
#
# Velocity S-wave (km/s) = -1.06692 2.74115 1.78544
# Velocity P-wave (km/s) = 3.63109 6.33564 5.16359
#
# Compressibility (1/GPa) = 0.03087563
#
# Stress axis : x y z
#
# Youngs Moduli (GPa) = 28.11586 128.06220 151.25294
#
# Poissons Ratio (x) = 0.28440 0.81352
# Poissons Ratio (y) = 0.06244 0.29592
# Poissons Ratio (z) = 0.15122 0.25055
#
# Static dielectric constant tensor:
#      x y z
#    x 1.982110 0.000000 0.000000 
#    y 0.000000 1.750500 0.000000 
#    z 0.000000 0.000000 1.670070 
# 
# From -- ./inp_files/20748.got.cif
#   From: 2010.05.17/outbox.cif.g08.bks.cpg/sg55_11_cif.got.tgz:20748.got - 2010.06.03 13:27:54.
