data_PCOD9428482
_publ_section_title
;
Structure prediction by ZEFSAII (Michael W. Deem and Ramdas Pophale) SiO2 
 PCOD9428482
Probable space group: P B A M
;
_chemical_formula_sum "Si O2"
_cell_formula_units_Z 64
_cell_length_a 30.704785
_cell_length_b 14.867598
_cell_length_c 8.878186
_cell_angle_alpha 90.000000
_cell_angle_beta 90.000000
_cell_angle_gamma 90.000000
_cell_volume 4052.948730
_symmetry_space_group_name_H-M "P B A M"
_symmetry_group_IT_number 55
_symmetry_cell_setting 'orthorhombic'
loop_
_space_group_symop_operation_xyz
x,y,z
-x,-y,z
1/2+x,1/2-y,-z
1/2-x,1/2+y,-z
-x,-y,-z
x,y,-z
1/2-x,1/2+y,z
1/2+x,1/2-y,z
loop_
_atom_site_type_symbol
_atom_site_label
_atom_site_fract_x
_atom_site_fract_y
_atom_site_fract_z
Si Si1 0.550019 0.606047 0.680780
Si Si2 0.449332 0.604887 0.319034
Si Si3 0.633382 0.682557 0.822180
Si Si4 0.777669 0.504393 0.673567
Si Si5 0.864884 0.831922 0.179316
Si Si6 0.292015 0.200490 0.318673
Si Si7 0.826658 0.009657 0.672763
Si Si8 0.290181 0.807743 0.178715
O O1 0.554061 0.613417 0.500000
O O2 0.559057 0.500731 0.719369
O O3 0.499614 0.623947 0.719799
O O4 0.584571 0.670506 0.759812
O O5 0.444743 0.612569 0.500000
O O6 0.414427 0.667274 0.236869
O O7 0.663483 0.756039 0.741040
O O8 0.655972 0.588170 0.778376
O O9 0.633545 0.696631 0.000000
O O10 0.792450 0.513110 0.500000
O O11 0.789179 0.404162 0.727833
O O12 0.725316 0.509937 0.673661
O O13 0.793552 0.589813 0.766755
O O14 0.843139 0.914875 0.267083
O O15 0.834726 0.746009 0.211796
O O16 0.863857 0.847692 0.000000
O O17 0.290364 0.204953 0.500000
O O18 0.250663 0.256866 0.256558
O O19 0.841593 0.024827 0.500000
O O20 0.282501 0.804860 0.000000
#
# Coordination Sequence:
#
# PCOD9428482 Si02
#       8
#     8   8   8   8   8   8   8   8
#     4   9  18  33  51  74 102 134 172 210 252 302
#     4   9  18  32  52  74 100 136 173 210 252 300
#     4  12  23  33  49  77 105 137 172 207 256 309
#     4  10  22  37  54  73  97 135 180 219 253 293
#     4  11  22  33  48  76 107 138 173 209 255 307
#     4  11  22  37  54  73  99 135 177 216 251 296
#     4  11  20  32  50  72 101 138 176 214 250 292
#     4  11  23  35  51  75 105 137 169 211 258 304
#
# _framework density 15.790971000000001
#
# number of rings (size 3 to 8) (size 9 to 14) (size 15 to 20)
#    0.000    1.500    3.750    3.375    0.000    3.500 
#    0.000    1.250    0.000    0.000    0.000    0.875 
#    0.000    7.000    0.000    0.000    0.000    0.000 
#
# Total GULP energy -357260.656006 kJ/mol
# GULP energy per Si atom -5582.197750 kJ/mol
# Density = 1.575503 g / cm^3
# Si number density = 15.790971 Si / 1000 Ang^3
#
#
#
# Elastic Constant Matrix: (Units=GPa)
#
#
# Indices 1 2 3 4 5 6 
#
# 1 105.5528 47.3423 40.3789 0.0000 0.0000 0.0000
# 2 47.3423 97.2753 38.0229 0.0000 0.0000 0.0000
# 3 40.3789 38.0229 54.7245 0.0000 0.0000 0.0000
# 4 0.0000 0.0000 0.0000 17.9062 0.0000 0.0000
# 5 0.0000 0.0000 0.0000 0.0000 20.7733 0.0000
# 6 0.0000 0.0000 0.0000 0.0000 0.0000 20.9466
#
#
#
# Elastic Compliance Matrix: (Units=1/GPa)
#
#
# Indices 1 2 3 4 5 6 
#
# 1 0.014183 -0.003860 -0.007782 0.000000 0.000000 0.000000
# 2 -0.003860 0.015164 -0.007687 0.000000 0.000000 0.000000
# 3 -0.007782 -0.007687 0.029357 0.000000 0.000000 0.000000
# 4 0.000000 0.000000 0.000000 0.055846 0.000000 0.000000
# 5 0.000000 0.000000 0.000000 0.000000 0.048139 0.000000
# 6 0.000000 0.000000 0.000000 0.000000 0.000000 0.047741
#
#
# Mechanical properties :
#
#
# Convention : Reuss Voigt Hill
#
# Bulk Modulus (GPa) = 49.89355 56.56006 53.22681
# Shear Modulus (GPa) = 19.54878 20.71246 20.13062
#
# Velocity S-wave (km/s) = 3.52230 3.62562 3.57433
# Velocity P-wave (km/s) = 6.94312 7.30907 7.12845
#
# Compressibility (1/GPa) = 0.02004267
#
# Stress axis : x y z
#
# Youngs Moduli (GPa) = 70.50915 65.94669 34.06343
#
# Poissons Ratio (x) = 0.25458 0.26510
# Poissons Ratio (y) = 0.27219 0.26186
# Poissons Ratio (z) = 0.54874 0.50696
#
# Static dielectric constant tensor:
#      x y z
#    x 1.540670 0.000000 0.000000 
#    y 0.000000 1.511090 0.000000 
#    z 0.000000 0.000000 1.530840 
# 
# From -- ./inp_files/6952.got.cif
#   From: 2010.05.17/outbox.cif.g08.bks.cpg/sg55_4_cif.got.tgz:6952.got - 2010.06.03 13:27:54.
