data_PCOD9428468
_publ_section_title
;
Structure prediction by ZEFSAII (Michael W. Deem and Ramdas Pophale) SiO2 
 PCOD9428468
Probable space group: P B A M
;
_chemical_formula_sum "Si O2"
_cell_formula_units_Z 32
_cell_length_a 5.242821
_cell_length_b 34.230469
_cell_length_c 7.872069
_cell_angle_alpha 90.000000
_cell_angle_beta 90.000000
_cell_angle_gamma 90.000000
_cell_volume 1412.754736
_symmetry_space_group_name_H-M "P B A M"
_symmetry_group_IT_number 55
_symmetry_cell_setting 'orthorhombic'
loop_
_space_group_symop_operation_xyz
x,y,z
-x,-y,z
1/2+x,1/2-y,-z
1/2-x,1/2+y,-z
-x,-y,-z
x,y,-z
1/2-x,1/2+y,z
1/2+x,1/2-y,z
loop_
_atom_site_type_symbol
_atom_site_label
_atom_site_fract_x
_atom_site_fract_y
_atom_site_fract_z
Si Si1 0.976791 0.046701 0.312128
Si Si2 0.786751 0.224109 0.000000
Si Si3 0.831255 0.161205 0.704966
Si Si4 0.655712 0.888831 0.701677
Si Si5 0.241791 0.472916 0.000000
O O1 0.910495 0.062051 0.500000
O O2 0.229621 0.068724 0.248672
O O3 0.765949 0.052059 0.169645
O O4 0.000000 0.000000 0.330621
O O5 0.818891 0.198034 0.829882
O O6 0.509089 0.243660 0.000000
O O7 0.808205 0.169588 0.500000
O O8 0.597982 0.132918 0.760794
O O9 0.100437 0.139331 0.731357
O O10 0.617790 0.892656 0.500000
O O11 0.500000 0.500000 0.000000
O O12 0.000000 0.500000 0.000000
#
# Coordination Sequence:
#
# PCOD9428468 Si02
#       5
#     8   4   8   8   4
#     4   9  19  36  58  85 119 158 204 258 300 335
#     4  12  26  42  66  98 121 148 195 238 290 363
#     4  10  22  41  62  88 124 159 193 238 291 353
#     4   9  19  37  61  87 118 162 206 239 290 355
#     4  10  22  36  50  74 106 144 192 242 300 355
#
# _framework density 22.650782
#
# number of rings (size 3 to 8) (size 9 to 14) (size 15 to 20)
#    0.000    2.250    0.000    1.500    0.000    7.500 
#    0.000    7.500    0.000    0.000    0.000    0.000 
#    0.000    0.000    0.000    0.000    0.000    0.000 
#
# Total GULP energy -178614.158931 kJ/mol
# GULP energy per Si atom -5581.692467 kJ/mol
# Density = 2.259923 g / cm^3
# Si number density = 22.650782 Si / 1000 Ang^3
#
#
#
# Elastic Constant Matrix: (Units=GPa)
#
#
# Indices 1 2 3 4 5 6 
#
# 1 124.9070 11.2919 21.4848 0.0000 0.0000 0.0000
# 2 11.2919 83.9696 24.3792 0.0000 0.0000 0.0000
# 3 21.4848 24.3792 118.3821 0.0000 0.0000 0.0000
# 4 0.0000 0.0000 0.0000 28.5014 0.0000 0.0000
# 5 0.0000 0.0000 0.0000 0.0000 4.2991 0.0000
# 6 0.0000 0.0000 0.0000 0.0000 0.0000 44.3114
#
#
#
# Elastic Compliance Matrix: (Units=1/GPa)
#
#
# Indices 1 2 3 4 5 6 
#
# 1 0.008305 -0.000722 -0.001358 0.000000 0.000000 0.000000
# 2 -0.000722 0.012729 -0.002490 0.000000 0.000000 0.000000
# 3 -0.001358 -0.002490 0.009207 0.000000 0.000000 0.000000
# 4 0.000000 0.000000 0.000000 0.035086 0.000000 0.000000
# 5 0.000000 0.000000 0.000000 0.000000 0.232609 0.000000
# 6 0.000000 0.000000 0.000000 0.000000 0.000000 0.022568
#
#
# Mechanical properties :
#
#
# Convention : Reuss Voigt Hill
#
# Bulk Modulus (GPa) = 47.39692 49.06339 48.23015
# Shear Modulus (GPa) = 14.85096 33.42922 24.14009
#
# Velocity S-wave (km/s) = 2.56334 3.84585 3.26813
# Velocity P-wave (km/s) = 5.45266 6.43650 5.96490
#
# Compressibility (1/GPa) = 0.02109842
#
# Stress axis : x y z
#
# Youngs Moduli (GPa) = 120.41048 78.55928 108.61756
#
# Poissons Ratio (x) = 0.05675 0.14755
# Poissons Ratio (y) = 0.08699 0.27049
# Poissons Ratio (z) = 0.16357 0.19564
#
# Static dielectric constant tensor:
#      x y z
#    x 1.900240 0.000000 0.000000 
#    y 0.000000 1.988760 0.000000 
#    z 0.000000 0.000000 1.206830 
# 
# From -- ./inp_files/1353.got.cif
#   From: 2010.05.17/outbox.cif.g08.bks.cpg/sg55_1_cif.got.tgz:1353.got - 2010.06.03 13:27:54.
