data_PCOD9428431
_publ_section_title
;
Structure prediction by ZEFSAII (Michael W. Deem and Ramdas Pophale) SiO2 
 PCOD9428431
Probable space group: P B A M
;
_chemical_formula_sum "Si O2"
_cell_formula_units_Z 56
_cell_length_a 8.480512
_cell_length_b 13.211936
_cell_length_c 22.352064
_cell_angle_alpha 90.000000
_cell_angle_beta 90.000000
_cell_angle_gamma 90.000000
_cell_volume 2504.414252
_symmetry_space_group_name_H-M "P B A M"
_symmetry_group_IT_number 55
_symmetry_cell_setting 'orthorhombic'
loop_
_space_group_symop_operation_xyz
x,y,z
-x,-y,z
1/2+x,1/2-y,-z
1/2-x,1/2+y,-z
-x,-y,-z
x,y,-z
1/2-x,1/2+y,z
1/2+x,1/2-y,z
loop_
_atom_site_type_symbol
_atom_site_label
_atom_site_fract_x
_atom_site_fract_y
_atom_site_fract_z
Si Si1 0.161539 0.103881 0.930001
Si Si2 0.667920 0.052478 0.155789
Si Si3 0.997149 0.759394 0.358435
Si Si4 0.340121 0.951081 0.641592
Si Si5 0.744106 0.372524 0.569753
Si Si6 0.310487 0.312344 0.068325
Si Si7 0.612310 0.585729 0.262756
O O1 0.289999 0.192825 0.927578
O O2 0.985644 0.146762 0.916983
O O3 0.218893 0.025871 0.880004
O O4 0.158498 0.068324 0.000000
O O5 0.671259 0.143055 0.108648
O O6 0.750525 0.099786 0.214309
O O7 0.500000 0.000000 0.167485
O O8 0.869245 0.668333 0.354597
O O9 0.924766 0.845151 0.401739
O O10 0.134654 0.697889 0.392783
O O11 0.039690 0.814268 0.295200
O O12 0.194081 0.974483 0.683106
O O13 0.500000 0.000000 0.665894
O O14 0.300928 0.011790 0.581115
O O15 0.747756 0.348754 0.500000
O O16 0.279020 0.340239 0.000000
O O17 0.500000 0.500000 0.235522
#
# Coordination Sequence:
#
# PCOD9428431 Si02
#       7
#     8   8   8   8   8   8   8
#     4  10  21  41  69 101 142 184 228 291 356 414
#     4  12  26  44  66  99 134 183 239 290 348 416
#     4  11  23  44  69 102 138 180 224 278 348 408
#     4  10  23  44  67  96 137 178 222 276 346 412
#     4  11  23  42  72 106 140 177 225 281 345 426
#     4  10  21  41  68 104 141 178 229 288 352 415
#     4  12  24  46  69  95 133 182 237 290 340 415
#
# _framework density 22.360517999999999
#
# number of rings (size 3 to 8) (size 9 to 14) (size 15 to 20)
#    0.000    1.143    2.857    3.429    0.000    6.571 
#   12.857    0.714    0.000    0.000    0.000    0.000 
#    0.000    0.000    0.000    0.000    0.000    0.000 
#
# Total GULP energy -312148.452125 kJ/mol
# GULP energy per Si atom -5574.079502 kJ/mol
# Density = 2.230962 g / cm^3
# Si number density = 22.360518 Si / 1000 Ang^3
#
#
#
# Elastic Constant Matrix: (Units=GPa)
#
#
# Indices 1 2 3 4 5 6 
#
# 1 65.8543 24.1329 37.9325 0.0000 0.0000 0.0000
# 2 24.1329 108.4183 52.8151 0.0000 0.0000 0.0000
# 3 37.9325 52.8151 101.5049 0.0000 0.0000 0.0000
# 4 0.0000 0.0000 0.0000 33.2543 0.0000 0.0000
# 5 0.0000 0.0000 0.0000 0.0000 10.8433 0.0000
# 6 0.0000 0.0000 0.0000 0.0000 0.0000 37.4658
#
#
#
# Elastic Compliance Matrix: (Units=1/GPa)
#
#
# Indices 1 2 3 4 5 6 
#
# 1 0.019440 -0.001056 -0.006715 0.000000 0.000000 0.000000
# 2 -0.001056 0.012413 -0.006064 0.000000 0.000000 0.000000
# 3 -0.006715 -0.006064 0.015516 0.000000 0.000000 0.000000
# 4 0.000000 0.000000 0.000000 0.030071 0.000000 0.000000
# 5 0.000000 0.000000 0.000000 0.000000 0.092223 0.000000
# 6 0.000000 0.000000 0.000000 0.000000 0.000000 0.026691
#
#
# Mechanical properties :
#
#
# Convention : Reuss Voigt Hill
#
# Bulk Modulus (GPa) = 50.76461 56.17094 53.46778
# Shear Modulus (GPa) = 21.68343 27.03915 24.36129
#
# Velocity S-wave (km/s) = 3.11741 3.48118 3.30430
# Velocity P-wave (km/s) = 5.97576 6.42910 6.20657
#
# Compressibility (1/GPa) = 0.01969876
#
# Stress axis : x y z
#
# Youngs Moduli (GPa) = 51.44014 80.56360 64.44753
#
# Poissons Ratio (x) = 0.08506 0.43279
# Poissons Ratio (y) = 0.05431 0.39081
# Poissons Ratio (z) = 0.34544 0.48853
#
# Static dielectric constant tensor:
#      x y z
#    x 1.891010 0.000000 0.000000 
#    y 0.000000 1.973980 0.000000 
#    z 0.000000 0.000000 1.805750 
# 
# From -- ./inp_files/22620.got.cif
#   From: 2010.05.17/outbox.cif.g08.bks.cpg/sg55_12_cif.got.tgz:22620.got - 2010.06.03 13:27:54.
