data_PCOD9428980
_publ_section_title
;
Structure prediction by ZEFSAII (Michael W. Deem and Ramdas Pophale) SiO2 
 PCOD9428980
Probable space group: P B A M
;
_chemical_formula_sum "Si O2"
_cell_formula_units_Z 64
_cell_length_a 26.905984
_cell_length_b 10.025292
_cell_length_c 14.331122
_cell_angle_alpha 90.000000
_cell_angle_beta 90.000000
_cell_angle_gamma 90.000000
_cell_volume 3865.681809
_symmetry_space_group_name_H-M "P B A M"
_symmetry_group_IT_number 55
_symmetry_cell_setting 'orthorhombic'
loop_
_space_group_symop_operation_xyz
x,y,z
-x,-y,z
1/2+x,1/2-y,-z
1/2-x,1/2+y,-z
-x,-y,-z
x,y,-z
1/2-x,1/2+y,z
1/2+x,1/2-y,z
loop_
_atom_site_type_symbol
_atom_site_label
_atom_site_fract_x
_atom_site_fract_y
_atom_site_fract_z
Si Si1 0.696048 0.441122 0.613377
Si Si2 0.566676 0.634096 0.104724
Si Si3 0.929204 0.264417 0.294716
Si Si4 0.043671 0.282777 0.704134
Si Si5 0.881241 0.512313 0.611569
Si Si6 0.919421 0.979651 0.611459
Si Si7 0.776415 0.648712 0.386684
Si Si8 0.446709 0.672076 0.104630
O O1 0.698195 0.441177 0.500000
O O2 0.638100 0.449912 0.636341
O O3 0.718893 0.300820 0.645907
O O4 0.728747 0.565879 0.646161
O O5 0.585751 0.722120 0.189920
O O6 0.506647 0.652360 0.106073
O O7 0.575296 0.476149 0.120580
O O8 0.583672 0.668317 0.000000
O O9 0.893343 0.372367 0.340223
O O10 0.985662 0.320345 0.294142
O O11 0.930456 0.127701 0.353358
O O12 0.077393 0.381777 0.644687
O O13 0.048318 0.134201 0.660945
O O14 0.063992 0.269522 0.809860
O O15 0.883612 0.497391 0.500000
O O16 0.827092 0.570243 0.635890
O O17 0.925590 0.970459 0.500000
O O18 0.773990 0.653911 0.500000
O O19 0.433070 0.716330 0.000000
#
# Coordination Sequence:
#
# PCOD9428980 Si02
#       8
#     8   8   8   8   8   8   8   8
#     4   9  18  32  50  69  90 120 159 208 257 288
#     4   8  14  28  48  69  93 120 158 211 259 285
#     4  11  22  32  47  72  98 137 176 199 232 286
#     4  11  20  34  49  67 100 137 172 203 237 285
#     4  11  23  36  47  66 103 142 170 200 240 287
#     4  11  21  32  47  70  99 130 170 210 235 277
#     4   9  18  33  51  68  89 121 161 207 255 289
#     4   8  14  27  49  71  90 119 161 211 257 287
#
# _framework density 16.555942000000002
#
# number of rings (size 3 to 8) (size 9 to 14) (size 15 to 20)
#    0.000    2.250    2.500    2.250    1.750    3.000 
#    0.000    0.625    0.000    3.000    0.000    0.000 
#    0.000    6.000    0.000    0.000    0.000    0.000 
#
# Total GULP energy -356842.091218 kJ/mol
# GULP energy per Si atom -5575.657675 kJ/mol
# Density = 1.651826 g / cm^3
# Si number density = 16.555942 Si / 1000 Ang^3
#
#
#
# Elastic Constant Matrix: (Units=GPa)
#
#
# Indices 1 2 3 4 5 6 
#
# 1 32.2463 1.8472 -2.0857 0.0000 0.0000 0.0000
# 2 1.8472 47.8015 4.6968 0.0000 0.0000 0.0000
# 3 -2.0857 4.6968 63.7803 0.0000 0.0000 0.0000
# 4 0.0000 0.0000 0.0000 23.0182 0.0000 0.0000
# 5 0.0000 0.0000 0.0000 0.0000 -2.7161 0.0000
# 6 0.0000 0.0000 0.0000 0.0000 0.0000 23.5396
#
#
#
# Elastic Compliance Matrix: (Units=1/GPa)
#
#
# Indices 1 2 3 4 5 6 
#
# 1 0.031159 -0.001314 0.001116 0.000000 0.000000 0.000000
# 2 -0.001314 0.021128 -0.001599 0.000000 0.000000 0.000000
# 3 0.001116 -0.001599 0.015833 0.000000 0.000000 0.000000
# 4 0.000000 0.000000 0.000000 0.043444 0.000000 0.000000
# 5 0.000000 0.000000 0.000000 0.000000 -0.368181 0.000000
# 6 0.000000 0.000000 0.000000 0.000000 0.000000 0.042482
#
#
# Mechanical properties :
#
#
# Convention : Reuss Voigt Hill
#
# Bulk Modulus (GPa) = 15.49767 16.97162 16.23465
# Shear Modulus (GPa) = -26.45026 18.05967 -4.19530
#
# Velocity S-wave (km/s) = -4.00137 3.30635 -1.59359
# Velocity P-wave (km/s) = 3.45932 4.98490 2.53795
#
# Compressibility (1/GPa) = 0.06452584
#
# Stress axis : x y z
#
# Youngs Moduli (GPa) = 32.09379 47.33118 63.15905
#
# Poissons Ratio (x) = 0.06218 -0.07047
# Poissons Ratio (y) = 0.04216 0.10098
# Poissons Ratio (z) = -0.03581 0.07567
#
# Static dielectric constant tensor:
#      x y z
#    x 1.547540 0.000000 0.000000 
#    y 0.000000 1.567430 0.000000 
#    z 0.000000 0.000000 1.565010 
# 
# From -- ./inp_files/17926.got.cif
#   From: 2010.05.17/outbox.cif.g08.bks.cpg/sg55_9_cif.got.tgz:17926.got - 2010.06.03 13:27:54.
