data_PCOD9428748
_publ_section_title
;
Structure prediction by ZEFSAII (Michael W. Deem and Ramdas Pophale) SiO2 
 PCOD9428748
Probable space group: P B A M
;
_chemical_formula_sum "Si O2"
_cell_formula_units_Z 58
_cell_length_a 9.436317
_cell_length_b 15.367488
_cell_length_c 17.512532
_cell_angle_alpha 90.000000
_cell_angle_beta 90.000000
_cell_angle_gamma 90.000000
_cell_volume 2539.535841
_symmetry_space_group_name_H-M "P B A M"
_symmetry_group_IT_number 55
_symmetry_cell_setting 'orthorhombic'
loop_
_space_group_symop_operation_xyz
x,y,z
-x,-y,z
1/2+x,1/2-y,-z
1/2-x,1/2+y,-z
-x,-y,-z
x,y,-z
1/2-x,1/2+y,z
1/2+x,1/2-y,z
loop_
_atom_site_type_symbol
_atom_site_label
_atom_site_fract_x
_atom_site_fract_y
_atom_site_fract_z
Si Si1 0.157391 0.708456 0.152596
Si Si2 0.500000 0.500000 0.000000
Si Si3 0.239759 0.508119 0.121094
Si Si4 0.622353 0.169842 0.084614
Si Si5 0.826889 0.510223 0.706258
Si Si6 0.315510 0.184439 0.674231
Si Si7 0.117420 0.927121 0.587464
Si Si8 0.558929 0.247839 0.585871
O O1 0.199160 0.610611 0.124920
O O2 0.229596 0.783076 0.102424
O O3 0.197879 0.721068 0.240594
O O4 0.988889 0.708603 0.143991
O O5 0.623674 0.498944 0.932450
O O6 0.133903 0.434047 0.089102
O O7 0.241283 0.477839 0.209933
O O8 0.573915 0.194765 0.000000
O O9 0.776056 0.415705 0.679046
O O10 0.750394 0.572264 0.645083
O O11 0.000000 0.500000 0.713018
O O12 0.475975 0.188959 0.645523
O O13 0.214701 0.229892 0.613711
O O14 0.164712 0.944519 0.500000
O O15 0.030889 0.837345 0.587904
O O16 0.000000 0.000000 0.608002
O O17 0.558045 0.212859 0.500000
#
# Coordination Sequence:
#
# PCOD9428748 Si02
#       8
#     8   2   8   8   8   8   8   8
#     4  11  27  45  71 101 142 182 238 292 356 425
#     4  12  28  44  78 112 138 186 246 300 356 444
#     4  11  27  47  71 101 145 184 240 297 364 429
#     4  12  26  45  72 103 138 188 228 292 360 429
#     4  11  25  45  72 101 137 184 236 292 356 425
#     4  11  24  44  66  97 135 182 229 283 347 419
#     4  10  22  42  67  97 135 181 228 287 347 412
#     4  11  24  41  66  98 138 180 226 284 346 407
#
# _framework density 22.838818
#
# number of rings (size 3 to 8) (size 9 to 14) (size 15 to 20)
#    0.000    0.966    2.069    3.724    8.690    1.379 
#    0.000    0.000    0.000    0.000    0.000    0.000 
#    0.000    0.000    0.000    0.000    0.000    0.000 
#
# Total GULP energy -323610.254584 kJ/mol
# GULP energy per Si atom -5579.487148 kJ/mol
# Density = 2.278684 g / cm^3
# Si number density = 22.838818 Si / 1000 Ang^3
#
#
#
# Elastic Constant Matrix: (Units=GPa)
#
#
# Indices 1 2 3 4 5 6 
#
# 1 117.7884 3.6405 49.2574 0.0000 0.0000 0.0000
# 2 3.6405 46.0137 32.5215 0.0000 0.0000 0.0000
# 3 49.2574 32.5215 97.8355 0.0000 0.0000 0.0000
# 4 0.0000 0.0000 0.0000 17.8542 0.0000 0.0000
# 5 0.0000 0.0000 0.0000 0.0000 39.0885 0.0000
# 6 0.0000 0.0000 0.0000 0.0000 0.0000 23.6674
#
#
#
# Elastic Compliance Matrix: (Units=1/GPa)
#
#
# Indices 1 2 3 4 5 6 
#
# 1 0.011314 0.004092 -0.007057 0.000000 0.000000 0.000000
# 2 0.004092 0.029887 -0.011995 0.000000 0.000000 0.000000
# 3 -0.007057 -0.011995 0.017761 0.000000 0.000000 0.000000
# 4 0.000000 0.000000 0.000000 0.056009 0.000000 0.000000
# 5 0.000000 0.000000 0.000000 0.000000 0.025583 0.000000
# 6 0.000000 0.000000 0.000000 0.000000 0.000000 0.042252
#
#
# Mechanical properties :
#
#
# Convention : Reuss Voigt Hill
#
# Bulk Modulus (GPa) = 34.43099 48.05294 41.24196
# Shear Modulus (GPa) = 22.48131 27.86990 25.17560
#
# Velocity S-wave (km/s) = 3.14083 3.49705 3.32372
# Velocity P-wave (km/s) = 5.31615 6.11486 5.72944
#
# Compressibility (1/GPa) = 0.02904361
#
# Stress axis : x y z
#
# Youngs Moduli (GPa) = 88.38302 33.45966 56.30169
#
# Poissons Ratio (x) = -0.13693 0.39731
# Poissons Ratio (y) = -0.36170 0.67534
# Poissons Ratio (z) = 0.62371 0.40135
#
# Static dielectric constant tensor:
#      x y z
#    x 1.830370 0.000000 0.000000 
#    y 0.000000 1.952810 0.000000 
#    z 0.000000 0.000000 1.873750 
# 
# From -- ./inp_files/21005.got.cif
#   From: 2010.05.17/outbox.cif.g08.bks.cpg/sg55_11_cif.got.tgz:21005.got - 2010.06.03 13:27:54.
