data_PCOD9428967
_publ_section_title
;
Structure prediction by ZEFSAII (Michael W. Deem and Ramdas Pophale) SiO2 
 PCOD9428967
Probable space group: P B A M
;
_chemical_formula_sum "Si O2"
_cell_formula_units_Z 40
_cell_length_a 8.083198
_cell_length_b 17.996421
_cell_length_c 11.757293
_cell_angle_alpha 90.000000
_cell_angle_beta 90.000000
_cell_angle_gamma 90.000000
_cell_volume 1710.317355
_symmetry_space_group_name_H-M "P B A M"
_symmetry_group_IT_number 55
_symmetry_cell_setting 'orthorhombic'
loop_
_space_group_symop_operation_xyz
x,y,z
-x,-y,z
1/2+x,1/2-y,-z
1/2-x,1/2+y,-z
-x,-y,-z
x,y,-z
1/2-x,1/2+y,z
1/2+x,1/2-y,z
loop_
_atom_site_type_symbol
_atom_site_label
_atom_site_fract_x
_atom_site_fract_y
_atom_site_fract_z
Si Si1 0.761360 0.545793 0.000000
Si Si2 0.777064 0.593872 0.755850
Si Si3 0.111298 0.111500 0.000000
Si Si4 0.403381 0.082655 0.629472
Si Si5 0.909539 0.877560 0.748849
Si Si6 0.398955 0.775231 0.370852
O O1 0.837324 0.574585 0.117512
O O2 0.739230 0.457276 0.000000
O O3 0.574310 0.577939 0.000000
O O4 0.582805 0.578383 0.746371
O O5 0.791414 0.681155 0.723342
O O6 0.910461 0.559319 0.668488
O O7 0.123081 0.150424 0.877959
O O8 0.366570 0.062723 0.500000
O O9 0.247621 0.073752 0.711641
O O10 0.435846 0.173372 0.631383
O O11 0.925900 0.808828 0.663574
O O12 0.333613 0.782814 0.500000
#
# Coordination Sequence:
#
# PCOD9428967 Si02
#       6
#     4   8   4   8   8   8
#     4   9  18  42  61  77 111 144 190 241 269 320
#     4   9  20  34  57  82 107 151 185 220 279 328
#     4   9  22  36  59  85 105 146 194 229 277 328
#     4   9  20  33  51  84 112 138 183 226 266 333
#     4  11  19  34  54  81 114 146 180 227 276 331
#     4   9  19  34  53  82 116 146 179 221 273 336
#
# _framework density 23.387471000000001
#
# number of rings (size 3 to 8) (size 9 to 14) (size 15 to 20)
#    1.200    1.400    0.000    1.800    0.000    6.400 
#    0.000    4.000    0.000    6.000    0.000   22.400 
#    0.000    0.000    0.000    0.000    0.000    0.000 
#
# Total GULP energy -223056.179628 kJ/mol
# GULP energy per Si atom -5576.404491 kJ/mol
# Density = 2.333424 g / cm^3
# Si number density = 23.387471 Si / 1000 Ang^3
#
#
#
# Elastic Constant Matrix: (Units=GPa)
#
#
# Indices 1 2 3 4 5 6 
#
# 1 122.6880 3.1265 43.2964 0.0000 0.0000 0.0000
# 2 3.1265 42.6957 4.8378 0.0000 0.0000 0.0000
# 3 43.2964 4.8378 153.3764 0.0000 0.0000 0.0000
# 4 0.0000 0.0000 0.0000 35.5286 0.0000 0.0000
# 5 0.0000 0.0000 0.0000 0.0000 33.9739 0.0000
# 6 0.0000 0.0000 0.0000 0.0000 0.0000 25.0937
#
#
#
# Elastic Compliance Matrix: (Units=1/GPa)
#
#
# Indices 1 2 3 4 5 6 
#
# 1 0.009059 -0.000375 -0.002545 0.000000 0.000000 0.000000
# 2 -0.000375 0.023521 -0.000636 0.000000 0.000000 0.000000
# 3 -0.002545 -0.000636 0.007258 0.000000 0.000000 0.000000
# 4 0.000000 0.000000 0.000000 0.028146 0.000000 0.000000
# 5 0.000000 0.000000 0.000000 0.000000 0.029434 0.000000
# 6 0.000000 0.000000 0.000000 0.000000 0.000000 0.039851
#
#
# Mechanical properties :
#
#
# Convention : Reuss Voigt Hill
#
# Bulk Modulus (GPa) = 30.55719 46.80904 38.68311
# Shear Modulus (GPa) = 32.19773 36.75254 34.47513
#
# Velocity S-wave (km/s) = 3.71443 3.96847 3.84355
# Velocity P-wave (km/s) = 5.61159 6.40752 6.02272
#
# Compressibility (1/GPa) = 0.03272552
#
# Stress axis : x y z
#
# Youngs Moduli (GPa) = 110.39308 42.51508 137.76992
#
# Poissons Ratio (x) = 0.01594 0.35066
# Poissons Ratio (y) = 0.04139 0.08763
# Poissons Ratio (z) = 0.28098 0.02704
#
# Static dielectric constant tensor:
#      x y z
#    x 1.929350 0.000000 0.000000 
#    y 0.000000 2.033080 0.000000 
#    z 0.000000 0.000000 1.817740 
# 
# From -- ./inp_files/12086.got.cif
#   From: 2010.05.17/outbox.cif.g08.bks.cpg/sg55_7_cif.got.tgz:12086.got - 2010.06.03 13:27:54.
