data_PCOD9428551
_publ_section_title
;
Structure prediction by ZEFSAII (Michael W. Deem and Ramdas Pophale) SiO2 
 PCOD9428551
Probable space group: P B A M
;
_chemical_formula_sum "Si O2"
_cell_formula_units_Z 30
_cell_length_a 10.281344
_cell_length_b 9.423075
_cell_length_c 12.061723
_cell_angle_alpha 90.000000
_cell_angle_beta 90.000000
_cell_angle_gamma 90.000000
_cell_volume 1168.562347
_symmetry_space_group_name_H-M "P B A M"
_symmetry_group_IT_number 55
_symmetry_cell_setting 'orthorhombic'
loop_
_space_group_symop_operation_xyz
x,y,z
-x,-y,z
1/2+x,1/2-y,-z
1/2-x,1/2+y,-z
-x,-y,-z
x,y,-z
1/2-x,1/2+y,z
1/2+x,1/2-y,z
loop_
_atom_site_type_symbol
_atom_site_label
_atom_site_fract_x
_atom_site_fract_y
_atom_site_fract_z
Si Si1 0.681073 0.782849 0.121460
Si Si2 0.860356 0.909714 0.500000
Si Si3 0.098505 0.716011 0.500000
Si Si4 0.785288 0.021746 0.260413
Si Si5 0.000000 0.500000 0.000000
Si Si6 0.000000 0.500000 0.316445
O O1 0.645112 0.650945 0.198175
O O2 0.785516 0.881750 0.183477
O O3 0.730018 0.729679 0.000000
O O4 0.563430 0.890368 0.093144
O O5 0.996307 0.152022 0.500000
O O6 0.831045 0.987114 0.383634
O O7 0.754709 0.778335 0.500000
O O8 0.058654 0.624236 0.606560
O O9 0.633026 0.063395 0.266948
#
# Coordination Sequence:
#
# PCOD9428551 Si02
#       6
#     8   4   4   8   2   4
#     4  10  22  41  68 105 143 203 259 339 400 486
#     4  10  22  38  73 115 159 217 270 356 410 515
#     4   9  18  38  61 105 153 205 272 319 408 480
#     4  11  21  39  71 107 152 199 274 333 417 490
#     4   8  22  40  70  94 140 198 268 322 414 470
#     4   9  19  34  66 100 142 205 257 330 396 484
#
# _framework density 25.672571000000001
#
# number of rings (size 3 to 8) (size 9 to 14) (size 15 to 20)
#    0.800    1.333    0.000    4.000    0.000    1.067 
#    0.000    0.000    0.000   80.800    0.000    0.000 
#    0.000    0.000    0.000    0.000    0.000    0.000 
#
# Total GULP energy -167215.719835 kJ/mol
# GULP energy per Si atom -5573.857328 kJ/mol
# Density = 2.561414 g / cm^3
# Si number density = 25.672571 Si / 1000 Ang^3
#
#
#
# Elastic Constant Matrix: (Units=GPa)
#
#
# Indices 1 2 3 4 5 6 
#
# 1 104.6659 20.0189 54.5000 0.0000 0.0000 0.0000
# 2 20.0189 152.6049 96.6257 0.0000 0.0000 0.0000
# 3 54.5000 96.6257 176.6279 0.0000 0.0000 0.0000
# 4 0.0000 0.0000 0.0000 46.2333 0.0000 0.0000
# 5 0.0000 0.0000 0.0000 0.0000 38.9854 0.0000
# 6 0.0000 0.0000 0.0000 0.0000 0.0000 45.6551
#
#
#
# Elastic Compliance Matrix: (Units=1/GPa)
#
#
# Indices 1 2 3 4 5 6 
#
# 1 0.011509 0.001130 -0.004170 0.000000 0.000000 0.000000
# 2 0.001130 0.010137 -0.005894 0.000000 0.000000 0.000000
# 3 -0.004170 -0.005894 0.010173 0.000000 0.000000 0.000000
# 4 0.000000 0.000000 0.000000 0.021629 0.000000 0.000000
# 5 0.000000 0.000000 0.000000 0.000000 0.025651 0.000000
# 6 0.000000 0.000000 0.000000 0.000000 0.000000 0.021903
#
#
# Mechanical properties :
#
#
# Convention : Reuss Voigt Hill
#
# Bulk Modulus (GPa) = 71.67639 86.24312 78.95975
# Shear Modulus (GPa) = 40.47963 43.69169 42.08566
#
# Velocity S-wave (km/s) = 3.97516 4.12986 4.05325
# Velocity P-wave (km/s) = 7.00352 7.51049 7.26143
#
# Compressibility (1/GPa) = 0.01395160
#
# Stress axis : x y z
#
# Youngs Moduli (GPa) = 86.88743 98.65281 98.30362
#
# Poissons Ratio (x) = -0.11151 0.40988
# Poissons Ratio (y) = -0.09821 0.57941
# Poissons Ratio (z) = 0.36228 0.58146
#
# Static dielectric constant tensor:
#      x y z
#    x 1.996320 0.000000 0.000000 
#    y 0.000000 2.130630 0.000000 
#    z 0.000000 0.000000 2.205700 
# 
# From -- ./inp_files/18027.got.cif
#   From: 2010.05.17/outbox.cif.g08.bks.cpg/sg55_10_cif.got.tgz:18027.got - 2010.06.03 13:27:54.
