data_PCOD9428775
_publ_section_title
;
Structure prediction by ZEFSAII (Michael W. Deem and Ramdas Pophale) SiO2 
 PCOD9428775
Probable space group: P B A M
;
_chemical_formula_sum "Si O2"
_cell_formula_units_Z 54
_cell_length_a 13.455683
_cell_length_b 12.452908
_cell_length_c 14.706692
_cell_angle_alpha 90.000000
_cell_angle_beta 90.000000
_cell_angle_gamma 90.000000
_cell_volume 2464.288350
_symmetry_space_group_name_H-M "P B A M"
_symmetry_group_IT_number 55
_symmetry_cell_setting 'orthorhombic'
loop_
_space_group_symop_operation_xyz
x,y,z
-x,-y,z
1/2+x,1/2-y,-z
1/2-x,1/2+y,-z
-x,-y,-z
x,y,-z
1/2-x,1/2+y,z
1/2+x,1/2-y,z
loop_
_atom_site_type_symbol
_atom_site_label
_atom_site_fract_x
_atom_site_fract_y
_atom_site_fract_z
Si Si1 0.612524 0.457669 0.101366
Si Si2 0.500000 0.000000 0.000000
Si Si3 0.887665 0.458774 0.665681
Si Si4 0.891438 0.347543 0.848862
Si Si5 0.657414 0.803289 0.500000
Si Si6 0.670566 0.182408 0.401574
Si Si7 0.088551 0.242628 0.222651
Si Si8 0.743978 0.159904 0.100480
O O1 0.500000 0.500000 0.101892
O O2 0.618910 0.369307 0.178375
O O3 0.686748 0.556717 0.112335
O O4 0.630131 0.410271 0.000000
O O5 0.439368 0.070197 0.079643
O O6 0.850313 0.407963 0.759798
O O7 0.889279 0.377291 0.581631
O O8 0.823990 0.561167 0.633536
O O9 0.000000 0.500000 0.683423
O O10 0.812100 0.266204 0.892621
O O11 0.978624 0.272180 0.808125
O O12 0.722889 0.734486 0.577914
O O13 0.618240 0.183018 0.500000
O O14 0.608876 0.250465 0.328941
O O15 0.160042 0.330037 0.175447
O O16 0.696193 0.151435 0.000000
#
# Coordination Sequence:
#
# PCOD9428775 Si02
#       8
#     8   2   8   8   4   8   8   8
#     4  10  22  43  70  94 138 195 232 280 352 423
#     4  12  24  40  64 104 156 182 232 300 364 396
#     4  12  22  44  74 104 133 189 237 286 376 437
#     4  12  25  43  70 104 147 192 237 306 352 439
#     4  10  23  40  71  98 134 170 228 303 342 433
#     4  10  24  45  64 100 134 173 225 299 353 424
#     4  12  24  44  71 102 138 181 245 293 360 427
#     4  11  25  43  68 103 144 192 245 294 359 430
#
# _framework density 21.913018000000001
#
# number of rings (size 3 to 8) (size 9 to 14) (size 15 to 20)
#    0.444    0.444    5.185    1.556    2.074    3.556 
#    2.667    0.000    0.000    0.444    0.000    0.000 
#    0.000    0.000    0.000    0.000    0.000    0.000 
#
# Total GULP energy -300629.498933 kJ/mol
# GULP energy per Si atom -5567.212943 kJ/mol
# Density = 2.186314 g / cm^3
# Si number density = 21.913018 Si / 1000 Ang^3
#
#
#
# Elastic Constant Matrix: (Units=GPa)
#
#
# Indices 1 2 3 4 5 6 
#
# 1 39.0853 8.3443 1.2192 0.0000 0.0000 0.0000
# 2 8.3443 78.3124 53.2045 0.0000 0.0000 0.0000
# 3 1.2192 53.2045 180.6512 0.0000 0.0000 0.0000
# 4 0.0000 0.0000 0.0000 34.1815 0.0000 0.0000
# 5 0.0000 0.0000 0.0000 0.0000 29.8205 0.0000
# 6 0.0000 0.0000 0.0000 0.0000 0.0000 34.5047
#
#
#
# Elastic Compliance Matrix: (Units=1/GPa)
#
#
# Indices 1 2 3 4 5 6 
#
# 1 0.026275 -0.003349 0.000809 0.000000 0.000000 0.000000
# 2 -0.003349 0.016390 -0.004805 0.000000 0.000000 0.000000
# 3 0.000809 -0.004805 0.006945 0.000000 0.000000 0.000000
# 4 0.000000 0.000000 0.000000 0.029256 0.000000 0.000000
# 5 0.000000 0.000000 0.000000 0.000000 0.033534 0.000000
# 6 0.000000 0.000000 0.000000 0.000000 0.000000 0.028982
#
#
# Mechanical properties :
#
#
# Convention : Reuss Voigt Hill
#
# Bulk Modulus (GPa) = 28.63632 47.06501 37.85066
# Shear Modulus (GPa) = 29.81310 35.38673 32.59992
#
# Velocity S-wave (km/s) = 3.69252 4.02291 3.86125
# Velocity P-wave (km/s) = 5.59251 6.56530 6.09833
#
# Compressibility (1/GPa) = 0.03492069
#
# Stress axis : x y z
#
# Youngs Moduli (GPa) = 38.05921 61.01110 143.98621
#
# Poissons Ratio (x) = 0.20435 -0.11650
# Poissons Ratio (y) = 0.12747 0.69180
# Poissons Ratio (z) = -0.03079 0.29314
#
# Static dielectric constant tensor:
#      x y z
#    x 1.825250 0.000000 0.000000 
#    y 0.000000 1.832160 0.000000 
#    z 0.000000 0.000000 1.788910 
# 
# From -- ./inp_files/19001.got.cif
#   From: 2010.05.17/outbox.cif.g08.bks.cpg/sg55_10_cif.got.tgz:19001.got - 2010.06.03 13:27:54.
