data_PCOD9428254
_publ_section_title
;
Structure prediction by ZEFSAII (Michael W. Deem and Ramdas Pophale) SiO2 
 PCOD9428254
Probable space group: P B A M
;
_chemical_formula_sum "Si O2"
_cell_formula_units_Z 58
_cell_length_a 14.599829
_cell_length_b 23.727541
_cell_length_c 7.557652
_cell_angle_alpha 90.000000
_cell_angle_beta 90.000000
_cell_angle_gamma 90.000000
_cell_volume 2618.107002
_symmetry_space_group_name_H-M "P B A M"
_symmetry_group_IT_number 55
_symmetry_cell_setting 'orthorhombic'
loop_
_space_group_symop_operation_xyz
x,y,z
-x,-y,z
1/2+x,1/2-y,-z
1/2-x,1/2+y,-z
-x,-y,-z
x,y,-z
1/2-x,1/2+y,z
1/2+x,1/2-y,z
loop_
_atom_site_type_symbol
_atom_site_label
_atom_site_fract_x
_atom_site_fract_y
_atom_site_fract_z
Si Si1 0.952119 0.090642 0.297021
Si Si2 0.500000 0.000000 0.000000
Si Si3 0.280504 0.481359 0.714501
Si Si4 0.549730 0.910637 0.699749
Si Si5 0.843056 0.898027 0.283615
Si Si6 0.351581 0.882776 0.205876
Si Si7 0.695377 0.814413 0.287468
Si Si8 0.321144 0.314373 0.794607
O O1 0.965031 0.072175 0.500000
O O2 0.875598 0.048060 0.223587
O O3 0.903717 0.151656 0.293792
O O4 0.053215 0.094345 0.218596
O O5 0.544262 0.959240 0.155899
O O6 0.277203 0.477118 0.500000
O O7 0.284792 0.546527 0.763822
O O8 0.197828 0.443717 0.785277
O O9 0.575139 0.930206 0.500000
O O10 0.446994 0.885353 0.695983
O O11 0.617905 0.860426 0.752476
O O12 0.845657 0.896346 0.500000
O O13 0.790921 0.841903 0.225273
O O14 0.275430 0.839143 0.274700
O O15 0.371864 0.870796 0.000000
O O16 0.698841 0.809387 0.500000
O O17 0.675560 0.752329 0.218918
O O18 0.324544 0.331219 0.000000
#
# Coordination Sequence:
#
# PCOD9428254 Si02
#       8
#     8   2   8   8   8   8   8   8
#     4   9  17  33  58  86 113 150 192 236 294 356
#     4  12  26  44  68  90 132 166 214 264 318 382
#     4   9  17  31  56  87 119 151 190 238 293 361
#     4  11  25  43  66  95 127 168 215 261 318 381
#     4   9  18  33  55  84 116 146 185 238 294 355
#     4  10  21  39  60  89 119 163 210 257 310 365
#     4  10  23  40  58  86 119 157 206 256 308 368
#     4  10  22  39  61  82 118 157 202 256 311 368
#
# _framework density 22.153410000000001
#
# number of rings (size 3 to 8) (size 9 to 14) (size 15 to 20)
#    0.000    2.207    0.690    1.448    2.897    4.414 
#    0.000    6.207    0.000    3.310    0.000    0.000 
#    0.000    0.000    0.000    0.000    0.000    0.000 
#
# Total GULP energy -323619.261917 kJ/mol
# GULP energy per Si atom -5579.642447 kJ/mol
# Density = 2.210299 g / cm^3
# Si number density = 22.153410 Si / 1000 Ang^3
#
#
#
# Elastic Constant Matrix: (Units=GPa)
#
#
# Indices 1 2 3 4 5 6 
#
# 1 89.4782 13.2010 -0.5170 0.0000 0.0000 0.0000
# 2 13.2010 112.6293 12.9244 0.0000 0.0000 0.0000
# 3 -0.5170 12.9244 76.7405 0.0000 0.0000 0.0000
# 4 0.0000 0.0000 0.0000 30.9845 0.0000 0.0000
# 5 0.0000 0.0000 0.0000 0.0000 -1.0402 0.0000
# 6 0.0000 0.0000 0.0000 0.0000 0.0000 21.9330
#
#
#
# Elastic Compliance Matrix: (Units=1/GPa)
#
#
# Indices 1 2 3 4 5 6 
#
# 1 0.011380 -0.001369 0.000307 0.000000 0.000000 0.000000
# 2 -0.001369 0.009218 -0.001562 0.000000 0.000000 0.000000
# 3 0.000307 -0.001562 0.013296 0.000000 0.000000 0.000000
# 4 0.000000 0.000000 0.000000 0.032274 0.000000 0.000000
# 5 0.000000 0.000000 0.000000 0.000000 -0.961314 0.000000
# 6 0.000000 0.000000 0.000000 0.000000 0.000000 0.045593
#
#
# Mechanical properties :
#
#
# Convention : Reuss Voigt Hill
#
# Bulk Modulus (GPa) = 34.90775 36.67387 35.79081
# Shear Modulus (GPa) = -5.98977 27.25809 10.63416
#
# Velocity S-wave (km/s) = -1.64610 3.51155 2.19332
# Velocity P-wave (km/s) = 3.48979 5.74732 4.75449
#
# Compressibility (1/GPa) = 0.02864693
#
# Stress axis : x y z
#
# Youngs Moduli (GPa) = 87.87610 108.47923 75.21048
#
# Poissons Ratio (x) = 0.14851 -0.02311
# Poissons Ratio (y) = 0.12031 0.11746
# Poissons Ratio (z) = -0.02700 0.16942
#
# Static dielectric constant tensor:
#      x y z
#    x 1.829590 0.000000 0.000000 
#    y 0.000000 1.774350 0.000000 
#    z 0.000000 0.000000 1.846450 
# 
# From -- ./inp_files/6454.got.cif
#   From: 2010.05.17/outbox.cif.g08.bks.cpg/sg55_4_cif.got.tgz:6454.got - 2010.06.03 13:27:54.
