data_PCOD9428947
_publ_section_title
;
Structure prediction by ZEFSAII (Michael W. Deem and Ramdas Pophale) SiO2 
 PCOD9428947
Probable space group: P B A M
;
_chemical_formula_sum "Si O2"
_cell_formula_units_Z 60
_cell_length_a 9.485332
_cell_length_b 15.253352
_cell_length_c 19.253880
_cell_angle_alpha 90.000000
_cell_angle_beta 90.000000
_cell_angle_gamma 90.000000
_cell_volume 2785.711196
_symmetry_space_group_name_H-M "P B A M"
_symmetry_group_IT_number 55
_symmetry_cell_setting 'orthorhombic'
loop_
_space_group_symop_operation_xyz
x,y,z
-x,-y,z
1/2+x,1/2-y,-z
1/2-x,1/2+y,-z
-x,-y,-z
x,y,-z
1/2-x,1/2+y,z
1/2+x,1/2-y,z
loop_
_atom_site_type_symbol
_atom_site_label
_atom_site_fract_x
_atom_site_fract_y
_atom_site_fract_z
Si Si1 0.170993 0.844949 0.119210
Si Si2 0.876540 0.119834 0.721047
Si Si3 0.402286 0.086662 0.827895
Si Si4 0.703057 0.419543 0.700476
Si Si5 0.556120 0.215537 0.500000
Si Si6 0.059893 0.272277 0.920174
Si Si7 0.297134 0.234161 0.392524
Si Si8 0.153497 0.026695 0.078463
O O1 0.176943 0.862128 0.200979
O O2 0.275128 0.769172 0.094657
O O3 0.222327 0.929462 0.078008
O O4 0.015790 0.818961 0.094995
O O5 0.833968 0.199468 0.670687
O O6 0.046799 0.110749 0.724753
O O7 0.814010 0.025634 0.695201
O O8 0.331825 0.100776 0.752872
O O9 0.495020 0.162526 0.862623
O O10 0.500000 0.000000 0.826397
O O11 0.263315 0.076287 0.874856
O O12 0.737917 0.359910 0.633953
O O13 0.433556 0.217893 0.439258
O O14 0.678933 0.220930 0.560364
O O15 0.032459 0.297838 0.000000
O O16 0.139204 0.058719 0.000000
O O17 0.000000 0.000000 0.109182
#
# Coordination Sequence:
#
# PCOD9428947 Si02
#       8
#     8   8   8   8   4   8   8   8
#     4  12  26  44  65  94 135 172 232 302 348 427
#     4  11  24  45  74 107 140 189 239 290 359 419
#     4  12  24  43  66  95 132 176 232 300 353 418
#     4  11  24  45  73 109 144 185 239 291 350 421
#     4  10  24  46  74 110 154 188 229 273 350 420
#     4  12  27  43  62  91 129 181 236 294 367 431
#     4  11  23  47  76 109 147 193 228 286 341 421
#     4  11  23  41  65  90 127 179 227 286 358 418
#
# _framework density 21.538484
#
# number of rings (size 3 to 8) (size 9 to 14) (size 15 to 20)
#    0.000    0.667    4.000    3.200    5.600    2.667 
#    0.000    4.000    0.000    0.000    0.000    0.000 
#    0.000    0.000    0.000    0.000    0.000    0.000 
#
# Total GULP energy -334277.743899 kJ/mol
# GULP energy per Si atom -5571.295732 kJ/mol
# Density = 2.148946 g / cm^3
# Si number density = 21.538484 Si / 1000 Ang^3
#
#
#
# Elastic Constant Matrix: (Units=GPa)
#
#
# Indices 1 2 3 4 5 6 
#
# 1 97.0679 -5.8286 15.3313 0.0000 0.0000 0.0000
# 2 -5.8286 66.2629 19.1120 0.0000 0.0000 0.0000
# 3 15.3313 19.1120 105.9308 0.0000 0.0000 0.0000
# 4 0.0000 0.0000 0.0000 -5.9538 0.0000 0.0000
# 5 0.0000 0.0000 0.0000 0.0000 42.6800 0.0000
# 6 0.0000 0.0000 0.0000 0.0000 0.0000 26.0920
#
#
#
# Elastic Compliance Matrix: (Units=1/GPa)
#
#
# Indices 1 2 3 4 5 6 
#
# 1 0.010675 0.001461 -0.001809 0.000000 0.000000 0.000000
# 2 0.001461 0.016120 -0.003120 0.000000 0.000000 0.000000
# 3 -0.001809 -0.003120 0.010265 0.000000 0.000000 0.000000
# 4 0.000000 0.000000 0.000000 -0.167959 0.000000 0.000000
# 5 0.000000 0.000000 0.000000 0.000000 0.023430 0.000000
# 6 0.000000 0.000000 0.000000 0.000000 0.000000 0.038326
#
#
# Mechanical properties :
#
#
# Convention : Reuss Voigt Hill
#
# Bulk Modulus (GPa) = 33.19544 36.27678 34.73611
# Shear Modulus (GPa) = -95.84733 28.60676 -33.62028
#
# Velocity S-wave (km/s) = -6.67811 3.64836 -3.95516
# Velocity P-wave (km/s) = 6.63455 5.88445 2.16685
#
# Compressibility (1/GPa) = 0.03012462
#
# Stress axis : x y z
#
# Youngs Moduli (GPa) = 93.67307 62.03596 97.42096
#
# Poissons Ratio (x) = -0.09061 0.17619
# Poissons Ratio (y) = -0.13683 0.30392
# Poissons Ratio (z) = 0.16942 0.19353
#
# Static dielectric constant tensor:
#      x y z
#    x 1.780380 0.000000 0.000000 
#    y 0.000000 1.881450 0.000000 
#    z 0.000000 0.000000 1.737690 
# 
# From -- ./inp_files/21001.got.cif
#   From: 2010.05.17/outbox.cif.g08.bks.cpg/sg55_11_cif.got.tgz:21001.got - 2010.06.03 13:27:54.
