data_PCOD9428401
_publ_section_title
;
Structure prediction by ZEFSAII (Michael W. Deem and Ramdas Pophale) SiO2 
 PCOD9428401
Probable space group: P B A M
;
_chemical_formula_sum "Si O2"
_cell_formula_units_Z 48
_cell_length_a 19.417269
_cell_length_b 9.046014
_cell_length_c 13.541255
_cell_angle_alpha 90.000000
_cell_angle_beta 90.000000
_cell_angle_gamma 90.000000
_cell_volume 2378.506372
_symmetry_space_group_name_H-M "P B A M"
_symmetry_group_IT_number 55
_symmetry_cell_setting 'orthorhombic'
loop_
_space_group_symop_operation_xyz
x,y,z
-x,-y,z
1/2+x,1/2-y,-z
1/2-x,1/2+y,-z
-x,-y,-z
x,y,-z
1/2-x,1/2+y,z
1/2+x,1/2-y,z
loop_
_atom_site_type_symbol
_atom_site_label
_atom_site_fract_x
_atom_site_fract_y
_atom_site_fract_z
Si Si1 0.323316 0.576164 0.192084
Si Si2 0.152518 0.555068 0.614340
Si Si3 0.943990 0.379931 0.206194
Si Si4 0.532389 0.339517 0.891437
Si Si5 0.791050 0.774139 0.385271
Si Si6 0.188684 0.745761 0.884504
O O1 0.387999 0.643445 0.134289
O O2 0.329182 0.622166 0.306598
O O3 0.318900 0.401397 0.172510
O O4 0.254529 0.655170 0.152328
O O5 0.130771 0.552688 0.500000
O O6 0.090175 0.580851 0.689187
O O7 0.210481 0.682450 0.626009
O O8 0.189839 0.396930 0.635280
O O9 0.878795 0.352738 0.135756
O O10 0.000000 0.500000 0.175238
O O11 0.990030 0.234552 0.196679
O O12 0.500000 0.500000 0.900154
O O13 0.523401 0.266396 0.000000
O O14 0.808311 0.804334 0.500000
O O15 0.194628 0.779871 0.000000
#
# Coordination Sequence:
#
# PCOD9428401 Si02
#       6
#     8   8   8   8   8   8
#     4  12  24  44  69  99 135 173 228 284 342 405
#     4  10  22  42  68 103 141 178 224 283 347 406
#     4  12  26  43  65  97 136 184 227 277 339 408
#     4  11  24  44  66  89 131 185 228 276 339 402
#     4  10  21  40  70 104 136 175 224 283 343 405
#     4  12  26  43  67  99 135 175 227 286 339 404
#
# _framework density 20.180731000000002
#
# number of rings (size 3 to 8) (size 9 to 14) (size 15 to 20)
#    0.000    0.833    3.333    4.000    2.333    1.667 
#    0.000    0.833    0.000    1.000    0.000    0.000 
#    0.000    0.000    0.000    0.000    0.000    0.000 
#
# Total GULP energy -268141.731364 kJ/mol
# GULP energy per Si atom -5586.286070 kJ/mol
# Density = 2.013480 g / cm^3
# Si number density = 20.180731 Si / 1000 Ang^3
#
#
#
# Elastic Constant Matrix: (Units=GPa)
#
#
# Indices 1 2 3 4 5 6 
#
# 1 136.8483 54.9379 45.3021 0.0000 0.0000 0.0000
# 2 54.9379 98.3832 68.9992 0.0000 0.0000 0.0000
# 3 45.3021 68.9992 111.8570 0.0000 0.0000 0.0000
# 4 0.0000 0.0000 0.0000 30.5751 0.0000 0.0000
# 5 0.0000 0.0000 0.0000 0.0000 55.4541 0.0000
# 6 0.0000 0.0000 0.0000 0.0000 0.0000 38.5598
#
#
#
# Elastic Compliance Matrix: (Units=1/GPa)
#
#
# Indices 1 2 3 4 5 6 
#
# 1 0.009483 -0.004586 -0.001012 0.000000 0.000000 0.000000
# 2 -0.004586 0.020132 -0.010561 0.000000 0.000000 0.000000
# 3 -0.001012 -0.010561 0.015865 0.000000 0.000000 0.000000
# 4 0.000000 0.000000 0.000000 0.032706 0.000000 0.000000
# 5 0.000000 0.000000 0.000000 0.000000 0.018033 0.000000
# 6 0.000000 0.000000 0.000000 0.000000 0.000000 0.025934
#
#
# Mechanical properties :
#
#
# Convention : Reuss Voigt Hill
#
# Bulk Modulus (GPa) = 75.97712 76.17410 76.07561
# Shear Modulus (GPa) = 31.47463 36.77444 34.12453
#
# Velocity S-wave (km/s) = 3.95351 4.27342 4.11657
# Velocity P-wave (km/s) = 7.65313 7.88526 7.77006
#
# Compressibility (1/GPa) = 0.01316186
#
# Stress axis : x y z
#
# Youngs Moduli (GPa) = 105.44789 49.67220 63.03373
#
# Poissons Ratio (x) = 0.22779 0.06379
# Poissons Ratio (y) = 0.48357 0.66571
# Poissons Ratio (z) = 0.10671 0.52460
#
# Static dielectric constant tensor:
#      x y z
#    x 1.704910 0.000000 0.000000 
#    y 0.000000 1.748220 0.000000 
#    z 0.000000 0.000000 1.729980 
# 
# From -- ./inp_files/19333.got.cif
#   From: 2010.05.17/outbox.cif.g08.bks.cpg/sg55_10_cif.got.tgz:19333.got - 2010.06.03 13:27:54.
