data_PCOD9428663
_publ_section_title
;
Structure prediction by ZEFSAII (Michael W. Deem and Ramdas Pophale) SiO2 
 PCOD9428663
Probable space group: P B A M
;
_chemical_formula_sum "Si O2"
_cell_formula_units_Z 38
_cell_length_a 9.702776
_cell_length_b 9.801588
_cell_length_c 17.521119
_cell_angle_alpha 90.000000
_cell_angle_beta 90.000000
_cell_angle_gamma 90.000000
_cell_volume 1666.304196
_symmetry_space_group_name_H-M "P B A M"
_symmetry_group_IT_number 55
_symmetry_cell_setting 'orthorhombic'
loop_
_space_group_symop_operation_xyz
x,y,z
-x,-y,z
1/2+x,1/2-y,-z
1/2-x,1/2+y,-z
-x,-y,-z
x,y,-z
1/2-x,1/2+y,z
1/2+x,1/2-y,z
loop_
_atom_site_type_symbol
_atom_site_label
_atom_site_fract_x
_atom_site_fract_y
_atom_site_fract_z
Si Si1 0.392861 0.230731 0.916601
Si Si2 0.500000 0.500000 0.000000
Si Si3 0.629278 0.255066 0.184484
Si Si4 0.220735 0.820843 0.665862
Si Si5 0.500462 0.161577 0.416095
Si Si6 0.000000 0.000000 0.282690
O O1 0.438768 0.389088 0.934977
O O2 0.242569 0.213500 0.880496
O O3 0.506480 0.177105 0.858008
O O4 0.895307 0.337112 0.000000
O O5 0.714265 0.179120 0.250085
O O6 0.557524 0.379991 0.229107
O O7 0.107846 0.706393 0.647754
O O8 0.345434 0.801353 0.608286
O O9 0.126570 0.955008 0.663858
O O10 0.464899 0.218251 0.500000
O O11 0.500000 0.000000 0.419804
#
# Coordination Sequence:
#
# PCOD9428663 Si02
#       6
#     8   2   8   8   8   4
#     4  10  22  40  64  97 131 181 225 285 340 410
#     4   8  22  40  68  88 136 170 234 276 344 394
#     4  12  22  42  69  99 136 179 229 287 346 409
#     4  12  24  45  71 105 135 183 233 288 350 423
#     4  11  25  46  69 102 142 181 229 288 348 422
#     4  12  25  42  74 100 139 180 238 288 353 414
#
# _framework density 22.804959
#
# number of rings (size 3 to 8) (size 9 to 14) (size 15 to 20)
#    0.632    0.211    4.211    3.158    0.000    0.000 
#    0.000    1.053    0.000    2.526    0.000    0.000 
#    0.000    0.000    0.000    0.000    0.000    0.000 
#
# Total GULP energy -211653.364534 kJ/mol
# GULP energy per Si atom -5569.825382 kJ/mol
# Density = 2.275305 g / cm^3
# Si number density = 22.804959 Si / 1000 Ang^3
#
#
#
# Elastic Constant Matrix: (Units=GPa)
#
#
# Indices 1 2 3 4 5 6 
#
# 1 133.5366 14.7771 -1.4495 0.0000 0.0000 0.0000
# 2 14.7771 32.0294 3.3601 0.0000 0.0000 0.0000
# 3 -1.4495 3.3601 42.0579 0.0000 0.0000 0.0000
# 4 0.0000 0.0000 0.0000 -9.9920 0.0000 0.0000
# 5 0.0000 0.0000 0.0000 0.0000 -26.8086 0.0000
# 6 0.0000 0.0000 0.0000 0.0000 0.0000 38.6444
#
#
#
# Elastic Compliance Matrix: (Units=1/GPa)
#
#
# Indices 1 2 3 4 5 6 
#
# 1 0.007905 -0.003707 0.000569 0.000000 0.000000 0.000000
# 2 -0.003707 0.033223 -0.002782 0.000000 0.000000 0.000000
# 3 0.000569 -0.002782 0.024019 0.000000 0.000000 0.000000
# 4 0.000000 0.000000 0.000000 -0.100080 0.000000 0.000000
# 5 0.000000 0.000000 0.000000 0.000000 -0.037301 0.000000
# 6 0.000000 0.000000 0.000000 0.000000 0.000000 0.025877
#
#
# Mechanical properties :
#
#
# Convention : Reuss Voigt Hill
#
# Bulk Modulus (GPa) = 18.75942 26.77770 22.76856
# Shear Modulus (GPa) = -298.53081 13.09785 -142.71648
#
# Velocity S-wave (km/s) = -11.45383 2.39914 -7.91942
# Velocity P-wave (km/s) = 12.91032 4.40932 8.58005
#
# Compressibility (1/GPa) = 0.05330654
#
# Stress axis : x y z
#
# Youngs Moduli (GPa) = 126.50319 30.09937 41.63439
#
# Poissons Ratio (x) = 0.11157 -0.02367
# Poissons Ratio (y) = 0.46891 0.11583
# Poissons Ratio (z) = -0.07193 0.08374
#
# Static dielectric constant tensor:
#      x y z
#    x 1.884990 0.000000 0.000000 
#    y 0.000000 1.371630 0.000000 
#    z 0.000000 0.000000 1.917960 
# 
# From -- ./inp_files/20640.got.cif
#   From: 2010.05.17/outbox.cif.g08.bks.cpg/sg55_11_cif.got.tgz:20640.got - 2010.06.03 13:27:54.
