data_PCOD9428123
_publ_section_title
;
Structure prediction by ZEFSAII (Michael W. Deem and Ramdas Pophale) SiO2 
 PCOD9428123
Probable space group: P B A M
;
_chemical_formula_sum "Si O2"
_cell_formula_units_Z 44
_cell_length_a 16.293030
_cell_length_b 15.250147
_cell_length_c 7.150406
_cell_angle_alpha 90.000000
_cell_angle_beta 90.000000
_cell_angle_gamma 90.000000
_cell_volume 1776.669263
_symmetry_space_group_name_H-M "P B A M"
_symmetry_group_IT_number 55
_symmetry_cell_setting 'orthorhombic'
loop_
_space_group_symop_operation_xyz
x,y,z
-x,-y,z
1/2+x,1/2-y,-z
1/2-x,1/2+y,-z
-x,-y,-z
x,y,-z
1/2-x,1/2+y,z
1/2+x,1/2-y,z
loop_
_atom_site_type_symbol
_atom_site_label
_atom_site_fract_x
_atom_site_fract_y
_atom_site_fract_z
Si Si1 0.063720 0.426769 0.273483
Si Si2 0.950933 0.268769 0.276067
Si Si3 0.138065 0.051175 0.725443
Si Si4 0.499884 0.381819 0.000000
Si Si5 0.728983 0.802624 0.725096
Si Si6 0.745140 0.103280 0.272970
O O1 0.064342 0.431866 0.500000
O O2 0.157448 0.435411 0.213376
O O3 0.000000 0.500000 0.208685
O O4 0.027351 0.331292 0.227887
O O5 0.951170 0.253049 0.500000
O O6 0.866155 0.319111 0.229404
O O7 0.957477 0.180337 0.162388
O O8 0.126504 0.053815 0.500000
O O9 0.056870 0.069757 0.838807
O O10 0.204094 0.126431 0.781034
O O11 0.180389 0.959481 0.779927
O O12 0.733035 0.802721 0.500000
O O13 0.748436 0.703830 0.787584
O O14 0.745309 0.103914 0.500000
#
# Coordination Sequence:
#
# PCOD9428123 Si02
#       6
#     8   8   8   4   8   8
#     4   9  16  30  57  90 121 154 194 245 307 364
#     4  10  21  38  59  86 121 159 201 249 299 354
#     4  10  21  39  61  86 118 153 195 249 301 354
#     4  12  24  38  58  84 113 154 200 240 293 356
#     4   9  18  36  62  87 117 159 199 242 298 354
#     4   9  17  32  57  86 114 151 197 241 294 357
#
# _framework density 24.765443999999999
#
# number of rings (size 3 to 8) (size 9 to 14) (size 15 to 20)
#    0.000    2.364    0.000    2.727    0.000    8.000 
#    0.000    6.818    0.000    4.364    0.000    0.000 
#    0.000    0.000    0.000    0.000    0.000    0.000 
#
# Total GULP energy -245376.350172 kJ/mol
# GULP energy per Si atom -5576.735231 kJ/mol
# Density = 2.470908 g / cm^3
# Si number density = 24.765444 Si / 1000 Ang^3
#
#
#
# Elastic Constant Matrix: (Units=GPa)
#
#
# Indices 1 2 3 4 5 6 
#
# 1 57.7790 40.4575 18.5406 0.0000 0.0000 0.0000
# 2 40.4575 114.5027 19.6812 0.0000 0.0000 0.0000
# 3 18.5406 19.6812 155.8397 0.0000 0.0000 0.0000
# 4 0.0000 0.0000 0.0000 118.3035 0.0000 0.0000
# 5 0.0000 0.0000 0.0000 0.0000 17.0556 0.0000
# 6 0.0000 0.0000 0.0000 0.0000 0.0000 58.2453
#
#
#
# Elastic Compliance Matrix: (Units=1/GPa)
#
#
# Indices 1 2 3 4 5 6 
#
# 1 0.023472 -0.007987 -0.001784 0.000000 0.000000 0.000000
# 2 -0.007987 0.011645 -0.000520 0.000000 0.000000 0.000000
# 3 -0.001784 -0.000520 0.006695 0.000000 0.000000 0.000000
# 4 0.000000 0.000000 0.000000 0.008453 0.000000 0.000000
# 5 0.000000 0.000000 0.000000 0.000000 0.058632 0.000000
# 6 0.000000 0.000000 0.000000 0.000000 0.000000 0.017169
#
#
# Mechanical properties :
#
#
# Convention : Reuss Voigt Hill
#
# Bulk Modulus (GPa) = 47.10408 53.94222 50.52315
# Shear Modulus (GPa) = 32.52576 55.35035 43.93805
#
# Velocity S-wave (km/s) = 3.62795 4.73269 4.21666
# Velocity P-wave (km/s) = 6.05068 7.18978 6.64469
#
# Compressibility (1/GPa) = 0.02122958
#
# Stress axis : x y z
#
# Youngs Moduli (GPa) = 42.60346 85.87450 149.36947
#
# Poissons Ratio (x) = 0.68587 0.26646
# Poissons Ratio (y) = 0.34027 0.07774
# Poissons Ratio (z) = 0.07600 0.04469
#
# Static dielectric constant tensor:
#      x y z
#    x 1.925900 0.000000 0.000000 
#    y 0.000000 1.945810 0.000000 
#    z 0.000000 0.000000 1.805650 
# 
# From -- ./inp_files/7353.got.cif
#   From: 2010.05.17/outbox.cif.g08.bks.cpg/sg55_4_cif.got.tgz:7353.got - 2010.06.03 13:27:54.
