data_PCOD9428381
_publ_section_title
;
Structure prediction by ZEFSAII (Michael W. Deem and Ramdas Pophale) SiO2 
 PCOD9428381
Probable space group: P B A M
;
_chemical_formula_sum "Si O2"
_cell_formula_units_Z 48
_cell_length_a 12.093416
_cell_length_b 22.548239
_cell_length_c 8.914203
_cell_angle_alpha 90.000000
_cell_angle_beta 90.000000
_cell_angle_gamma 90.000000
_cell_volume 2430.771534
_symmetry_space_group_name_H-M "P B A M"
_symmetry_group_IT_number 55
_symmetry_cell_setting 'orthorhombic'
loop_
_space_group_symop_operation_xyz
x,y,z
-x,-y,z
1/2+x,1/2-y,-z
1/2-x,1/2+y,-z
-x,-y,-z
x,y,-z
1/2-x,1/2+y,z
1/2+x,1/2-y,z
loop_
_atom_site_type_symbol
_atom_site_label
_atom_site_fract_x
_atom_site_fract_y
_atom_site_fract_z
Si Si1 0.725291 0.580204 0.176908
Si Si2 0.664928 0.459863 0.326883
Si Si3 0.480303 0.362496 0.677739
Si Si4 0.147027 0.231033 0.821450
Si Si5 0.826963 0.349178 0.323670
Si Si6 0.915466 0.644824 0.679462
O O1 0.683933 0.514643 0.218890
O O2 0.638778 0.625461 0.253049
O O3 0.844962 0.592215 0.247911
O O4 0.727367 0.589213 0.000000
O O5 0.664948 0.481350 0.500000
O O6 0.552832 0.422618 0.302872
O O7 0.761713 0.411199 0.309088
O O8 0.474697 0.350074 0.500000
O O9 0.548531 0.310880 0.759164
O O10 0.260406 0.199072 0.771661
O O11 0.133818 0.294409 0.744407
O O12 0.141062 0.235983 0.000000
O O13 0.819719 0.332115 0.500000
O O14 0.954601 0.356205 0.282834
O O15 0.904729 0.643018 0.500000
#
# Coordination Sequence:
#
# PCOD9428381 Si02
#       6
#     8   8   8   8   8   8
#     4  12  25  38  57  91 128 159 199 252 312 359
#     4   9  19  39  64  89 118 156 204 251 299 359
#     4  10  21  40  65  90 119 162 209 249 295 359
#     4  11  23  39  62  91 125 156 193 251 311 361
#     4   9  21  42  66  88 114 158 209 248 293 360
#     4  11  24  42  63  86 118 163 210 249 293 360
#
# _framework density 19.746817
#
# number of rings (size 3 to 8) (size 9 to 14) (size 15 to 20)
#    0.000    1.667    0.000    5.500    2.333    7.333 
#    0.000    3.333    0.000    0.000    0.000    0.000 
#    0.000    0.000    0.000    0.000    0.000    0.000 
#
# Total GULP energy -268469.159347 kJ/mol
# GULP energy per Si atom -5593.107486 kJ/mol
# Density = 1.970187 g / cm^3
# Si number density = 19.746817 Si / 1000 Ang^3
#
#
#
# Elastic Constant Matrix: (Units=GPa)
#
#
# Indices 1 2 3 4 5 6 
#
# 1 110.9506 7.4449 49.6524 0.0000 0.0000 0.0000
# 2 7.4449 21.7208 10.6969 0.0000 0.0000 0.0000
# 3 49.6524 10.6969 74.2173 0.0000 0.0000 0.0000
# 4 0.0000 0.0000 0.0000 217.6238 0.0000 0.0000
# 5 0.0000 0.0000 0.0000 0.0000 21.3212 0.0000
# 6 0.0000 0.0000 0.0000 0.0000 0.0000 0.3327
#
#
#
# Elastic Compliance Matrix: (Units=1/GPa)
#
#
# Indices 1 2 3 4 5 6 
#
# 1 0.012865 -0.000184 -0.008581 0.000000 0.000000 0.000000
# 2 -0.000184 0.049559 -0.007020 0.000000 0.000000 0.000000
# 3 -0.008581 -0.007020 0.020226 0.000000 0.000000 0.000000
# 4 0.000000 0.000000 0.000000 0.004595 0.000000 0.000000
# 5 0.000000 0.000000 0.000000 0.000000 0.046902 0.000000
# 6 0.000000 0.000000 0.000000 0.000000 0.000000 3.005513
#
#
# Mechanical properties :
#
#
# Convention : Reuss Voigt Hill
#
# Bulk Modulus (GPa) = 19.57646 38.05302 28.81474
# Shear Modulus (GPa) = 1.56826 57.12851 29.34838
#
# Velocity S-wave (km/s) = 0.89214 5.38454 3.85935
# Velocity P-wave (km/s) = 3.31609 7.61380 5.87224
#
# Compressibility (1/GPa) = 0.05108175
#
# Stress axis : x y z
#
# Youngs Moduli (GPa) = 77.72829 20.17802 49.44075
#
# Poissons Ratio (x) = 0.00371 0.42423
# Poissons Ratio (y) = 0.01430 0.34706
# Poissons Ratio (z) = 0.66695 0.14165
#
# Static dielectric constant tensor:
#      x y z
#    x 1.697440 0.000000 0.000000 
#    y 0.000000 1.689360 0.000000 
#    z 0.000000 0.000000 1.652150 
# 
# From -- ./inp_files/4094.got.cif
#   From: 2010.05.17/outbox.cif.g08.bks.cpg/sg55_3_cif.got.tgz:4094.got - 2010.06.03 13:27:54.
