data_PCOD9428740
_publ_section_title
;
Structure prediction by ZEFSAII (Michael W. Deem and Ramdas Pophale) SiO2 
 PCOD9428740
Probable space group: P B A M
;
_chemical_formula_sum "Si O2"
_cell_formula_units_Z 48
_cell_length_a 14.519089
_cell_length_b 9.864402
_cell_length_c 15.100541
_cell_angle_alpha 90.000000
_cell_angle_beta 90.000000
_cell_angle_gamma 90.000000
_cell_volume 2162.731655
_symmetry_space_group_name_H-M "P B A M"
_symmetry_group_IT_number 55
_symmetry_cell_setting 'orthorhombic'
loop_
_space_group_symop_operation_xyz
x,y,z
-x,-y,z
1/2+x,1/2-y,-z
1/2-x,1/2+y,-z
-x,-y,-z
x,y,-z
1/2-x,1/2+y,z
1/2+x,1/2-y,z
loop_
_atom_site_type_symbol
_atom_site_label
_atom_site_fract_x
_atom_site_fract_y
_atom_site_fract_z
Si Si1 0.230835 0.359630 0.793917
Si Si2 0.550038 0.132042 0.101838
Si Si3 0.576739 0.607130 0.102895
Si Si4 0.752430 0.401799 0.320280
Si Si5 0.092368 0.916403 0.399365
Si Si6 0.438729 0.122277 0.398621
O O1 0.143895 0.319344 0.852845
O O2 0.328239 0.374186 0.844152
O O3 0.235563 0.250614 0.713437
O O4 0.208542 0.510945 0.760867
O O5 0.476067 0.251109 0.103055
O O6 0.500000 0.000000 0.141008
O O7 0.574257 0.098993 0.000000
O O8 0.500000 0.500000 0.138059
O O9 0.597151 0.568146 0.000000
O O10 0.664179 0.487497 0.350005
O O11 0.830962 0.412407 0.394255
O O12 0.127691 0.888829 0.500000
O O13 0.063046 0.772318 0.356459
O O14 0.000000 0.000000 0.406420
O O15 0.471987 0.139809 0.500000
O O16 0.500000 0.000000 0.360595
#
# Coordination Sequence:
#
# PCOD9428740 Si02
#       6
#     8   8   8   8   8   8
#     4  12  25  40  63  96 135 172 215 268 339 399
#     4  10  22  42  67  93 124 168 219 270 324 389
#     4  10  22  42  66  92 125 172 223 269 321 387
#     4  12  25  42  60  96 134 169 207 264 335 390
#     4  10  23  44  68  93 124 170 222 268 319 385
#     4  10  23  44  69  95 125 170 222 267 317 385
#
# _framework density 22.194151999999999
#
# number of rings (size 3 to 8) (size 9 to 14) (size 15 to 20)
#    0.000    1.333    1.667    3.000    2.333    4.000 
#    0.000    6.667    0.000    0.000    0.000    0.000 
#    0.000    0.000    0.000    0.000    0.000    0.000 
#
# Total GULP energy -267931.809819 kJ/mol
# GULP energy per Si atom -5581.912705 kJ/mol
# Density = 2.214364 g / cm^3
# Si number density = 22.194152 Si / 1000 Ang^3
#
#
#
# Elastic Constant Matrix: (Units=GPa)
#
#
# Indices 1 2 3 4 5 6 
#
# 1 114.2660 41.0921 28.5298 0.0000 0.0000 0.0000
# 2 41.0921 114.1274 -2.8685 0.0000 0.0000 0.0000
# 3 28.5298 -2.8685 41.8759 0.0000 0.0000 0.0000
# 4 0.0000 0.0000 0.0000 21.5101 0.0000 0.0000
# 5 0.0000 0.0000 0.0000 0.0000 10.7062 0.0000
# 6 0.0000 0.0000 0.0000 0.0000 0.0000 37.8955
#
#
#
# Elastic Compliance Matrix: (Units=1/GPa)
#
#
# Indices 1 2 3 4 5 6 
#
# 1 0.012728 -0.004809 -0.009001 0.000000 0.000000 0.000000
# 2 -0.004809 0.010594 0.004002 0.000000 0.000000 0.000000
# 3 -0.009001 0.004002 0.030287 0.000000 0.000000 0.000000
# 4 0.000000 0.000000 0.000000 0.046490 0.000000 0.000000
# 5 0.000000 0.000000 0.000000 0.000000 0.093403 0.000000
# 6 0.000000 0.000000 0.000000 0.000000 0.000000 0.026388
#
#
# Mechanical properties :
#
#
# Convention : Reuss Voigt Hill
#
# Bulk Modulus (GPa) = 29.41785 44.86403 37.14094
# Shear Modulus (GPa) = 19.93316 27.59009 23.76163
#
# Velocity S-wave (km/s) = 3.00013 3.52962 3.27559
# Velocity P-wave (km/s) = 5.02838 6.07200 5.57466
#
# Compressibility (1/GPa) = 0.03399297
#
# Stress axis : x y z
#
# Youngs Moduli (GPa) = 78.56458 94.39056 33.01777
#
# Poissons Ratio (x) = 0.45394 0.29720
# Poissons Ratio (y) = 0.37783 -0.13214
# Poissons Ratio (z) = 0.70718 -0.37777
#
# Static dielectric constant tensor:
#      x y z
#    x 1.775840 0.000000 0.000000 
#    y 0.000000 2.687760 0.000000 
#    z 0.000000 0.000000 1.933980 
# 
# From -- ./inp_files/21492.got.cif
#   From: 2010.05.17/outbox.cif.g08.bks.cpg/sg55_11_cif.got.tgz:21492.got - 2010.06.03 13:27:54.
