data_PCOD9428610
_publ_section_title
;
Structure prediction by ZEFSAII (Michael W. Deem and Ramdas Pophale) SiO2 
 PCOD9428610
Probable space group: P B A M
;
_chemical_formula_sum "Si O2"
_cell_formula_units_Z 32
_cell_length_a 5.034457
_cell_length_b 13.674389
_cell_length_c 19.386477
_cell_angle_alpha 90.000000
_cell_angle_beta 90.000000
_cell_angle_gamma 90.000000
_cell_volume 1334.625629
_symmetry_space_group_name_H-M "P B A M"
_symmetry_group_IT_number 55
_symmetry_cell_setting 'orthorhombic'
loop_
_space_group_symop_operation_xyz
x,y,z
-x,-y,z
1/2+x,1/2-y,-z
1/2-x,1/2+y,-z
-x,-y,-z
x,y,-z
1/2-x,1/2+y,z
1/2+x,1/2-y,z
loop_
_atom_site_type_symbol
_atom_site_label
_atom_site_fract_x
_atom_site_fract_y
_atom_site_fract_z
Si Si1 0.256403 0.065289 0.289752
Si Si2 0.673148 0.817378 0.423926
Si Si3 0.489528 0.619136 0.158490
Si Si4 0.508837 0.118918 0.923061
O O1 0.365712 0.114409 0.358571
O O2 0.142136 0.140708 0.232526
O O3 0.500000 0.000000 0.260339
O O4 0.000000 0.000000 0.308435
O O5 0.638327 0.863550 0.500000
O O6 0.466061 0.728327 0.419943
O O7 0.500000 0.500000 0.160417
O O8 0.781829 0.649275 0.135669
O O9 0.286050 0.647754 0.098697
O O10 0.500000 0.000000 0.924158
O O11 0.583506 0.150504 0.000000
#
# Coordination Sequence:
#
# PCOD9428610 Si02
#       4
#     8   8   8   8
#     4  11  21  34  55  81 110 142 176 219 267 316
#     4  10  22  40  59  80 109 142 176 218 265 314
#     4   9  16  26  39  63  98 131 165 209 258 301
#     4   9  15  23  37  58  91 135 171 200 248 311
#
# _framework density 23.976762999999998
#
# number of rings (size 3 to 8) (size 9 to 14) (size 15 to 20)
#    0.000    2.250    0.000    6.000    0.000    4.000 
#    0.000    0.000    0.000    0.000    0.000    0.000 
#    0.000   20.000    0.000    0.000    0.000    1.750 
#
# Total GULP energy -178862.693139 kJ/mol
# GULP energy per Si atom -5589.459161 kJ/mol
# Density = 2.392219 g / cm^3
# Si number density = 23.976763 Si / 1000 Ang^3
#
#
#
# Elastic Constant Matrix: (Units=GPa)
#
#
# Indices 1 2 3 4 5 6 
#
# 1 96.4546 -15.5307 23.1428 0.0000 0.0000 0.0000
# 2 -15.5307 53.8295 16.4278 0.0000 0.0000 0.0000
# 3 23.1428 16.4278 161.0131 0.0000 0.0000 0.0000
# 4 0.0000 0.0000 0.0000 22.1098 0.0000 0.0000
# 5 0.0000 0.0000 0.0000 0.0000 36.7762 0.0000
# 6 0.0000 0.0000 0.0000 0.0000 0.0000 -2.9533
#
#
#
# Elastic Compliance Matrix: (Units=1/GPa)
#
#
# Indices 1 2 3 4 5 6 
#
# 1 0.011496 0.003944 -0.002055 0.000000 0.000000 0.000000
# 2 0.003944 0.020527 -0.002661 0.000000 0.000000 0.000000
# 3 -0.002055 -0.002661 0.006778 0.000000 0.000000 0.000000
# 4 0.000000 0.000000 0.000000 0.045229 0.000000 0.000000
# 5 0.000000 0.000000 0.000000 0.000000 0.027191 0.000000
# 6 0.000000 0.000000 0.000000 0.000000 0.000000 -0.338603
#
#
# Mechanical properties :
#
#
# Convention : Reuss Voigt Hill
#
# Bulk Modulus (GPa) = 26.84134 39.93074 33.38604
# Shear Modulus (GPa) = -23.42800 30.33703 3.45452
#
# Velocity S-wave (km/s) = -3.12927 3.56092 1.20163
# Velocity P-wave (km/s) = 1.35551 5.79629 3.98494
#
# Compressibility (1/GPa) = 0.03725597
#
# Stress axis : x y z
#
# Youngs Moduli (GPa) = 86.99013 48.71602 147.54686
#
# Poissons Ratio (x) = -0.19212 0.30316
# Poissons Ratio (y) = -0.34306 0.39265
# Poissons Ratio (z) = 0.17873 0.12964
#
# Static dielectric constant tensor:
#      x y z
#    x 1.838470 0.000000 0.000000 
#    y 0.000000 1.929240 0.000000 
#    z 0.000000 0.000000 1.935680 
# 
# From -- ./inp_files/16405.got.cif
#   From: 2010.05.17/outbox.cif.g08.bks.cpg/sg55_9_cif.got.tgz:16405.got - 2010.06.03 13:27:54.
