data_PCOD9428771
_publ_section_title
;
Structure prediction by ZEFSAII (Michael W. Deem and Ramdas Pophale) SiO2 
 PCOD9428771
Probable space group: P B A M
;
_chemical_formula_sum "Si O2"
_cell_formula_units_Z 48
_cell_length_a 7.656594
_cell_length_b 27.129360
_cell_length_c 9.228598
_cell_angle_alpha 90.000000
_cell_angle_beta 90.000000
_cell_angle_gamma 90.000000
_cell_volume 1916.950488
_symmetry_space_group_name_H-M "P B A M"
_symmetry_group_IT_number 55
_symmetry_cell_setting 'orthorhombic'
loop_
_space_group_symop_operation_xyz
x,y,z
-x,-y,z
1/2+x,1/2-y,-z
1/2-x,1/2+y,-z
-x,-y,-z
x,y,-z
1/2-x,1/2+y,z
1/2+x,1/2-y,z
loop_
_atom_site_type_symbol
_atom_site_label
_atom_site_fract_x
_atom_site_fract_y
_atom_site_fract_z
Si Si1 0.214409 0.967370 0.665760
Si Si2 0.941282 0.669138 0.000000
Si Si3 0.142532 0.363460 0.697622
Si Si4 0.647587 0.441323 0.172576
Si Si5 0.565868 0.718018 0.333981
Si Si6 0.755001 0.348377 0.343026
Si Si7 0.839852 0.251863 0.000000
O O1 0.183506 0.983042 0.500000
O O2 0.338768 0.920054 0.656467
O O3 0.039180 0.947970 0.746822
O O4 0.265584 0.014821 0.760436
O O5 0.875674 0.638396 0.867788
O O6 0.139155 0.688866 0.000000
O O7 0.842606 0.722189 0.000000
O O8 0.305987 0.329628 0.657821
O O9 0.960738 0.338762 0.652124
O O10 0.718386 0.388754 0.221782
O O11 0.630787 0.445582 0.000000
O O12 0.582995 0.740108 0.500000
O O13 0.365937 0.699081 0.325276
O O14 0.599407 0.738556 0.169204
O O15 0.704523 0.370438 0.500000
#
# Coordination Sequence:
#
# PCOD9428771 Si02
#       7
#     8   4   8   8   8   8   4
#     4  11  21  40  64  90 135 180 227 279 327 387
#     4  10  26  44  72 101 135 169 216 267 340 408
#     4  11  24  40  69  97 131 171 218 274 330 396
#     4  11  24  37  62  95 130 181 231 276 327 388
#     4  10  22  43  69  97 133 174 220 270 332 399
#     4  11  23  40  65  97 131 174 225 272 329 389
#     4  10  24  46  70  99 132 176 211 270 338 403
#
# _framework density 25.039767999999999
#
# number of rings (size 3 to 8) (size 9 to 14) (size 15 to 20)
#    0.000    1.333    1.667    4.500    7.000    0.667 
#    0.000    7.500    0.000    0.000    0.000    0.000 
#    0.000    0.000    0.000    0.000    0.000    0.000 
#
# Total GULP energy -267977.269308 kJ/mol
# GULP energy per Si atom -5582.859777 kJ/mol
# Density = 2.498278 g / cm^3
# Si number density = 25.039768 Si / 1000 Ang^3
#
#
#
# Elastic Constant Matrix: (Units=GPa)
#
#
# Indices 1 2 3 4 5 6 
#
# 1 84.2082 5.8138 30.5012 0.0000 0.0000 0.0000
# 2 5.8138 68.9526 61.8317 0.0000 0.0000 0.0000
# 3 30.5012 61.8317 276.7218 0.0000 0.0000 0.0000
# 4 0.0000 0.0000 0.0000 0.9157 0.0000 0.0000
# 5 0.0000 0.0000 0.0000 0.0000 -13.0747 0.0000
# 6 0.0000 0.0000 0.0000 0.0000 0.0000 33.4775
#
#
#
# Elastic Compliance Matrix: (Units=1/GPa)
#
#
# Indices 1 2 3 4 5 6 
#
# 1 0.012372 0.000225 -0.001414 0.000000 0.000000 0.000000
# 2 0.000225 0.018141 -0.004078 0.000000 0.000000 0.000000
# 3 -0.001414 -0.004078 0.004681 0.000000 0.000000 0.000000
# 4 0.000000 0.000000 0.000000 1.092069 0.000000 0.000000
# 5 0.000000 0.000000 0.000000 0.000000 -0.076484 0.000000
# 6 0.000000 0.000000 0.000000 0.000000 0.000000 0.029871
#
#
# Mechanical properties :
#
#
# Convention : Reuss Voigt Hill
#
# Bulk Modulus (GPa) = 40.55347 69.57511 55.06429
# Shear Modulus (GPa) = 4.54792 26.37944 15.46368
#
# Velocity S-wave (km/s) = 1.34916 3.24929 2.48778
# Velocity P-wave (km/s) = 4.31946 6.47482 5.50368
#
# Compressibility (1/GPa) = 0.02465880
#
# Stress axis : x y z
#
# Youngs Moduli (GPa) = 80.82811 55.12434 213.63737
#
# Poissons Ratio (x) = -0.01239 0.30206
# Poissons Ratio (y) = -0.01816 0.87126
# Poissons Ratio (z) = 0.11428 0.22481
#
# Static dielectric constant tensor:
#      x y z
#    x 2.052030 0.000000 0.000000 
#    y 0.000000 1.970060 0.000000 
#    z 0.000000 0.000000 2.022240 
# 
# From -- ./inp_files/2956.got.cif
#   From: 2010.05.17/outbox.cif.g08.bks.cpg/sg55_2_cif.got.tgz:2956.got - 2010.06.03 13:27:54.
