data_PCOD9428336
_publ_section_title
;
Structure prediction by ZEFSAII (Michael W. Deem and Ramdas Pophale) SiO2 
 PCOD9428336
Probable space group: P B A M
;
_chemical_formula_sum "Si O2"
_cell_formula_units_Z 58
_cell_length_a 10.958467
_cell_length_b 26.118382
_cell_length_c 9.810800
_cell_angle_alpha 90.000000
_cell_angle_beta 90.000000
_cell_angle_gamma 90.000000
_cell_volume 2808.021935
_symmetry_space_group_name_H-M "P B A M"
_symmetry_group_IT_number 55
_symmetry_cell_setting 'orthorhombic'
loop_
_space_group_symop_operation_xyz
x,y,z
-x,-y,z
1/2+x,1/2-y,-z
1/2-x,1/2+y,-z
-x,-y,-z
x,y,-z
1/2-x,1/2+y,z
1/2+x,1/2-y,z
loop_
_atom_site_type_symbol
_atom_site_label
_atom_site_fract_x
_atom_site_fract_y
_atom_site_fract_z
Si Si1 0.586783 0.787064 0.843046
Si Si2 0.619749 0.691309 0.340818
Si Si3 0.333501 0.844649 0.152833
Si Si4 0.129321 0.528781 0.659937
Si Si5 0.011511 0.086497 0.263554
Si Si6 0.723472 0.884580 0.840475
Si Si7 0.000000 0.000000 0.500000
Si Si8 0.767291 0.044754 0.149681
O O1 0.571866 0.740176 0.741516
O O2 0.468830 0.823494 0.835102
O O3 0.700498 0.824496 0.811411
O O4 0.597117 0.769205 0.000000
O O5 0.632659 0.701991 0.500000
O O6 0.748236 0.678226 0.269081
O O7 0.537454 0.640808 0.320225
O O8 0.320037 0.905777 0.160131
O O9 0.288316 0.830479 0.000000
O O10 0.153866 0.536406 0.500000
O O11 0.138032 0.581124 0.743648
O O12 0.230428 0.492378 0.728630
O O13 0.000000 0.500000 0.674115
O O14 0.139160 0.097495 0.190170
O O15 0.904275 0.065391 0.165768
O O16 0.021154 0.044457 0.381561
O O17 0.693774 0.891962 0.000000
O O18 0.750726 0.020794 0.000000
#
# Coordination Sequence:
#
# PCOD9428336 Si02
#       8
#     8   8   8   8   8   8   2   8
#     4  10  23  43  68  96 132 177 225 281 342 399
#     4  11  24  42  64  98 134 175 222 275 337 403
#     4   9  20  40  65  93 124 168 225 277 331 398
#     4  11  25  41  62  94 136 181 224 275 343 413
#     4  11  25  42  69  99 137 175 226 277 338 412
#     4  11  25  44  68 100 135 175 228 287 341 396
#     4  12  24  44  66  92 134 188 214 268 338 410
#     4  10  21  39  67  96 128 172 226 282 334 398
#
# _framework density 20.655111000000002
#
# number of rings (size 3 to 8) (size 9 to 14) (size 15 to 20)
#    0.000    1.517    0.690    2.897    5.793    5.517 
#    0.000    2.069    0.000    0.000    0.000    0.000 
#    0.000    0.000    0.000    0.000    0.000    0.000 
#
# Total GULP energy -323691.964772 kJ/mol
# GULP energy per Si atom -5580.895944 kJ/mol
# Density = 2.060810 g / cm^3
# Si number density = 20.655111 Si / 1000 Ang^3
#
#
#
# Elastic Constant Matrix: (Units=GPa)
#
#
# Indices 1 2 3 4 5 6 
#
# 1 65.8477 34.7661 38.9112 0.0000 0.0000 0.0000
# 2 34.7661 118.4404 72.5133 0.0000 0.0000 0.0000
# 3 38.9112 72.5133 155.5475 0.0000 0.0000 0.0000
# 4 0.0000 0.0000 0.0000 26.0363 0.0000 0.0000
# 5 0.0000 0.0000 0.0000 0.0000 21.4287 0.0000
# 6 0.0000 0.0000 0.0000 0.0000 0.0000 20.9060
#
#
#
# Elastic Compliance Matrix: (Units=1/GPa)
#
#
# Indices 1 2 3 4 5 6 
#
# 1 0.018922 -0.003717 -0.003001 0.000000 0.000000 0.000000
# 2 -0.003717 0.012546 -0.004919 0.000000 0.000000 0.000000
# 3 -0.003001 -0.004919 0.009472 0.000000 0.000000 0.000000
# 4 0.000000 0.000000 0.000000 0.038408 0.000000 0.000000
# 5 0.000000 0.000000 0.000000 0.000000 0.046666 0.000000
# 6 0.000000 0.000000 0.000000 0.000000 0.000000 0.047833
#
#
# Mechanical properties :
#
#
# Convention : Reuss Voigt Hill
#
# Bulk Modulus (GPa) = 56.60138 70.24632 63.42385
# Shear Modulus (GPa) = 24.62935 26.58387 25.60661
#
# Velocity S-wave (km/s) = 3.45687 3.59142 3.52479
# Velocity P-wave (km/s) = 6.58756 7.16106 6.88028
#
# Compressibility (1/GPa) = 0.01766741
#
# Stress axis : x y z
#
# Youngs Moduli (GPa) = 52.84765 79.70972 105.56878
#
# Poissons Ratio (x) = 0.29630 0.31678
# Poissons Ratio (y) = 0.19645 0.51925
# Poissons Ratio (z) = 0.15858 0.39206
#
# Static dielectric constant tensor:
#      x y z
#    x 1.754650 0.000000 0.000000 
#    y 0.000000 1.744720 0.000000 
#    z 0.000000 0.000000 1.705100 
# 
# From -- ./inp_files/4328.got.cif
#   From: 2010.05.17/outbox.cif.g08.bks.cpg/sg55_3_cif.got.tgz:4328.got - 2010.06.03 13:27:54.
