data_PCOD9428394
_publ_section_title
;
Structure prediction by ZEFSAII (Michael W. Deem and Ramdas Pophale) SiO2 
 PCOD9428394
Probable space group: P B A M
;
_chemical_formula_sum "Si O2"
_cell_formula_units_Z 48
_cell_length_a 18.976599
_cell_length_b 15.125934
_cell_length_c 8.918138
_cell_angle_alpha 90.000000
_cell_angle_beta 90.000000
_cell_angle_gamma 90.000000
_cell_volume 2559.851487
_symmetry_space_group_name_H-M "P B A M"
_symmetry_group_IT_number 55
_symmetry_cell_setting 'orthorhombic'
loop_
_space_group_symop_operation_xyz
x,y,z
-x,-y,z
1/2+x,1/2-y,-z
1/2-x,1/2+y,-z
-x,-y,-z
x,y,-z
1/2-x,1/2+y,z
1/2+x,1/2-y,z
loop_
_atom_site_type_symbol
_atom_site_label
_atom_site_fract_x
_atom_site_fract_y
_atom_site_fract_z
Si Si1 0.244170 0.300743 0.821018
Si Si2 0.415984 0.747490 0.820173
Si Si3 0.931479 0.942057 0.679469
Si Si4 0.526548 0.902093 0.180122
Si Si5 0.676332 0.857204 0.678333
Si Si6 0.284148 0.502943 0.179045
O O1 0.164462 0.272653 0.781403
O O2 0.298261 0.238583 0.734325
O O3 0.257647 0.403667 0.790873
O O4 0.252806 0.286692 0.000000
O O5 0.438262 0.658155 0.737677
O O6 0.467428 0.828949 0.785049
O O7 0.418495 0.732929 0.000000
O O8 0.923221 0.942332 0.500000
O O9 0.861661 0.981849 0.755133
O O10 0.000000 0.000000 0.718173
O O11 0.599006 0.878922 0.260831
O O12 0.500000 0.000000 0.220680
O O13 0.538143 0.901178 0.000000
O O14 0.678313 0.861940 0.500000
O O15 0.731154 0.927127 0.747981
O O16 0.285363 0.516878 0.000000
#
# Coordination Sequence:
#
# PCOD9428394 Si02
#       6
#     8   8   8   8   8   8
#     4  10  22  41  66  94 121 160 210 263 312 367
#     4  10  21  40  67  94 122 163 212 259 311 369
#     4  11  25  42  60  89 130 170 207 257 322 380
#     4  10  22  42  67  94 125 165 213 261 309 368
#     4  12  25  40  62  95 132 167 203 254 321 381
#     4  11  23  42  68  93 122 163 216 265 308 368
#
# _framework density 18.751087999999999
#
# number of rings (size 3 to 8) (size 9 to 14) (size 15 to 20)
#    0.000    1.333    1.667    3.500    2.333    6.333 
#    0.000    1.667    0.000    0.000    0.000    0.000 
#    0.000    0.000    0.000    0.000    0.000    0.000 
#
# Total GULP energy -268469.339202 kJ/mol
# GULP energy per Si atom -5593.111233 kJ/mol
# Density = 1.870841 g / cm^3
# Si number density = 18.751088 Si / 1000 Ang^3
#
#
#
# Elastic Constant Matrix: (Units=GPa)
#
#
# Indices 1 2 3 4 5 6 
#
# 1 86.8026 27.9053 32.0989 0.0000 0.0000 0.0000
# 2 27.9053 102.6627 41.7856 0.0000 0.0000 0.0000
# 3 32.0989 41.7856 43.3759 0.0000 0.0000 0.0000
# 4 0.0000 0.0000 0.0000 -31.6352 0.0000 0.0000
# 5 0.0000 0.0000 0.0000 0.0000 17.9039 0.0000
# 6 0.0000 0.0000 0.0000 0.0000 0.0000 36.3998
#
#
#
# Elastic Compliance Matrix: (Units=1/GPa)
#
#
# Indices 1 2 3 4 5 6 
#
# 1 0.015897 0.000768 -0.012505 0.000000 0.000000 0.000000
# 2 0.000768 0.016060 -0.016040 0.000000 0.000000 0.000000
# 3 -0.012505 -0.016040 0.047760 0.000000 0.000000 0.000000
# 4 0.000000 0.000000 0.000000 -0.031610 0.000000 0.000000
# 5 0.000000 0.000000 0.000000 0.000000 0.055854 0.000000
# 6 0.000000 0.000000 0.000000 0.000000 0.000000 0.027473
#
#
# Mechanical properties :
#
#
# Convention : Reuss Voigt Hill
#
# Bulk Modulus (GPa) = 41.38206 48.49119 44.93663
# Shear Modulus (GPa) = 25.63550 13.27048 19.45299
#
# Velocity S-wave (km/s) = 3.70151 2.66318 3.22441
# Velocity P-wave (km/s) = 6.35494 5.94755 6.15462
#
# Compressibility (1/GPa) = 0.02416506
#
# Stress axis : x y z
#
# Youngs Moduli (GPa) = 62.90304 62.26486 20.93796
#
# Poissons Ratio (x) = -0.04785 0.26182
# Poissons Ratio (y) = -0.04834 0.33585
# Poissons Ratio (z) = 0.78658 0.99874
#
# Static dielectric constant tensor:
#      x y z
#    x 1.613860 0.000000 0.000000 
#    y 0.000000 1.615430 0.000000 
#    z 0.000000 0.000000 1.624380 
# 
# From -- ./inp_files/5653.got.cif
#   From: 2010.05.17/outbox.cif.g08.bks.cpg/sg55_3_cif.got.tgz:5653.got - 2010.06.03 13:27:54.
