data_PCOD9428850
_publ_section_title
;
Structure prediction by ZEFSAII (Michael W. Deem and Ramdas Pophale) SiO2 
 PCOD9428850
Probable space group: P B A M
;
_chemical_formula_sum "Si O2"
_cell_formula_units_Z 56
_cell_length_a 21.182488
_cell_length_b 14.874670
_cell_length_c 8.723333
_cell_angle_alpha 90.000000
_cell_angle_beta 90.000000
_cell_angle_gamma 90.000000
_cell_volume 2748.569734
_symmetry_space_group_name_H-M "P B A M"
_symmetry_group_IT_number 55
_symmetry_cell_setting 'orthorhombic'
loop_
_space_group_symop_operation_xyz
x,y,z
-x,-y,z
1/2+x,1/2-y,-z
1/2-x,1/2+y,-z
-x,-y,-z
x,y,-z
1/2-x,1/2+y,z
1/2+x,1/2-y,z
loop_
_atom_site_type_symbol
_atom_site_label
_atom_site_fract_x
_atom_site_fract_y
_atom_site_fract_z
Si Si1 0.847816 0.326829 0.681119
Si Si2 0.054947 0.925350 0.677264
Si Si3 0.243824 0.311025 0.183673
Si Si4 0.021904 0.733519 0.182322
Si Si5 0.631119 0.428691 0.174000
Si Si6 0.390293 0.753406 0.679724
Si Si7 0.228069 0.517971 0.823626
O O1 0.853856 0.315407 0.500000
O O2 0.798809 0.250410 0.742794
O O3 0.916167 0.317895 0.758916
O O4 0.818985 0.424144 0.721864
O O5 0.071508 0.907074 0.500000
O O6 0.034234 0.835038 0.759761
O O7 0.110204 0.973394 0.770986
O O8 0.000000 0.000000 0.679597
O O9 0.173869 0.280604 0.234715
O O10 0.244379 0.416741 0.226215
O O11 0.250476 0.303572 0.000000
O O12 0.954565 0.704739 0.253347
O O13 0.017957 0.730271 0.000000
O O14 0.605573 0.353600 0.288472
O O15 0.706435 0.427477 0.174735
O O16 0.608615 0.411257 0.000000
O O17 0.385024 0.771194 0.500000
O O18 0.204831 0.513543 0.000000
#
# Coordination Sequence:
#
# PCOD9428850 Si02
#       7
#     8   8   8   8   8   8   8
#     4  12  25  42  67  98 134 170 212 270 330 386
#     4  11  22  35  55  87 127 162 203 258 316 381
#     4  11  23  43  69  98 131 172 221 267 319 386
#     4  12  25  42  64  89 126 172 217 266 323 391
#     4  11  21  36  61  90 123 167 211 255 315 383
#     4  12  24  40  62  93 129 167 212 265 322 380
#     4  10  23  42  66  94 127 166 217 269 316 381
#
# _framework density 20.374233
#
# number of rings (size 3 to 8) (size 9 to 14) (size 15 to 20)
#    0.000    0.714    2.857    6.000    0.000    3.429 
#    0.000    0.714    0.000    4.286    0.000    0.000 
#    0.000    0.000    0.000    0.000    0.000    0.000 
#
# Total GULP energy -313115.058068 kJ/mol
# GULP energy per Si atom -5591.340323 kJ/mol
# Density = 2.032786 g / cm^3
# Si number density = 20.374233 Si / 1000 Ang^3
#
#
#
# Elastic Constant Matrix: (Units=GPa)
#
#
# Indices 1 2 3 4 5 6 
#
# 1 83.7563 0.7907 0.4019 0.0000 0.0000 0.0000
# 2 0.7907 43.2922 2.8157 0.0000 0.0000 0.0000
# 3 0.4019 2.8157 74.0308 0.0000 0.0000 0.0000
# 4 0.0000 0.0000 0.0000 43.6651 0.0000 0.0000
# 5 0.0000 0.0000 0.0000 0.0000 12.0113 0.0000
# 6 0.0000 0.0000 0.0000 0.0000 0.0000 31.7096
#
#
#
# Elastic Compliance Matrix: (Units=1/GPa)
#
#
# Indices 1 2 3 4 5 6 
#
# 1 0.011942 -0.000214 -0.000057 0.000000 0.000000 0.000000
# 2 -0.000214 0.023160 -0.000880 0.000000 0.000000 0.000000
# 3 -0.000057 -0.000880 0.013542 0.000000 0.000000 0.000000
# 4 0.000000 0.000000 0.000000 0.022902 0.000000 0.000000
# 5 0.000000 0.000000 0.000000 0.000000 0.083255 0.000000
# 6 0.000000 0.000000 0.000000 0.000000 0.000000 0.031536
#
#
# Mechanical properties :
#
#
# Convention : Reuss Voigt Hill
#
# Bulk Modulus (GPa) = 21.57882 23.23288 22.40585
# Shear Modulus (GPa) = 24.49962 30.61528 27.55745
#
# Velocity S-wave (km/s) = 3.47144 3.88060 3.68171
# Velocity P-wave (km/s) = 5.16547 5.61307 5.39392
#
# Compressibility (1/GPa) = 0.04634173
#
# Stress axis : x y z
#
# Youngs Moduli (GPa) = 83.74020 43.17794 73.84616
#
# Poissons Ratio (x) = 0.00926 0.00419
# Poissons Ratio (y) = 0.01796 0.06496
# Poissons Ratio (z) = 0.00475 0.03798
#
# Static dielectric constant tensor:
#      x y z
#    x 1.752350 0.000000 0.000000 
#    y 0.000000 1.766870 0.000000 
#    z 0.000000 0.000000 1.688460 
# 
# From -- ./inp_files/8755.got.cif
#   From: 2010.05.17/outbox.cif.g08.bks.cpg/sg55_5_cif.got.tgz:8755.got - 2010.06.03 13:27:54.
