data_PCOD9428516
_publ_section_title
;
Structure prediction by ZEFSAII (Michael W. Deem and Ramdas Pophale) SiO2 
 PCOD9428516
Probable space group: P B A M
;
_chemical_formula_sum "Si O2"
_cell_formula_units_Z 48
_cell_length_a 14.623991
_cell_length_b 20.461376
_cell_length_c 8.920583
_cell_angle_alpha 90.000000
_cell_angle_beta 90.000000
_cell_angle_gamma 90.000000
_cell_volume 2669.279097
_symmetry_space_group_name_H-M "P B A M"
_symmetry_group_IT_number 55
_symmetry_cell_setting 'orthorhombic'
loop_
_space_group_symop_operation_xyz
x,y,z
-x,-y,z
1/2+x,1/2-y,-z
1/2-x,1/2+y,-z
-x,-y,-z
x,y,-z
1/2-x,1/2+y,z
1/2+x,1/2-y,z
loop_
_atom_site_type_symbol
_atom_site_label
_atom_site_fract_x
_atom_site_fract_y
_atom_site_fract_z
Si Si1 0.028852 0.619828 0.678049
Si Si2 0.167306 0.171534 0.320338
Si Si3 0.713537 0.935913 0.821179
Si Si4 0.658189 0.080149 0.179376
Si Si5 0.970006 0.225261 0.321198
Si Si6 0.776739 0.207852 0.178990
O O1 0.039550 0.610623 0.500000
O O2 0.118647 0.594445 0.761502
O O3 0.017397 0.697297 0.707627
O O4 0.938367 0.584122 0.736873
O O5 0.174612 0.171680 0.500000
O O6 0.205047 0.104036 0.255208
O O7 0.230835 0.229385 0.256187
O O8 0.062901 0.188095 0.278887
O O9 0.709773 0.012799 0.785555
O O10 0.718498 0.927895 0.000000
O O11 0.718378 0.143465 0.217896
O O12 0.641019 0.081168 0.000000
O O13 0.955868 0.217700 0.500000
O O14 0.880366 0.201996 0.235065
O O15 0.774580 0.216389 0.000000
#
# Coordination Sequence:
#
# PCOD9428516 Si02
#       6
#     8   8   8   8   8   8
#     4  11  21  35  58  88 120 153 190 235 288 344
#     4  11  22  39  60  84 115 151 192 237 284 339
#     4  11  23  39  58  84 119 156 191 238 289 340
#     4  10  23  40  57  84 121 155 193 236 287 343
#     4  10  22  38  58  86 119 150 187 239 287 334
#     4  11  22  37  61  87 113 151 193 235 283 340
#
# _framework density 17.982382000000001
#
# number of rings (size 3 to 8) (size 9 to 14) (size 15 to 20)
#    0.000    1.333    3.333    2.500    0.000    6.000 
#    0.000    0.833    0.000    5.000    0.000    0.000 
#    0.000    0.000    0.000    0.000    0.000    0.000 
#
# Total GULP energy -268313.828231 kJ/mol
# GULP energy per Si atom -5589.871421 kJ/mol
# Density = 1.794145 g / cm^3
# Si number density = 17.982382 Si / 1000 Ang^3
#
#
#
# Elastic Constant Matrix: (Units=GPa)
#
#
# Indices 1 2 3 4 5 6 
#
# 1 68.7367 -8.2556 17.8198 0.0000 0.0000 0.0000
# 2 -8.2556 35.2043 11.6899 0.0000 0.0000 0.0000
# 3 17.8198 11.6899 29.1152 0.0000 0.0000 0.0000
# 4 0.0000 0.0000 0.0000 23.0340 0.0000 0.0000
# 5 0.0000 0.0000 0.0000 0.0000 30.0627 0.0000
# 6 0.0000 0.0000 0.0000 0.0000 0.0000 25.4050
#
#
#
# Elastic Compliance Matrix: (Units=1/GPa)
#
#
# Indices 1 2 3 4 5 6 
#
# 1 0.019981 0.010092 -0.016281 0.000000 0.000000 0.000000
# 2 0.010092 0.037873 -0.021383 0.000000 0.000000 0.000000
# 3 -0.016281 -0.021383 0.052897 0.000000 0.000000 0.000000
# 4 0.000000 0.000000 0.000000 0.043414 0.000000 0.000000
# 5 0.000000 0.000000 0.000000 0.000000 0.033264 0.000000
# 6 0.000000 0.000000 0.000000 0.000000 0.000000 0.039362
#
#
# Mechanical properties :
#
#
# Convention : Reuss Voigt Hill
#
# Bulk Modulus (GPa) = 17.98361 19.50714 18.74537
# Shear Modulus (GPa) = 16.64057 23.15380 19.89719
#
# Velocity S-wave (km/s) = 3.04531 3.59218 3.32999
# Velocity P-wave (km/s) = 4.73155 5.29873 5.02315
#
# Compressibility (1/GPa) = 0.05560618
#
# Stress axis : x y z
#
# Youngs Moduli (GPa) = 50.04683 26.40431 18.90482
#
# Poissons Ratio (x) = -0.26647 0.30780
# Poissons Ratio (y) = -0.50508 0.40424
# Poissons Ratio (z) = 0.81483 0.56460
#
# Static dielectric constant tensor:
#      x y z
#    x 1.586970 0.000000 0.000000 
#    y 0.000000 1.610010 0.000000 
#    z 0.000000 0.000000 1.600020 
# 
# From -- ./inp_files/5550.got.cif
#   From: 2010.05.17/outbox.cif.g08.bks.cpg/sg55_3_cif.got.tgz:5550.got - 2010.06.03 13:27:54.
