data_PCOD9428902
_publ_section_title
;
Structure prediction by ZEFSAII (Michael W. Deem and Ramdas Pophale) SiO2 
 PCOD9428902
Probable space group: P B A M
;
_chemical_formula_sum "Si O2"
_cell_formula_units_Z 56
_cell_length_a 12.553368
_cell_length_b 14.049249
_cell_length_c 14.077590
_cell_angle_alpha 90.000000
_cell_angle_beta 90.000000
_cell_angle_gamma 90.000000
_cell_volume 2482.799690
_symmetry_space_group_name_H-M "P B A M"
_symmetry_group_IT_number 55
_symmetry_cell_setting 'orthorhombic'
loop_
_space_group_symop_operation_xyz
x,y,z
-x,-y,z
1/2+x,1/2-y,-z
1/2-x,1/2+y,-z
-x,-y,-z
x,y,-z
1/2-x,1/2+y,z
1/2+x,1/2-y,z
loop_
_atom_site_type_symbol
_atom_site_label
_atom_site_fract_x
_atom_site_fract_y
_atom_site_fract_z
Si Si1 0.089507 0.072366 0.885116
Si Si2 0.600338 0.071536 0.282343
Si Si3 0.568860 0.731475 0.108014
Si Si4 0.256770 0.927665 0.891163
Si Si5 0.934784 0.286430 0.690910
Si Si6 0.760788 0.421445 0.388036
Si Si7 0.527608 0.389509 0.609820
O O1 0.043406 0.177315 0.870591
O O2 0.203061 0.028292 0.859440
O O3 0.088333 0.061945 0.000000
O O4 0.000000 0.000000 0.845742
O O5 0.651455 0.097115 0.181780
O O6 0.548037 0.163683 0.330312
O O7 0.500000 0.000000 0.271919
O O8 0.689653 0.016272 0.342198
O O9 0.662032 0.650996 0.109905
O O10 0.588077 0.799486 0.196858
O O11 0.566664 0.769678 0.000000
O O12 0.293722 0.934711 0.000000
O O13 0.845408 0.338548 0.631046
O O14 0.946756 0.175878 0.667446
O O15 0.746425 0.438244 0.500000
O O16 0.646952 0.387580 0.349388
O O17 0.500000 0.500000 0.610220
O O18 0.526129 0.356030 0.500000
#
# Coordination Sequence:
#
# PCOD9428902 Si02
#       7
#     8   8   8   8   8   8   8
#     4   7  12  26  49  80 113 154 203 249 303 363
#     4  10  24  41  59  90 124 170 221 261 324 388
#     4   9  19  34  56  91 130 166 210 263 317 379
#     4   9  18  34  59  87 123 169 213 258 316 382
#     4  11  24  39  67  97 128 173 214 265 326 395
#     4  10  24  46  68  93 130 171 215 266 328 391
#     4  10  24  43  67 103 132 161 211 273 330 381
#
# _framework density 22.555181999999999
#
# number of rings (size 3 to 8) (size 9 to 14) (size 15 to 20)
#    0.000    2.571    0.000    2.143    6.000    4.571 
#    0.000    5.000    0.000    0.000    0.000    0.000 
#    0.000    0.000    0.000    0.000    0.000    0.000 
#
# Total GULP energy -312760.182964 kJ/mol
# GULP energy per Si atom -5585.003267 kJ/mol
# Density = 2.250385 g / cm^3
# Si number density = 22.555182 Si / 1000 Ang^3
#
#
#
# Elastic Constant Matrix: (Units=GPa)
#
#
# Indices 1 2 3 4 5 6 
#
# 1 57.0356 -3.0690 1.9347 0.0000 0.0000 0.0000
# 2 -3.0690 42.5093 1.4040 0.0000 0.0000 0.0000
# 3 1.9347 1.4040 67.0046 0.0000 0.0000 0.0000
# 4 0.0000 0.0000 0.0000 19.4957 0.0000 0.0000
# 5 0.0000 0.0000 0.0000 0.0000 46.5341 0.0000
# 6 0.0000 0.0000 0.0000 0.0000 0.0000 10.1146
#
#
#
# Elastic Compliance Matrix: (Units=1/GPa)
#
#
# Indices 1 2 3 4 5 6 
#
# 1 0.017620 0.001290 -0.000536 0.000000 0.000000 0.000000
# 2 0.001290 0.023635 -0.000532 0.000000 0.000000 0.000000
# 3 -0.000536 -0.000532 0.014951 0.000000 0.000000 0.000000
# 4 0.000000 0.000000 0.000000 0.051293 0.000000 0.000000
# 5 0.000000 0.000000 0.000000 0.000000 0.021490 0.000000
# 6 0.000000 0.000000 0.000000 0.000000 0.000000 0.098867
#
#
# Mechanical properties :
#
#
# Convention : Reuss Voigt Hill
#
# Bulk Modulus (GPa) = 17.65240 18.56543 18.10892
# Shear Modulus (GPa) = 20.30072 26.31419 23.30745
#
# Velocity S-wave (km/s) = 3.00333 3.41934 3.21807
# Velocity P-wave (km/s) = 4.45758 4.88244 4.67484
#
# Compressibility (1/GPa) = 0.05664952
#
# Stress axis : x y z
#
# Youngs Moduli (GPa) = 56.75213 42.31019 66.88522
#
# Poissons Ratio (x) = -0.05457 0.03584
# Poissons Ratio (y) = -0.07320 0.03562
# Poissons Ratio (z) = 0.03041 0.02253
#
# Static dielectric constant tensor:
#      x y z
#    x 1.827810 0.000000 0.000000 
#    y 0.000000 1.862590 0.000000 
#    z 0.000000 0.000000 1.832320 
# 
# From -- ./inp_files/18397.got.cif
#   From: 2010.05.17/outbox.cif.g08.bks.cpg/sg55_10_cif.got.tgz:18397.got - 2010.06.03 13:27:54.
