data_PCOD9428687
_publ_section_title
;
Structure prediction by ZEFSAII (Michael W. Deem and Ramdas Pophale) SiO2 
 PCOD9428687
Probable space group: P B A M
;
_chemical_formula_sum "Si O2"
_cell_formula_units_Z 28
_cell_length_a 4.977018
_cell_length_b 11.737386
_cell_length_c 19.222266
_cell_angle_alpha 90.000000
_cell_angle_beta 90.000000
_cell_angle_gamma 90.000000
_cell_volume 1122.910600
_symmetry_space_group_name_H-M "P B A M"
_symmetry_group_IT_number 55
_symmetry_cell_setting 'orthorhombic'
loop_
_space_group_symop_operation_xyz
x,y,z
-x,-y,z
1/2+x,1/2-y,-z
1/2-x,1/2+y,-z
-x,-y,-z
x,y,-z
1/2-x,1/2+y,z
1/2+x,1/2-y,z
loop_
_atom_site_type_symbol
_atom_site_label
_atom_site_fract_x
_atom_site_fract_y
_atom_site_fract_z
Si Si1 0.698811 0.819292 0.848148
Si Si2 0.750705 0.416258 0.000000
Si Si3 0.781811 0.669480 0.651332
Si Si4 0.000000 0.000000 0.755307
Si Si5 0.668124 0.674003 0.500000
O O1 0.393452 0.787446 0.832683
O O2 0.738470 0.844248 0.929701
O O3 0.812154 0.922893 0.804016
O O4 0.500000 0.500000 0.000000
O O5 0.000000 0.500000 0.000000
O O6 0.578409 0.778027 0.658083
O O7 0.685978 0.577692 0.706322
O O8 0.739557 0.619042 0.573587
O O9 0.358891 0.712848 0.500000
#
# Coordination Sequence:
#
# PCOD9428687 Si02
#       5
#     8   4   8   4   4
#     4  12  27  46  70 100 135 177 219 274 337 393
#     4  12  24  48  76 101 129 172 224 276 326 393
#     4  10  22  41  63  94 130 174 224 277 335 389
#     4  12  26  42  68  96 140 178 222 274 328 420
#     4   8  16  35  62  87 124 168 220 279 327 386
#
# _framework density 24.935196000000001
#
# number of rings (size 3 to 8) (size 9 to 14) (size 15 to 20)
#    0.000    1.143    1.429    4.286    0.000    4.000 
#    0.000    0.000    0.000   10.286    0.000    0.000 
#    0.000    0.000    0.000    0.000    0.000    0.000 
#
# Total GULP energy -157179.062994 kJ/mol
# GULP energy per Si atom -5613.537964 kJ/mol
# Density = 2.487844 g / cm^3
# Si number density = 24.935196 Si / 1000 Ang^3
#
#
#
# Elastic Constant Matrix: (Units=GPa)
#
#
# Indices 1 2 3 4 5 6 
#
# 1 117.6348 14.5122 5.3797 0.0000 0.0000 0.0000
# 2 14.5122 73.1463 62.1086 0.0000 0.0000 0.0000
# 3 5.3797 62.1086 194.1749 0.0000 0.0000 0.0000
# 4 0.0000 0.0000 0.0000 -19.0892 0.0000 0.0000
# 5 0.0000 0.0000 0.0000 0.0000 28.4080 0.0000
# 6 0.0000 0.0000 0.0000 0.0000 0.0000 21.2420
#
#
#
# Elastic Compliance Matrix: (Units=1/GPa)
#
#
# Indices 1 2 3 4 5 6 
#
# 1 0.008740 -0.002098 0.000429 0.000000 0.000000 0.000000
# 2 -0.002098 0.019272 -0.006106 0.000000 0.000000 0.000000
# 3 0.000429 -0.006106 0.007091 0.000000 0.000000 0.000000
# 4 0.000000 0.000000 0.000000 -0.052386 0.000000 0.000000
# 5 0.000000 0.000000 0.000000 0.000000 0.035201 0.000000
# 6 0.000000 0.000000 0.000000 0.000000 0.000000 0.047076
#
#
# Mechanical properties :
#
#
# Convention : Reuss Voigt Hill
#
# Bulk Modulus (GPa) = 51.14417 60.99523 56.06970
# Shear Modulus (GPa) = 57.42863 26.30922 41.86892
#
# Velocity S-wave (km/s) = 4.80428 3.25176 4.10214
# Velocity P-wave (km/s) = 7.16451 6.21395 6.70610
#
# Compressibility (1/GPa) = 0.01955257
#
# Stress axis : x y z
#
# Youngs Moduli (GPa) = 114.41483 51.88765 141.01844
#
# Poissons Ratio (x) = 0.10888 -0.06050
# Poissons Ratio (y) = 0.24008 0.86110
# Poissons Ratio (z) = -0.04909 0.31684
#
# Static dielectric constant tensor:
#      x y z
#    x 1.895510 0.000000 0.000000 
#    y 0.000000 1.953410 0.000000 
#    z 0.000000 0.000000 1.948140 
# 
# From -- ./inp_files/22187.got.cif
#   From: 2010.05.17/outbox.cif.g08.bks.cpg/sg55_12_cif.got.tgz:22187.got - 2010.06.03 13:27:54.
