data_PCOD9428512
_publ_section_title
;
Structure prediction by ZEFSAII (Michael W. Deem and Ramdas Pophale) SiO2 
 PCOD9428512
Probable space group: P B A M
;
_chemical_formula_sum "Si O2"
_cell_formula_units_Z 48
_cell_length_a 16.654444
_cell_length_b 5.173236
_cell_length_c 26.785170
_cell_angle_alpha 90.000000
_cell_angle_beta 90.000000
_cell_angle_gamma 90.000000
_cell_volume 2307.739782
_symmetry_space_group_name_H-M "P B A M"
_symmetry_group_IT_number 55
_symmetry_cell_setting 'orthorhombic'
loop_
_space_group_symop_operation_xyz
x,y,z
-x,-y,z
1/2+x,1/2-y,-z
1/2-x,1/2+y,-z
-x,-y,-z
x,y,-z
1/2-x,1/2+y,z
1/2+x,1/2-y,z
loop_
_atom_site_type_symbol
_atom_site_label
_atom_site_fract_x
_atom_site_fract_y
_atom_site_fract_z
Si Si1 0.198584 0.984003 0.141008
Si Si2 0.306387 0.086642 0.715515
Si Si3 0.914452 0.849683 0.942612
Si Si4 0.196736 0.663449 0.395468
Si Si5 0.194643 0.542824 0.500000
Si Si6 0.927317 0.149851 0.212960
Si Si7 0.000000 0.500000 0.127715
O O1 0.266528 0.198616 0.145596
O O2 0.154064 0.006027 0.087993
O O3 0.137339 0.034977 0.186435
O O4 0.239034 0.313725 0.721287
O O5 0.339646 0.111404 0.658812
O O6 0.378224 0.151517 0.753149
O O7 0.931124 0.598245 0.909261
O O8 0.894479 0.797600 0.000000
O O9 0.000000 0.000000 0.941647
O O10 0.271001 0.457127 0.396630
O O11 0.151770 0.598519 0.447204
O O12 0.232679 0.256225 0.500000
O O13 0.967074 0.285527 0.164959
O O14 0.000000 0.000000 0.239424
#
# Coordination Sequence:
#
# PCOD9428512 Si02
#       7
#     8   8   8   8   4   8   4
#     4  12  25  43  65  92 124 150 188 238 293 349
#     4  10  22  38  57  86 121 154 193 245 304 345
#     4  11  24  44  68  92 119 157 193 234 287 353
#     4   8  14  26  44  71 109 146 185 234 286 344
#     4   8  12  20  40  68 101 145 186 226 282 338
#     4  12  25  40  63  87 116 159 203 242 290 353
#     4  12  21  44  66  90 118 153 208 242 280 346
#
# _framework density 20.799571
#
# number of rings (size 3 to 8) (size 9 to 14) (size 15 to 20)
#    0.000    1.500    3.333    2.250    2.333    0.667 
#    0.000    0.000    0.000    0.000    0.000    0.583 
#    0.000    0.667    0.000    0.833    0.000    0.167 
#
# Total GULP energy -267961.688601 kJ/mol
# GULP energy per Si atom -5582.535179 kJ/mol
# Density = 2.075223 g / cm^3
# Si number density = 20.799571 Si / 1000 Ang^3
#
#
#
# Elastic Constant Matrix: (Units=GPa)
#
#
# Indices 1 2 3 4 5 6 
#
# 1 40.4895 1.7558 19.2981 0.0000 0.0000 0.0000
# 2 1.7558 73.5798 2.2948 0.0000 0.0000 0.0000
# 3 19.2981 2.2948 130.4850 0.0000 0.0000 0.0000
# 4 0.0000 0.0000 0.0000 15.5780 0.0000 0.0000
# 5 0.0000 0.0000 0.0000 0.0000 6.9411 0.0000
# 6 0.0000 0.0000 0.0000 0.0000 0.0000 13.7263
#
#
#
# Elastic Compliance Matrix: (Units=1/GPa)
#
#
# Indices 1 2 3 4 5 6 
#
# 1 0.026590 -0.000512 -0.003924 0.000000 0.000000 0.000000
# 2 -0.000512 0.013608 -0.000164 0.000000 0.000000 0.000000
# 3 -0.003924 -0.000164 0.008247 0.000000 0.000000 0.000000
# 4 0.000000 0.000000 0.000000 0.064193 0.000000 0.000000
# 5 0.000000 0.000000 0.000000 0.000000 0.144069 0.000000
# 6 0.000000 0.000000 0.000000 0.000000 0.000000 0.072853
#
#
# Mechanical properties :
#
#
# Convention : Reuss Voigt Hill
#
# Bulk Modulus (GPa) = 25.48006 32.36130 28.92068
# Shear Modulus (GPa) = 14.21101 21.99613 18.10357
#
# Velocity S-wave (km/s) = 2.61671 3.25549 2.95342
# Velocity P-wave (km/s) = 4.62671 5.45192 5.05618
#
# Compressibility (1/GPa) = 0.03924638
#
# Stress axis : x y z
#
# Youngs Moduli (GPa) = 37.60812 73.48610 121.25823
#
# Poissons Ratio (x) = 0.03764 0.47576
# Poissons Ratio (y) = 0.01926 0.01984
# Poissons Ratio (z) = 0.14756 0.01202
#
# Static dielectric constant tensor:
#      x y z
#    x 1.766370 0.000000 0.000000 
#    y 0.000000 1.797750 0.000000 
#    z 0.000000 0.000000 1.799660 
# 
# From -- ./inp_files/23818.got.cif
#   From: 2010.05.17/outbox.cif.g08.bks.cpg/sg55_12_cif.got.tgz:23818.got - 2010.06.03 13:27:54.
