data_PCOD9428572
_publ_section_title
;
Structure prediction by ZEFSAII (Michael W. Deem and Ramdas Pophale) SiO2 
 PCOD9428572
Probable space group: P B A M
;
_chemical_formula_sum "Si O2"
_cell_formula_units_Z 56
_cell_length_a 21.935739
_cell_length_b 14.999892
_cell_length_c 8.707889
_cell_angle_alpha 90.000000
_cell_angle_beta 90.000000
_cell_angle_gamma 90.000000
_cell_volume 2865.189076
_symmetry_space_group_name_H-M "P B A M"
_symmetry_group_IT_number 55
_symmetry_cell_setting 'orthorhombic'
loop_
_space_group_symop_operation_xyz
x,y,z
-x,-y,z
1/2+x,1/2-y,-z
1/2-x,1/2+y,-z
-x,-y,-z
x,y,-z
1/2-x,1/2+y,z
1/2+x,1/2-y,z
loop_
_atom_site_type_symbol
_atom_site_label
_atom_site_fract_x
_atom_site_fract_y
_atom_site_fract_z
Si Si1 0.540355 0.583727 0.814375
Si Si2 0.259537 0.613240 0.685167
Si Si3 0.484317 0.218627 0.185058
Si Si4 0.096331 0.405856 0.814535
Si Si5 0.676055 0.571971 0.684208
Si Si6 0.279911 0.804106 0.816146
Si Si7 0.617950 0.902663 0.316391
O O1 0.500000 0.500000 0.762999
O O2 0.510425 0.678157 0.770315
O O3 0.608194 0.580063 0.748117
O O4 0.544212 0.580862 0.000000
O O5 0.261827 0.620299 0.500000
O O6 0.295174 0.523647 0.730193
O O7 0.285429 0.703265 0.757555
O O8 0.188605 0.604546 0.731358
O O9 0.541146 0.158024 0.235007
O O10 0.422576 0.176822 0.250522
O O11 0.481823 0.214596 0.000000
O O12 0.160718 0.361403 0.770342
O O13 0.091992 0.503877 0.744816
O O14 0.094636 0.412970 0.000000
O O15 0.675458 0.576951 0.500000
O O16 0.720185 0.649071 0.747164
O O17 0.275975 0.804488 0.000000
O O18 0.615616 0.901376 0.500000
#
# Coordination Sequence:
#
# PCOD9428572 Si02
#       7
#     8   8   8   8   8   8   8
#     4  10  23  42  66  92 123 161 207 259 306 358
#     4  10  23  40  60  87 123 163 198 245 306 364
#     4  10  22  40  60  86 122 161 199 246 307 360
#     4  10  22  39  60  88 121 157 197 249 306 362
#     4  11  23  42  64  89 126 165 202 248 307 371
#     4  11  23  38  63  94 121 157 208 258 306 361
#     4  11  22  39  61  89 121 158 201 245 299 361
#
# _framework density 19.544958999999999
#
# number of rings (size 3 to 8) (size 9 to 14) (size 15 to 20)
#    0.000    1.571    1.429    2.571    2.000    8.286 
#    0.000    0.000    0.000    0.000    0.000    0.000 
#    0.000    0.000    0.000    0.000    0.000    0.000 
#
# Total GULP energy -313132.857973 kJ/mol
# GULP energy per Si atom -5591.658178 kJ/mol
# Density = 1.950047 g / cm^3
# Si number density = 19.544959 Si / 1000 Ang^3
#
#
#
# Elastic Constant Matrix: (Units=GPa)
#
#
# Indices 1 2 3 4 5 6 
#
# 1 39.3502 -7.8557 3.4803 0.0000 0.0000 0.0000
# 2 -7.8557 101.4972 14.9699 0.0000 0.0000 0.0000
# 3 3.4803 14.9699 7.3010 0.0000 0.0000 0.0000
# 4 0.0000 0.0000 0.0000 24.7983 0.0000 0.0000
# 5 0.0000 0.0000 0.0000 0.0000 22.9209 0.0000
# 6 0.0000 0.0000 0.0000 0.0000 0.0000 29.9885
#
#
#
# Elastic Compliance Matrix: (Units=1/GPa)
#
#
# Indices 1 2 3 4 5 6 
#
# 1 0.028971 0.006134 -0.026388 0.000000 0.000000 0.000000
# 2 0.006134 0.015423 -0.034546 0.000000 0.000000 0.000000
# 3 -0.026388 -0.034546 0.220380 0.000000 0.000000 0.000000
# 4 0.000000 0.000000 0.000000 0.040325 0.000000 0.000000
# 5 0.000000 0.000000 0.000000 0.000000 0.043628 0.000000
# 6 0.000000 0.000000 0.000000 0.000000 0.000000 0.033346
#
#
# Mechanical properties :
#
#
# Convention : Reuss Voigt Hill
#
# Bulk Modulus (GPa) = 6.44438 18.81525 12.62982
# Shear Modulus (GPa) = 9.20136 24.71181 16.95659
#
# Velocity S-wave (km/s) = 2.17210 3.55964 2.94865
# Velocity P-wave (km/s) = 3.09759 5.15192 4.25072
#
# Compressibility (1/GPa) = 0.15517397
#
# Stress axis : x y z
#
# Youngs Moduli (GPa) = 34.51691 64.84017 4.53762
#
# Poissons Ratio (x) = -0.39775 0.11974
# Poissons Ratio (y) = -0.21174 0.15676
# Poissons Ratio (z) = 0.91083 2.23999
#
# Static dielectric constant tensor:
#      x y z
#    x 1.659790 0.000000 0.000000 
#    y 0.000000 1.668270 0.000000 
#    z 0.000000 0.000000 1.658460 
# 
# From -- ./inp_files/6064.got.cif
#   From: 2010.05.17/outbox.cif.g08.bks.cpg/sg55_4_cif.got.tgz:6064.got - 2010.06.03 13:27:54.
