data_PCOD9428028
_publ_section_title
;
Structure prediction by ZEFSAII (Michael W. Deem and Ramdas Pophale) SiO2 
 PCOD9428028
Probable space group: P B A M
;
_chemical_formula_sum "Si O2"
_cell_formula_units_Z 64
_cell_length_a 13.082375
_cell_length_b 28.781462
_cell_length_c 7.575567
_cell_angle_alpha 90.000000
_cell_angle_beta 90.000000
_cell_angle_gamma 90.000000
_cell_volume 2852.427325
_symmetry_space_group_name_H-M "P B A M"
_symmetry_group_IT_number 55
_symmetry_cell_setting 'orthorhombic'
loop_
_space_group_symop_operation_xyz
x,y,z
-x,-y,z
1/2+x,1/2-y,-z
1/2-x,1/2+y,-z
-x,-y,-z
x,y,-z
1/2-x,1/2+y,z
1/2+x,1/2-y,z
loop_
_atom_site_type_symbol
_atom_site_label
_atom_site_fract_x
_atom_site_fract_y
_atom_site_fract_z
Si Si1 0.364208 0.137444 0.285910
Si Si2 0.320825 0.704969 0.793984
Si Si3 0.240956 0.544057 0.711730
Si Si4 0.770673 0.200717 0.798110
Si Si5 0.523848 0.652430 0.217739
Si Si6 0.590163 0.033351 0.792869
Si Si7 0.025651 0.050447 0.204075
Si Si8 0.088584 0.360888 0.297779
O O1 0.365524 0.138622 0.500000
O O2 0.273366 0.169698 0.221117
O O3 0.336846 0.084824 0.232709
O O4 0.476708 0.151950 0.224593
O O5 0.280611 0.753463 0.715502
O O6 0.422547 0.680157 0.722711
O O7 0.344434 0.713950 0.000000
O O8 0.249088 0.544874 0.500000
O O9 0.194625 0.495100 0.769156
O O10 0.351901 0.554552 0.788352
O O11 0.683713 0.161603 0.798719
O O12 0.874471 0.179171 0.722480
O O13 0.797471 0.213592 0.000000
O O14 0.519114 0.598610 0.278031
O O15 0.522816 0.650719 0.000000
O O16 0.593182 0.083406 0.705882
O O17 0.500000 0.000000 0.721884
O O18 0.571251 0.040889 0.000000
O O19 0.990835 0.048403 0.000000
O O20 0.000000 0.000000 0.285218
O O21 0.094581 0.344948 0.500000
#
# Coordination Sequence:
#
# PCOD9428028 Si02
#       8
#     8   8   8   8   8   8   8   8
#     4  10  22  39  60  87 122 158 197 249 306 363
#     4  10  21  38  65  91 116 155 204 256 304 360
#     4  11  22  38  59  86 121 158 199 249 304 365
#     4  10  23  40  62  91 122 158 203 255 309 364
#     4   9  19  38  58  86 124 154 193 253 308 354
#     4  11  23  38  60  89 120 158 202 246 296 361
#     4  10  21  37  59  85 118 160 203 249 302 360
#     4  11  24  42  61  87 126 166 203 249 309 367
#
# _framework density 22.437031999999999
#
# number of rings (size 3 to 8) (size 9 to 14) (size 15 to 20)
#    0.000    1.750    2.500    1.125    3.500    2.750 
#    0.000    1.250    0.000    0.000    0.000    0.000 
#    0.000    0.000    0.000    0.000    0.000    0.000 
#
# Total GULP energy -357630.908025 kJ/mol
# GULP energy per Si atom -5587.982938 kJ/mol
# Density = 2.238596 g / cm^3
# Si number density = 22.437032 Si / 1000 Ang^3
#
#
#
# Elastic Constant Matrix: (Units=GPa)
#
#
# Indices 1 2 3 4 5 6 
#
# 1 132.2268 78.0306 -3.2615 0.0000 0.0000 0.0000
# 2 78.0306 148.1915 1.8564 0.0000 0.0000 0.0000
# 3 -3.2615 1.8564 57.4328 0.0000 0.0000 0.0000
# 4 0.0000 0.0000 0.0000 22.5507 0.0000 0.0000
# 5 0.0000 0.0000 0.0000 0.0000 -53.8947 0.0000
# 6 0.0000 0.0000 0.0000 0.0000 0.0000 30.0709
#
#
#
# Elastic Compliance Matrix: (Units=1/GPa)
#
#
# Indices 1 2 3 4 5 6 
#
# 1 0.011010 -0.005808 0.000813 0.000000 0.000000 0.000000
# 2 -0.005808 0.009814 -0.000647 0.000000 0.000000 0.000000
# 3 0.000813 -0.000647 0.017479 0.000000 0.000000 0.000000
# 4 0.000000 0.000000 0.000000 0.044344 0.000000 0.000000
# 5 0.000000 0.000000 0.000000 0.000000 -0.018555 0.000000
# 6 0.000000 0.000000 0.000000 0.000000 0.000000 0.033255
#
#
# Mechanical properties :
#
#
# Convention : Reuss Voigt Hill
#
# Bulk Modulus (GPa) = 37.01010 54.56690 45.78850
# Shear Modulus (GPa) = 42.50361 17.16042 29.83202
#
# Velocity S-wave (km/s) = 4.35714 2.76855 3.65031
# Velocity P-wave (km/s) = 6.46867 5.88155 6.18209
#
# Compressibility (1/GPa) = 0.02701965
#
# Stress axis : x y z
#
# Youngs Moduli (GPa) = 90.82654 101.89418 57.21236
#
# Poissons Ratio (x) = 0.59175 -0.04651
# Poissons Ratio (y) = 0.52748 0.03702
# Poissons Ratio (z) = -0.07384 0.06593
#
# Static dielectric constant tensor:
#      x y z
#    x 1.796020 0.000000 0.000000 
#    y 0.000000 1.819530 0.000000 
#    z 0.000000 0.000000 1.840150 
# 
# From -- ./inp_files/4491.got.cif
#   From: 2010.05.17/outbox.cif.g08.bks.cpg/sg55_3_cif.got.tgz:4491.got - 2010.06.03 13:27:54.
