data_PCOD9428858
_publ_section_title
;
Structure prediction by ZEFSAII (Michael W. Deem and Ramdas Pophale) SiO2 
 PCOD9428858
Probable space group: P B A M
;
_chemical_formula_sum "Si O2"
_cell_formula_units_Z 58
_cell_length_a 7.001910
_cell_length_b 23.815103
_cell_length_c 15.691496
_cell_angle_alpha 90.000000
_cell_angle_beta 90.000000
_cell_angle_gamma 90.000000
_cell_volume 2616.575911
_symmetry_space_group_name_H-M "P B A M"
_symmetry_group_IT_number 55
_symmetry_cell_setting 'orthorhombic'
loop_
_space_group_symop_operation_xyz
x,y,z
-x,-y,z
1/2+x,1/2-y,-z
1/2-x,1/2+y,-z
-x,-y,-z
x,y,-z
1/2-x,1/2+y,z
1/2+x,1/2-y,z
loop_
_atom_site_type_symbol
_atom_site_label
_atom_site_fract_x
_atom_site_fract_y
_atom_site_fract_z
Si Si1 0.115448 0.666679 0.408045
Si Si2 0.568593 0.702599 0.903211
Si Si3 0.375429 0.170508 0.096310
Si Si4 0.133113 0.868073 0.252707
Si Si5 0.000000 0.500000 0.500000
Si Si6 0.446396 0.295548 0.592733
Si Si7 0.315692 0.097085 0.248899
Si Si8 0.276283 0.484504 0.335001
O O1 0.063133 0.640660 0.500000
O O2 0.032097 0.728863 0.398827
O O3 0.343258 0.678019 0.410113
O O4 0.084429 0.627829 0.328260
O O5 0.353617 0.679793 0.908106
O O6 0.555679 0.767605 0.874068
O O7 0.677771 0.663020 0.836321
O O8 0.646979 0.703662 0.000000
O O9 0.406748 0.120417 0.162506
O O10 0.442199 0.159329 0.000000
O O11 0.158339 0.823005 0.328263
O O12 0.225086 0.925882 0.283940
O O13 0.905731 0.882226 0.247844
O O14 0.839931 0.513540 0.423220
O O15 0.355141 0.306201 0.500000
O O16 0.305042 0.032208 0.271758
O O17 0.500000 0.500000 0.352202
#
# Coordination Sequence:
#
# PCOD9428858 Si02
#       8
#     8   8   8   8   2   8   8   8
#     4   9  17  29  44  68  96 130 173 216 271 340
#     4   9  17  31  53  84 116 148 191 237 286 352
#     4   9  17  31  53  84 116 148 191 237 286 352
#     4   9  18  34  55  75 105 149 189 230 289 347
#     4  12  26  44  60  94 110 148 218 252 272 364
#     4   9  17  29  44  68  96 130 173 216 271 340
#     4   9  18  34  55  75 105 149 189 230 289 347
#     4  10  23  43  62  82 117 156 194 248 303 337
#
# _framework density 22.166374999999999
#
# number of rings (size 3 to 8) (size 9 to 14) (size 15 to 20)
#    0.000    2.759    0.000    1.034    1.931    0.000 
#    4.966    0.690    0.000    4.138    0.000    0.966 
#    0.000    0.000    0.000    0.000    0.000    0.276 
#
# Total GULP energy -323591.727310 kJ/mol
# GULP energy per Si atom -5579.167712 kJ/mol
# Density = 2.211592 g / cm^3
# Si number density = 22.166375 Si / 1000 Ang^3
#
#
#
# Elastic Constant Matrix: (Units=GPa)
#
#
# Indices 1 2 3 4 5 6 
#
# 1 79.4711 24.3751 25.0135 0.0000 0.0000 0.0000
# 2 24.3751 94.8310 97.4501 0.0000 0.0000 0.0000
# 3 25.0135 97.4501 149.6896 0.0000 0.0000 0.0000
# 4 0.0000 0.0000 0.0000 22.5746 0.0000 0.0000
# 5 0.0000 0.0000 0.0000 0.0000 6.2969 0.0000
# 6 0.0000 0.0000 0.0000 0.0000 0.0000 19.5442
#
#
#
# Elastic Compliance Matrix: (Units=1/GPa)
#
#
# Indices 1 2 3 4 5 6 
#
# 1 0.013660 -0.003521 0.000010 0.000000 0.000000 0.000000
# 2 -0.003521 0.032765 -0.020742 0.000000 0.000000 0.000000
# 3 0.000010 -0.020742 0.020182 0.000000 0.000000 0.000000
# 4 0.000000 0.000000 0.000000 0.044298 0.000000 0.000000
# 5 0.000000 0.000000 0.000000 0.000000 0.158809 0.000000
# 6 0.000000 0.000000 0.000000 0.000000 0.000000 0.051166
#
#
# Mechanical properties :
#
#
# Convention : Reuss Voigt Hill
#
# Bulk Modulus (GPa) = 55.24747 68.62991 61.93869
# Shear Modulus (GPa) = 13.31835 21.49333 17.40584
#
# Velocity S-wave (km/s) = 2.45385 3.11728 2.80525
# Velocity P-wave (km/s) = 5.74514 6.63212 6.20450
#
# Compressibility (1/GPa) = 0.01810037
#
# Stress axis : x y z
#
# Youngs Moduli (GPa) = 73.20581 30.52010 49.54803
#
# Poissons Ratio (x) = 0.10746 -0.00047
# Poissons Ratio (y) = 0.25776 1.02774
# Poissons Ratio (z) = -0.00070 0.63306
#
# Static dielectric constant tensor:
#      x y z
#    x 1.909170 0.000000 0.000000 
#    y 0.000000 1.730210 0.000000 
#    z 0.000000 0.000000 1.802360 
# 
# From -- ./inp_files/17787.got.cif
#   From: 2010.05.17/outbox.cif.g08.bks.cpg/sg55_9_cif.got.tgz:17787.got - 2010.06.03 13:27:54.
