data_PCOD9428125
_publ_section_title
;
Structure prediction by ZEFSAII (Michael W. Deem and Ramdas Pophale) SiO2 
 PCOD9428125
Probable space group: P B A M
;
_chemical_formula_sum "Si O2"
_cell_formula_units_Z 34
_cell_length_a 7.186660
_cell_length_b 23.698709
_cell_length_c 7.546212
_cell_angle_alpha 90.000000
_cell_angle_beta 90.000000
_cell_angle_gamma 90.000000
_cell_volume 1285.229807
_symmetry_space_group_name_H-M "P B A M"
_symmetry_group_IT_number 55
_symmetry_cell_setting 'orthorhombic'
loop_
_space_group_symop_operation_xyz
x,y,z
-x,-y,z
1/2+x,1/2-y,-z
1/2-x,1/2+y,-z
-x,-y,-z
x,y,-z
1/2-x,1/2+y,z
1/2+x,1/2-y,z
loop_
_atom_site_type_symbol
_atom_site_label
_atom_site_fract_x
_atom_site_fract_y
_atom_site_fract_z
Si Si1 0.387927 0.796161 0.295420
Si Si2 0.000000 0.500000 0.500000
Si Si3 0.008467 0.415974 0.793631
Si Si4 0.547856 0.325289 0.703014
Si Si5 0.428801 0.441818 0.207775
O O1 0.448452 0.789330 0.500000
O O2 0.509408 0.847835 0.220311
O O3 0.174627 0.815088 0.293118
O O4 0.384507 0.733454 0.213967
O O5 0.912609 0.457528 0.656608
O O6 0.223149 0.426369 0.725255
O O7 0.982314 0.431113 0.000000
O O8 0.613234 0.328115 0.500000
O O9 0.565210 0.388075 0.778217
O O10 0.500000 0.500000 0.287105
O O11 0.398520 0.450811 0.000000
#
# Coordination Sequence:
#
# PCOD9428125 Si02
#       5
#     8   2   8   8   8
#     4   9  17  35  54  80 113 148 191 237 289 342
#     4  12  22  40  58  82 116 152 196 234 278 356
#     4  10  21  38  60  83 116 157 190 236 295 344
#     4   9  18  32  55  80 110 149 189 237 287 343
#     4   9  19  37  57  81 114 150 193 240 291 348
#
# _framework density 26.454415000000001
#
# number of rings (size 3 to 8) (size 9 to 14) (size 15 to 20)
#    0.000    2.588    1.176    0.353    1.647    1.412 
#    4.235    0.000    0.000    0.000    0.000    0.000 
#    0.000    0.000    0.000    0.000    0.000    0.000 
#
# Total GULP energy -189388.148712 kJ/mol
# GULP energy per Si atom -5570.239668 kJ/mol
# Density = 2.639420 g / cm^3
# Si number density = 26.454415 Si / 1000 Ang^3
#
#
#
# Elastic Constant Matrix: (Units=GPa)
#
#
# Indices 1 2 3 4 5 6 
#
# 1 43.7195 29.2478 -4.1116 0.0000 0.0000 0.0000
# 2 29.2478 231.7748 28.8535 0.0000 0.0000 0.0000
# 3 -4.1116 28.8535 118.8054 0.0000 0.0000 0.0000
# 4 0.0000 0.0000 0.0000 35.6542 0.0000 0.0000
# 5 0.0000 0.0000 0.0000 0.0000 -0.7765 0.0000
# 6 0.0000 0.0000 0.0000 0.0000 0.0000 43.4758
#
#
#
# Elastic Compliance Matrix: (Units=1/GPa)
#
#
# Indices 1 2 3 4 5 6 
#
# 1 0.025312 -0.003406 0.001703 0.000000 0.000000 0.000000
# 2 -0.003406 0.004907 -0.001310 0.000000 0.000000 0.000000
# 3 0.001703 -0.001310 0.008794 0.000000 0.000000 0.000000
# 4 0.000000 0.000000 0.000000 0.028047 0.000000 0.000000
# 5 0.000000 0.000000 0.000000 0.000000 -1.287889 0.000000
# 6 0.000000 0.000000 0.000000 0.000000 0.000000 0.023001
#
#
# Mechanical properties :
#
#
# Convention : Reuss Voigt Hill
#
# Bulk Modulus (GPa) = 30.31388 55.80880 43.06134
# Shear Modulus (GPa) = -4.23440 38.35804 17.06182
#
# Velocity S-wave (km/s) = -1.26654 3.81197 2.54235
# Velocity P-wave (km/s) = 3.05695 6.36529 4.99309
#
# Compressibility (1/GPa) = 0.03298819
#
# Stress axis : x y z
#
# Youngs Moduli (GPa) = 39.50705 203.77364 113.71191
#
# Poissons Ratio (x) = 0.69409 -0.19368
# Poissons Ratio (y) = 0.13457 0.14893
# Poissons Ratio (z) = -0.06729 0.26688
#
# Static dielectric constant tensor:
#      x y z
#    x 2.228540 0.000000 0.000000 
#    y 0.000000 2.192530 0.000000 
#    z 0.000000 0.000000 2.000460 
# 
# From -- ./inp_files/2118.got.cif
#   From: 2010.05.17/outbox.cif.g08.bks.cpg/sg55_2_cif.got.tgz:2118.got - 2010.06.03 13:27:54.
