data_PCOD9428235
_publ_section_title
;
Structure prediction by ZEFSAII (Michael W. Deem and Ramdas Pophale) SiO2 
 PCOD9428235
Probable space group: P B A M
;
_chemical_formula_sum "Si O2"
_cell_formula_units_Z 40
_cell_length_a 27.135988
_cell_length_b 9.524060
_cell_length_c 7.697831
_cell_angle_alpha 90.000000
_cell_angle_beta 90.000000
_cell_angle_gamma 90.000000
_cell_volume 1989.464223
_symmetry_space_group_name_H-M "P B A M"
_symmetry_group_IT_number 55
_symmetry_cell_setting 'orthorhombic'
loop_
_space_group_symop_operation_xyz
x,y,z
-x,-y,z
1/2+x,1/2-y,-z
1/2-x,1/2+y,-z
-x,-y,-z
x,y,-z
1/2-x,1/2+y,z
1/2+x,1/2-y,z
loop_
_atom_site_type_symbol
_atom_site_label
_atom_site_fract_x
_atom_site_fract_y
_atom_site_fract_z
Si Si1 0.284012 0.307026 0.289430
Si Si2 0.400347 0.810806 0.199138
Si Si3 0.377663 0.494715 0.800759
Si Si4 0.020263 0.345205 0.500000
Si Si5 0.951088 0.093625 0.500000
Si Si6 0.191497 0.489743 0.289420
O O1 0.283951 0.305402 0.500000
O O2 0.327704 0.409688 0.230843
O O3 0.232765 0.377217 0.232500
O O4 0.293916 0.147025 0.231836
O O5 0.372739 0.661861 0.230456
O O6 0.445120 0.818171 0.333447
O O7 0.361541 0.935822 0.228210
O O8 0.417521 0.812131 0.000000
O O9 0.418151 0.439096 0.667080
O O10 0.393274 0.475546 0.000000
O O11 0.000000 0.500000 0.500000
O O12 0.972342 0.248466 0.500000
O O13 0.000000 0.000000 0.500000
O O14 0.190668 0.490430 0.500000
#
# Coordination Sequence:
#
# PCOD9428235 Si02
#       6
#     8   8   8   4   4   8
#     4  10  21  38  65  98 131 172 213 257 314 379
#     4  11  24  43  66  96 130 168 212 262 318 379
#     4  11  24  41  67  98 129 165 214 262 316 381
#     4  12  28  46  69  92 129 166 213 268 325 380
#     4  12  24  46  71  92 123 170 211 268 321 374
#     4  10  21  38  65  96 132 172 213 257 313 380
#
# _framework density 20.105917000000002
#
# number of rings (size 3 to 8) (size 9 to 14) (size 15 to 20)
#    0.000    1.200    4.000    1.200    2.800    4.800 
#    0.000    0.000    0.000    0.000    0.000    0.000 
#    0.000    0.000    0.000    0.000    0.000    0.000 
#
# Total GULP energy -223658.595918 kJ/mol
# GULP energy per Si atom -5591.464898 kJ/mol
# Density = 2.006016 g / cm^3
# Si number density = 20.105917 Si / 1000 Ang^3
#
#
#
# Elastic Constant Matrix: (Units=GPa)
#
#
# Indices 1 2 3 4 5 6 
#
# 1 54.4368 2.1862 25.3453 0.0000 0.0000 0.0000
# 2 2.1862 115.2413 23.0655 0.0000 0.0000 0.0000
# 3 25.3453 23.0655 76.4826 0.0000 0.0000 0.0000
# 4 0.0000 0.0000 0.0000 17.9622 0.0000 0.0000
# 5 0.0000 0.0000 0.0000 0.0000 -16.6793 0.0000
# 6 0.0000 0.0000 0.0000 0.0000 0.0000 47.1803
#
#
#
# Elastic Compliance Matrix: (Units=1/GPa)
#
#
# Indices 1 2 3 4 5 6 
#
# 1 0.021852 0.001101 -0.007574 0.000000 0.000000 0.000000
# 2 0.001101 0.009290 -0.003167 0.000000 0.000000 0.000000
# 3 -0.007574 -0.003167 0.016540 0.000000 0.000000 0.000000
# 4 0.000000 0.000000 0.000000 0.055672 0.000000 0.000000
# 5 0.000000 0.000000 0.000000 0.000000 -0.059955 0.000000
# 6 0.000000 0.000000 0.000000 0.000000 0.000000 0.021195
#
#
# Mechanical properties :
#
#
# Convention : Reuss Voigt Hill
#
# Bulk Modulus (GPa) = 35.20638 38.59496 36.90067
# Shear Modulus (GPa) = 53.56716 22.73024 38.14870
#
# Velocity S-wave (km/s) = 5.16724 3.36598 4.36063
# Velocity P-wave (km/s) = 7.29033 5.86037 6.61411
#
# Compressibility (1/GPa) = 0.02840395
#
# Stress axis : x y z
#
# Youngs Moduli (GPa) = 45.76274 107.63836 60.46082
#
# Poissons Ratio (x) = -0.11854 0.45790
# Poissons Ratio (y) = -0.05040 0.19146
# Poissons Ratio (z) = 0.34658 0.34086
#
# Static dielectric constant tensor:
#      x y z
#    x 1.609500 0.000000 0.000000 
#    y 0.000000 1.659260 0.000000 
#    z 0.000000 0.000000 1.714880 
# 
# From -- ./inp_files/9343.got.cif
#   From: 2010.05.17/outbox.cif.g08.bks.cpg/sg55_5_cif.got.tgz:9343.got - 2010.06.03 13:27:54.
