data_PCOD9428065
_publ_section_title
;
Structure prediction by ZEFSAII (Michael W. Deem and Ramdas Pophale) SiO2 
 PCOD9428065
Probable space group: P B A M
;
_chemical_formula_sum "Si O2"
_cell_formula_units_Z 64
_cell_length_a 18.017021
_cell_length_b 15.698510
_cell_length_c 11.760172
_cell_angle_alpha 90.000000
_cell_angle_beta 90.000000
_cell_angle_gamma 90.000000
_cell_volume 3326.251568
_symmetry_space_group_name_H-M "P B A M"
_symmetry_group_IT_number 55
_symmetry_cell_setting 'orthorhombic'
loop_
_space_group_symop_operation_xyz
x,y,z
-x,-y,z
1/2+x,1/2-y,-z
1/2-x,1/2+y,-z
-x,-y,-z
x,y,-z
1/2-x,1/2+y,z
1/2+x,1/2-y,z
loop_
_atom_site_type_symbol
_atom_site_label
_atom_site_fract_x
_atom_site_fract_y
_atom_site_fract_z
Si Si1 0.189784 0.273956 0.372939
Si Si2 0.803796 0.895416 0.226369
Si Si3 0.411392 0.308247 0.709078
Si Si4 0.211433 0.931618 0.367176
Si Si5 0.492373 0.100522 0.875229
Si Si6 0.979203 0.672068 0.624316
Si Si7 0.028900 0.096979 0.868139
Si Si8 0.333303 0.186015 0.877206
O O1 0.221355 0.264200 0.500000
O O2 0.201464 0.186806 0.307407
O O3 0.226886 0.361815 0.329716
O O4 0.101744 0.286329 0.378981
O O5 0.886088 0.898187 0.173329
O O6 0.737719 0.873572 0.139995
O O7 0.788757 0.983134 0.292721
O O8 0.367515 0.383693 0.647483
O O9 0.455348 0.241814 0.630963
O O10 0.473978 0.345281 0.793682
O O11 0.350395 0.255860 0.781353
O O12 0.223877 0.952391 0.500000
O O13 0.520000 0.128410 0.749578
O O14 0.406812 0.128562 0.875526
O O15 0.500000 0.000000 0.878524
O O16 0.523171 0.133217 0.000000
O O17 0.987280 0.625946 0.500000
O O18 0.024676 0.122679 0.000000
O O19 0.000000 0.000000 0.858371
O O20 0.327612 0.229577 0.000000
#
# Coordination Sequence:
#
# PCOD9428065 Si02
#       8
#     8   8   8   8   8   8   8   8
#     4  10  22  41  60  86 126 160 204 262 311 375
#     4  12  22  41  64  90 124 165 211 252 314 381
#     4  11  20  41  63  87 125 161 207 256 316 381
#     4  11  24  40  62  92 124 165 206 256 319 381
#     4   9  20  39  61  87 124 164 208 259 313 374
#     4  10  21  37  62  91 121 160 207 263 316 371
#     4  11  23  39  61  91 126 162 205 261 319 376
#     4  10  22  39  61  88 122 164 210 258 309 373
#
# _framework density 19.240877999999999
#
# number of rings (size 3 to 8) (size 9 to 14) (size 15 to 20)
#    0.000    1.500    3.750    1.500    1.750    0.750 
#    0.000    1.250    0.000    0.000    0.000    0.000 
#    0.000    0.000    0.000    0.000    0.000    0.000 
#
# Total GULP energy -356559.032721 kJ/mol
# GULP energy per Si atom -5571.234886 kJ/mol
# Density = 1.919709 g / cm^3
# Si number density = 19.240878 Si / 1000 Ang^3
#
#
#
# Elastic Constant Matrix: (Units=GPa)
#
#
# Indices 1 2 3 4 5 6 
#
# 1 32.3564 12.0931 11.3796 0.0000 0.0000 0.0000
# 2 12.0931 66.7067 39.0437 0.0000 0.0000 0.0000
# 3 11.3796 39.0437 113.8730 0.0000 0.0000 0.0000
# 4 0.0000 0.0000 0.0000 38.2043 0.0000 0.0000
# 5 0.0000 0.0000 0.0000 0.0000 18.6202 0.0000
# 6 0.0000 0.0000 0.0000 0.0000 0.0000 27.0722
#
#
#
# Elastic Compliance Matrix: (Units=1/GPa)
#
#
# Indices 1 2 3 4 5 6 
#
# 1 0.033377 -0.005128 -0.001577 0.000000 0.000000 0.000000
# 2 -0.005128 0.019543 -0.006188 0.000000 0.000000 0.000000
# 3 -0.001577 -0.006188 0.011061 0.000000 0.000000 0.000000
# 4 0.000000 0.000000 0.000000 0.026175 0.000000 0.000000
# 5 0.000000 0.000000 0.000000 0.000000 0.053705 0.000000
# 6 0.000000 0.000000 0.000000 0.000000 0.000000 0.036938
#
#
# Mechanical properties :
#
#
# Convention : Reuss Voigt Hill
#
# Bulk Modulus (GPa) = 26.18185 37.55210 31.86698
# Shear Modulus (GPa) = 22.79811 26.80734 24.80272
#
# Velocity S-wave (km/s) = 3.44594 3.73667 3.59425
# Velocity P-wave (km/s) = 5.42859 6.17869 5.81575
#
# Compressibility (1/GPa) = 0.03819440
#
# Stress axis : x y z
#
# Youngs Moduli (GPa) = 29.96079 51.17052 90.40711
#
# Poissons Ratio (x) = 0.26238 0.14260
# Poissons Ratio (y) = 0.15363 0.55945
# Poissons Ratio (z) = 0.04726 0.31665
#
# Static dielectric constant tensor:
#      x y z
#    x 1.669070 0.000000 0.000000 
#    y 0.000000 1.663720 0.000000 
#    z 0.000000 0.000000 1.758010 
# 
# From -- ./inp_files/14999.got.cif
#   From: 2010.05.17/outbox.cif.g08.bks.cpg/sg55_8_cif.got.tgz:14999.got - 2010.06.03 13:27:54.
