data_PCOD9428779
_publ_section_title
;
Structure prediction by ZEFSAII (Michael W. Deem and Ramdas Pophale) SiO2 
 PCOD9428779
Probable space group: P B A M
;
_chemical_formula_sum "Si O2"
_cell_formula_units_Z 34
_cell_length_a 8.815014
_cell_length_b 10.516746
_cell_length_c 17.810168
_cell_angle_alpha 90.000000
_cell_angle_beta 90.000000
_cell_angle_gamma 90.000000
_cell_volume 1651.096313
_symmetry_space_group_name_H-M "P B A M"
_symmetry_group_IT_number 55
_symmetry_cell_setting 'orthorhombic'
loop_
_space_group_symop_operation_xyz
x,y,z
-x,-y,z
1/2+x,1/2-y,-z
1/2-x,1/2+y,-z
-x,-y,-z
x,y,-z
1/2-x,1/2+y,z
1/2+x,1/2-y,z
loop_
_atom_site_type_symbol
_atom_site_label
_atom_site_fract_x
_atom_site_fract_y
_atom_site_fract_z
Si Si1 0.602082 0.619602 0.912766
Si Si2 0.596711 0.389300 0.347957
Si Si3 0.000000 0.000000 0.500000
Si Si4 0.563517 0.133604 0.861291
Si Si5 0.559899 0.865214 0.308292
O O1 0.500000 0.500000 0.889829
O O2 0.503282 0.746468 0.904738
O O3 0.755333 0.631515 0.865419
O O4 0.646106 0.601485 0.000000
O O5 0.500000 0.500000 0.306851
O O6 0.609220 0.442195 0.432582
O O7 0.503443 0.258501 0.350025
O O8 0.758811 0.367566 0.310964
O O9 0.503730 0.144449 0.776157
O O10 0.500000 0.000000 0.891706
O O11 0.500000 0.000000 0.339390
#
# Coordination Sequence:
#
# PCOD9428779 Si02
#       5
#     8   8   2   8   8
#     4  11  24  42  66  97 133 177 223 277 333 392
#     4  10  22  44  66  96 135 165 219 262 327 389
#     4   8  24  44  68 100 132 172 208 266 328 388
#     4  11  24  41  63  97 132 172 228 269 333 386
#     4  11  23  41  67  98 130 177 219 272 321 386
#
# _framework density 20.592379000000001
#
# number of rings (size 3 to 8) (size 9 to 14) (size 15 to 20)
#    0.706    0.706    0.000    4.941    0.000    9.412 
#    0.000    1.176    0.000    0.000    0.000    0.000 
#    0.000    0.000    0.000    0.000    0.000    0.000 
#
# Total GULP energy -189448.435472 kJ/mol
# GULP energy per Si atom -5572.012808 kJ/mol
# Density = 2.054551 g / cm^3
# Si number density = 20.592379 Si / 1000 Ang^3
#
#
#
# Elastic Constant Matrix: (Units=GPa)
#
#
# Indices 1 2 3 4 5 6 
#
# 1 186.6843 56.7867 38.0270 0.0000 0.0000 0.0000
# 2 56.7867 136.2859 -6.5929 0.0000 0.0000 0.0000
# 3 38.0270 -6.5929 77.6859 0.0000 0.0000 0.0000
# 4 0.0000 0.0000 0.0000 9.4471 0.0000 0.0000
# 5 0.0000 0.0000 0.0000 0.0000 -72.0123 0.0000
# 6 0.0000 0.0000 0.0000 0.0000 0.0000 32.3674
#
#
#
# Elastic Compliance Matrix: (Units=1/GPa)
#
#
# Indices 1 2 3 4 5 6 
#
# 1 0.007065 -0.003124 -0.003724 0.000000 0.000000 0.000000
# 2 -0.003124 0.008749 0.002272 0.000000 0.000000 0.000000
# 3 -0.003724 0.002272 0.014888 0.000000 0.000000 0.000000
# 4 0.000000 0.000000 0.000000 0.105853 0.000000 0.000000
# 5 0.000000 0.000000 0.000000 0.000000 -0.013887 0.000000
# 6 0.000000 0.000000 0.000000 0.000000 0.000000 0.030895
#
#
# Mechanical properties :
#
#
# Convention : Reuss Voigt Hill
#
# Bulk Modulus (GPa) = 46.40279 64.12199 55.26239
# Shear Modulus (GPa) = 29.42913 14.78946 22.10929
#
# Velocity S-wave (km/s) = 3.78448 2.68283 3.28024
# Velocity P-wave (km/s) = 6.45595 6.38773 6.42193
#
# Compressibility (1/GPa) = 0.02155043
#
# Stress axis : x y z
#
# Youngs Moduli (GPa) = 141.53393 114.29683 67.16880
#
# Poissons Ratio (x) = 0.35708 0.25011
# Poissons Ratio (y) = 0.44217 -0.15259
# Poissons Ratio (z) = 0.52702 -0.25965
#
# Static dielectric constant tensor:
#      x y z
#    x 1.718550 0.000000 0.000000 
#    y 0.000000 1.775020 0.000000 
#    z 0.000000 0.000000 1.732550 
# 
# From -- ./inp_files/22479.got.cif
#   From: 2010.05.17/outbox.cif.g08.bks.cpg/sg55_12_cif.got.tgz:22479.got - 2010.06.03 13:27:54.
