data_PCOD9428233
_publ_section_title
;
Structure prediction by ZEFSAII (Michael W. Deem and Ramdas Pophale) SiO2 
 PCOD9428233
Probable space group: P B A M
;
_chemical_formula_sum "Si O2"
_cell_formula_units_Z 48
_cell_length_a 16.792093
_cell_length_b 8.802827
_cell_length_c 16.133912
_cell_angle_alpha 90.000000
_cell_angle_beta 90.000000
_cell_angle_gamma 90.000000
_cell_volume 2384.880824
_symmetry_space_group_name_H-M "P B A M"
_symmetry_group_IT_number 55
_symmetry_cell_setting 'orthorhombic'
loop_
_space_group_symop_operation_xyz
x,y,z
-x,-y,z
1/2+x,1/2-y,-z
1/2-x,1/2+y,-z
-x,-y,-z
x,y,-z
1/2-x,1/2+y,z
1/2+x,1/2-y,z
loop_
_atom_site_type_symbol
_atom_site_label
_atom_site_fract_x
_atom_site_fract_y
_atom_site_fract_z
Si Si1 0.248282 0.937578 0.153306
Si Si2 0.782873 0.963643 0.404873
Si Si3 0.020057 0.678184 0.751733
Si Si4 0.653482 0.305493 0.750002
Si Si5 0.865332 0.314313 0.909082
Si Si6 0.131697 0.714006 0.404058
O O1 0.293451 0.838614 0.223032
O O2 0.198127 0.821821 0.098281
O O3 0.188109 0.056408 0.195290
O O4 0.314895 0.032090 0.104754
O O5 0.795250 0.917342 0.500000
O O6 0.831894 0.857734 0.343414
O O7 0.689855 0.929477 0.387570
O O8 0.813152 0.135689 0.396823
O O9 0.075765 0.702110 0.831623
O O10 0.065697 0.721599 0.667047
O O11 0.000000 0.500000 0.746740
O O12 0.938460 0.769307 0.762904
O O13 0.903510 0.314362 0.000000
O O14 0.102978 0.706819 0.500000
#
# Coordination Sequence:
#
# PCOD9428233 Si02
#       6
#     8   8   8   8   8   8
#     4  10  22  42  68  92 120 167 214 257 308 371
#     4  10  21  38  65  94 123 168 216 265 311 365
#     4  12  26  41  61  96 130 171 208 256 332 373
#     4  11  22  41  65  91 126 166 211 261 311 384
#     4  11  23  43  67  96 128 163 210 261 311 377
#     4  10  23  42  65  94 129 166 215 262 312 375
#
# _framework density 20.126792999999999
#
# number of rings (size 3 to 8) (size 9 to 14) (size 15 to 20)
#    0.000    1.333    1.667    4.500    2.333    4.000 
#    0.000    4.167    0.000    0.000    0.000    0.000 
#    0.000    0.000    0.000    0.000    0.000    0.000 
#
# Total GULP energy -268341.905893 kJ/mol
# GULP energy per Si atom -5590.456373 kJ/mol
# Density = 2.008098 g / cm^3
# Si number density = 20.126793 Si / 1000 Ang^3
#
#
#
# Elastic Constant Matrix: (Units=GPa)
#
#
# Indices 1 2 3 4 5 6 
#
# 1 84.0875 20.9925 54.6384 0.0000 0.0000 0.0000
# 2 20.9925 72.5473 34.4616 0.0000 0.0000 0.0000
# 3 54.6384 34.4616 133.1824 0.0000 0.0000 0.0000
# 4 0.0000 0.0000 0.0000 -22.6365 0.0000 0.0000
# 5 0.0000 0.0000 0.0000 0.0000 2.2411 0.0000
# 6 0.0000 0.0000 0.0000 0.0000 0.0000 15.9187
#
#
#
# Elastic Compliance Matrix: (Units=1/GPa)
#
#
# Indices 1 2 3 4 5 6 
#
# 1 0.016411 -0.001768 -0.006275 0.000000 0.000000 0.000000
# 2 -0.001768 0.015906 -0.003391 0.000000 0.000000 0.000000
# 3 -0.006275 -0.003391 0.010960 0.000000 0.000000 0.000000
# 4 0.000000 0.000000 0.000000 -0.044176 0.000000 0.000000
# 5 0.000000 0.000000 0.000000 0.000000 0.446210 0.000000
# 6 0.000000 0.000000 0.000000 0.000000 0.000000 0.062819
#
#
# Mechanical properties :
#
#
# Convention : Reuss Voigt Hill
#
# Bulk Modulus (GPa) = 48.99479 56.66690 52.83085
# Shear Modulus (GPa) = 9.29710 11.08630 10.19170
#
# Velocity S-wave (km/s) = 2.15158 2.34951 2.25272
# Velocity P-wave (km/s) = 5.52886 5.96459 5.75085
#
# Compressibility (1/GPa) = 0.02041033
#
# Stress axis : x y z
#
# Youngs Moduli (GPa) = 60.93359 62.86832 91.23845
#
# Poissons Ratio (x) = 0.11114 0.57255
# Poissons Ratio (y) = 0.10772 0.30935
# Poissons Ratio (z) = 0.38238 0.21316
#
# Static dielectric constant tensor:
#      x y z
#    x 1.686640 0.000000 0.000000 
#    y 0.000000 1.720940 0.000000 
#    z 0.000000 0.000000 1.714480 
# 
# From -- ./inp_files/21518.got.cif
#   From: 2010.05.17/outbox.cif.g08.bks.cpg/sg55_11_cif.got.tgz:21518.got - 2010.06.03 13:27:54.
