data_PCOD9428268
_publ_section_title
;
Structure prediction by ZEFSAII (Michael W. Deem and Ramdas Pophale) SiO2 
 PCOD9428268
Probable space group: P B A M
;
_chemical_formula_sum "Si O2"
_cell_formula_units_Z 38
_cell_length_a 5.011604
_cell_length_b 26.564031
_cell_length_c 13.044954
_cell_angle_alpha 90.000000
_cell_angle_beta 90.000000
_cell_angle_gamma 90.000000
_cell_volume 1736.653906
_symmetry_space_group_name_H-M "P B A M"
_symmetry_group_IT_number 55
_symmetry_cell_setting 'orthorhombic'
loop_
_space_group_symop_operation_xyz
x,y,z
-x,-y,z
1/2+x,1/2-y,-z
1/2-x,1/2+y,-z
-x,-y,-z
x,y,-z
1/2-x,1/2+y,z
1/2+x,1/2-y,z
loop_
_atom_site_type_symbol
_atom_site_label
_atom_site_fract_x
_atom_site_fract_y
_atom_site_fract_z
Si Si1 0.295853 0.715273 0.500000
Si Si2 0.500000 0.000000 0.000000
Si Si3 0.732843 0.860750 0.115760
Si Si4 0.074415 0.215796 0.715425
Si Si5 0.227610 0.923276 0.160587
Si Si6 0.250040 0.462817 0.612332
O O1 0.495444 0.763937 0.500000
O O2 0.364519 0.689081 0.393489
O O3 0.665555 0.031411 0.090531
O O4 0.843165 0.820079 0.193703
O O5 0.431160 0.877689 0.136202
O O6 0.927115 0.908950 0.128829
O O7 0.754794 0.842398 0.000000
O O8 0.274585 0.263744 0.718521
O O9 0.240944 0.931750 0.282717
O O10 0.500000 0.500000 0.613559
O O11 0.244005 0.436287 0.500000
O O12 0.000000 0.500000 0.617300
#
# Coordination Sequence:
#
# PCOD9428268 Si02
#       6
#     4   2   8   8   8   8
#     4   8  16  34  60  90 114 151 205 250 286 372
#     4  12  24  42  70  86 116 186 208 240 316 366
#     4  12  25  42  59  94 132 155 204 274 301 355
#     4  10  21  40  66  88 121 166 206 246 317 378
#     4  12  25  41  63  91 124 161 213 259 305 371
#     4  10  21  39  62  86 117 157 204 255 307 373
#
# _framework density 21.881160000000001
#
# number of rings (size 3 to 8) (size 9 to 14) (size 15 to 20)
#    0.000    1.263    3.158    2.526    0.000    1.684 
#    3.789    0.000    0.000    0.000    0.000    0.000 
#    0.000    0.000    0.000    0.000    0.000    0.000 
#
# Total GULP energy -211877.076565 kJ/mol
# GULP energy per Si atom -5575.712541 kJ/mol
# Density = 2.183136 g / cm^3
# Si number density = 21.881160 Si / 1000 Ang^3
#
#
#
# Elastic Constant Matrix: (Units=GPa)
#
#
# Indices 1 2 3 4 5 6 
#
# 1 96.2079 -5.1068 -6.4581 0.0000 0.0000 0.0000
# 2 -5.1068 19.6875 30.7859 0.0000 0.0000 0.0000
# 3 -6.4581 30.7859 230.9687 0.0000 0.0000 0.0000
# 4 0.0000 0.0000 0.0000 40.3031 0.0000 0.0000
# 5 0.0000 0.0000 0.0000 0.0000 17.0995 0.0000
# 6 0.0000 0.0000 0.0000 0.0000 0.0000 19.4381
#
#
#
# Elastic Compliance Matrix: (Units=1/GPa)
#
#
# Indices 1 2 3 4 5 6 
#
# 1 0.010541 0.002872 -0.000088 0.000000 0.000000 0.000000
# 2 0.002872 0.064951 -0.008577 0.000000 0.000000 0.000000
# 3 -0.000088 -0.008577 0.005470 0.000000 0.000000 0.000000
# 4 0.000000 0.000000 0.000000 0.024812 0.000000 0.000000
# 5 0.000000 0.000000 0.000000 0.000000 0.058481 0.000000
# 6 0.000000 0.000000 0.000000 0.000000 0.000000 0.051445
#
#
# Mechanical properties :
#
#
# Convention : Reuss Voigt Hill
#
# Bulk Modulus (GPa) = 14.41433 42.81179 28.61306
# Shear Modulus (GPa) = 19.96710 37.21101 28.58906
#
# Velocity S-wave (km/s) = 3.02408 4.12830 3.61856
# Velocity P-wave (km/s) = 4.33535 6.50630 5.52843
#
# Compressibility (1/GPa) = 0.06937543
#
# Stress axis : x y z
#
# Youngs Moduli (GPa) = 94.87049 15.39629 182.80319
#
# Poissons Ratio (x) = -0.04422 0.01610
# Poissons Ratio (y) = -0.27246 1.56791
# Poissons Ratio (z) = 0.00836 0.13205
#
# Static dielectric constant tensor:
#      x y z
#    x 1.755310 0.000000 0.000000 
#    y 0.000000 1.813270 0.000000 
#    z 0.000000 0.000000 1.834420 
# 
# From -- ./inp_files/11333.got.cif
#   From: 2010.05.17/outbox.cif.g08.bks.cpg/sg55_6_cif.got.tgz:11333.got - 2010.06.03 13:27:54.
