data_PCOD9428915
_publ_section_title
;
Structure prediction by ZEFSAII (Michael W. Deem and Ramdas Pophale) SiO2 
 PCOD9428915
Probable space group: P B A M
;
_chemical_formula_sum "Si O2"
_cell_formula_units_Z 24
_cell_length_a 11.115236
_cell_length_b 9.387876
_cell_length_c 9.226380
_cell_angle_alpha 90.000000
_cell_angle_beta 90.000000
_cell_angle_gamma 90.000000
_cell_volume 962.758519
_symmetry_space_group_name_H-M "P B A M"
_symmetry_group_IT_number 55
_symmetry_cell_setting 'orthorhombic'
loop_
_space_group_symop_operation_xyz
x,y,z
-x,-y,z
1/2+x,1/2-y,-z
1/2-x,1/2+y,-z
-x,-y,-z
x,y,-z
1/2-x,1/2+y,z
1/2+x,1/2-y,z
loop_
_atom_site_type_symbol
_atom_site_label
_atom_site_fract_x
_atom_site_fract_y
_atom_site_fract_z
Si Si1 0.391509 0.685424 0.500000
Si Si2 0.500000 0.500000 0.252313
Si Si3 0.129011 0.622450 0.500000
Si Si4 0.500000 0.000000 0.752255
Si Si5 0.594440 0.182767 0.000000
Si Si6 0.661855 0.516459 0.000000
O O1 0.418608 0.593739 0.357258
O O2 0.249165 0.716670 0.500000
O O3 0.503170 0.792943 0.500000
O O4 0.592748 0.572985 0.141585
O O5 0.113888 0.530076 0.646527
O O6 0.522796 0.134369 0.856492
O O7 0.705313 0.072543 0.000000
O O8 0.643439 0.344321 0.000000
#
# Coordination Sequence:
#
# PCOD9428915 Si02
#       6
#     4   4   4   4   4   4
#     4  11  24  42  69 101 138 183 236 292 355 425
#     4  10  24  42  64  98 136 190 240 278 344 434
#     4  11  24  44  69 103 142 186 236 295 357 422
#     4  10  24  42  64  98 144 190 240 294 348 418
#     4  11  24  44  69 103 142 186 236 295 357 422
#     4  11  24  42  69 101 138 183 236 292 355 425
#
# _framework density 24.928369
#
# number of rings (size 3 to 8) (size 9 to 14) (size 15 to 20)
#    0.000    1.333    0.000    4.000    0.000   18.667 
#    0.000    0.000    0.000    0.000    0.000    0.000 
#    0.000    0.000    0.000    0.000    0.000    0.000 
#
# Total GULP energy -134196.386331 kJ/mol
# GULP energy per Si atom -5591.516097 kJ/mol
# Density = 2.487163 g / cm^3
# Si number density = 24.928369 Si / 1000 Ang^3
#
#
#
# Elastic Constant Matrix: (Units=GPa)
#
#
# Indices 1 2 3 4 5 6 
#
# 1 135.5727 56.5943 38.4464 0.0000 0.0000 0.0000
# 2 56.5943 125.8158 37.0222 0.0000 0.0000 0.0000
# 3 38.4464 37.0222 176.0012 0.0000 0.0000 0.0000
# 4 0.0000 0.0000 0.0000 -1.3379 0.0000 0.0000
# 5 0.0000 0.0000 0.0000 0.0000 23.0319 0.0000
# 6 0.0000 0.0000 0.0000 0.0000 0.0000 44.1875
#
#
#
# Elastic Compliance Matrix: (Units=1/GPa)
#
#
# Indices 1 2 3 4 5 6 
#
# 1 0.009325 -0.003832 -0.001231 0.000000 0.000000 0.000000
# 2 -0.003832 0.010048 -0.001276 0.000000 0.000000 0.000000
# 3 -0.001231 -0.001276 0.006219 0.000000 0.000000 0.000000
# 4 0.000000 0.000000 0.000000 -0.747415 0.000000 0.000000
# 5 0.000000 0.000000 0.000000 0.000000 0.043418 0.000000
# 6 0.000000 0.000000 0.000000 0.000000 0.000000 0.022631
#
#
# Mechanical properties :
#
#
# Convention : Reuss Voigt Hill
#
# Bulk Modulus (GPa) = 77.44410 77.94616 77.69513
# Shear Modulus (GPa) = -7.82729 33.53142 12.85207
#
# Velocity S-wave (km/s) = -1.77390 3.67155 2.27306
# Velocity P-wave (km/s) = 5.19023 7.02209 6.17447
#
# Compressibility (1/GPa) = 0.01291254
#
# Stress axis : x y z
#
# Youngs Moduli (GPa) = 107.23892 99.52642 160.79403
#
# Poissons Ratio (x) = 0.38142 0.19791
# Poissons Ratio (y) = 0.41098 0.20523
# Poissons Ratio (z) = 0.13199 0.12703
#
# Static dielectric constant tensor:
#      x y z
#    x 1.947560 0.000000 0.000000 
#    y 0.000000 2.148390 0.000000 
#    z 0.000000 0.000000 1.998070 
# 
# From -- ./inp_files/3187.got.cif
#   From: 2010.05.17/outbox.cif.g08.bks.cpg/sg55_2_cif.got.tgz:3187.got - 2010.06.03 13:27:54.
