data_PCOD9428449
_publ_section_title
;
Structure prediction by ZEFSAII (Michael W. Deem and Ramdas Pophale) SiO2 
 PCOD9428449
Probable space group: P B A M
;
_chemical_formula_sum "Si O2"
_cell_formula_units_Z 40
_cell_length_a 14.943557
_cell_length_b 7.478274
_cell_length_c 15.785594
_cell_angle_alpha 90.000000
_cell_angle_beta 90.000000
_cell_angle_gamma 90.000000
_cell_volume 1764.071918
_symmetry_space_group_name_H-M "P B A M"
_symmetry_group_IT_number 55
_symmetry_cell_setting 'orthorhombic'
loop_
_space_group_symop_operation_xyz
x,y,z
-x,-y,z
1/2+x,1/2-y,-z
1/2-x,1/2+y,-z
-x,-y,-z
x,y,-z
1/2-x,1/2+y,z
1/2+x,1/2-y,z
loop_
_atom_site_type_symbol
_atom_site_label
_atom_site_fract_x
_atom_site_fract_y
_atom_site_fract_z
Si Si1 0.880554 0.502762 0.597140
Si Si2 0.169914 0.230629 0.000000
Si Si3 0.678217 0.609549 0.401252
Si Si4 0.027117 0.302633 0.863239
Si Si5 0.880069 0.184087 0.000000
Si Si6 0.064176 0.153306 0.316028
O O1 0.906766 0.480370 0.500000
O O2 0.860833 0.300959 0.628812
O O3 0.784920 0.603999 0.595992
O O4 0.940922 0.651713 0.642358
O O5 0.117894 0.314792 0.080515
O O6 0.137845 0.026195 0.000000
O O7 0.278176 0.237864 0.000000
O O8 0.649588 0.575717 0.500000
O O9 0.654879 0.450088 0.337239
O O10 0.045767 0.181400 0.782460
O O11 0.000000 0.500000 0.834495
O O12 0.944141 0.234879 0.920882
O O13 0.000000 0.000000 0.353750
#
# Coordination Sequence:
#
# PCOD9428449 Si02
#       6
#     8   4   8   8   4   8
#     4  10  21  42  69  98 132 185 241 290 346 415
#     4  11  22  47  78 110 128 195 236 277 348 438
#     4  10  21  42  70  95 134 185 239 292 345 413
#     4  11  25  47  71 103 151 184 229 298 352 413
#     4  11  22  47  78 104 142 185 236 281 350 426
#     4  12  26  42  64 103 144 181 224 293 359 409
#
# _framework density 22.674813
#
# number of rings (size 3 to 8) (size 9 to 14) (size 15 to 20)
#    0.000    1.200    2.000    5.400    2.800    1.600 
#   10.800    2.000    0.000    0.000    0.000    0.000 
#    0.000    0.000    0.000    0.000    0.000    0.000 
#
# Total GULP energy -223308.291054 kJ/mol
# GULP energy per Si atom -5582.707276 kJ/mol
# Density = 2.262320 g / cm^3
# Si number density = 22.674813 Si / 1000 Ang^3
#
#
#
# Elastic Constant Matrix: (Units=GPa)
#
#
# Indices 1 2 3 4 5 6 
#
# 1 126.2231 32.1233 26.5315 0.0000 0.0000 0.0000
# 2 32.1233 175.6182 71.3998 0.0000 0.0000 0.0000
# 3 26.5315 71.3998 80.4564 0.0000 0.0000 0.0000
# 4 0.0000 0.0000 0.0000 36.3682 0.0000 0.0000
# 5 0.0000 0.0000 0.0000 0.0000 12.1753 0.0000
# 6 0.0000 0.0000 0.0000 0.0000 0.0000 49.2685
#
#
#
# Elastic Compliance Matrix: (Units=1/GPa)
#
#
# Indices 1 2 3 4 5 6 
#
# 1 0.008560 -0.000654 -0.002242 0.000000 0.000000 0.000000
# 2 -0.000654 0.008958 -0.007734 0.000000 0.000000 0.000000
# 3 -0.002242 -0.007734 0.020032 0.000000 0.000000 0.000000
# 4 0.000000 0.000000 0.000000 0.027497 0.000000 0.000000
# 5 0.000000 0.000000 0.000000 0.000000 0.082134 0.000000
# 6 0.000000 0.000000 0.000000 0.000000 0.000000 0.020297
#
#
# Mechanical properties :
#
#
# Convention : Reuss Voigt Hill
#
# Bulk Modulus (GPa) = 61.38986 71.37856 66.38421
# Shear Modulus (GPa) = 25.75078 36.37860 31.06469
#
# Velocity S-wave (km/s) = 3.37361 4.00979 3.70538
# Velocity P-wave (km/s) = 6.50444 7.27911 6.90265
#
# Compressibility (1/GPa) = 0.01628934
#
# Stress axis : x y z
#
# Youngs Moduli (GPa) = 116.81850 111.62908 49.91992
#
# Poissons Ratio (x) = 0.07302 0.11194
# Poissons Ratio (y) = 0.07642 0.38609
# Poissons Ratio (z) = 0.26195 0.86335
#
# Static dielectric constant tensor:
#      x y z
#    x 2.098130 0.000000 0.000000 
#    y 0.000000 1.899350 0.000000 
#    z 0.000000 0.000000 1.814640 
# 
# From -- ./inp_files/18762.got.cif
#   From: 2010.05.17/outbox.cif.g08.bks.cpg/sg55_10_cif.got.tgz:18762.got - 2010.06.03 13:27:54.
