data_PCOD9428303
_publ_section_title
;
Structure prediction by ZEFSAII (Michael W. Deem and Ramdas Pophale) SiO2 
 PCOD9428303
Probable space group: P B A M
;
_chemical_formula_sum "Si O2"
_cell_formula_units_Z 48
_cell_length_a 23.573170
_cell_length_b 12.168502
_cell_length_c 7.797271
_cell_angle_alpha 90.000000
_cell_angle_beta 90.000000
_cell_angle_gamma 90.000000
_cell_volume 2236.648483
_symmetry_space_group_name_H-M "P B A M"
_symmetry_group_IT_number 55
_symmetry_cell_setting 'orthorhombic'
loop_
_space_group_symop_operation_xyz
x,y,z
-x,-y,z
1/2+x,1/2-y,-z
1/2-x,1/2+y,-z
-x,-y,-z
x,y,-z
1/2-x,1/2+y,z
1/2+x,1/2-y,z
loop_
_atom_site_type_symbol
_atom_site_label
_atom_site_fract_x
_atom_site_fract_y
_atom_site_fract_z
Si Si1 0.623222 0.235882 0.707655
Si Si2 0.268442 0.622960 0.698941
Si Si3 0.353818 0.174682 0.803169
Si Si4 0.333213 0.414225 0.195181
Si Si5 0.936068 0.515898 0.701857
Si Si6 0.061077 0.047106 0.705904
O O1 0.629302 0.229361 0.500000
O O2 0.682890 0.291916 0.765566
O O3 0.601506 0.118003 0.772642
O O4 0.574405 0.325951 0.744787
O O5 0.257793 0.649351 0.500000
O O6 0.209290 0.625866 0.795787
O O7 0.292632 0.499636 0.710547
O O8 0.344772 0.295579 0.725138
O O9 0.399158 0.094283 0.719027
O O10 0.372193 0.189103 0.000000
O O11 0.392814 0.476049 0.196923
O O12 0.312192 0.399493 0.000000
O O13 0.943360 0.541090 0.500000
O O14 0.000000 0.500000 0.773049
O O15 0.070414 0.034449 0.500000
O O16 0.000000 0.000000 0.746556
#
# Coordination Sequence:
#
# PCOD9428303 Si02
#       6
#     8   8   8   8   8   8
#     4   8  17  35  56  87 119 146 189 244 297 346
#     4  10  21  39  64  89 116 151 198 252 302 356
#     4  11  25  41  59  86 123 160 196 243 300 364
#     4  10  22  39  57  84 121 154 193 241 295 360
#     4  10  22  39  62  90 121 160 206 251 296 356
#     4   9  18  33  59  87 114 150 193 244 292 341
#
# _framework density 21.46068
#
# number of rings (size 3 to 8) (size 9 to 14) (size 15 to 20)
#    0.000    2.333    0.000    2.500    4.667    3.333 
#    0.000    3.333    0.000    0.000    0.000    0.000 
#    0.000    0.000    0.000    0.000    0.000    0.000 
#
# Total GULP energy -267764.483486 kJ/mol
# GULP energy per Si atom -5578.426739 kJ/mol
# Density = 2.141183 g / cm^3
# Si number density = 21.460680 Si / 1000 Ang^3
#
#
#
# Elastic Constant Matrix: (Units=GPa)
#
#
# Indices 1 2 3 4 5 6 
#
# 1 76.3158 47.9975 0.3364 0.0000 0.0000 0.0000
# 2 47.9975 134.0833 -3.2731 0.0000 0.0000 0.0000
# 3 0.3364 -3.2731 24.7210 0.0000 0.0000 0.0000
# 4 0.0000 0.0000 0.0000 -0.4521 0.0000 0.0000
# 5 0.0000 0.0000 0.0000 0.0000 3.9210 0.0000
# 6 0.0000 0.0000 0.0000 0.0000 0.0000 11.1133
#
#
#
# Elastic Compliance Matrix: (Units=1/GPa)
#
#
# Indices 1 2 3 4 5 6 
#
# 1 0.016937 -0.006088 -0.001037 0.000000 0.000000 0.000000
# 2 -0.006088 0.009671 0.001363 0.000000 0.000000 0.000000
# 3 -0.001037 0.001363 0.040646 0.000000 0.000000 0.000000
# 4 0.000000 0.000000 0.000000 -2.211698 0.000000 0.000000
# 5 0.000000 0.000000 0.000000 0.000000 0.255035 0.000000
# 6 0.000000 0.000000 0.000000 0.000000 0.000000 0.089982
#
#
# Mechanical properties :
#
#
# Convention : Reuss Voigt Hill
#
# Bulk Modulus (GPa) = 17.94342 36.13799 27.04070
# Shear Modulus (GPa) = -2.82593 15.58705 6.38056
#
# Velocity S-wave (km/s) = -1.14876 2.69793 1.72615
# Velocity P-wave (km/s) = 2.57287 5.15566 4.07434
#
# Compressibility (1/GPa) = 0.05573075
#
# Stress axis : x y z
#
# Youngs Moduli (GPa) = 59.04195 103.40487 24.60263
#
# Poissons Ratio (x) = 0.62955 0.02550
# Poissons Ratio (y) = 0.35946 -0.03354
# Poissons Ratio (z) = 0.06120 -0.14097
#
# Static dielectric constant tensor:
#      x y z
#    x 1.792940 0.000000 0.000000 
#    y 0.000000 1.811290 0.000000 
#    z 0.000000 0.000000 1.830120 
# 
# From -- ./inp_files/9449.got.cif
#   From: 2010.05.17/outbox.cif.g08.bks.cpg/sg55_5_cif.got.tgz:9449.got - 2010.06.03 13:27:54.
