data_PCOD9428276
_publ_section_title
;
Structure prediction by ZEFSAII (Michael W. Deem and Ramdas Pophale) SiO2 
 PCOD9428276
Probable space group: P B A M
;
_chemical_formula_sum "Si O2"
_cell_formula_units_Z 32
_cell_length_a 15.610830
_cell_length_b 12.914959
_cell_length_c 7.819142
_cell_angle_alpha 90.000000
_cell_angle_beta 90.000000
_cell_angle_gamma 90.000000
_cell_volume 1576.442470
_symmetry_space_group_name_H-M "P B A M"
_symmetry_group_IT_number 55
_symmetry_cell_setting 'orthorhombic'
loop_
_space_group_symop_operation_xyz
x,y,z
-x,-y,z
1/2+x,1/2-y,-z
1/2-x,1/2+y,-z
-x,-y,-z
x,y,-z
1/2-x,1/2+y,z
1/2+x,1/2-y,z
loop_
_atom_site_type_symbol
_atom_site_label
_atom_site_fract_x
_atom_site_fract_y
_atom_site_fract_z
Si Si1 0.901671 0.503899 0.294736
Si Si2 0.735113 0.419678 0.804933
Si Si3 0.507046 0.327556 0.500000
Si Si4 0.639920 0.520457 0.500000
Si Si5 0.607403 0.232846 0.802905
O O1 0.901003 0.498181 0.500000
O O2 0.836864 0.418490 0.223474
O O3 0.867664 0.615215 0.233635
O O4 0.000000 0.500000 0.236093
O O5 0.696301 0.499509 0.667586
O O6 0.686702 0.311120 0.774095
O O7 0.716682 0.450336 0.000000
O O8 0.569561 0.427845 0.500000
O O9 0.411628 0.372468 0.500000
O O10 0.533652 0.263311 0.667677
O O11 0.580186 0.244621 0.000000
#
# Coordination Sequence:
#
# PCOD9428276 Si02
#       5
#     8   8   4   4   8
#     4  11  23  41  64  89 121 162 203 250 306 359
#     4  10  21  39  63  89 119 159 202 248 303 360
#     4   9  18  35  58  87 123 159 197 240 298 358
#     4   9  18  35  58  87 123 157 193 248 298 353
#     4  10  21  39  62  88 122 160 201 249 299 358
#
# _framework density 20.298870000000001
#
# number of rings (size 3 to 8) (size 9 to 14) (size 15 to 20)
#    0.000    2.000    2.500    0.750    0.000    3.000 
#    4.500    5.000    0.000    0.000    0.000    0.000 
#    0.000    0.000    0.000    0.000    0.000    0.000 
#
# Total GULP energy -178639.408494 kJ/mol
# GULP energy per Si atom -5582.481515 kJ/mol
# Density = 2.025267 g / cm^3
# Si number density = 20.298870 Si / 1000 Ang^3
#
#
#
# Elastic Constant Matrix: (Units=GPa)
#
#
# Indices 1 2 3 4 5 6 
#
# 1 99.5703 27.0671 39.2999 0.0000 0.0000 0.0000
# 2 27.0671 55.3723 26.5236 0.0000 0.0000 0.0000
# 3 39.2999 26.5236 113.1047 0.0000 0.0000 0.0000
# 4 0.0000 0.0000 0.0000 14.2941 0.0000 0.0000
# 5 0.0000 0.0000 0.0000 0.0000 9.2341 0.0000
# 6 0.0000 0.0000 0.0000 0.0000 0.0000 18.7533
#
#
#
# Elastic Compliance Matrix: (Units=1/GPa)
#
#
# Indices 1 2 3 4 5 6 
#
# 1 0.012589 -0.004572 -0.003302 0.000000 0.000000 0.000000
# 2 -0.004572 0.022005 -0.003572 0.000000 0.000000 0.000000
# 3 -0.003302 -0.003572 0.010826 0.000000 0.000000 0.000000
# 4 0.000000 0.000000 0.000000 0.069959 0.000000 0.000000
# 5 0.000000 0.000000 0.000000 0.000000 0.108294 0.000000
# 6 0.000000 0.000000 0.000000 0.000000 0.000000 0.053324
#
#
# Mechanical properties :
#
#
# Convention : Reuss Voigt Hill
#
# Bulk Modulus (GPa) = 44.38722 50.42539 47.40630
# Shear Modulus (GPa) = 16.26548 20.13343 18.19946
#
# Velocity S-wave (km/s) = 2.83380 3.15278 2.99753
# Velocity P-wave (km/s) = 5.71152 6.17647 5.94854
#
# Compressibility (1/GPa) = 0.02252901
#
# Stress axis : x y z
#
# Youngs Moduli (GPa) = 79.43180 45.44340 92.36745
#
# Poissons Ratio (x) = 0.20778 0.30501
# Poissons Ratio (y) = 0.36318 0.32991
# Poissons Ratio (z) = 0.26230 0.16231
#
# Static dielectric constant tensor:
#      x y z
#    x 1.747440 0.000000 0.000000 
#    y 0.000000 1.734700 0.000000 
#    z 0.000000 0.000000 1.711790 
# 
# From -- ./inp_files/3367.got.cif
#   From: 2010.05.17/outbox.cif.g08.bks.cpg/sg55_2_cif.got.tgz:3367.got - 2010.06.03 13:27:54.
