data_PCOD9428952
_publ_section_title
;
Structure prediction by ZEFSAII (Michael W. Deem and Ramdas Pophale) SiO2 
 PCOD9428952
Probable space group: P B A M
;
_chemical_formula_sum "Si O2"
_cell_formula_units_Z 58
_cell_length_a 25.114661
_cell_length_b 14.629699
_cell_length_c 8.170369
_cell_angle_alpha 90.000000
_cell_angle_beta 90.000000
_cell_angle_gamma 90.000000
_cell_volume 3001.956414
_symmetry_space_group_name_H-M "P B A M"
_symmetry_group_IT_number 55
_symmetry_cell_setting 'orthorhombic'
loop_
_space_group_symop_operation_xyz
x,y,z
-x,-y,z
1/2+x,1/2-y,-z
1/2-x,1/2+y,-z
-x,-y,-z
x,y,-z
1/2-x,1/2+y,z
1/2+x,1/2-y,z
loop_
_atom_site_type_symbol
_atom_site_label
_atom_site_fract_x
_atom_site_fract_y
_atom_site_fract_z
Si Si1 0.106344 0.255506 0.191587
Si Si2 0.149684 0.448743 0.686144
Si Si3 0.000000 0.500000 0.500000
Si Si4 0.264543 0.438145 0.185688
Si Si5 0.684379 0.389463 0.692806
Si Si6 0.280855 0.239705 0.310840
Si Si7 0.120487 0.637957 0.184629
Si Si8 0.501880 0.142414 0.805500
O O1 0.134649 0.347428 0.258016
O O2 0.130947 0.167140 0.276371
O O3 0.043912 0.275534 0.211176
O O4 0.118596 0.248243 0.000000
O O5 0.132548 0.463687 0.500000
O O6 0.213144 0.458695 0.702991
O O7 0.122471 0.528699 0.789701
O O8 0.987853 0.575346 0.349210
O O9 0.309159 0.513461 0.220805
O O10 0.283191 0.335433 0.218174
O O11 0.245528 0.446868 0.000000
O O12 0.691650 0.403998 0.500000
O O13 0.733036 0.324450 0.752150
O O14 0.268645 0.260677 0.500000
O O15 0.335800 0.184656 0.298102
O O16 0.060060 0.668355 0.210389
O O17 0.136929 0.659288 0.000000
O O18 0.508522 0.109589 0.000000
#
# Coordination Sequence:
#
# PCOD9428952 Si02
#       8
#     8   8   2   8   8   8   8   8
#     4  11  23  40  60  85 121 162 203 251 301 358
#     4  12  23  34  54  86 123 159 201 247 295 355
#     4  12  22  36  68  86 124 174 206 248 312 368
#     4  12  24  39  60  87 120 160 201 244 305 362
#     4  11  23  39  61  88 120 156 199 249 301 359
#     4  11  23  39  61  88 120 156 199 249 301 359
#     4  11  23  40  60  85 121 162 203 251 301 358
#     4  10  25  41  57  89 126 162 210 258 300 363
#
# _framework density 19.320733000000001
#
# number of rings (size 3 to 8) (size 9 to 14) (size 15 to 20)
#    0.000    0.828    2.759    5.172    5.793    3.310 
#    0.000    0.000    0.000    0.828    0.000    5.793 
#    0.000    0.000    0.000    0.000    0.000    0.000 
#
# Total GULP energy -323576.288777 kJ/mol
# GULP energy per Si atom -5578.901531 kJ/mol
# Density = 1.927676 g / cm^3
# Si number density = 19.320733 Si / 1000 Ang^3
#
#
#
# Elastic Constant Matrix: (Units=GPa)
#
#
# Indices 1 2 3 4 5 6 
#
# 1 40.1537 -7.2891 9.5593 0.0000 0.0000 0.0000
# 2 -7.2891 54.4378 15.7011 0.0000 0.0000 0.0000
# 3 9.5593 15.7011 83.9195 0.0000 0.0000 0.0000
# 4 0.0000 0.0000 0.0000 25.2828 0.0000 0.0000
# 5 0.0000 0.0000 0.0000 0.0000 29.7102 0.0000
# 6 0.0000 0.0000 0.0000 0.0000 0.0000 17.9501
#
#
#
# Elastic Compliance Matrix: (Units=1/GPa)
#
#
# Indices 1 2 3 4 5 6 
#
# 1 0.026692 0.004705 -0.003921 0.000000 0.000000 0.000000
# 2 0.004705 0.020247 -0.004324 0.000000 0.000000 0.000000
# 3 -0.003921 -0.004324 0.013172 0.000000 0.000000 0.000000
# 4 0.000000 0.000000 0.000000 0.039553 0.000000 0.000000
# 5 0.000000 0.000000 0.000000 0.000000 0.033658 0.000000
# 6 0.000000 0.000000 0.000000 0.000000 0.000000 0.055710
#
#
# Mechanical properties :
#
#
# Convention : Reuss Voigt Hill
#
# Bulk Modulus (GPa) = 18.85714 23.82818 21.34266
# Shear Modulus (GPa) = 23.38765 25.29126 24.33946
#
# Velocity S-wave (km/s) = 3.48299 3.62197 3.55316
# Velocity P-wave (km/s) = 5.09472 5.46363 5.28240
#
# Compressibility (1/GPa) = 0.05303030
#
# Stress axis : x y z
#
# Youngs Moduli (GPa) = 37.46479 49.39077 75.91972
#
# Poissons Ratio (x) = -0.23237 0.29766
# Poissons Ratio (y) = -0.17626 0.32828
# Poissons Ratio (z) = 0.14689 0.21357
#
# Static dielectric constant tensor:
#      x y z
#    x 1.692940 0.000000 0.000000 
#    y 0.000000 1.652820 0.000000 
#    z 0.000000 0.000000 1.679050 
# 
# From -- ./inp_files/9595.got.cif
#   From: 2010.05.17/outbox.cif.g08.bks.cpg/sg55_5_cif.got.tgz:9595.got - 2010.06.03 13:27:54.
