data_PCOD9428202
_publ_section_title
;
Structure prediction by ZEFSAII (Michael W. Deem and Ramdas Pophale) SiO2 
 PCOD9428202
Probable space group: P B A M
;
_chemical_formula_sum "Si O2"
_cell_formula_units_Z 46
_cell_length_a 11.622781
_cell_length_b 8.974099
_cell_length_c 21.892950
_cell_angle_alpha 90.000000
_cell_angle_beta 90.000000
_cell_angle_gamma 90.000000
_cell_volume 2283.521980
_symmetry_space_group_name_H-M "P B A M"
_symmetry_group_IT_number 55
_symmetry_cell_setting 'orthorhombic'
loop_
_space_group_symop_operation_xyz
x,y,z
-x,-y,z
1/2+x,1/2-y,-z
1/2-x,1/2+y,-z
-x,-y,-z
x,y,-z
1/2-x,1/2+y,z
1/2+x,1/2-y,z
loop_
_atom_site_type_symbol
_atom_site_label
_atom_site_fract_x
_atom_site_fract_y
_atom_site_fract_z
Si Si1 0.612346 0.930876 0.126026
Si Si2 0.280036 0.350287 0.811829
Si Si3 0.000000 0.500000 0.000000
Si Si4 0.802416 0.190417 0.571166
Si Si5 0.670714 0.388920 0.271689
Si Si6 0.364839 0.015187 0.637314
Si Si7 0.000000 0.000000 0.633455
O O1 0.645026 0.773552 0.154477
O O2 0.500000 0.000000 0.158089
O O3 0.712746 0.048283 0.139710
O O4 0.579750 0.926081 0.054919
O O5 0.192237 0.257372 0.768420
O O6 0.350164 0.467016 0.770940
O O7 0.777606 0.173314 0.500000
O O8 0.695430 0.134168 0.611950
O O9 0.838064 0.358335 0.586810
O O10 0.908328 0.087397 0.592784
O O11 0.792596 0.426725 0.304561
O O12 0.571626 0.390061 0.322218
O O13 0.500000 0.000000 0.647817
#
# Coordination Sequence:
#
# PCOD9428202 Si02
#       7
#     8   8   2   8   8   8   4
#     4   9  21  40  61  93 126 165 211 246 304 351
#     4  10  21  38  62  92 123 165 201 255 308 363
#     4   8  20  40  64  90 126 176 204 254 294 348
#     4  11  25  44  64  90 120 162 217 263 318 390
#     4  10  22  38  61  93 124 162 205 257 319 382
#     4  11  26  45  66  92 124 165 209 261 331 386
#     4  10  23  36  62  88 124 153 208 260 324 376
#
# _framework density 20.14432
#
# number of rings (size 3 to 8) (size 9 to 14) (size 15 to 20)
#    0.522    1.391    0.000    2.870    9.739    4.870 
#    0.000    0.000    0.000    4.174    0.000    0.000 
#    0.000    0.000    0.000    0.000    0.000    0.000 
#
# Total GULP energy -256408.813278 kJ/mol
# GULP energy per Si atom -5574.104636 kJ/mol
# Density = 2.009847 g / cm^3
# Si number density = 20.144320 Si / 1000 Ang^3
#
#
#
# Elastic Constant Matrix: (Units=GPa)
#
#
# Indices 1 2 3 4 5 6 
#
# 1 92.1739 5.7697 6.4735 0.0000 0.0000 0.0000
# 2 5.7697 72.4416 12.5798 0.0000 0.0000 0.0000
# 3 6.4735 12.5798 70.6259 0.0000 0.0000 0.0000
# 4 0.0000 0.0000 0.0000 9.1583 0.0000 0.0000
# 5 0.0000 0.0000 0.0000 0.0000 7.1577 0.0000
# 6 0.0000 0.0000 0.0000 0.0000 0.0000 15.1013
#
#
#
# Elastic Compliance Matrix: (Units=1/GPa)
#
#
# Indices 1 2 3 4 5 6 
#
# 1 0.010956 -0.000720 -0.000876 0.000000 0.000000 0.000000
# 2 -0.000720 0.014292 -0.002480 0.000000 0.000000 0.000000
# 3 -0.000876 -0.002480 0.014681 0.000000 0.000000 0.000000
# 4 0.000000 0.000000 0.000000 0.109191 0.000000 0.000000
# 5 0.000000 0.000000 0.000000 0.000000 0.139709 0.000000
# 6 0.000000 0.000000 0.000000 0.000000 0.000000 0.066219
#
#
# Mechanical properties :
#
#
# Convention : Reuss Voigt Hill
#
# Bulk Modulus (GPa) = 31.46937 31.65416 31.56176
# Shear Modulus (GPa) = 13.37640 20.31136 16.84388
#
# Velocity S-wave (km/s) = 2.57967 3.17881 2.89478
# Velocity P-wave (km/s) = 4.95266 5.40563 5.18409
#
# Compressibility (1/GPa) = 0.03177693
#
# Stress axis : x y z
#
# Youngs Moduli (GPa) = 91.27696 69.96818 68.11491
#
# Poissons Ratio (x) = 0.05041 0.05966
# Poissons Ratio (y) = 0.06576 0.16890
# Poissons Ratio (z) = 0.07995 0.17350
#
# Static dielectric constant tensor:
#      x y z
#    x 1.726750 0.000000 0.000000 
#    y 0.000000 1.745640 0.000000 
#    z 0.000000 0.000000 1.686280 
# 
# From -- ./inp_files/23557.got.cif
#   From: 2010.05.17/outbox.cif.g08.bks.cpg/sg55_12_cif.got.tgz:23557.got - 2010.06.03 13:27:54.
