data_PCOD9428900
_publ_section_title
;
Structure prediction by ZEFSAII (Michael W. Deem and Ramdas Pophale) SiO2 
 PCOD9428900
Probable space group: P B A M
;
_chemical_formula_sum "Si O2"
_cell_formula_units_Z 48
_cell_length_a 27.195769
_cell_length_b 9.023999
_cell_length_c 9.544142
_cell_angle_alpha 90.000000
_cell_angle_beta 90.000000
_cell_angle_gamma 90.000000
_cell_volume 2342.271717
_symmetry_space_group_name_H-M "P B A M"
_symmetry_group_IT_number 55
_symmetry_cell_setting 'orthorhombic'
loop_
_space_group_symop_operation_xyz
x,y,z
-x,-y,z
1/2+x,1/2-y,-z
1/2-x,1/2+y,-z
-x,-y,-z
x,y,-z
1/2-x,1/2+y,z
1/2+x,1/2-y,z
loop_
_atom_site_type_symbol
_atom_site_label
_atom_site_fract_x
_atom_site_fract_y
_atom_site_fract_z
Si Si1 0.594274 0.144837 0.835937
Si Si2 0.250109 0.501492 0.249614
Si Si3 0.820667 0.747711 0.650982
Si Si4 0.179487 0.750794 0.150795
Si Si5 0.007059 0.824898 0.837519
Si Si6 0.408738 0.163776 0.332386
O O1 0.640297 0.236462 0.775583
O O2 0.544663 0.239836 0.822763
O O3 0.590691 0.996844 0.742626
O O4 0.601383 0.108315 0.000000
O O5 0.285515 0.611134 0.334071
O O6 0.214500 0.395431 0.337970
O O7 0.214429 0.607389 0.161434
O O8 0.285266 0.391842 0.164559
O O9 0.846101 0.748632 0.500000
O O10 0.141012 0.741611 0.276936
O O11 0.153778 0.752612 0.000000
O O12 0.045880 0.755837 0.730500
O O13 0.023372 0.803264 0.000000
O O14 0.000000 0.000000 0.815220
O O15 0.409922 0.152033 0.500000
#
# Coordination Sequence:
#
# PCOD9428900 Si02
#       6
#     8   8   8   8   8   8
#     4  11  24  43  69  98 129 170 220 267 322 388
#     4  10  24  40  64  97 131 175 221 270 319 381
#     4  11  23  41  65  95 135 176 218 266 322 383
#     4  11  23  42  67  96 131 173 223 272 320 381
#     4  10  24  47  72  99 129 166 210 269 330 389
#     4  12  26  43  67  99 133 173 216 265 329 393
#
# _framework density 20.492926000000001
#
# number of rings (size 3 to 8) (size 9 to 14) (size 15 to 20)
#    0.000    1.167    1.667    3.500    2.333   10.333 
#    0.000    0.000    0.000    0.000    0.000    0.000 
#    0.000    0.000    0.000    0.000    0.000    0.000 
#
# Total GULP energy -268368.993517 kJ/mol
# GULP energy per Si atom -5591.020698 kJ/mol
# Density = 2.044628 g / cm^3
# Si number density = 20.492926 Si / 1000 Ang^3
#
#
#
# Elastic Constant Matrix: (Units=GPa)
#
#
# Indices 1 2 3 4 5 6 
#
# 1 112.1139 33.8650 64.8321 0.0000 0.0000 0.0000
# 2 33.8650 67.2191 35.0660 0.0000 0.0000 0.0000
# 3 64.8321 35.0660 170.6855 0.0000 0.0000 0.0000
# 4 0.0000 0.0000 0.0000 -5.2364 0.0000 0.0000
# 5 0.0000 0.0000 0.0000 0.0000 13.0960 0.0000
# 6 0.0000 0.0000 0.0000 0.0000 0.0000 21.6070
#
#
#
# Elastic Compliance Matrix: (Units=1/GPa)
#
#
# Indices 1 2 3 4 5 6 
#
# 1 0.012429 -0.004255 -0.003847 0.000000 0.000000 0.000000
# 2 -0.004255 0.018119 -0.002106 0.000000 0.000000 0.000000
# 3 -0.003847 -0.002106 0.007753 0.000000 0.000000 0.000000
# 4 0.000000 0.000000 0.000000 -0.190972 0.000000 0.000000
# 5 0.000000 0.000000 0.000000 0.000000 0.076359 0.000000
# 6 0.000000 0.000000 0.000000 0.000000 0.000000 0.046281
#
#
# Mechanical properties :
#
#
# Convention : Reuss Voigt Hill
#
# Bulk Modulus (GPa) = 55.91370 68.61609 62.26489
# Shear Modulus (GPa) = -1369.04472 20.31035 -674.36719
#
# Velocity S-wave (km/s) = -25.87484 3.15157 -18.16005
# Velocity P-wave (km/s) = 29.41654 6.84096 20.23035
#
# Compressibility (1/GPa) = 0.01788471
#
# Stress axis : x y z
#
# Youngs Moduli (GPa) = 80.45473 55.19006 128.98871
#
# Poissons Ratio (x) = 0.23484 0.49621
# Poissons Ratio (y) = 0.34234 0.27168
# Poissons Ratio (z) = 0.30950 0.11624
#
# Static dielectric constant tensor:
#      x y z
#    x 1.704380 0.000000 0.000000 
#    y 0.000000 1.712220 0.000000 
#    z 0.000000 0.000000 1.735770 
# 
# From -- ./inp_files/10502.got.cif
#   From: 2010.05.17/outbox.cif.g08.bks.cpg/sg55_6_cif.got.tgz:10502.got - 2010.06.03 13:27:54.
