data_PCOD9428176
_publ_section_title
;
Structure prediction by ZEFSAII (Michael W. Deem and Ramdas Pophale) SiO2 
 PCOD9428176
Probable space group: P B A M
;
_chemical_formula_sum "Si O2"
_cell_formula_units_Z 58
_cell_length_a 8.163645
_cell_length_b 23.071424
_cell_length_c 14.733236
_cell_angle_alpha 90.000000
_cell_angle_beta 90.000000
_cell_angle_gamma 90.000000
_cell_volume 2774.959551
_symmetry_space_group_name_H-M "P B A M"
_symmetry_group_IT_number 55
_symmetry_cell_setting 'orthorhombic'
loop_
_space_group_symop_operation_xyz
x,y,z
-x,-y,z
1/2+x,1/2-y,-z
1/2-x,1/2+y,-z
-x,-y,-z
x,y,-z
1/2-x,1/2+y,z
1/2+x,1/2-y,z
loop_
_atom_site_type_symbol
_atom_site_label
_atom_site_fract_x
_atom_site_fract_y
_atom_site_fract_z
Si Si1 0.202442 0.665898 0.893885
Si Si2 0.500000 0.000000 0.500000
Si Si3 0.665956 0.212891 0.107370
Si Si4 0.494349 0.271716 0.605366
Si Si5 0.186616 0.079826 0.251145
Si Si6 0.338594 0.971403 0.688888
Si Si7 0.164612 0.859020 0.259432
Si Si8 0.837675 0.339334 0.396263
O O1 0.315729 0.720022 0.862232
O O2 0.234595 0.607978 0.838220
O O3 0.018197 0.689777 0.882527
O O4 0.232681 0.656153 0.000000
O O5 0.628475 0.020628 0.581732
O O6 0.782798 0.173004 0.167578
O O7 0.709657 0.211331 0.000000
O O8 0.441176 0.272702 0.500000
O O9 0.376403 0.310483 0.666028
O O10 0.479978 0.204548 0.633716
O O11 0.674255 0.299376 0.607941
O O12 0.196974 0.012073 0.270113
O O13 0.295762 0.107473 0.332767
O O14 0.004442 0.105213 0.252913
O O15 0.500000 0.000000 0.733735
O O16 0.301684 0.905258 0.711579
O O17 0.865548 0.359548 0.500000
#
# Coordination Sequence:
#
# PCOD9428176 Si02
#       8
#     8   2   8   8   8   8   8   8
#     4  10  21  38  61  90 123 160 200 245 299 360
#     4   8  24  44  62  84 114 160 214 248 300 346
#     4  10  21  38  61  90 123 160 200 245 299 360
#     4   9  19  33  49  75 108 143 180 224 280 343
#     4  11  22  37  59  85 116 152 198 249 301 356
#     4  10  23  41  60  84 114 152 205 245 296 350
#     4  11  22  37  59  85 116 152 198 249 301 356
#     4   9  19  33  49  75 108 143 180 224 280 343
#
# _framework density 20.901205999999998
#
# number of rings (size 3 to 8) (size 9 to 14) (size 15 to 20)
#    0.414    1.655    0.000    2.897    1.931    6.069 
#    0.000    1.379    0.000    4.138    0.000    0.000 
#    0.000    0.000    0.000    0.000    0.000    0.000 
#
# Total GULP energy -323551.743385 kJ/mol
# GULP energy per Si atom -5578.478334 kJ/mol
# Density = 2.085363 g / cm^3
# Si number density = 20.901206 Si / 1000 Ang^3
#
#
#
# Elastic Constant Matrix: (Units=GPa)
#
#
# Indices 1 2 3 4 5 6 
#
# 1 57.0432 12.6852 16.4893 0.0000 0.0000 0.0000
# 2 12.6852 88.5629 43.8277 0.0000 0.0000 0.0000
# 3 16.4893 43.8277 70.9388 0.0000 0.0000 0.0000
# 4 0.0000 0.0000 0.0000 5.1968 0.0000 0.0000
# 5 0.0000 0.0000 0.0000 0.0000 24.0496 0.0000
# 6 0.0000 0.0000 0.0000 0.0000 0.0000 36.6283
#
#
#
# Elastic Compliance Matrix: (Units=1/GPa)
#
#
# Indices 1 2 3 4 5 6 
#
# 1 0.018829 -0.000765 -0.003904 0.000000 0.000000 0.000000
# 2 -0.000765 0.016295 -0.009890 0.000000 0.000000 0.000000
# 3 -0.003904 -0.009890 0.021114 0.000000 0.000000 0.000000
# 4 0.000000 0.000000 0.000000 0.192426 0.000000 0.000000
# 5 0.000000 0.000000 0.000000 0.000000 0.041581 0.000000
# 6 0.000000 0.000000 0.000000 0.000000 0.000000 0.027301
#
#
# Mechanical properties :
#
#
# Convention : Reuss Voigt Hill
#
# Bulk Modulus (GPa) = 36.87173 40.28326 38.57749
# Shear Modulus (GPa) = 14.05659 22.74445 18.40052
#
# Velocity S-wave (km/s) = 2.59612 3.30235 2.97030
# Velocity P-wave (km/s) = 5.16389 5.81856 5.50097
#
# Compressibility (1/GPa) = 0.02712105
#
# Stress axis : x y z
#
# Youngs Moduli (GPa) = 53.10893 61.36782 47.36125
#
# Poissons Ratio (x) = 0.04694 0.18491
# Poissons Ratio (y) = 0.04062 0.46839
# Poissons Ratio (z) = 0.20735 0.60691
#
# Static dielectric constant tensor:
#      x y z
#    x 1.813900 0.000000 0.000000 
#    y 0.000000 1.805440 0.000000 
#    z 0.000000 0.000000 1.725260 
# 
# From -- ./inp_files/17779.got.cif
#   From: 2010.05.17/outbox.cif.g08.bks.cpg/sg55_9_cif.got.tgz:17779.got - 2010.06.03 13:27:54.
