data_PCOD9428644
_publ_section_title
;
Structure prediction by ZEFSAII (Michael W. Deem and Ramdas Pophale) SiO2 
 PCOD9428644
Probable space group: P B A M
;
_chemical_formula_sum "Si O2"
_cell_formula_units_Z 64
_cell_length_a 30.964738
_cell_length_b 12.176656
_cell_length_c 8.929298
_cell_angle_alpha 90.000000
_cell_angle_beta 90.000000
_cell_angle_gamma 90.000000
_cell_volume 3366.764690
_symmetry_space_group_name_H-M "P B A M"
_symmetry_group_IT_number 55
_symmetry_cell_setting 'orthorhombic'
loop_
_space_group_symop_operation_xyz
x,y,z
-x,-y,z
1/2+x,1/2-y,-z
1/2-x,1/2+y,-z
-x,-y,-z
x,y,-z
1/2-x,1/2+y,z
1/2+x,1/2-y,z
loop_
_atom_site_type_symbol
_atom_site_label
_atom_site_fract_x
_atom_site_fract_y
_atom_site_fract_z
Si Si1 0.374836 0.159676 0.820113
Si Si2 0.707013 0.449102 0.323243
Si Si3 0.326551 0.762309 0.176774
Si Si4 0.546481 0.460996 0.322314
Si Si5 0.692934 0.004864 0.322982
Si Si6 0.584402 0.232495 0.324918
Si Si7 0.949095 0.511109 0.821289
Si Si8 0.128321 0.917121 0.179777
O O1 0.374803 0.287993 0.778830
O O2 0.336147 0.093492 0.741512
O O3 0.419596 0.095124 0.785168
O O4 0.368970 0.152954 0.000000
O O5 0.697486 0.445804 0.500000
O O6 0.703128 0.327508 0.255659
O O7 0.756067 0.487209 0.301650
O O8 0.671504 0.526855 0.245641
O O9 0.319338 0.883876 0.238535
O O10 0.374970 0.732719 0.225491
O O11 0.321142 0.758687 0.000000
O O12 0.500000 0.500000 0.266719
O O13 0.549899 0.486045 0.500000
O O14 0.550048 0.329659 0.306813
O O15 0.586354 0.519882 0.241708
O O16 0.684419 0.016107 0.500000
O O17 0.596943 0.227852 0.500000
O O18 0.568453 0.115138 0.269122
O O19 0.000000 0.500000 0.790890
O O20 0.943996 0.531620 0.000000
O O21 0.129521 0.925479 0.000000
#
# Coordination Sequence:
#
# PCOD9428644 Si02
#       8
#     8   8   8   8   8   8   8   8
#     4  10  23  42  61  90 129 166 207 256 307 372
#     4  11  25  44  65  92 126 165 211 258 310 374
#     4  12  24  41  67  94 125 163 207 261 317 371
#     4  10  23  42  63  90 126 168 210 259 315 371
#     4  11  25  43  66  94 125 165 209 257 313 372
#     4  11  22  39  64  92 124 162 210 263 312 373
#     4  10  22  40  63  90 125 168 210 258 315 370
#     4  11  24  41  63  93 127 166 209 257 315 372
#
# _framework density 19.009349
#
# number of rings (size 3 to 8) (size 9 to 14) (size 15 to 20)
#    0.000    1.250    2.500    2.625    3.500    4.000 
#    0.000    0.000    0.000    0.000    0.000    0.000 
#    0.000    0.000    0.000    0.000    0.000    0.000 
#
# Total GULP energy -357701.517292 kJ/mol
# GULP energy per Si atom -5589.086208 kJ/mol
# Density = 1.896608 g / cm^3
# Si number density = 19.009349 Si / 1000 Ang^3
#
#
#
# Elastic Constant Matrix: (Units=GPa)
#
#
# Indices 1 2 3 4 5 6 
#
# 1 77.8149 25.8621 43.0063 0.0000 0.0000 0.0000
# 2 25.8621 106.4378 36.8459 0.0000 0.0000 0.0000
# 3 43.0063 36.8459 52.0242 0.0000 0.0000 0.0000
# 4 0.0000 0.0000 0.0000 16.1000 0.0000 0.0000
# 5 0.0000 0.0000 0.0000 0.0000 33.0617 0.0000
# 6 0.0000 0.0000 0.0000 0.0000 0.0000 24.9855
#
#
#
# Elastic Compliance Matrix: (Units=1/GPa)
#
#
# Indices 1 2 3 4 5 6 
#
# 1 0.023809 0.001362 -0.020647 0.000000 0.000000 0.000000
# 2 0.001362 0.012525 -0.009997 0.000000 0.000000 0.000000
# 3 -0.020647 -0.009997 0.043370 0.000000 0.000000 0.000000
# 4 0.000000 0.000000 0.000000 0.062112 0.000000 0.000000
# 5 0.000000 0.000000 0.000000 0.000000 0.030246 0.000000
# 6 0.000000 0.000000 0.000000 0.000000 0.000000 0.040023
#
#
# Mechanical properties :
#
#
# Convention : Reuss Voigt Hill
#
# Bulk Modulus (GPa) = 47.30119 49.74508 48.52313
# Shear Modulus (GPa) = 18.00532 23.53362 20.76947
#
# Velocity S-wave (km/s) = 3.08097 3.52234 3.30902
# Velocity P-wave (km/s) = 6.13137 6.53973 6.33884
#
# Compressibility (1/GPa) = 0.02114112
#
# Stress axis : x y z
#
# Youngs Moduli (GPa) = 42.00032 79.84191 23.05740
#
# Poissons Ratio (x) = -0.10877 0.47607
# Poissons Ratio (y) = -0.05722 0.23050
# Poissons Ratio (z) = 0.86718 0.79816
#
# Static dielectric constant tensor:
#      x y z
#    x 1.671960 0.000000 0.000000 
#    y 0.000000 1.652200 0.000000 
#    z 0.000000 0.000000 1.639210 
# 
# From -- ./inp_files/10762.got.cif
#   From: 2010.05.17/outbox.cif.g08.bks.cpg/sg55_6_cif.got.tgz:10762.got - 2010.06.03 13:27:54.
