data_PCOD9428364
_publ_section_title
;
Structure prediction by ZEFSAII (Michael W. Deem and Ramdas Pophale) SiO2 
 PCOD9428364
Probable space group: P B A M
;
_chemical_formula_sum "Si O2"
_cell_formula_units_Z 48
_cell_length_a 15.172551
_cell_length_b 18.927928
_cell_length_c 8.861293
_cell_angle_alpha 90.000000
_cell_angle_beta 90.000000
_cell_angle_gamma 90.000000
_cell_volume 2544.830013
_symmetry_space_group_name_H-M "P B A M"
_symmetry_group_IT_number 55
_symmetry_cell_setting 'orthorhombic'
loop_
_space_group_symop_operation_xyz
x,y,z
-x,-y,z
1/2+x,1/2-y,-z
1/2-x,1/2+y,-z
-x,-y,-z
x,y,-z
1/2-x,1/2+y,z
1/2+x,1/2-y,z
loop_
_atom_site_type_symbol
_atom_site_label
_atom_site_fract_x
_atom_site_fract_y
_atom_site_fract_z
Si Si1 0.361356 0.061459 0.179593
Si Si2 0.494431 0.673918 0.321152
Si Si3 0.840234 0.907147 0.178301
Si Si4 0.986332 0.674252 0.180492
Si Si5 0.168998 0.411920 0.679658
Si Si6 0.639523 0.571797 0.819720
O O1 0.264351 0.093725 0.208141
O O2 0.437472 0.117033 0.214263
O O3 0.368023 0.988674 0.270258
O O4 0.365090 0.044207 0.000000
O O5 0.502862 0.678650 0.500000
O O6 0.397753 0.646314 0.274420
O O7 0.510372 0.749654 0.245792
O O8 0.563267 0.617326 0.255312
O O9 0.870512 0.987843 0.208655
O O10 0.854234 0.893127 0.000000
O O11 0.896589 0.646441 0.254748
O O12 0.976675 0.678047 0.000000
O O13 0.174892 0.407463 0.500000
O O14 0.265651 0.406783 0.753184
O O15 0.639083 0.581692 0.000000
#
# Coordination Sequence:
#
# PCOD9428364 Si02
#       6
#     8   8   8   8   8   8
#     4   9  20  39  63  87 111 148 196 239 280 338
#     4  12  25  38  55  85 122 154 190 240 296 344
#     4   9  19  38  62  86 112 147 194 239 282 341
#     4  11  23  40  60  82 115 159 201 236 280 344
#     4  11  22  37  60  90 120 148 185 239 295 341
#     4  10  21  40  64  86 112 151 196 237 281 343
#
# _framework density 18.86177
#
# number of rings (size 3 to 8) (size 9 to 14) (size 15 to 20)
#    0.000    1.667    0.000    6.000    0.000   10.000 
#    0.000    5.000    0.000    0.000    0.000    0.000 
#    0.000    0.000    0.000    0.000    0.000    0.000 
#
# Total GULP energy -268382.146720 kJ/mol
# GULP energy per Si atom -5591.294723 kJ/mol
# Density = 1.881884 g / cm^3
# Si number density = 18.861770 Si / 1000 Ang^3
#
#
#
# Elastic Constant Matrix: (Units=GPa)
#
#
# Indices 1 2 3 4 5 6 
#
# 1 35.5578 11.3114 13.7428 0.0000 0.0000 0.0000
# 2 11.3114 20.2524 17.4390 0.0000 0.0000 0.0000
# 3 13.7428 17.4390 60.3007 0.0000 0.0000 0.0000
# 4 0.0000 0.0000 0.0000 -85.5167 0.0000 0.0000
# 5 0.0000 0.0000 0.0000 0.0000 0.1787 0.0000
# 6 0.0000 0.0000 0.0000 0.0000 0.0000 3.3944
#
#
#
# Elastic Compliance Matrix: (Units=1/GPa)
#
#
# Indices 1 2 3 4 5 6 
#
# 1 0.034618 -0.016700 -0.003060 0.000000 0.000000 0.000000
# 2 -0.016700 0.073807 -0.017539 0.000000 0.000000 0.000000
# 3 -0.003060 -0.017539 0.022353 0.000000 0.000000 0.000000
# 4 0.000000 0.000000 0.000000 -0.011694 0.000000 0.000000
# 5 0.000000 0.000000 0.000000 0.000000 5.595762 0.000000
# 6 0.000000 0.000000 0.000000 0.000000 0.000000 0.294599
#
#
# Mechanical properties :
#
#
# Convention : Reuss Voigt Hill
#
# Bulk Modulus (GPa) = 17.79989 22.34415 20.07202
# Shear Modulus (GPa) = 0.81930 -11.48085 -5.33078
#
# Velocity S-wave (km/s) = 0.65978 -2.46983 -1.68296
# Velocity P-wave (km/s) = 3.16827 1.93354 2.62455
#
# Compressibility (1/GPa) = 0.05618013
#
# Stress axis : x y z
#
# Youngs Moduli (GPa) = 28.88635 13.54894 44.73635
#
# Poissons Ratio (x) = 0.22627 0.13689
# Poissons Ratio (y) = 0.48241 0.78462
# Poissons Ratio (z) = 0.08839 0.23763
#
# Static dielectric constant tensor:
#      x y z
#    x 1.648860 0.000000 0.000000 
#    y 0.000000 1.629550 0.000000 
#    z 0.000000 0.000000 1.625080 
# 
# From -- ./inp_files/5562.got.cif
#   From: 2010.05.17/outbox.cif.g08.bks.cpg/sg55_3_cif.got.tgz:5562.got - 2010.06.03 13:27:54.
