data_PCOD9428912
_publ_section_title
;
Structure prediction by ZEFSAII (Michael W. Deem and Ramdas Pophale) SiO2 
 PCOD9428912
Probable space group: P B A M
;
_chemical_formula_sum "Si O2"
_cell_formula_units_Z 56
_cell_length_a 15.235941
_cell_length_b 9.308523
_cell_length_c 18.393839
_cell_angle_alpha 90.000000
_cell_angle_beta 90.000000
_cell_angle_gamma 90.000000
_cell_volume 2608.689795
_symmetry_space_group_name_H-M "P B A M"
_symmetry_group_IT_number 55
_symmetry_cell_setting 'orthorhombic'
loop_
_space_group_symop_operation_xyz
x,y,z
-x,-y,z
1/2+x,1/2-y,-z
1/2-x,1/2+y,-z
-x,-y,-z
x,y,-z
1/2-x,1/2+y,z
1/2+x,1/2-y,z
loop_
_atom_site_type_symbol
_atom_site_label
_atom_site_fract_x
_atom_site_fract_y
_atom_site_fract_z
Si Si1 0.663459 0.261211 0.188877
Si Si2 0.969481 0.832910 0.417235
Si Si3 0.137135 0.732728 0.333610
Si Si4 0.602851 0.973515 0.794557
Si Si5 0.491707 0.670013 0.919669
Si Si6 0.679357 0.818459 0.083552
Si Si7 0.305632 0.564592 0.670475
O O1 0.574058 0.284821 0.143788
O O2 0.741689 0.255798 0.130759
O O3 0.684149 0.387848 0.245363
O O4 0.649811 0.116015 0.235288
O O5 0.956452 0.784028 0.500000
O O6 0.880349 0.845876 0.372099
O O7 0.046318 0.742690 0.378003
O O8 0.000000 0.000000 0.419545
O O9 0.116669 0.668713 0.253510
O O10 0.212250 0.621509 0.359096
O O11 0.175432 0.894633 0.334731
O O12 0.646563 0.958535 0.873610
O O13 0.500000 0.000000 0.799768
O O14 0.500000 0.500000 0.918641
O O15 0.590878 0.725205 0.912829
O O16 0.459043 0.716950 0.000000
O O17 0.704129 0.841685 0.000000
#
# Coordination Sequence:
#
# PCOD9428912 Si02
#       7
#     8   8   8   8   8   8   8
#     4  12  25  41  67  94 128 177 221 280 345 409
#     4   9  21  43  70 101 138 182 225 271 335 409
#     4  11  24  43  67 103 138 179 225 281 340 407
#     4  12  25  43  66  97 133 176 229 291 346 414
#     4  10  24  42  61  88 124 169 223 283 344 410
#     4  11  26  43  62  91 128 173 227 283 344 406
#     4  11  24  40  70 101 138 179 227 278 339 406
#
# _framework density 21.466716000000002
#
# number of rings (size 3 to 8) (size 9 to 14) (size 15 to 20)
#    0.000    1.143    2.857    2.143    4.000    2.571 
#    0.000    0.000    0.000    9.857    0.000    0.000 
#    0.000    0.000    0.000    0.000    0.000    0.000 
#
# Total GULP energy -312766.958833 kJ/mol
# GULP energy per Si atom -5585.124265 kJ/mol
# Density = 2.141786 g / cm^3
# Si number density = 21.466716 Si / 1000 Ang^3
#
#
#
# Elastic Constant Matrix: (Units=GPa)
#
#
# Indices 1 2 3 4 5 6 
#
# 1 124.8107 20.4005 46.4555 0.0000 0.0000 0.0000
# 2 20.4005 80.0880 13.1133 0.0000 0.0000 0.0000
# 3 46.4555 13.1133 107.5061 0.0000 0.0000 0.0000
# 4 0.0000 0.0000 0.0000 10.0193 0.0000 0.0000
# 5 0.0000 0.0000 0.0000 0.0000 22.4821 0.0000
# 6 0.0000 0.0000 0.0000 0.0000 0.0000 37.1331
#
#
#
# Elastic Compliance Matrix: (Units=1/GPa)
#
#
# Indices 1 2 3 4 5 6 
#
# 1 0.009807 -0.001841 -0.004013 0.000000 0.000000 0.000000
# 2 -0.001841 0.013086 -0.000801 0.000000 0.000000 0.000000
# 3 -0.004013 -0.000801 0.011134 0.000000 0.000000 0.000000
# 4 0.000000 0.000000 0.000000 0.099807 0.000000 0.000000
# 5 0.000000 0.000000 0.000000 0.000000 0.044480 0.000000
# 6 0.000000 0.000000 0.000000 0.000000 0.000000 0.026930
#
#
# Mechanical properties :
#
#
# Convention : Reuss Voigt Hill
#
# Bulk Modulus (GPa) = 48.26935 52.48261 50.37598
# Shear Modulus (GPa) = 22.17696 29.42260 25.79978
#
# Velocity S-wave (km/s) = 3.21765 3.70620 3.47053
# Velocity P-wave (km/s) = 6.02817 6.54339 6.29106
#
# Compressibility (1/GPa) = 0.02071708
#
# Stress axis : x y z
#
# Youngs Moduli (GPa) = 101.97051 76.41571 89.81804
#
# Poissons Ratio (x) = 0.14068 0.36045
# Poissons Ratio (y) = 0.18772 0.07192
# Poissons Ratio (z) = 0.40922 0.06119
#
# Static dielectric constant tensor:
#      x y z
#    x 1.769760 0.000000 0.000000 
#    y 0.000000 1.912180 0.000000 
#    z 0.000000 0.000000 1.802620 
# 
# From -- ./inp_files/22970.got.cif
#   From: 2010.05.17/outbox.cif.g08.bks.cpg/sg55_12_cif.got.tgz:22970.got - 2010.06.03 13:27:54.
