data_PCOD9428311
_publ_section_title
;
Structure prediction by ZEFSAII (Michael W. Deem and Ramdas Pophale) SiO2 
 PCOD9428311
Probable space group: P B A M
;
_chemical_formula_sum "Si O2"
_cell_formula_units_Z 48
_cell_length_a 9.813042
_cell_length_b 27.569175
_cell_length_c 8.484688
_cell_angle_alpha 90.000000
_cell_angle_beta 90.000000
_cell_angle_gamma 90.000000
_cell_volume 2295.426044
_symmetry_space_group_name_H-M "P B A M"
_symmetry_group_IT_number 55
_symmetry_cell_setting 'orthorhombic'
loop_
_space_group_symop_operation_xyz
x,y,z
-x,-y,z
1/2+x,1/2-y,-z
1/2-x,1/2+y,-z
-x,-y,-z
x,y,-z
1/2-x,1/2+y,z
1/2+x,1/2-y,z
loop_
_atom_site_type_symbol
_atom_site_label
_atom_site_fract_x
_atom_site_fract_y
_atom_site_fract_z
Si Si1 0.151126 0.794464 0.316860
Si Si2 0.673040 0.397111 0.812293
Si Si3 0.701970 0.110905 0.815282
Si Si4 0.651745 0.285928 0.815951
Si Si5 0.425974 0.450553 0.315678
Si Si6 0.947869 0.447410 0.807744
O O1 0.116962 0.795809 0.500000
O O2 0.226615 0.844322 0.269709
O O3 0.258465 0.751893 0.280432
O O4 0.008911 0.786652 0.225351
O O5 0.706106 0.340630 0.791657
O O6 0.538993 0.409652 0.715074
O O7 0.796262 0.431946 0.761764
O O8 0.645869 0.404428 0.000000
O O9 0.553281 0.094632 0.758561
O O10 0.796374 0.063843 0.786523
O O11 0.696179 0.122355 0.000000
O O12 0.666421 0.273537 0.000000
O O13 0.500000 0.500000 0.267141
O O14 0.389663 0.453355 0.500000
O O15 0.000000 0.500000 0.753048
O O16 0.950322 0.448205 0.000000
#
# Coordination Sequence:
#
# PCOD9428311 Si02
#       6
#     8   8   8   8   8   8
#     4  12  26  44  66  96 132 167 209 264 329 390
#     4  10  21  39  64  92 121 162 210 259 314 376
#     4  11  22  39  65  93 124 165 212 262 317 380
#     4  11  24  43  68  96 126 166 218 266 317 386
#     4  11  23  38  59  89 126 166 207 258 319 381
#     4   9  19  36  60  93 127 159 205 262 312 363
#
# _framework density 20.911152000000001
#
# number of rings (size 3 to 8) (size 9 to 14) (size 15 to 20)
#    0.000    1.333    1.667    4.000    2.333    3.333 
#    0.000    1.667    0.000    4.500    0.000    0.000 
#    0.000    0.000    0.000    0.000    0.000    0.000 
#
# Total GULP energy -268366.073396 kJ/mol
# GULP energy per Si atom -5590.959862 kJ/mol
# Density = 2.086356 g / cm^3
# Si number density = 20.911152 Si / 1000 Ang^3
#
#
#
# Elastic Constant Matrix: (Units=GPa)
#
#
# Indices 1 2 3 4 5 6 
#
# 1 70.0982 -3.6235 -12.2032 0.0000 0.0000 0.0000
# 2 -3.6235 54.4011 5.7870 0.0000 0.0000 0.0000
# 3 -12.2032 5.7870 23.6422 0.0000 0.0000 0.0000
# 4 0.0000 0.0000 0.0000 50.8699 0.0000 0.0000
# 5 0.0000 0.0000 0.0000 0.0000 9.4411 0.0000
# 6 0.0000 0.0000 0.0000 0.0000 0.0000 34.0942
#
#
#
# Elastic Compliance Matrix: (Units=1/GPa)
#
#
# Indices 1 2 3 4 5 6 
#
# 1 0.015676 0.000188 0.008045 0.000000 0.000000 0.000000
# 2 0.000188 0.018876 -0.004523 0.000000 0.000000 0.000000
# 3 0.008045 -0.004523 0.047557 0.000000 0.000000 0.000000
# 4 0.000000 0.000000 0.000000 0.019658 0.000000 0.000000
# 5 0.000000 0.000000 0.000000 0.000000 0.105920 0.000000
# 6 0.000000 0.000000 0.000000 0.000000 0.000000 0.029330
#
#
# Mechanical properties :
#
#
# Convention : Reuss Voigt Hill
#
# Bulk Modulus (GPa) = 11.16946 14.22912 12.69929
# Shear Modulus (GPa) = 19.27232 29.42645 24.34939
#
# Velocity S-wave (km/s) = 3.03913 3.75535 3.41606
# Velocity P-wave (km/s) = 4.20334 5.06191 4.65247
#
# Compressibility (1/GPa) = 0.08952987
#
# Stress axis : x y z
#
# Youngs Moduli (GPa) = 63.79169 52.97825 21.02732
#
# Poissons Ratio (x) = -0.00998 -0.16917
# Poissons Ratio (y) = -0.01201 0.09511
# Poissons Ratio (z) = -0.51322 0.23963
#
# Static dielectric constant tensor:
#      x y z
#    x 1.728480 0.000000 0.000000 
#    y 0.000000 1.772450 0.000000 
#    z 0.000000 0.000000 1.709160 
# 
# From -- ./inp_files/2871.got.cif
#   From: 2010.05.17/outbox.cif.g08.bks.cpg/sg55_2_cif.got.tgz:2871.got - 2010.06.03 13:27:54.
