data_PCOD9428154
_publ_section_title
;
Structure prediction by ZEFSAII (Michael W. Deem and Ramdas Pophale) SiO2 
 PCOD9428154
Probable space group: P B A M
;
_chemical_formula_sum "Si O2"
_cell_formula_units_Z 48
_cell_length_a 8.155083
_cell_length_b 18.858795
_cell_length_c 13.901612
_cell_angle_alpha 90.000000
_cell_angle_beta 90.000000
_cell_angle_gamma 90.000000
_cell_volume 2137.998953
_symmetry_space_group_name_H-M "P B A M"
_symmetry_group_IT_number 55
_symmetry_cell_setting 'orthorhombic'
loop_
_space_group_symop_operation_xyz
x,y,z
-x,-y,z
1/2+x,1/2-y,-z
1/2-x,1/2+y,-z
-x,-y,-z
x,y,-z
1/2-x,1/2+y,z
1/2+x,1/2-y,z
loop_
_atom_site_type_symbol
_atom_site_label
_atom_site_fract_x
_atom_site_fract_y
_atom_site_fract_z
Si Si1 0.249624 0.595542 0.762660
Si Si2 0.691691 0.025986 0.888823
Si Si3 0.695932 0.504611 0.612359
Si Si4 0.220873 0.332782 0.386087
Si Si5 0.035964 0.332428 0.115222
Si Si6 0.475976 0.726635 0.276162
O O1 0.301338 0.526939 0.826725
O O2 0.195401 0.552638 0.668485
O O3 0.121453 0.635036 0.830856
O O4 0.370441 0.655024 0.723044
O O5 0.680377 0.109751 0.866103
O O6 0.500000 0.000000 0.878777
O O7 0.734911 0.018317 0.000000
O O8 0.500000 0.500000 0.638682
O O9 0.702158 0.489044 0.500000
O O10 0.765400 0.583214 0.628663
O O11 0.253360 0.320038 0.500000
O O12 0.348308 0.297887 0.311991
O O13 0.062045 0.290636 0.350830
O O14 0.052586 0.258432 0.169750
O O15 0.016001 0.327463 0.000000
#
# Coordination Sequence:
#
# PCOD9428154 Si02
#       6
#     8   8   8   8   8   8
#     4  11  20  36  64  91 122 159 214 261 310 378
#     4   8  16  33  58  82 109 153 198 246 304 361
#     4  10  21  38  61  87 122 168 212 260 319 381
#     4  11  24  43  64  92 130 169 212 262 322 385
#     4  10  22  41  64  91 128 169 211 262 321 380
#     4  12  23  40  63  96 127 170 211 261 321 382
#
# _framework density 22.450899
#
# number of rings (size 3 to 8) (size 9 to 14) (size 15 to 20)
#    0.000    1.667    3.333    3.000    0.000    2.000 
#    0.000    0.000    0.000    9.500    0.000    0.000 
#    0.000    0.000    0.000    0.000    0.000    0.000 
#
# Total GULP energy -267632.797273 kJ/mol
# GULP energy per Si atom -5575.683277 kJ/mol
# Density = 2.239980 g / cm^3
# Si number density = 22.450899 Si / 1000 Ang^3
#
#
#
# Elastic Constant Matrix: (Units=GPa)
#
#
# Indices 1 2 3 4 5 6 
#
# 1 16.6160 16.1447 16.8629 0.0000 0.0000 0.0000
# 2 16.1447 103.7074 61.6887 0.0000 0.0000 0.0000
# 3 16.8629 61.6887 125.7047 0.0000 0.0000 0.0000
# 4 0.0000 0.0000 0.0000 16.0074 0.0000 0.0000
# 5 0.0000 0.0000 0.0000 0.0000 19.6654 0.0000
# 6 0.0000 0.0000 0.0000 0.0000 0.0000 5.0962
#
#
#
# Elastic Compliance Matrix: (Units=1/GPa)
#
#
# Indices 1 2 3 4 5 6 
#
# 1 0.074016 -0.007932 -0.006037 0.000000 0.000000 0.000000
# 2 -0.007932 0.014468 -0.006036 0.000000 0.000000 0.000000
# 3 -0.006037 -0.006036 0.011727 0.000000 0.000000 0.000000
# 4 0.000000 0.000000 0.000000 0.062471 0.000000 0.000000
# 5 0.000000 0.000000 0.000000 0.000000 0.050851 0.000000
# 6 0.000000 0.000000 0.000000 0.000000 0.000000 0.196223
#
#
# Mechanical properties :
#
#
# Convention : Reuss Voigt Hill
#
# Bulk Modulus (GPa) = 16.61067 48.38008 32.49537
# Shear Modulus (GPa) = 10.64212 18.24260 14.44236
#
# Velocity S-wave (km/s) = 2.17956 2.85363 2.53906
# Velocity P-wave (km/s) = 3.70792 5.69681 4.80637
#
# Compressibility (1/GPa) = 0.06020228
#
# Stress axis : x y z
#
# Youngs Moduli (GPa) = 13.51060 69.11971 85.27332
#
# Poissons Ratio (x) = 0.54824 0.51475
# Poissons Ratio (y) = 0.10716 0.51470
# Poissons Ratio (z) = 0.08156 0.41720
#
# Static dielectric constant tensor:
#      x y z
#    x 1.880420 0.000000 0.000000 
#    y 0.000000 1.891230 0.000000 
#    z 0.000000 0.000000 1.838180 
# 
# From -- ./inp_files/17364.got.cif
#   From: 2010.05.17/outbox.cif.g08.bks.cpg/sg55_9_cif.got.tgz:17364.got - 2010.06.03 13:27:54.
