data_PCOD9428995
_publ_section_title
;
Structure prediction by ZEFSAII (Michael W. Deem and Ramdas Pophale) SiO2 
 PCOD9428995
Probable space group: P B A M
;
_chemical_formula_sum "Si O2"
_cell_formula_units_Z 48
_cell_length_a 15.098079
_cell_length_b 17.043754
_cell_length_c 7.708722
_cell_angle_alpha 90.000000
_cell_angle_beta 90.000000
_cell_angle_gamma 90.000000
_cell_volume 1983.669586
_symmetry_space_group_name_H-M "P B A M"
_symmetry_group_IT_number 55
_symmetry_cell_setting 'orthorhombic'
loop_
_space_group_symop_operation_xyz
x,y,z
-x,-y,z
1/2+x,1/2-y,-z
1/2-x,1/2+y,-z
-x,-y,-z
x,y,-z
1/2-x,1/2+y,z
1/2+x,1/2-y,z
loop_
_atom_site_type_symbol
_atom_site_label
_atom_site_fract_x
_atom_site_fract_y
_atom_site_fract_z
Si Si1 0.790003 0.090209 0.195416
Si Si2 0.234124 0.746823 0.708822
Si Si3 0.526114 0.749836 0.286792
Si Si4 0.483440 0.416358 0.304106
Si Si5 0.230249 0.578193 0.698135
Si Si6 0.981988 0.416277 0.300599
O O1 0.731483 0.167188 0.237767
O O2 0.877215 0.090240 0.313151
O O3 0.747554 0.004629 0.212598
O O4 0.821964 0.099526 0.000000
O O5 0.239300 0.743085 0.500000
O O6 0.130140 0.750519 0.761191
O O7 0.266949 0.661150 0.770865
O O8 0.522512 0.750254 0.500000
O O9 0.486178 0.667000 0.228224
O O10 0.487451 0.832835 0.226077
O O11 0.500000 0.500000 0.216201
O O12 0.520543 0.420870 0.500000
O O13 0.262208 0.569691 0.500000
O O14 0.124347 0.589074 0.690791
O O15 0.017182 0.420418 0.500000
O O16 0.000000 0.500000 0.215123
#
# Coordination Sequence:
#
# PCOD9428995 Si02
#       6
#     8   8   8   8   8   8
#     4  11  21  31  47  71 100 129 157 196 245 298
#     4   8  15  30  50  67  87 122 167 204 231 273
#     4   7  11  22  41  64  87 112 145 185 228 272
#     4   9  17  31  50  68  89 120 160 202 237 277
#     4   9  17  31  51  72  95 125 162 201 238 282
#     4   8  13  23  43  70  94 114 143 189 237 276
#
# _framework density 24.197579000000001
#
# number of rings (size 3 to 8) (size 9 to 14) (size 15 to 20)
#    0.000    3.333    0.000    4.500    0.000    1.000 
#    0.000    1.667    0.000    6.500    0.000    0.000 
#    0.000    0.000    0.000    0.000    0.000    0.000 
#
# Total GULP energy -267258.198087 kJ/mol
# GULP energy per Si atom -5567.879127 kJ/mol
# Density = 2.414250 g / cm^3
# Si number density = 24.197579 Si / 1000 Ang^3
#
#
#
# Elastic Constant Matrix: (Units=GPa)
#
#
# Indices 1 2 3 4 5 6 
#
# 1 41.3734 12.8952 -1.2704 0.0000 0.0000 0.0000
# 2 12.8952 343.6190 21.3728 0.0000 0.0000 0.0000
# 3 -1.2704 21.3728 64.6759 0.0000 0.0000 0.0000
# 4 0.0000 0.0000 0.0000 7.6880 0.0000 0.0000
# 5 0.0000 0.0000 0.0000 0.0000 4.4208 0.0000
# 6 0.0000 0.0000 0.0000 0.0000 0.0000 23.8238
#
#
#
# Elastic Compliance Matrix: (Units=1/GPa)
#
#
# Indices 1 2 3 4 5 6 
#
# 1 0.024497 -0.000969 0.000801 0.000000 0.000000 0.000000
# 2 -0.000969 0.003010 -0.001014 0.000000 0.000000 0.000000
# 3 0.000801 -0.001014 0.015812 0.000000 0.000000 0.000000
# 4 0.000000 0.000000 0.000000 0.130073 0.000000 0.000000
# 5 0.000000 0.000000 0.000000 0.000000 0.226201 0.000000
# 6 0.000000 0.000000 0.000000 0.000000 0.000000 0.041975
#
#
# Mechanical properties :
#
#
# Convention : Reuss Voigt Hill
#
# Bulk Modulus (GPa) = 24.41633 57.29596 40.85615
# Shear Modulus (GPa) = 10.92699 34.96458 22.94579
#
# Velocity S-wave (km/s) = 2.12733 3.80539 3.08274
# Velocity P-wave (km/s) = 4.01825 6.56032 5.43986
#
# Compressibility (1/GPa) = 0.04095619
#
# Stress axis : x y z
#
# Youngs Moduli (GPa) = 40.82171 332.26845 63.24146
#
# Poissons Ratio (x) = 0.32202 -0.05068
# Poissons Ratio (y) = 0.03956 0.06410
# Poissons Ratio (z) = -0.03272 0.33679
#
# Static dielectric constant tensor:
#      x y z
#    x 1.928680 0.000000 0.000000 
#    y 0.000000 2.079410 0.000000 
#    z 0.000000 0.000000 1.882220 
# 
# From -- ./inp_files/8558.got.cif
#   From: 2010.05.17/outbox.cif.g08.bks.cpg/sg55_5_cif.got.tgz:8558.got - 2010.06.03 13:27:54.
