data_PCOD9428215
_publ_section_title
;
Structure prediction by ZEFSAII (Michael W. Deem and Ramdas Pophale) SiO2 
 PCOD9428215
Probable space group: P B A M
;
_chemical_formula_sum "Si O2"
_cell_formula_units_Z 64
_cell_length_a 14.059037
_cell_length_b 12.922294
_cell_length_c 16.897779
_cell_angle_alpha 90.000000
_cell_angle_beta 90.000000
_cell_angle_gamma 90.000000
_cell_volume 3069.904160
_symmetry_space_group_name_H-M "P B A M"
_symmetry_group_IT_number 55
_symmetry_cell_setting 'orthorhombic'
loop_
_space_group_symop_operation_xyz
x,y,z
-x,-y,z
1/2+x,1/2-y,-z
1/2-x,1/2+y,-z
-x,-y,-z
x,y,-z
1/2-x,1/2+y,z
1/2+x,1/2-y,z
loop_
_atom_site_type_symbol
_atom_site_label
_atom_site_fract_x
_atom_site_fract_y
_atom_site_fract_z
Si Si1 0.612786 0.745888 0.837633
Si Si2 0.915104 0.811730 0.092138
Si Si3 0.223221 0.573228 0.908494
Si Si4 0.612287 0.205082 0.343528
Si Si5 0.690194 0.135505 0.827008
Si Si6 0.207609 0.476641 0.588622
Si Si7 0.936648 0.406125 0.700832
Si Si8 0.587740 0.431020 0.593323
O O1 0.514827 0.690877 0.861941
O O2 0.699240 0.667493 0.824333
O O3 0.595498 0.819207 0.762029
O O4 0.653841 0.827736 0.901787
O O5 0.865775 0.700435 0.106527
O O6 0.830021 0.890367 0.115693
O O7 0.934796 0.828922 0.000000
O O8 0.186963 0.484256 0.849958
O O9 0.226581 0.538001 0.000000
O O10 0.643534 0.175225 0.254446
O O11 0.686136 0.144161 0.398290
O O12 0.510330 0.151428 0.357374
O O13 0.604079 0.325586 0.359225
O O14 0.178686 0.507047 0.500000
O O15 0.148098 0.541188 0.652840
O O16 0.317475 0.501459 0.598753
O O17 0.000000 0.500000 0.737346
O O18 0.500000 0.500000 0.621622
O O19 0.572016 0.405207 0.500000
#
# Coordination Sequence:
#
# PCOD9428215 Si02
#       8
#     8   8   8   8   8   8   8   8
#     4  11  22  39  62  89 123 163 210 263 319 385
#     4  10  22  40  61  90 123 159 210 264 319 385
#     4  10  22  39  62  91 124 165 208 263 325 384
#     4  11  22  40  64  91 128 172 208 266 320 380
#     4  11  23  40  61  90 127 164 210 262 318 383
#     4  10  22  40  63  94 127 166 213 263 315 378
#     4  10  21  38  63  91 124 159 210 264 319 381
#     4  10  23  42  64  95 133 171 216 261 311 380
#
# _framework density 20.847556000000001
#
# number of rings (size 3 to 8) (size 9 to 14) (size 15 to 20)
#    0.000    1.625    1.250    3.375    0.000    7.750 
#    0.000    5.000    0.000    0.000    0.000    0.000 
#    0.000    0.000    0.000    0.000    0.000    0.000 
#
# Total GULP energy -357445.807635 kJ/mol
# GULP energy per Si atom -5585.090744 kJ/mol
# Density = 2.080011 g / cm^3
# Si number density = 20.847556 Si / 1000 Ang^3
#
#
#
# Elastic Constant Matrix: (Units=GPa)
#
#
# Indices 1 2 3 4 5 6 
#
# 1 91.4030 28.8428 27.4746 0.0000 0.0000 0.0000
# 2 28.8428 90.7173 25.0170 0.0000 0.0000 0.0000
# 3 27.4746 25.0170 66.9680 0.0000 0.0000 0.0000
# 4 0.0000 0.0000 0.0000 22.7781 0.0000 0.0000
# 5 0.0000 0.0000 0.0000 0.0000 10.5650 0.0000
# 6 0.0000 0.0000 0.0000 0.0000 0.0000 22.1437
#
#
#
# Elastic Compliance Matrix: (Units=1/GPa)
#
#
# Indices 1 2 3 4 5 6 
#
# 1 0.013177 -0.003009 -0.004282 0.000000 0.000000 0.000000
# 2 -0.003009 0.012976 -0.003613 0.000000 0.000000 0.000000
# 3 -0.004282 -0.003613 0.018039 0.000000 0.000000 0.000000
# 4 0.000000 0.000000 0.000000 0.043902 0.000000 0.000000
# 5 0.000000 0.000000 0.000000 0.000000 0.094652 0.000000
# 6 0.000000 0.000000 0.000000 0.000000 0.000000 0.045160
#
#
# Mechanical properties :
#
#
# Convention : Reuss Voigt Hill
#
# Bulk Modulus (GPa) = 44.67379 45.75077 45.21228
# Shear Modulus (GPa) = 19.44197 22.28096 20.86146
#
# Velocity S-wave (km/s) = 3.05713 3.27273 3.16676
# Velocity P-wave (km/s) = 5.82552 6.02279 5.92498
#
# Compressibility (1/GPa) = 0.02238449
#
# Stress axis : x y z
#
# Youngs Moduli (GPa) = 75.88910 77.06405 55.43528
#
# Poissons Ratio (x) = 0.23186 0.23738
# Poissons Ratio (y) = 0.22832 0.20029
# Poissons Ratio (z) = 0.32497 0.27844
#
# Static dielectric constant tensor:
#      x y z
#    x 1.744620 0.000000 0.000000 
#    y 0.000000 1.739380 0.000000 
#    z 0.000000 0.000000 1.777030 
# 
# From -- ./inp_files/21638.got.cif
#   From: 2010.05.17/outbox.cif.g08.bks.cpg/sg55_11_cif.got.tgz:21638.got - 2010.06.03 13:27:54.
