data_PCOD9428949
_publ_section_title
;
Structure prediction by ZEFSAII (Michael W. Deem and Ramdas Pophale) SiO2 
 PCOD9428949
Probable space group: P B A M
;
_chemical_formula_sum "Si O2"
_cell_formula_units_Z 48
_cell_length_a 12.454850
_cell_length_b 8.128049
_cell_length_c 18.751578
_cell_angle_alpha 90.000000
_cell_angle_beta 90.000000
_cell_angle_gamma 90.000000
_cell_volume 1898.290330
_symmetry_space_group_name_H-M "P B A M"
_symmetry_group_IT_number 55
_symmetry_cell_setting 'orthorhombic'
loop_
_space_group_symop_operation_xyz
x,y,z
-x,-y,z
1/2+x,1/2-y,-z
1/2-x,1/2+y,-z
-x,-y,-z
x,y,-z
1/2-x,1/2+y,z
1/2+x,1/2-y,z
loop_
_atom_site_type_symbol
_atom_site_label
_atom_site_fract_x
_atom_site_fract_y
_atom_site_fract_z
Si Si1 0.210718 0.450286 0.081224
Si Si2 0.374279 0.630361 0.848275
Si Si3 0.185653 0.898602 0.281013
Si Si4 0.570554 0.842221 0.816901
Si Si5 0.880189 0.570026 0.627291
Si Si6 0.834230 0.933288 0.421395
O O1 0.187602 0.298747 0.132840
O O2 0.332371 0.510824 0.089576
O O3 0.136801 0.592716 0.115178
O O4 0.183293 0.413353 0.000000
O O5 0.337742 0.539364 0.776697
O O6 0.494343 0.692312 0.840572
O O7 0.311779 0.889898 0.300443
O O8 0.130416 0.952142 0.355384
O O9 0.203643 0.555322 0.411375
O O10 0.637742 0.767200 0.751713
O O11 0.500000 0.000000 0.795471
O O12 0.874819 0.747404 0.588458
O O13 0.000000 0.500000 0.631900
O O14 0.861721 0.994527 0.500000
#
# Coordination Sequence:
#
# PCOD9428949 Si02
#       6
#     8   8   8   8   8   8
#     4  11  25  45  72 112 154 202 268 334 408 492
#     4  11  24  44  73 104 152 205 255 328 400 476
#     4  10  25  48  74 118 156 206 271 331 396 481
#     4  10  24  49  81 110 151 208 270 336 410 484
#     4  10  25  52  81 114 161 215 266 334 413 474
#     4  10  24  48  81 121 166 208 268 339 396 480
#
# _framework density 25.285910999999999
#
# number of rings (size 3 to 8) (size 9 to 14) (size 15 to 20)
#    1.000    0.667    0.000    2.500    4.667    5.000 
#   15.000    1.667    0.000   16.500    0.000    0.000 
#    0.000    0.000    0.000    0.000    0.000    0.000 
#
# Total GULP energy -268519.860352 kJ/mol
# GULP energy per Si atom -5594.163757 kJ/mol
# Density = 2.522836 g / cm^3
# Si number density = 25.285911 Si / 1000 Ang^3
#
#
#
# Elastic Constant Matrix: (Units=GPa)
#
#
# Indices 1 2 3 4 5 6 
#
# 1 128.9387 52.1990 35.1351 0.0000 0.0000 0.0000
# 2 52.1990 111.6452 54.1958 0.0000 0.0000 0.0000
# 3 35.1351 54.1958 180.7964 0.0000 0.0000 0.0000
# 4 0.0000 0.0000 0.0000 10.5498 0.0000 0.0000
# 5 0.0000 0.0000 0.0000 0.0000 5.5601 0.0000
# 6 0.0000 0.0000 0.0000 0.0000 0.0000 60.5874
#
#
#
# Elastic Compliance Matrix: (Units=1/GPa)
#
#
# Indices 1 2 3 4 5 6 
#
# 1 0.009624 -0.004203 -0.000610 0.000000 0.000000 0.000000
# 2 -0.004203 0.012318 -0.002876 0.000000 0.000000 0.000000
# 3 -0.000610 -0.002876 0.006512 0.000000 0.000000 0.000000
# 4 0.000000 0.000000 0.000000 0.094789 0.000000 0.000000
# 5 0.000000 0.000000 0.000000 0.000000 0.179852 0.000000
# 6 0.000000 0.000000 0.000000 0.000000 0.000000 0.016505
#
#
# Mechanical properties :
#
#
# Convention : Reuss Voigt Hill
#
# Bulk Modulus (GPa) = 76.48125 78.27112 77.37619
# Shear Modulus (GPa) = 14.73467 33.99615 24.36541
#
# Velocity S-wave (km/s) = 2.41658 3.67068 3.10755
# Velocity P-wave (km/s) = 6.17242 6.99906 6.59870
#
# Compressibility (1/GPa) = 0.01307510
#
# Stress axis : x y z
#
# Youngs Moduli (GPa) = 103.91221 81.18175 153.57022
#
# Poissons Ratio (x) = 0.34122 0.09371
# Poissons Ratio (y) = 0.43676 0.44161
# Poissons Ratio (z) = 0.06341 0.23345
#
# Static dielectric constant tensor:
#      x y z
#    x 2.091680 0.000000 0.000000 
#    y 0.000000 2.007580 0.000000 
#    z 0.000000 0.000000 1.958680 
# 
# From -- ./inp_files/21511.got.cif
#   From: 2010.05.17/outbox.cif.g08.bks.cpg/sg55_11_cif.got.tgz:21511.got - 2010.06.03 13:27:54.
