data_PCOD9428997
_publ_section_title
;
Structure prediction by ZEFSAII (Michael W. Deem and Ramdas Pophale) SiO2 
 PCOD9428997
Probable space group: P B A M
;
_chemical_formula_sum "Si O2"
_cell_formula_units_Z 40
_cell_length_a 13.884184
_cell_length_b 19.184650
_cell_length_c 8.720769
_cell_angle_alpha 90.000000
_cell_angle_beta 90.000000
_cell_angle_gamma 90.000000
_cell_volume 2322.892030
_symmetry_space_group_name_H-M "P B A M"
_symmetry_group_IT_number 55
_symmetry_cell_setting 'orthorhombic'
loop_
_space_group_symop_operation_xyz
x,y,z
-x,-y,z
1/2+x,1/2-y,-z
1/2-x,1/2+y,-z
-x,-y,-z
x,y,-z
1/2-x,1/2+y,z
1/2+x,1/2-y,z
loop_
_atom_site_type_symbol
_atom_site_label
_atom_site_fract_x
_atom_site_fract_y
_atom_site_fract_z
Si Si1 0.107000 0.785067 0.181931
Si Si2 0.899728 0.785751 0.684010
Si Si3 0.291748 0.856051 0.685155
Si Si4 0.888725 0.500042 0.312919
Si Si5 0.300248 0.146857 0.314758
O O1 0.187943 0.837105 0.247408
O O2 0.135436 0.708756 0.246358
O O3 0.000020 0.802775 0.237442
O O4 0.112054 0.784277 0.000000
O O5 0.912513 0.787747 0.500000
O O6 0.863307 0.707795 0.725313
O O7 0.810597 0.836146 0.724712
O O8 0.284069 0.856124 0.500000
O O9 0.334445 0.929823 0.736372
O O10 0.888773 0.500777 0.500000
O O11 0.836274 0.428919 0.265384
O O12 0.000000 0.500000 0.263682
O O13 0.308091 0.151371 0.500000
#
# Coordination Sequence:
#
# PCOD9428997 Si02
#       5
#     8   8   8   8   8
#     4  11  21  32  49  72 100 134 168 203 243 288
#     4   9  17  31  51  72  96 129 167 204 241 286
#     4   9  18  33  54  77 100 127 162 205 248 293
#     4   9  16  29  53  81 102 121 153 202 255 298
#     4   9  18  33  53  76 100 127 163 205 247 294
#
# _framework density 17.219912999999998
#
# number of rings (size 3 to 8) (size 9 to 14) (size 15 to 20)
#    0.000    2.600    0.000    4.200    0.000    6.400 
#    0.000    2.000    0.000    8.400    0.000    0.000 
#    0.000    0.000    0.000    0.000    0.000    0.000 
#
# Total GULP energy -223130.692911 kJ/mol
# GULP energy per Si atom -5578.267323 kJ/mol
# Density = 1.718072 g / cm^3
# Si number density = 17.219913 Si / 1000 Ang^3
#
#
#
# Elastic Constant Matrix: (Units=GPa)
#
#
# Indices 1 2 3 4 5 6 
#
# 1 154.0795 92.0423 37.1635 0.0000 0.0000 0.0000
# 2 92.0423 153.7887 26.5185 0.0000 0.0000 0.0000
# 3 37.1635 26.5185 19.3935 0.0000 0.0000 0.0000
# 4 0.0000 0.0000 0.0000 4.5732 0.0000 0.0000
# 5 0.0000 0.0000 0.0000 0.0000 -8.6897 0.0000
# 6 0.0000 0.0000 0.0000 0.0000 0.0000 14.5607
#
#
#
# Elastic Compliance Matrix: (Units=1/GPa)
#
#
# Indices 1 2 3 4 5 6 
#
# 1 0.014619 -0.005128 -0.021003 0.000000 0.000000 0.000000
# 2 -0.005128 0.010307 -0.004267 0.000000 0.000000 0.000000
# 3 -0.021003 -0.004267 0.097646 0.000000 0.000000 0.000000
# 4 0.000000 0.000000 0.000000 0.218664 0.000000 0.000000
# 5 0.000000 0.000000 0.000000 0.000000 -0.115079 0.000000
# 6 0.000000 0.000000 0.000000 0.000000 0.000000 0.068678
#
#
# Mechanical properties :
#
#
# Convention : Reuss Voigt Hill
#
# Bulk Modulus (GPa) = 16.18740 70.96781 43.57760
# Shear Modulus (GPa) = 13.28997 13.52469 13.40733
#
# Velocity S-wave (km/s) = 2.78111 2.80556 2.79336
# Velocity P-wave (km/s) = 4.44224 7.19701 5.98041
#
# Compressibility (1/GPa) = 0.06177645
#
# Stress axis : x y z
#
# Youngs Moduli (GPa) = 68.40299 97.01769 10.24106
#
# Poissons Ratio (x) = 0.49751 0.21509
# Poissons Ratio (y) = 0.35077 0.04370
# Poissons Ratio (z) = 1.43665 0.41402
#
# Static dielectric constant tensor:
#      x y z
#    x 1.567830 0.000000 0.000000 
#    y 0.000000 1.573250 0.000000 
#    z 0.000000 0.000000 1.569100 
# 
# From -- ./inp_files/3624.got.cif
#   From: 2010.05.17/outbox.cif.g08.bks.cpg/sg55_2_cif.got.tgz:3624.got - 2010.06.03 13:27:54.
