data_PCOD9428718
_publ_section_title
;
Structure prediction by ZEFSAII (Michael W. Deem and Ramdas Pophale) SiO2 
 PCOD9428718
Probable space group: P B A M
;
_chemical_formula_sum "Si O2"
_cell_formula_units_Z 32
_cell_length_a 25.240535
_cell_length_b 5.111538
_cell_length_c 10.316351
_cell_angle_alpha 90.000000
_cell_angle_beta 90.000000
_cell_angle_gamma 90.000000
_cell_volume 1330.994497
_symmetry_space_group_name_H-M "P B A M"
_symmetry_group_IT_number 55
_symmetry_cell_setting 'orthorhombic'
loop_
_space_group_symop_operation_xyz
x,y,z
-x,-y,z
1/2+x,1/2-y,-z
1/2-x,1/2+y,-z
-x,-y,-z
x,y,-z
1/2-x,1/2+y,z
1/2+x,1/2-y,z
loop_
_atom_site_type_symbol
_atom_site_label
_atom_site_fract_x
_atom_site_fract_y
_atom_site_fract_z
Si Si1 0.783630 0.405528 0.820752
Si Si2 0.156714 0.315102 0.639244
Si Si3 0.052354 0.670976 0.643689
Si Si4 0.618271 0.578426 0.853244
O O1 0.752446 0.663749 0.860247
O O2 0.796561 0.479576 0.671065
O O3 0.842692 0.329353 0.865733
O O4 0.164066 0.184702 0.500000
O O5 0.102016 0.474510 0.636174
O O6 0.150953 0.114617 0.758303
O O7 0.049204 0.801818 0.500000
O O8 0.066894 0.852463 0.766086
O O9 0.000000 0.500000 0.662917
O O10 0.607654 0.484788 0.000000
#
# Coordination Sequence:
#
# PCOD9428718 Si02
#       4
#     8   8   8   8
#     4  11  23  45  65  96 130 179 226 274 330 396
#     4  10  22  41  67  99 133 172 225 287 341 402
#     4   9  20  41  67  94 129 177 230 286 347 409
#     4  11  24  41  65  98 138 181 226 281 341 414
#
# _framework density 24.042175
#
# number of rings (size 3 to 8) (size 9 to 14) (size 15 to 20)
#    0.000    1.750    2.500    0.750    0.000    8.500 
#    0.000    5.000    0.000    0.000    0.000    0.000 
#    0.000    0.000    0.000    0.000    0.000    0.000 
#
# Total GULP energy -178376.796742 kJ/mol
# GULP energy per Si atom -5574.274898 kJ/mol
# Density = 2.398745 g / cm^3
# Si number density = 24.042175 Si / 1000 Ang^3
#
#
#
# Elastic Constant Matrix: (Units=GPa)
#
#
# Indices 1 2 3 4 5 6 
#
# 1 79.3230 22.7771 33.7481 0.0000 0.0000 0.0000
# 2 22.7771 104.8737 49.8785 0.0000 0.0000 0.0000
# 3 33.7481 49.8785 220.1697 0.0000 0.0000 0.0000
# 4 0.0000 0.0000 0.0000 0.1798 0.0000 0.0000
# 5 0.0000 0.0000 0.0000 0.0000 -29.8188 0.0000
# 6 0.0000 0.0000 0.0000 0.0000 0.0000 41.1103
#
#
#
# Elastic Compliance Matrix: (Units=1/GPa)
#
#
# Indices 1 2 3 4 5 6 
#
# 1 0.013946 -0.002255 -0.001627 0.000000 0.000000 0.000000
# 2 -0.002255 0.011051 -0.002158 0.000000 0.000000 0.000000
# 3 -0.001627 -0.002158 0.005280 0.000000 0.000000 0.000000
# 4 0.000000 0.000000 0.000000 5.563199 0.000000 0.000000
# 5 0.000000 0.000000 0.000000 0.000000 -0.033536 0.000000
# 6 0.000000 0.000000 0.000000 0.000000 0.000000 0.024325
#
#
# Mechanical properties :
#
#
# Convention : Reuss Voigt Hill
#
# Bulk Modulus (GPa) = 54.95119 68.57485 61.76302
# Shear Modulus (GPa) = 0.89247 22.15844 11.52546
#
# Velocity S-wave (km/s) = 0.60993 3.03916 2.19186
# Velocity P-wave (km/s) = 4.83754 6.39531 5.67018
#
# Compressibility (1/GPa) = 0.01819797
#
# Stress axis : x y z
#
# Youngs Moduli (GPa) = 71.70316 90.48604 189.38715
#
# Poissons Ratio (x) = 0.20407 0.30810
# Poissons Ratio (y) = 0.16171 0.40869
# Poissons Ratio (z) = 0.11665 0.19527
#
# Static dielectric constant tensor:
#      x y z
#    x 1.899780 0.000000 0.000000 
#    y 0.000000 2.010300 0.000000 
#    z 0.000000 0.000000 2.034140 
# 
# From -- ./inp_files/10361.got.cif
#   From: 2010.05.17/outbox.cif.g08.bks.cpg/sg55_6_cif.got.tgz:10361.got - 2010.06.03 13:27:54.
