data_PCOD9428956
_publ_section_title
;
Structure prediction by ZEFSAII (Michael W. Deem and Ramdas Pophale) SiO2 
 PCOD9428956
Probable space group: P B A M
;
_chemical_formula_sum "Si O2"
_cell_formula_units_Z 64
_cell_length_a 15.851851
_cell_length_b 8.960669
_cell_length_c 20.315988
_cell_angle_alpha 90.000000
_cell_angle_beta 90.000000
_cell_angle_gamma 90.000000
_cell_volume 2885.747740
_symmetry_space_group_name_H-M "P B A M"
_symmetry_group_IT_number 55
_symmetry_cell_setting 'orthorhombic'
loop_
_space_group_symop_operation_xyz
x,y,z
-x,-y,z
1/2+x,1/2-y,-z
1/2-x,1/2+y,-z
-x,-y,-z
x,y,-z
1/2-x,1/2+y,z
1/2+x,1/2-y,z
loop_
_atom_site_type_symbol
_atom_site_label
_atom_site_fract_x
_atom_site_fract_y
_atom_site_fract_z
Si Si1 0.964195 0.335964 0.571463
Si Si2 0.181401 0.991916 0.653868
Si Si3 0.177567 0.645391 0.153304
Si Si4 0.411134 0.909100 0.926256
Si Si5 0.990036 0.171327 0.844893
Si Si6 0.774521 0.278793 0.572495
Si Si7 0.044642 0.183736 0.698483
Si Si8 0.700459 0.140565 0.764467
O O1 0.984062 0.262173 0.500000
O O2 0.998975 0.256507 0.636241
O O3 0.000000 0.500000 0.571068
O O4 0.864205 0.359036 0.573725
O O5 0.220146 0.146635 0.628751
O O6 0.087317 0.030416 0.674200
O O7 0.198614 0.887171 0.591852
O O8 0.226019 0.912713 0.715049
O O9 0.164416 0.524620 0.093052
O O10 0.165494 0.518698 0.209260
O O11 0.255681 0.747766 0.180784
O O12 0.101125 0.758835 0.139840
O O13 0.435896 0.774562 0.876390
O O14 0.500000 0.000000 0.926232
O O15 0.396354 0.851588 0.000000
O O16 0.993347 0.174808 0.765864
O O17 0.000000 0.000000 0.866529
O O18 0.735728 0.284610 0.500000
O O19 0.124800 0.280942 0.725680
#
# Coordination Sequence:
#
# PCOD9428956 Si02
#       8
#     8   8   8   8   8   8   8   8
#     4  10  25  43  61  86 122 169 223 282 346 414
#     4  12  24  42  62  95 123 169 215 284 348 413
#     4  11  24  42  67  96 143 176 223 279 338 410
#     4   9  20  43  71 102 138 180 222 267 326 393
#     4  11  25  40  69 106 136 179 232 289 343 404
#     4  11  25  44  64  87 122 168 221 280 349 425
#     4  12  25  37  67  93 132 169 224 284 347 408
#     4  12  23  41  63  97 133 172 221 279 345 405
#
# _framework density 22.177961
#
# number of rings (size 3 to 8) (size 9 to 14) (size 15 to 20)
#    0.000    1.000    3.750    1.875    7.000    1.250 
#    0.000    1.875    0.000    0.000    0.000    0.000 
#    0.000    0.000    0.000    0.000    0.000    0.000 
#
# Total GULP energy -356769.485758 kJ/mol
# GULP energy per Si atom -5574.523215 kJ/mol
# Density = 2.212748 g / cm^3
# Si number density = 22.177961 Si / 1000 Ang^3
#
#
#
# Elastic Constant Matrix: (Units=GPa)
#
#
# Indices 1 2 3 4 5 6 
#
# 1 32.6078 -3.7911 13.1258 0.0000 0.0000 0.0000
# 2 -3.7911 86.9259 24.4561 0.0000 0.0000 0.0000
# 3 13.1258 24.4561 124.4728 0.0000 0.0000 0.0000
# 4 0.0000 0.0000 0.0000 25.4970 0.0000 0.0000
# 5 0.0000 0.0000 0.0000 0.0000 25.6315 0.0000
# 6 0.0000 0.0000 0.0000 0.0000 0.0000 36.3328
#
#
#
# Elastic Compliance Matrix: (Units=1/GPa)
#
#
# Indices 1 2 3 4 5 6 
#
# 1 0.032542 0.002524 -0.003928 0.000000 0.000000 0.000000
# 2 0.002524 0.012373 -0.002697 0.000000 0.000000 0.000000
# 3 -0.003928 -0.002697 0.008978 0.000000 0.000000 0.000000
# 4 0.000000 0.000000 0.000000 0.039220 0.000000 0.000000
# 5 0.000000 0.000000 0.000000 0.000000 0.039015 0.000000
# 6 0.000000 0.000000 0.000000 0.000000 0.000000 0.027523
#
#
# Mechanical properties :
#
#
# Convention : Reuss Voigt Hill
#
# Bulk Modulus (GPa) = 21.88572 34.62092 28.25332
# Shear Modulus (GPa) = 27.31006 31.50662 29.40834
#
# Velocity S-wave (km/s) = 3.51295 3.77321 3.64540
# Velocity P-wave (km/s) = 5.13264 5.88449 5.52138
#
# Compressibility (1/GPa) = 0.04569189
#
# Stress axis : x y z
#
# Youngs Moduli (GPa) = 30.72958 80.82124 111.38351
#
# Poissons Ratio (x) = -0.20401 0.43746
# Poissons Ratio (y) = -0.07757 0.30042
# Poissons Ratio (z) = 0.12069 0.21799
#
# Static dielectric constant tensor:
#      x y z
#    x 1.699970 0.000000 0.000000 
#    y 0.000000 1.950310 0.000000 
#    z 0.000000 0.000000 1.847320 
# 
# From -- ./inp_files/23082.got.cif
#   From: 2010.05.17/outbox.cif.g08.bks.cpg/sg55_12_cif.got.tgz:23082.got - 2010.06.03 13:27:54.
