data_PCOD9428711
_publ_section_title
;
Structure prediction by ZEFSAII (Michael W. Deem and Ramdas Pophale) SiO2 
 PCOD9428711
Probable space group: P B A M
;
_chemical_formula_sum "Si O2"
_cell_formula_units_Z 56
_cell_length_a 5.040288
_cell_length_b 31.760565
_cell_length_c 13.456504
_cell_angle_alpha 90.000000
_cell_angle_beta 90.000000
_cell_angle_gamma 90.000000
_cell_volume 2154.149384
_symmetry_space_group_name_H-M "P B A M"
_symmetry_group_IT_number 55
_symmetry_cell_setting 'orthorhombic'
loop_
_space_group_symop_operation_xyz
x,y,z
-x,-y,z
1/2+x,1/2-y,-z
1/2-x,1/2+y,-z
-x,-y,-z
x,y,-z
1/2-x,1/2+y,z
1/2+x,1/2-y,z
loop_
_atom_site_type_symbol
_atom_site_label
_atom_site_fract_x
_atom_site_fract_y
_atom_site_fract_z
Si Si1 0.439514 0.651436 0.883089
Si Si2 0.053578 0.386567 0.190289
Si Si3 0.439459 0.226287 0.880191
Si Si4 0.128716 0.222370 0.620124
Si Si5 0.659434 0.544060 0.392326
Si Si6 0.267544 0.625101 0.615520
Si Si7 0.764895 0.526903 0.174099
O O1 0.234282 0.613389 0.862126
O O2 0.237246 0.687509 0.845241
O O3 0.721260 0.647907 0.830734
O O4 0.487635 0.656964 0.000000
O O5 0.968070 0.383110 0.306223
O O6 0.211086 0.425620 0.140115
O O7 0.242031 0.264773 0.855817
O O8 0.441667 0.221979 0.000000
O O9 0.123431 0.224036 0.500000
O O10 0.397882 0.245624 0.653474
O O11 0.115283 0.171882 0.639558
O O12 0.500000 0.500000 0.399456
O O13 0.797294 0.549306 0.500000
O O14 0.469457 0.585098 0.376816
O O15 0.819715 0.536033 0.292011
O O16 0.181444 0.627074 0.500000
O O17 0.500000 0.500000 0.164924
O O18 0.000000 0.500000 0.130552
#
# Coordination Sequence:
#
# PCOD9428711 Si02
#       7
#     8   8   8   8   8   8   8
#     4  11  24  43  67  95 129 168 214 272 327 379
#     4  12  24  42  68  97 128 168 219 264 323 396
#     4   9  17  33  59  90 125 163 200 249 323 398
#     4   9  19  37  59  83 120 175 230 275 318 364
#     4   9  18  35  60  93 132 171 212 261 325 400
#     4  10  22  41  66  98 137 177 221 275 329 391
#     4  11  23  41  64  91 128 171 211 261 322 385
#
# _framework density 25.996341000000001
#
# number of rings (size 3 to 8) (size 9 to 14) (size 15 to 20)
#    0.000    1.857    0.000    4.714    0.000    5.429 
#    0.000    9.286    0.000    8.571    0.000    0.000 
#    0.000    0.000    0.000    0.000    0.000    0.000 
#
# Total GULP energy -312688.096918 kJ/mol
# GULP energy per Si atom -5583.716016 kJ/mol
# Density = 2.593717 g / cm^3
# Si number density = 25.996341 Si / 1000 Ang^3
#
#
#
# Elastic Constant Matrix: (Units=GPa)
#
#
# Indices 1 2 3 4 5 6 
#
# 1 129.1302 44.2395 4.8767 0.0000 0.0000 0.0000
# 2 44.2395 166.2068 -1.6733 0.0000 0.0000 0.0000
# 3 4.8767 -1.6733 77.9357 0.0000 0.0000 0.0000
# 4 0.0000 0.0000 0.0000 23.1749 0.0000 0.0000
# 5 0.0000 0.0000 0.0000 0.0000 275.3445 0.0000
# 6 0.0000 0.0000 0.0000 0.0000 0.0000 46.6663
#
#
#
# Elastic Compliance Matrix: (Units=1/GPa)
#
#
# Indices 1 2 3 4 5 6 
#
# 1 0.008548 -0.002281 -0.000584 0.000000 0.000000 0.000000
# 2 -0.002281 0.006627 0.000285 0.000000 0.000000 0.000000
# 3 -0.000584 0.000285 0.012874 0.000000 0.000000 0.000000
# 4 0.000000 0.000000 0.000000 0.043150 0.000000 0.000000
# 5 0.000000 0.000000 0.000000 0.000000 0.003632 0.000000
# 6 0.000000 0.000000 0.000000 0.000000 0.000000 0.021429
#
#
# Mechanical properties :
#
#
# Convention : Reuss Voigt Hill
#
# Bulk Modulus (GPa) = 43.69041 52.01760 47.85401
# Shear Modulus (GPa) = 45.85148 90.75913 68.30530
#
# Velocity S-wave (km/s) = 4.20428 5.91507 5.13147
# Velocity P-wave (km/s) = 6.35695 8.16724 7.31828
#
# Compressibility (1/GPa) = 0.02288832
#
# Stress axis : x y z
#
# Youngs Moduli (GPa) = 116.99137 150.90669 77.67749
#
# Poissons Ratio (x) = 0.34422 0.04535
# Poissons Ratio (y) = 0.26686 -0.02214
# Poissons Ratio (z) = 0.06830 -0.04301
#
# Static dielectric constant tensor:
#      x y z
#    x 1.950410 0.000000 0.000000 
#    y 0.000000 2.388900 0.000000 
#    z 0.000000 0.000000 2.114220 
# 
# From -- ./inp_files/16776.got.cif
#   From: 2010.05.17/outbox.cif.g08.bks.cpg/sg55_9_cif.got.tgz:16776.got - 2010.06.03 13:27:54.
