data_PCOD9428645
_publ_section_title
;
Structure prediction by ZEFSAII (Michael W. Deem and Ramdas Pophale) SiO2 
 PCOD9428645
Probable space group: P B A M
;
_chemical_formula_sum "Si O2"
_cell_formula_units_Z 64
_cell_length_a 24.374797
_cell_length_b 15.520303
_cell_length_c 8.199509
_cell_angle_alpha 90.000000
_cell_angle_beta 90.000000
_cell_angle_gamma 90.000000
_cell_volume 3101.908980
_symmetry_space_group_name_H-M "P B A M"
_symmetry_group_IT_number 55
_symmetry_cell_setting 'orthorhombic'
loop_
_space_group_symop_operation_xyz
x,y,z
-x,-y,z
1/2+x,1/2-y,-z
1/2-x,1/2+y,-z
-x,-y,-z
x,y,-z
1/2-x,1/2+y,z
1/2+x,1/2-y,z
loop_
_atom_site_type_symbol
_atom_site_label
_atom_site_fract_x
_atom_site_fract_y
_atom_site_fract_z
Si Si1 0.203403 0.222304 0.693776
Si Si2 0.884097 0.322991 0.685041
Si Si3 0.383859 0.357405 0.186505
Si Si4 0.422607 0.751667 0.301912
Si Si5 0.784014 0.425044 0.192737
Si Si6 0.234827 0.893630 0.197735
Si Si7 0.000003 0.903774 0.690765
Si Si8 0.497524 0.100846 0.194937
O O1 0.202894 0.207006 0.500000
O O2 0.140480 0.237127 0.747951
O O3 0.234914 0.142379 0.774714
O O4 0.237640 0.308609 0.730718
O O5 0.880247 0.291215 0.500000
O O6 0.871640 0.244076 0.804406
O O7 0.838061 0.394035 0.714940
O O8 0.944569 0.357762 0.719978
O O9 0.328746 0.402341 0.247527
O O10 0.437930 0.372269 0.290250
O O11 0.395010 0.383106 0.000000
O O12 0.424643 0.754361 0.500000
O O13 0.459628 0.670391 0.243263
O O14 0.450140 0.840237 0.240058
O O15 0.766663 0.520393 0.244183
O O16 0.795703 0.426129 0.000000
O O17 0.234850 0.885726 0.000000
O O18 0.985166 0.912074 0.500000
O O19 0.000000 0.000000 0.763940
O O20 0.500000 0.000000 0.241092
O O21 0.489884 0.105076 0.000000
#
# Coordination Sequence:
#
# PCOD9428645 Si02
#       8
#     8   8   8   8   8   8   8   8
#     4  11  24  41  63  93 128 167 209 258 314 375
#     4  12  24  41  66  94 124 163 208 263 322 372
#     4  11  22  40  65  93 124 162 209 261 311 372
#     4  10  23  42  61  90 129 166 208 256 308 369
#     4  11  24  43  65  92 126 167 212 260 316 374
#     4  10  24  43  64  90 125 166 208 260 313 370
#     4  10  22  40  63  91 126 168 207 255 312 366
#     4  11  25  43  65  94 125 165 211 257 312 374
#
# _framework density 20.632456999999999
#
# number of rings (size 3 to 8) (size 9 to 14) (size 15 to 20)
#    0.000    1.250    2.500    2.625    3.500    3.750 
#    0.000    0.000    0.000    0.000    0.000    0.000 
#    0.000    0.000    0.000    0.000    0.000    0.000 
#
# Total GULP energy -357718.321167 kJ/mol
# GULP energy per Si atom -5589.348768 kJ/mol
# Density = 2.058550 g / cm^3
# Si number density = 20.632457 Si / 1000 Ang^3
#
#
#
# Elastic Constant Matrix: (Units=GPa)
#
#
# Indices 1 2 3 4 5 6 
#
# 1 64.5071 -24.9582 -0.3122 0.0000 0.0000 0.0000
# 2 -24.9582 53.9022 -1.7606 0.0000 0.0000 0.0000
# 3 -0.3122 -1.7606 27.0831 0.0000 0.0000 0.0000
# 4 0.0000 0.0000 0.0000 0.0329 0.0000 0.0000
# 5 0.0000 0.0000 0.0000 0.0000 22.7572 0.0000
# 6 0.0000 0.0000 0.0000 0.0000 0.0000 31.0040
#
#
#
# Elastic Compliance Matrix: (Units=1/GPa)
#
#
# Indices 1 2 3 4 5 6 
#
# 1 0.018902 0.008778 0.000789 0.000000 0.000000 0.000000
# 2 0.008778 0.022668 0.001575 0.000000 0.000000 0.000000
# 3 0.000789 0.001575 0.037035 0.000000 0.000000 0.000000
# 4 0.000000 0.000000 0.000000 30.414552 0.000000 0.000000
# 5 0.000000 0.000000 0.000000 0.000000 0.043942 0.000000
# 6 0.000000 0.000000 0.000000 0.000000 0.000000 0.032254
#
#
# Mechanical properties :
#
#
# Convention : Reuss Voigt Hill
#
# Bulk Modulus (GPa) = 9.91201 10.15894 10.03547
# Shear Modulus (GPa) = 0.16350 22.26039 11.21194
#
# Velocity S-wave (km/s) = 0.28181 3.28823 2.33365
# Velocity P-wave (km/s) = 2.21820 4.39898 3.48364
#
# Compressibility (1/GPa) = 0.10088773
#
# Stress axis : x y z
#
# Youngs Moduli (GPa) = 52.90374 44.11499 27.00157
#
# Poissons Ratio (x) = -0.38724 -0.02129
# Poissons Ratio (y) = -0.46439 -0.04252
# Poissons Ratio (z) = -0.04172 -0.06947
#
# Static dielectric constant tensor:
#      x y z
#    x 1.583990 0.000000 0.000000 
#    y 0.000000 1.736720 0.000000 
#    z 0.000000 0.000000 1.664610 
# 
# From -- ./inp_files/9690.got.cif
#   From: 2010.05.17/outbox.cif.g08.bks.cpg/sg55_5_cif.got.tgz:9690.got - 2010.06.03 13:27:54.
