data_PCOD9428199
_publ_section_title
;
Structure prediction by ZEFSAII (Michael W. Deem and Ramdas Pophale) SiO2 
 PCOD9428199
Probable space group: P B A M
;
_chemical_formula_sum "Si O2"
_cell_formula_units_Z 48
_cell_length_a 9.515327
_cell_length_b 28.017481
_cell_length_c 8.090427
_cell_angle_alpha 90.000000
_cell_angle_beta 90.000000
_cell_angle_gamma 90.000000
_cell_volume 2156.871378
_symmetry_space_group_name_H-M "P B A M"
_symmetry_group_IT_number 55
_symmetry_cell_setting 'orthorhombic'
loop_
_space_group_symop_operation_xyz
x,y,z
-x,-y,z
1/2+x,1/2-y,-z
1/2-x,1/2+y,-z
-x,-y,-z
x,y,-z
1/2-x,1/2+y,z
1/2+x,1/2-y,z
loop_
_atom_site_type_symbol
_atom_site_label
_atom_site_fract_x
_atom_site_fract_y
_atom_site_fract_z
Si Si1 0.688186 0.382281 0.202485
Si Si2 0.009401 0.647557 0.192069
Si Si3 0.663936 0.491022 0.196405
Si Si4 0.814911 0.729844 0.686068
Si Si5 0.585053 0.046792 0.307631
Si Si6 0.518809 0.694378 0.189494
O O1 0.829653 0.354623 0.252632
O O2 0.697438 0.437256 0.255043
O O3 0.547755 0.354781 0.256771
O O4 0.686270 0.382303 0.000000
O O5 0.908586 0.682445 0.291317
O O6 0.953298 0.593666 0.207331
O O7 0.008632 0.662570 0.000000
O O8 0.500000 0.500000 0.217241
O O9 0.754861 0.530797 0.286664
O O10 0.696159 0.493666 0.000000
O O11 0.827390 0.748005 0.500000
O O12 0.654022 0.716594 0.722867
O O13 0.888867 0.768795 0.801594
O O14 0.550858 0.055309 0.500000
O O15 0.500000 0.000000 0.249744
O O16 0.561688 0.686570 0.000000
#
# Coordination Sequence:
#
# PCOD9428199 Si02
#       6
#     8   8   8   8   8   8
#     4   9  20  38  62  93 123 158 211 266 310 363
#     4  11  22  40  67  93 122 166 217 266 314 377
#     4  10  21  38  62  91 123 164 214 263 311 369
#     4  12  26  44  65  97 133 166 205 263 330 385
#     4  11  23  39  59  90 129 169 209 257 317 378
#     4  11  23  43  69  96 127 168 216 260 312 386
#
# _framework density 22.254456999999999
#
# number of rings (size 3 to 8) (size 9 to 14) (size 15 to 20)
#    0.000    1.333    1.667    4.000    2.333    2.333 
#    0.000    4.167    0.000    0.000    0.000    0.000 
#    0.000    0.000    0.000    0.000    0.000    0.000 
#
# Total GULP energy -268484.573346 kJ/mol
# GULP energy per Si atom -5593.428611 kJ/mol
# Density = 2.220380 g / cm^3
# Si number density = 22.254457 Si / 1000 Ang^3
#
#
#
# Elastic Constant Matrix: (Units=GPa)
#
#
# Indices 1 2 3 4 5 6 
#
# 1 83.5055 5.0371 8.2286 0.0000 0.0000 0.0000
# 2 5.0371 49.5064 -12.2267 0.0000 0.0000 0.0000
# 3 8.2286 -12.2267 30.4440 0.0000 0.0000 0.0000
# 4 0.0000 0.0000 0.0000 7.0224 0.0000 0.0000
# 5 0.0000 0.0000 0.0000 0.0000 -8.3829 0.0000
# 6 0.0000 0.0000 0.0000 0.0000 0.0000 38.6739
#
#
#
# Elastic Compliance Matrix: (Units=1/GPa)
#
#
# Indices 1 2 3 4 5 6 
#
# 1 0.012544 -0.002346 -0.004333 0.000000 0.000000 0.000000
# 2 -0.002346 0.022862 0.009816 0.000000 0.000000 0.000000
# 3 -0.004333 0.009816 0.037961 0.000000 0.000000 0.000000
# 4 0.000000 0.000000 0.000000 0.142401 0.000000 0.000000
# 5 0.000000 0.000000 0.000000 0.000000 -0.119290 0.000000
# 6 0.000000 0.000000 0.000000 0.000000 0.000000 0.025857
#
#
# Mechanical properties :
#
#
# Convention : Reuss Voigt Hill
#
# Bulk Modulus (GPa) = 12.55642 18.39265 15.47454
# Shear Modulus (GPa) = 35.06131 18.29048 26.67589
#
# Velocity S-wave (km/s) = 3.97353 2.86995 3.46595
# Velocity P-wave (km/s) = 5.16782 4.38917 4.79433
#
# Compressibility (1/GPa) = 0.07964056
#
# Stress axis : x y z
#
# Youngs Moduli (GPa) = 79.72104 43.73993 26.34316
#
# Poissons Ratio (x) = 0.10263 0.11414
# Poissons Ratio (y) = 0.18705 -0.25858
# Poissons Ratio (z) = 0.34541 -0.42935
#
# Static dielectric constant tensor:
#      x y z
#    x 1.812220 0.000000 0.000000 
#    y 0.000000 1.806960 0.000000 
#    z 0.000000 0.000000 1.794240 
# 
# From -- ./inp_files/2800.got.cif
#   From: 2010.05.17/outbox.cif.g08.bks.cpg/sg55_2_cif.got.tgz:2800.got - 2010.06.03 13:27:54.
