data_PCOD9428020
_publ_section_title
;
Structure prediction by ZEFSAII (Michael W. Deem and Ramdas Pophale) SiO2 
 PCOD9428020
Probable space group: P B A M
;
_chemical_formula_sum "Si O2"
_cell_formula_units_Z 38
_cell_length_a 16.787032
_cell_length_b 5.124829
_cell_length_c 22.110504
_cell_angle_alpha 90.000000
_cell_angle_beta 90.000000
_cell_angle_gamma 90.000000
_cell_volume 1902.181438
_symmetry_space_group_name_H-M "P B A M"
_symmetry_group_IT_number 55
_symmetry_cell_setting 'orthorhombic'
loop_
_space_group_symop_operation_xyz
x,y,z
-x,-y,z
1/2+x,1/2-y,-z
1/2-x,1/2+y,-z
-x,-y,-z
x,y,-z
1/2-x,1/2+y,z
1/2+x,1/2-y,z
loop_
_atom_site_type_symbol
_atom_site_label
_atom_site_fract_x
_atom_site_fract_y
_atom_site_fract_z
Si Si1 0.801788 0.348887 0.198779
Si Si2 0.081457 0.863630 0.901188
Si Si3 0.697647 0.844427 0.339249
Si Si4 0.500000 0.000000 0.000000
Si Si5 0.444828 0.254515 0.430579
Si Si6 0.193414 0.100746 0.000000
O O1 0.770178 0.641739 0.189275
O O2 0.869044 0.262781 0.152465
O O3 0.827060 0.321612 0.268799
O O4 0.053176 0.646528 0.948122
O O5 0.136606 0.059455 0.941550
O O6 0.000000 0.000000 0.880128
O O7 0.767581 0.633009 0.348732
O O8 0.626972 0.780243 0.384502
O O9 0.500000 0.500000 0.415013
O O10 0.416183 0.289478 0.500000
O O11 0.500000 0.000000 0.428753
O O12 0.259776 0.872423 0.000000
#
# Coordination Sequence:
#
# PCOD9428020 Si02
#       6
#     8   8   8   2   8   4
#     4  10  23  43  64  88 120 159 201 244 299 362
#     4  11  25  40  62  87 121 150 191 248 298 354
#     4  10  21  39  62  90 122 161 209 258 297 360
#     4  10  24  40  56  82 120 142 186 244 294 348
#     4  10  21  37  58  89 129 167 206 254 306 361
#     4  11  24  39  62  82 110 151 186 225 289 355
#
# _framework density 19.977063999999999
#
# number of rings (size 3 to 8) (size 9 to 14) (size 15 to 20)
#    0.000    1.684    0.000    3.789    8.842    1.684 
#    1.895    0.000    0.000    0.000    0.000    0.000 
#    0.000    0.000    0.000    0.000    0.000    0.000 
#
# Total GULP energy -212051.107106 kJ/mol
# GULP energy per Si atom -5580.292292 kJ/mol
# Density = 1.993160 g / cm^3
# Si number density = 19.977064 Si / 1000 Ang^3
#
#
#
# Elastic Constant Matrix: (Units=GPa)
#
#
# Indices 1 2 3 4 5 6 
#
# 1 66.4032 -9.2223 43.3749 0.0000 0.0000 0.0000
# 2 -9.2223 58.7751 -15.4199 0.0000 0.0000 0.0000
# 3 43.3749 -15.4199 73.0024 0.0000 0.0000 0.0000
# 4 0.0000 0.0000 0.0000 1413.7723 0.0000 0.0000
# 5 0.0000 0.0000 0.0000 0.0000 187.7642 0.0000
# 6 0.0000 0.0000 0.0000 0.0000 0.0000 23.4480
#
#
#
# Elastic Compliance Matrix: (Units=1/GPa)
#
#
# Indices 1 2 3 4 5 6 
#
# 1 0.024611 0.000027 -0.014617 0.000000 0.000000 0.000000
# 2 0.000027 0.018012 0.003789 0.000000 0.000000 0.000000
# 3 -0.014617 0.003789 0.023183 0.000000 0.000000 0.000000
# 4 0.000000 0.000000 0.000000 0.000707 0.000000 0.000000
# 5 0.000000 0.000000 0.000000 0.000000 0.005326 0.000000
# 6 0.000000 0.000000 0.000000 0.000000 0.000000 0.042648
#
#
# Mechanical properties :
#
#
# Convention : Reuss Voigt Hill
#
# Bulk Modulus (GPa) = 22.62275 26.18290 24.40283
# Shear Modulus (GPa) = 33.15079 336.96011 185.05545
#
# Velocity S-wave (km/s) = 4.07805 13.00153 9.63510
# Velocity P-wave (km/s) = 5.78989 15.44413 11.66285
#
# Compressibility (1/GPa) = 0.04420329
#
# Stress axis : x y z
#
# Youngs Moduli (GPa) = 40.63161 55.51795 43.13416
#
# Poissons Ratio (x) = -0.00149 0.63051
# Poissons Ratio (y) = -0.00109 -0.16342
# Poissons Ratio (z) = 0.59393 -0.21034
#
# Static dielectric constant tensor:
#      x y z
#    x 1.686930 0.000000 0.000000 
#    y 0.000000 1.728040 0.000000 
#    z 0.000000 0.000000 1.676980 
# 
# From -- ./inp_files/21717.got.cif
#   From: 2010.05.17/outbox.cif.g08.bks.cpg/sg55_11_cif.got.tgz:21717.got - 2010.06.03 13:27:54.
