data_PCOD9428721
_publ_section_title
;
Structure prediction by ZEFSAII (Michael W. Deem and Ramdas Pophale) SiO2 
 PCOD9428721
Probable space group: P B A M
;
_chemical_formula_sum "Si O2"
_cell_formula_units_Z 26
_cell_length_a 9.006942
_cell_length_b 15.261048
_cell_length_c 7.759583
_cell_angle_alpha 90.000000
_cell_angle_beta 90.000000
_cell_angle_gamma 90.000000
_cell_volume 1066.596385
_symmetry_space_group_name_H-M "P B A M"
_symmetry_group_IT_number 55
_symmetry_cell_setting 'orthorhombic'
loop_
_space_group_symop_operation_xyz
x,y,z
-x,-y,z
1/2+x,1/2-y,-z
1/2-x,1/2+y,-z
-x,-y,-z
x,y,-z
1/2-x,1/2+y,z
1/2+x,1/2-y,z
loop_
_atom_site_type_symbol
_atom_site_label
_atom_site_fract_x
_atom_site_fract_y
_atom_site_fract_z
Si Si1 0.577244 0.800585 0.795280
Si Si2 0.000000 0.000000 0.000000
Si Si3 0.755765 0.132491 0.206035
Si Si4 0.184191 0.059364 0.313072
O O1 0.628046 0.705242 0.733734
O O2 0.404927 0.822760 0.776336
O O3 0.680240 0.874371 0.712501
O O4 0.609805 0.801496 0.000000
O O5 0.073477 0.062414 0.152858
O O6 0.756573 0.040381 0.300790
O O7 0.783034 0.108871 0.000000
O O8 0.115797 0.075012 0.500000
#
# Coordination Sequence:
#
# PCOD9428721 Si02
#       4
#     8   2   8   8
#     4  10  22  41  70 102 141 188 231 281 344 408
#     4  12  26  48  70 102 140 178 232 296 332 434
#     4  10  22  41  70 102 141 188 231 281 344 408
#     4  12  26  44  72 101 138 185 229 286 351 409
#
# _framework density 24.376607
#
# number of rings (size 3 to 8) (size 9 to 14) (size 15 to 20)
#    0.000    1.231    3.077    1.385    4.308    6.154 
#    0.000    0.000    0.000    0.000    0.000    0.000 
#    0.000    0.000    0.000    0.000    0.000    0.000 
#
# Total GULP energy -145276.255464 kJ/mol
# GULP energy per Si atom -5587.548287 kJ/mol
# Density = 2.432112 g / cm^3
# Si number density = 24.376607 Si / 1000 Ang^3
#
#
#
# Elastic Constant Matrix: (Units=GPa)
#
#
# Indices 1 2 3 4 5 6 
#
# 1 59.1330 34.1070 49.9504 0.0000 0.0000 0.0000
# 2 34.1070 179.4334 34.7625 0.0000 0.0000 0.0000
# 3 49.9504 34.7625 160.3188 0.0000 0.0000 0.0000
# 4 0.0000 0.0000 0.0000 -13.4114 0.0000 0.0000
# 5 0.0000 0.0000 0.0000 0.0000 -25.1104 0.0000
# 6 0.0000 0.0000 0.0000 0.0000 0.0000 51.1423
#
#
#
# Elastic Compliance Matrix: (Units=1/GPa)
#
#
# Indices 1 2 3 4 5 6 
#
# 1 0.024741 -0.003350 -0.006982 0.000000 0.000000 0.000000
# 2 -0.003350 0.006271 -0.000316 0.000000 0.000000 0.000000
# 3 -0.006982 -0.000316 0.008482 0.000000 0.000000 0.000000
# 4 0.000000 0.000000 0.000000 -0.074564 0.000000 0.000000
# 5 0.000000 0.000000 0.000000 0.000000 -0.039824 0.000000
# 6 0.000000 0.000000 0.000000 0.000000 0.000000 0.019553
#
#
# Mechanical properties :
#
#
# Convention : Reuss Voigt Hill
#
# Bulk Modulus (GPa) = 54.95334 70.72499 62.83917
# Shear Modulus (GPa) = -178.71172 21.19513 -78.75830
#
# Velocity S-wave (km/s) = -8.57158 2.95190 -5.69026
# Velocity P-wave (km/s) = 8.68160 6.37925 4.16386
#
# Compressibility (1/GPa) = 0.01819725
#
# Stress axis : x y z
#
# Youngs Moduli (GPa) = 40.41824 159.46121 117.90329
#
# Poissons Ratio (x) = 0.53422 0.82322
# Poissons Ratio (y) = 0.13541 0.03726
# Poissons Ratio (z) = 0.28221 0.05039
#
# Static dielectric constant tensor:
#      x y z
#    x 1.790890 0.000000 0.000000 
#    y 0.000000 1.820350 0.000000 
#    z 0.000000 0.000000 1.903750 
# 
# From -- ./inp_files/1849.got.cif
#   From: 2010.05.17/outbox.cif.g08.bks.cpg/sg55_1_cif.got.tgz:1849.got - 2010.06.03 13:27:54.
