data_PCOD9428353
_publ_section_title
;
Structure prediction by ZEFSAII (Michael W. Deem and Ramdas Pophale) SiO2 
 PCOD9428353
Probable space group: P B A M
;
_chemical_formula_sum "Si O2"
_cell_formula_units_Z 64
_cell_length_a 15.357170
_cell_length_b 24.374579
_cell_length_c 8.168913
_cell_angle_alpha 90.000000
_cell_angle_beta 90.000000
_cell_angle_gamma 90.000000
_cell_volume 3057.824710
_symmetry_space_group_name_H-M "P B A M"
_symmetry_group_IT_number 55
_symmetry_cell_setting 'orthorhombic'
loop_
_space_group_symop_operation_xyz
x,y,z
-x,-y,z
1/2+x,1/2-y,-z
1/2-x,1/2+y,-z
-x,-y,-z
x,y,-z
1/2-x,1/2+y,z
1/2+x,1/2-y,z
loop_
_atom_site_type_symbol
_atom_site_label
_atom_site_fract_x
_atom_site_fract_y
_atom_site_fract_z
Si Si1 0.010424 0.373991 0.308037
Si Si2 0.315942 0.132430 0.700362
Si Si3 0.092516 0.475331 0.190344
Si Si4 0.427850 0.758614 0.195609
Si Si5 0.574224 0.543551 0.697905
Si Si6 0.433234 0.330579 0.804934
Si Si7 0.772070 0.244637 0.303558
Si Si8 0.766121 0.974120 0.309053
O O1 0.016694 0.387326 0.500000
O O2 0.079959 0.410449 0.212817
O O3 0.026960 0.310191 0.281361
O O4 0.912487 0.385822 0.248379
O O5 0.315646 0.132146 0.500000
O O6 0.300838 0.194539 0.753218
O O7 0.246204 0.087452 0.758924
O O8 0.172334 0.497966 0.292302
O O9 0.000000 0.500000 0.245725
O O10 0.105646 0.489151 0.000000
O O11 0.481358 0.704293 0.249625
O O12 0.325893 0.761963 0.238167
O O13 0.437425 0.763630 0.000000
O O14 0.500000 0.500000 0.745169
O O15 0.575848 0.546219 0.500000
O O16 0.562665 0.605917 0.754247
O O17 0.662977 0.515415 0.761606
O O18 0.345131 0.299822 0.745442
O O19 0.431491 0.328499 0.000000
O O20 0.767636 0.244471 0.500000
O O21 0.788718 0.967279 0.500000
#
# Coordination Sequence:
#
# PCOD9428353 Si02
#       8
#     8   8   8   8   8   8   8   8
#     4  11  21  38  63  89 120 162 207 258 311 371
#     4   9  19  36  62  93 121 153 206 266 316 370
#     4  11  23  37  55  87 127 165 203 248 307 376
#     4  11  25  43  63  92 128 168 207 256 324 388
#     4  10  24  44  69  95 124 165 220 278 323 371
#     4  11  25  45  67  93 134 175 213 266 324 390
#     4  11  23  41  68  98 126 164 213 266 320 381
#     4  10  21  40  63  90 122 162 209 260 316 373
#
# _framework density 20.929911000000001
#
# number of rings (size 3 to 8) (size 9 to 14) (size 15 to 20)
#    0.000    1.500    2.500    1.875    3.500    2.750 
#    0.000    1.250    0.000    0.000    0.000    0.000 
#    0.000    0.000    0.000    0.000    0.000    0.000 
#
# Total GULP energy -357434.536490 kJ/mol
# GULP energy per Si atom -5584.914633 kJ/mol
# Density = 2.088227 g / cm^3
# Si number density = 20.929911 Si / 1000 Ang^3
#
#
#
# Elastic Constant Matrix: (Units=GPa)
#
#
# Indices 1 2 3 4 5 6 
#
# 1 90.4031 40.1669 8.6233 0.0000 0.0000 0.0000
# 2 40.1669 145.8450 7.0887 0.0000 0.0000 0.0000
# 3 8.6233 7.0887 32.6866 0.0000 0.0000 0.0000
# 4 0.0000 0.0000 0.0000 4.8423 0.0000 0.0000
# 5 0.0000 0.0000 0.0000 0.0000 7.9834 0.0000
# 6 0.0000 0.0000 0.0000 0.0000 0.0000 28.6804
#
#
#
# Elastic Compliance Matrix: (Units=1/GPa)
#
#
# Indices 1 2 3 4 5 6 
#
# 1 0.012826 -0.003404 -0.002646 0.000000 0.000000 0.000000
# 2 -0.003404 0.007833 -0.000801 0.000000 0.000000 0.000000
# 3 -0.002646 -0.000801 0.031465 0.000000 0.000000 0.000000
# 4 0.000000 0.000000 0.000000 0.206512 0.000000 0.000000
# 5 0.000000 0.000000 0.000000 0.000000 0.125259 0.000000
# 6 0.000000 0.000000 0.000000 0.000000 0.000000 0.034867
#
#
# Mechanical properties :
#
#
# Convention : Reuss Voigt Hill
#
# Bulk Modulus (GPa) = 26.02538 42.29916 34.16227
# Shear Modulus (GPa) = 11.22911 22.50494 16.86703
#
# Velocity S-wave (km/s) = 2.31878 3.28266 2.84188
# Velocity P-wave (km/s) = 4.43064 5.88401 5.20827
#
# Compressibility (1/GPa) = 0.03842403
#
# Stress axis : x y z
#
# Youngs Moduli (GPa) = 77.96476 127.66550 31.78117
#
# Poissons Ratio (x) = 0.43456 0.08408
# Poissons Ratio (y) = 0.26538 0.02545
# Poissons Ratio (z) = 0.20627 0.10222
#
# Static dielectric constant tensor:
#      x y z
#    x 1.761670 0.000000 0.000000 
#    y 0.000000 1.777030 0.000000 
#    z 0.000000 0.000000 1.733890 
# 
# From -- ./inp_files/6712.got.cif
#   From: 2010.05.17/outbox.cif.g08.bks.cpg/sg55_4_cif.got.tgz:6712.got - 2010.06.03 13:27:54.
