data_PCOD9428993
_publ_section_title
;
Structure prediction by ZEFSAII (Michael W. Deem and Ramdas Pophale) SiO2 
 PCOD9428993
Probable space group: P B A M
;
_chemical_formula_sum "Si O2"
_cell_formula_units_Z 56
_cell_length_a 13.647589
_cell_length_b 29.971301
_cell_length_c 9.254843
_cell_angle_alpha 90.000000
_cell_angle_beta 90.000000
_cell_angle_gamma 90.000000
_cell_volume 3785.563941
_symmetry_space_group_name_H-M "P B A M"
_symmetry_group_IT_number 55
_symmetry_cell_setting 'orthorhombic'
loop_
_space_group_symop_operation_xyz
x,y,z
-x,-y,z
1/2+x,1/2-y,-z
1/2-x,1/2+y,-z
-x,-y,-z
x,y,-z
1/2-x,1/2+y,z
1/2+x,1/2-y,z
loop_
_atom_site_type_symbol
_atom_site_label
_atom_site_fract_x
_atom_site_fract_y
_atom_site_fract_z
Si Si1 0.613958 0.090016 0.172273
Si Si2 0.279888 0.181893 0.827660
Si Si3 0.699635 0.185506 0.828366
Si Si4 0.619164 0.000384 0.666534
Si Si5 0.382816 0.089382 0.827506
Si Si6 0.405797 0.269638 0.169121
Si Si7 0.893900 0.769213 0.672356
O O1 0.671255 0.135140 0.209471
O O2 0.498272 0.096848 0.204681
O O3 0.649187 0.045878 0.254245
O O4 0.622065 0.082750 0.000000
O O5 0.322472 0.133614 0.789592
O O6 0.361851 0.220163 0.803602
O O7 0.184808 0.196331 0.738679
O O8 0.258049 0.183037 0.000000
O O9 0.813751 0.197454 0.807997
O O10 0.638074 0.221233 0.737559
O O11 0.678027 0.192112 0.000000
O O12 0.649183 0.000308 0.500000
O O13 0.650711 0.955254 0.746664
O O14 0.500000 0.000000 0.671975
O O15 0.375323 0.082610 0.000000
O O16 0.497838 0.279095 0.269098
O O17 0.434683 0.271832 0.000000
O O18 0.889788 0.768872 0.500000
#
# Coordination Sequence:
#
# PCOD9428993 Si02
#       7
#     8   8   8   8   8   8   8
#     4   9  16  28  46  66  87 112 146 183 216 253
#     4   9  18  32  49  66  85 115 154 188 218 255
#     4   9  18  32  49  66  85 115 153 187 218 255
#     4   9  17  27  39  60  91 121 144 170 211 261
#     4   9  16  27  45  66  87 114 147 182 216 252
#     4   9  17  31  48  64  86 116 149 183 217 256
#     4  11  21  30  43  65  93 120 145 179 221 264
#
# _framework density 14.79304
#
# number of rings (size 3 to 8) (size 9 to 14) (size 15 to 20)
#    0.000    2.714    0.000    3.429    0.000    7.429 
#    0.000    2.857    0.000    0.000    0.000    1.000 
#    0.000    8.000    0.000    0.000    0.000    0.000 
#
# Total GULP energy -312145.428642 kJ/mol
# GULP energy per Si atom -5574.025511 kJ/mol
# Density = 1.475937 g / cm^3
# Si number density = 14.793040 Si / 1000 Ang^3
#
#
#
# Elastic Constant Matrix: (Units=GPa)
#
#
# Indices 1 2 3 4 5 6 
#
# 1 59.4603 53.7998 49.2406 0.0000 0.0000 0.0000
# 2 53.7998 155.5605 67.7037 0.0000 0.0000 0.0000
# 3 49.2406 67.7037 67.3854 0.0000 0.0000 0.0000
# 4 0.0000 0.0000 0.0000 11.7337 0.0000 0.0000
# 5 0.0000 0.0000 0.0000 0.0000 10.4925 0.0000
# 6 0.0000 0.0000 0.0000 0.0000 0.0000 19.7976
#
#
#
# Elastic Compliance Matrix: (Units=1/GPa)
#
#
# Indices 1 2 3 4 5 6 
#
# 1 0.042983 -0.002124 -0.029275 0.000000 0.000000 0.000000
# 2 -0.002124 0.011529 -0.010031 0.000000 0.000000 0.000000
# 3 -0.029275 -0.010031 0.046310 0.000000 0.000000 0.000000
# 4 0.000000 0.000000 0.000000 0.085224 0.000000 0.000000
# 5 0.000000 0.000000 0.000000 0.000000 0.095306 0.000000
# 6 0.000000 0.000000 0.000000 0.000000 0.000000 0.050511
#
#
# Mechanical properties :
#
#
# Convention : Reuss Voigt Hill
#
# Bulk Modulus (GPa) = 55.67244 69.32161 62.49703
# Shear Modulus (GPa) = 11.88464 15.84892 13.86678
#
# Velocity S-wave (km/s) = 2.83750 3.27674 3.06500
# Velocity P-wave (km/s) = 6.96068 7.82807 7.40709
#
# Compressibility (1/GPa) = 0.01796221
#
# Stress axis : x y z
#
# Youngs Moduli (GPa) = 23.26484 86.73966 21.59356
#
# Poissons Ratio (x) = 0.18428 0.63215
# Poissons Ratio (y) = 0.04943 0.21660
# Poissons Ratio (z) = 0.68107 0.87007
#
# Static dielectric constant tensor:
#      x y z
#    x 1.472340 0.000000 0.000000 
#    y 0.000000 1.479750 0.000000 
#    z 0.000000 0.000000 1.489870 
# 
# From -- ./inp_files/6882.got.cif
#   From: 2010.05.17/outbox.cif.g08.bks.cpg/sg55_4_cif.got.tgz:6882.got - 2010.06.03 13:27:54.
