data_PCOD9428987
_publ_section_title
;
Structure prediction by ZEFSAII (Michael W. Deem and Ramdas Pophale) SiO2 
 PCOD9428987
Probable space group: P B A M
;
_chemical_formula_sum "Si O2"
_cell_formula_units_Z 58
_cell_length_a 11.732847
_cell_length_b 17.992792
_cell_length_c 14.541480
_cell_angle_alpha 90.000000
_cell_angle_beta 90.000000
_cell_angle_gamma 90.000000
_cell_volume 3069.803502
_symmetry_space_group_name_H-M "P B A M"
_symmetry_group_IT_number 55
_symmetry_cell_setting 'orthorhombic'
loop_
_space_group_symop_operation_xyz
x,y,z
-x,-y,z
1/2+x,1/2-y,-z
1/2-x,1/2+y,-z
-x,-y,-z
x,y,-z
1/2-x,1/2+y,z
1/2+x,1/2-y,z
loop_
_atom_site_type_symbol
_atom_site_label
_atom_site_fract_x
_atom_site_fract_y
_atom_site_fract_z
Si Si1 0.000000 0.500000 0.500000
Si Si2 0.083396 0.293225 0.106234
Si Si3 0.094353 0.063803 0.391125
Si Si4 0.165498 0.496297 0.672305
Si Si5 0.663720 0.456427 0.897871
Si Si6 0.526831 0.346200 0.769719
Si Si7 0.578222 0.930330 0.149808
Si Si8 0.221054 0.887830 0.813693
O O1 0.093652 0.481047 0.581840
O O2 0.068992 0.226810 0.178268
O O3 0.203309 0.333465 0.125369
O O4 0.988163 0.355709 0.126588
O O5 0.075138 0.268522 0.000000
O O6 0.094938 0.076035 0.500000
O O7 0.065052 0.137709 0.334137
O O8 0.215741 0.033387 0.357797
O O9 0.000000 0.000000 0.370308
O O10 0.100483 0.552482 0.742131
O O11 0.199310 0.425075 0.734864
O O12 0.584532 0.414154 0.825939
O O13 0.794882 0.428858 0.891301
O O14 0.675616 0.542682 0.872690
O O15 0.619510 0.444834 0.000000
O O16 0.390504 0.349238 0.773814
O O17 0.500000 0.000000 0.116577
#
# Coordination Sequence:
#
# PCOD9428987 Si02
#       8
#     2   8   8   8   8   8   8   8
#     4  12  20  32  62 112 134 148 212 274 338 392
#     4  12  27  42  62  94 134 184 227 270 336 405
#     4  11  21  40  71 100 125 164 221 273 332 402
#     4  11  20  37  66  99 126 164 211 282 328 382
#     4  11  22  37  63  93 124 167 223 274 326 391
#     4  12  25  42  64  93 137 169 216 279 341 399
#     4  11  21  40  63  88 128 171 219 273 332 386
#     4  11  23  43  64  91 132 173 221 274 333 387
#
# _framework density 18.893716999999999
#
# number of rings (size 3 to 8) (size 9 to 14) (size 15 to 20)
#    0.000    0.690    8.276    1.655    1.931    3.310 
#    0.000    0.000    6.069    0.000    0.000    0.000 
#    0.000    0.000    0.000    0.000    0.000    0.000 
#
# Total GULP energy -323528.223401 kJ/mol
# GULP energy per Si atom -5578.072817 kJ/mol
# Density = 1.885071 g / cm^3
# Si number density = 18.893717 Si / 1000 Ang^3
#
#
#
# Elastic Constant Matrix: (Units=GPa)
#
#
# Indices 1 2 3 4 5 6 
#
# 1 87.5492 8.7759 8.8284 0.0000 0.0000 0.0000
# 2 8.7759 76.1771 24.7173 0.0000 0.0000 0.0000
# 3 8.8284 24.7173 118.4992 0.0000 0.0000 0.0000
# 4 0.0000 0.0000 0.0000 2.0441 0.0000 0.0000
# 5 0.0000 0.0000 0.0000 0.0000 17.3301 0.0000
# 6 0.0000 0.0000 0.0000 0.0000 0.0000 15.5976
#
#
#
# Elastic Compliance Matrix: (Units=1/GPa)
#
#
# Indices 1 2 3 4 5 6 
#
# 1 0.011599 -0.001133 -0.000628 0.000000 0.000000 0.000000
# 2 -0.001133 0.014191 -0.002876 0.000000 0.000000 0.000000
# 3 -0.000628 -0.002876 0.009085 0.000000 0.000000 0.000000
# 4 0.000000 0.000000 0.000000 0.489202 0.000000 0.000000
# 5 0.000000 0.000000 0.000000 0.000000 0.057703 0.000000
# 6 0.000000 0.000000 0.000000 0.000000 0.000000 0.064112
#
#
# Mechanical properties :
#
#
# Convention : Reuss Voigt Hill
#
# Bulk Modulus (GPa) = 39.05764 40.76317 39.91041
# Shear Modulus (GPa) = 7.53353 22.98797 15.26075
#
# Velocity S-wave (km/s) = 1.99899 3.49191 2.84512
# Velocity P-wave (km/s) = 5.10344 6.15465 5.65353
#
# Compressibility (1/GPa) = 0.02560318
#
# Stress axis : x y z
#
# Youngs Moduli (GPa) = 86.21444 70.46797 110.06578
#
# Poissons Ratio (x) = 0.07981 0.06911
# Poissons Ratio (y) = 0.09764 0.31651
# Poissons Ratio (z) = 0.05414 0.20264
#
# Static dielectric constant tensor:
#      x y z
#    x 1.685320 0.000000 0.000000 
#    y 0.000000 1.640780 0.000000 
#    z 0.000000 0.000000 1.664530 
# 
# From -- ./inp_files/18513.got.cif
#   From: 2010.05.17/outbox.cif.g08.bks.cpg/sg55_10_cif.got.tgz:18513.got - 2010.06.03 13:27:54.
