data_PCOD9428348
_publ_section_title
;
Structure prediction by ZEFSAII (Michael W. Deem and Ramdas Pophale) SiO2 
 PCOD9428348
Probable space group: P B A M
;
_chemical_formula_sum "Si O2"
_cell_formula_units_Z 56
_cell_length_a 9.424883
_cell_length_b 13.002667
_cell_length_c 20.738088
_cell_angle_alpha 90.000000
_cell_angle_beta 90.000000
_cell_angle_gamma 90.000000
_cell_volume 2541.423966
_symmetry_space_group_name_H-M "P B A M"
_symmetry_group_IT_number 55
_symmetry_cell_setting 'orthorhombic'
loop_
_space_group_symop_operation_xyz
x,y,z
-x,-y,z
1/2+x,1/2-y,-z
1/2-x,1/2+y,-z
-x,-y,-z
x,y,-z
1/2-x,1/2+y,z
1/2+x,1/2-y,z
loop_
_atom_site_type_symbol
_atom_site_label
_atom_site_fract_x
_atom_site_fract_y
_atom_site_fract_z
Si Si1 0.408745 0.632918 0.929891
Si Si2 0.251808 0.014365 0.826653
Si Si3 0.408614 0.204254 0.774396
Si Si4 0.961397 0.881949 0.577108
Si Si5 0.221554 0.758854 0.635782
Si Si6 0.712703 0.678463 0.109706
Si Si7 0.870418 0.581851 0.711182
O O1 0.375189 0.564222 0.867023
O O2 0.314975 0.734717 0.917431
O O3 0.574595 0.657242 0.932304
O O4 0.366581 0.588402 0.000000
O O5 0.246635 0.971537 0.753239
O O6 0.360690 0.105701 0.815319
O O7 0.300252 0.923361 0.873438
O O8 0.332779 0.220711 0.705825
O O9 0.366194 0.293345 0.822629
O O10 0.567657 0.176360 0.754377
O O11 0.948833 0.884629 0.500000
O O12 0.816975 0.831861 0.605788
O O13 0.086435 0.802348 0.597144
O O14 0.000000 0.000000 0.598457
O O15 0.316095 0.861457 0.648107
O O16 0.000000 0.500000 0.701752
#
# Coordination Sequence:
#
# PCOD9428348 Si02
#       7
#     8   8   8   8   8   8   8
#     4  11  25  42  63  91 124 176 232 273 341 431
#     4  10  22  38  61  92 129 161 207 291 335 395
#     4  10  22  38  63  99 133 163 225 273 351 417
#     4  11  28  48  71 107 149 193 247 290 343 421
#     4  12  23  44  73 102 141 193 231 293 353 418
#     4  11  22  41  63  89 129 170 215 285 345 399
#     4  10  21  40  63 101 135 172 224 283 350 424
#
# _framework density 22.034889
#
# number of rings (size 3 to 8) (size 9 to 14) (size 15 to 20)
#    0.000    1.286    2.857    2.143    6.000    2.857 
#    2.571    0.000    0.000   10.714    0.000    0.000 
#    0.000    0.000    0.000    0.000    0.000    0.000 
#
# Total GULP energy -312121.743751 kJ/mol
# GULP energy per Si atom -5573.602567 kJ/mol
# Density = 2.198474 g / cm^3
# Si number density = 22.034889 Si / 1000 Ang^3
#
#
#
# Elastic Constant Matrix: (Units=GPa)
#
#
# Indices 1 2 3 4 5 6 
#
# 1 81.3674 39.2552 42.8233 0.0000 0.0000 0.0000
# 2 39.2552 93.6735 33.4108 0.0000 0.0000 0.0000
# 3 42.8233 33.4108 105.1133 0.0000 0.0000 0.0000
# 4 0.0000 0.0000 0.0000 20.9269 0.0000 0.0000
# 5 0.0000 0.0000 0.0000 0.0000 25.0586 0.0000
# 6 0.0000 0.0000 0.0000 0.0000 0.0000 37.2815
#
#
#
# Elastic Compliance Matrix: (Units=1/GPa)
#
#
# Indices 1 2 3 4 5 6 
#
# 1 0.017856 -0.005513 -0.005522 0.000000 0.000000 0.000000
# 2 -0.005513 0.013743 -0.002122 0.000000 0.000000 0.000000
# 3 -0.005522 -0.002122 0.012438 0.000000 0.000000 0.000000
# 4 0.000000 0.000000 0.000000 0.047785 0.000000 0.000000
# 5 0.000000 0.000000 0.000000 0.000000 0.039906 0.000000
# 6 0.000000 0.000000 0.000000 0.000000 0.000000 0.026823
#
#
# Mechanical properties :
#
#
# Convention : Reuss Voigt Hill
#
# Bulk Modulus (GPa) = 56.42845 56.79253 56.61049
# Shear Modulus (GPa) = 26.20909 27.63105 26.92007
#
# Velocity S-wave (km/s) = 3.45256 3.54498 3.49908
# Velocity P-wave (km/s) = 6.44654 6.52578 6.48628
#
# Compressibility (1/GPa) = 0.01772156
#
# Stress axis : x y z
#
# Youngs Moduli (GPa) = 56.00346 72.76607 80.40013
#
# Poissons Ratio (x) = 0.40118 0.44398
# Poissons Ratio (y) = 0.30876 0.17062
# Poissons Ratio (z) = 0.30926 0.15442
#
# Static dielectric constant tensor:
#      x y z
#    x 1.834030 0.000000 0.000000 
#    y 0.000000 1.891190 0.000000 
#    z 0.000000 0.000000 1.810850 
# 
# From -- ./inp_files/22632.got.cif
#   From: 2010.05.17/outbox.cif.g08.bks.cpg/sg55_12_cif.got.tgz:22632.got - 2010.06.03 13:27:54.
