data_PCOD9428780
_publ_section_title
;
Structure prediction by ZEFSAII (Michael W. Deem and Ramdas Pophale) SiO2 
 PCOD9428780
Probable space group: P B A M
;
_chemical_formula_sum "Si O2"
_cell_formula_units_Z 52
_cell_length_a 30.279279
_cell_length_b 9.554353
_cell_length_c 7.683742
_cell_angle_alpha 90.000000
_cell_angle_beta 90.000000
_cell_angle_gamma 90.000000
_cell_volume 2222.898263
_symmetry_space_group_name_H-M "P B A M"
_symmetry_group_IT_number 55
_symmetry_cell_setting 'orthorhombic'
loop_
_space_group_symop_operation_xyz
x,y,z
-x,-y,z
1/2+x,1/2-y,-z
1/2-x,1/2+y,-z
-x,-y,-z
x,y,-z
1/2-x,1/2+y,z
1/2+x,1/2-y,z
loop_
_atom_site_type_symbol
_atom_site_label
_atom_site_fract_x
_atom_site_fract_y
_atom_site_fract_z
Si Si1 0.288786 0.017392 0.210733
Si Si2 0.798403 0.809240 0.790277
Si Si3 0.525773 0.260844 0.699532
Si Si4 0.854608 0.497087 0.500000
Si Si5 0.086286 0.462224 0.183521
Si Si6 0.072626 0.773007 0.293369
Si Si7 0.390239 0.559909 0.207232
O O1 0.242404 0.090383 0.253860
O O2 0.325550 0.077035 0.341665
O O3 0.289250 0.851730 0.260004
O O4 0.295885 0.033189 0.000000
O O5 0.884406 0.574347 0.651984
O O6 0.844882 0.871758 0.726448
O O7 0.800655 0.808630 0.000000
O O8 0.521059 0.216689 0.500000
O O9 0.541305 0.124779 0.803161
O O10 0.477699 0.319094 0.746969
O O11 0.565700 0.369505 0.716915
O O12 0.921183 0.373023 0.197581
O O13 0.108105 0.424820 0.000000
O O14 0.078055 0.741034 0.500000
O O15 0.105855 0.895436 0.245090
O O16 0.392229 0.580252 0.000000
#
# Coordination Sequence:
#
# PCOD9428780 Si02
#       7
#     8   8   8   4   8   8   8
#     4  10  22  44  70  97 136 177 219 276 341 406
#     4   9  21  42  68  99 134 176 223 276 336 402
#     4  11  23  42  68  97 134 181 234 286 339 410
#     4  12  24  42  65 102 132 174 225 274 330 406
#     4  12  25  43  69 100 138 182 230 287 345 405
#     4  11  24  44  64  96 138 181 233 289 341 402
#     4  11  23  40  65 100 140 182 231 284 342 409
#
# _framework density 23.392882
#
# number of rings (size 3 to 8) (size 9 to 14) (size 15 to 20)
#    0.000    1.231    1.538    3.692    0.000    9.231 
#    4.154    3.077    0.000    0.000    0.000    0.000 
#    0.000    0.000    0.000    0.000    0.000    0.000 
#
# Total GULP energy -289810.386371 kJ/mol
# GULP energy per Si atom -5573.276661 kJ/mol
# Density = 2.333964 g / cm^3
# Si number density = 23.392882 Si / 1000 Ang^3
#
#
#
# Elastic Constant Matrix: (Units=GPa)
#
#
# Indices 1 2 3 4 5 6 
#
# 1 39.7800 -20.8281 36.9833 0.0000 0.0000 0.0000
# 2 -20.8281 80.5578 8.1740 0.0000 0.0000 0.0000
# 3 36.9833 8.1740 134.7136 0.0000 0.0000 0.0000
# 4 0.0000 0.0000 0.0000 13.7297 0.0000 0.0000
# 5 0.0000 0.0000 0.0000 0.0000 28.4339 0.0000
# 6 0.0000 0.0000 0.0000 0.0000 0.0000 31.5368
#
#
#
# Elastic Compliance Matrix: (Units=1/GPa)
#
#
# Indices 1 2 3 4 5 6 
#
# 1 0.043520 0.012542 -0.012709 0.000000 0.000000 0.000000
# 2 0.012542 0.016105 -0.004420 0.000000 0.000000 0.000000
# 3 -0.012709 -0.004420 0.011180 0.000000 0.000000 0.000000
# 4 0.000000 0.000000 0.000000 0.072835 0.000000 0.000000
# 5 0.000000 0.000000 0.000000 0.000000 0.035169 0.000000
# 6 0.000000 0.000000 0.000000 0.000000 0.000000 0.031709
#
#
# Mechanical properties :
#
#
# Convention : Reuss Voigt Hill
#
# Bulk Modulus (GPa) = 16.22584 33.74552 24.98568
# Shear Modulus (GPa) = 20.81287 30.12155 25.46721
#
# Velocity S-wave (km/s) = 2.98604 3.59226 3.30308
# Velocity P-wave (km/s) = 4.34049 5.62696 5.02506
#
# Compressibility (1/GPa) = 0.06163009
#
# Stress axis : x y z
#
# Youngs Moduli (GPa) = 22.97798 62.09430 89.44310
#
# Poissons Ratio (x) = -0.77876 1.13670
# Poissons Ratio (y) = -0.28818 0.39536
# Poissons Ratio (z) = 0.29202 0.27447
#
# Static dielectric constant tensor:
#      x y z
#    x 1.965570 0.000000 0.000000 
#    y 0.000000 1.975460 0.000000 
#    z 0.000000 0.000000 1.874670 
# 
# From -- ./inp_files/10121.got.cif
#   From: 2010.05.17/outbox.cif.g08.bks.cpg/sg55_6_cif.got.tgz:10121.got - 2010.06.03 13:27:54.
