data_PCOD9428839
_publ_section_title
;
Structure prediction by ZEFSAII (Michael W. Deem and Ramdas Pophale) SiO2 
 PCOD9428839
Probable space group: P B A M
;
_chemical_formula_sum "Si O2"
_cell_formula_units_Z 38
_cell_length_a 12.221565
_cell_length_b 14.233280
_cell_length_c 10.101491
_cell_angle_alpha 90.000000
_cell_angle_beta 90.000000
_cell_angle_gamma 90.000000
_cell_volume 1757.184226
_symmetry_space_group_name_H-M "P B A M"
_symmetry_group_IT_number 55
_symmetry_cell_setting 'orthorhombic'
loop_
_space_group_symop_operation_xyz
x,y,z
-x,-y,z
1/2+x,1/2-y,-z
1/2-x,1/2+y,-z
-x,-y,-z
x,y,-z
1/2-x,1/2+y,z
1/2+x,1/2-y,z
loop_
_atom_site_type_symbol
_atom_site_label
_atom_site_fract_x
_atom_site_fract_y
_atom_site_fract_z
Si Si1 0.271637 0.041190 0.000000
Si Si2 0.693941 0.734596 0.000000
Si Si3 0.748086 0.928341 0.500000
Si Si4 0.066942 0.708974 0.500000
Si Si5 0.614137 0.444361 0.765899
Si Si6 0.513592 0.738039 0.792982
Si Si7 0.920792 0.625171 0.000000
Si Si8 0.000000 0.500000 0.500000
O O1 0.292032 0.152651 0.000000
O O2 0.198643 0.016789 0.873237
O O3 0.383851 0.982776 0.000000
O O4 0.621330 0.708453 0.872714
O O5 0.806225 0.680596 0.000000
O O6 0.693654 0.824124 0.500000
O O7 0.822540 0.942531 0.372138
O O8 0.638160 0.991525 0.500000
O O9 0.038972 0.757600 0.362068
O O10 0.996792 0.613391 0.500000
O O11 0.500000 0.500000 0.758997
O O12 0.580381 0.339197 0.810925
O O13 0.480071 0.835418 0.867099
#
# Coordination Sequence:
#
# PCOD9428839 Si02
#       8
#     4   4   4   4   8   8   4   2
#     4  12  24  40  70  99 135 186 224 285 352 408
#     4  11  22  45  64  95 142 171 230 289 339 421
#     4  10  24  44  68  98 136 177 230 291 337 423
#     4  10  23  41  68  94 136 174 229 290 345 402
#     4  12  24  45  68 101 141 182 233 280 353 430
#     4  11  24  43  65  99 134 179 232 289 344 417
#     4  11  25  40  68  98 134 182 225 282 348 412
#     4   8  24  42  66  94 136 172 228 276 348 410
#
# _framework density 21.625506999999999
#
# number of rings (size 3 to 8) (size 9 to 14) (size 15 to 20)
#    0.632    0.421    2.105    4.421    2.947    1.684 
#    0.000    0.000    0.000    0.000    0.000    0.000 
#    0.000    0.000    0.000    0.000    0.000    0.000 
#
# Total GULP energy -211804.358787 kJ/mol
# GULP energy per Si atom -5573.798915 kJ/mol
# Density = 2.157629 g / cm^3
# Si number density = 21.625507 Si / 1000 Ang^3
#
#
#
# Elastic Constant Matrix: (Units=GPa)
#
#
# Indices 1 2 3 4 5 6 
#
# 1 118.5878 3.1058 48.7716 0.0000 0.0000 0.0000
# 2 3.1058 52.9542 13.8846 0.0000 0.0000 0.0000
# 3 48.7716 13.8846 147.2207 0.0000 0.0000 0.0000
# 4 0.0000 0.0000 0.0000 291.9288 0.0000 0.0000
# 5 0.0000 0.0000 0.0000 0.0000 37.5833 0.0000
# 6 0.0000 0.0000 0.0000 0.0000 0.0000 45.7368
#
#
#
# Elastic Compliance Matrix: (Units=1/GPa)
#
#
# Indices 1 2 3 4 5 6 
#
# 1 0.009767 0.000283 -0.003262 0.000000 0.000000 0.000000
# 2 0.000283 0.019371 -0.001921 0.000000 0.000000 0.000000
# 3 -0.003262 -0.001921 0.008054 0.000000 0.000000 0.000000
# 4 0.000000 0.000000 0.000000 0.003425 0.000000 0.000000
# 5 0.000000 0.000000 0.000000 0.000000 0.026608 0.000000
# 6 0.000000 0.000000 0.000000 0.000000 0.000000 0.021864
#
#
# Mechanical properties :
#
#
# Convention : Reuss Voigt Hill
#
# Bulk Modulus (GPa) = 36.50701 50.03186 43.26944
# Shear Modulus (GPa) = 46.28738 91.91651 69.10195
#
# Velocity S-wave (km/s) = 4.63147 6.52656 5.65891
# Velocity P-wave (km/s) = 6.74676 8.94318 7.92147
#
# Compressibility (1/GPa) = 0.02739200
#
# Stress axis : x y z
#
# Youngs Moduli (GPa) = 102.38745 51.62288 124.15624
#
# Poissons Ratio (x) = -0.01459 0.40503
# Poissons Ratio (y) = -0.02893 0.23845
# Poissons Ratio (z) = 0.33401 0.09914
#
# Static dielectric constant tensor:
#      x y z
#    x 1.787460 0.000000 0.000000 
#    y 0.000000 1.841090 0.000000 
#    z 0.000000 0.000000 1.679620 
# 
# From -- ./inp_files/13071.got.cif
#   From: 2010.05.17/outbox.cif.g08.bks.cpg/sg55_7_cif.got.tgz:13071.got - 2010.06.03 13:27:54.
