data_PCOD9428875
_publ_section_title
;
Structure prediction by ZEFSAII (Michael W. Deem and Ramdas Pophale) SiO2 
 PCOD9428875
Probable space group: P B A M
;
_chemical_formula_sum "Si O2"
_cell_formula_units_Z 64
_cell_length_a 23.187311
_cell_length_b 8.871021
_cell_length_c 13.863455
_cell_angle_alpha 90.000000
_cell_angle_beta 90.000000
_cell_angle_gamma 90.000000
_cell_volume 2851.645079
_symmetry_space_group_name_H-M "P B A M"
_symmetry_group_IT_number 55
_symmetry_cell_setting 'orthorhombic'
loop_
_space_group_symop_operation_xyz
x,y,z
-x,-y,z
1/2+x,1/2-y,-z
1/2-x,1/2+y,-z
-x,-y,-z
x,y,-z
1/2-x,1/2+y,z
1/2+x,1/2-y,z
loop_
_atom_site_type_symbol
_atom_site_label
_atom_site_fract_x
_atom_site_fract_y
_atom_site_fract_z
Si Si1 0.561946 0.575779 0.116234
Si Si2 0.560183 0.924420 0.114853
Si Si3 0.161691 0.010322 0.255349
Si Si4 0.970912 0.342867 0.616574
Si Si5 0.758083 0.247969 0.799219
Si Si6 0.574366 0.332909 0.609766
Si Si7 0.823423 0.513600 0.820365
Si Si8 0.358844 0.990894 0.610329
O O1 0.500000 0.500000 0.140935
O O2 0.561678 0.751414 0.148163
O O3 0.618794 0.501456 0.163289
O O4 0.566320 0.570026 0.000000
O O5 0.610168 0.027108 0.158365
O O6 0.500000 0.000000 0.136815
O O7 0.567718 0.922939 0.000000
O O8 0.209435 0.143506 0.247747
O O9 0.116055 0.051545 0.337538
O O10 0.199349 0.857876 0.263507
O O11 0.976933 0.338669 0.500000
O O12 0.903561 0.372423 0.632580
O O13 0.000000 0.500000 0.648620
O O14 0.010667 0.205253 0.651448
O O15 0.801225 0.354073 0.856802
O O16 0.719102 0.136653 0.861275
O O17 0.567667 0.383629 0.500000
O O18 0.606603 0.168767 0.609939
O O19 0.817658 0.514832 0.703019
O O20 0.336415 0.009482 0.500000
#
# Coordination Sequence:
#
# PCOD9428875 Si02
#       8
#     8   8   8   8   8   8   8   8
#     4  10  23  43  68  99 131 160 196 248 317 388
#     4  10  23  43  69 101 130 156 198 253 313 386
#     4  11  21  43  63  88 128 171 210 266 314 371
#     4   7  12  24  45  79 117 146 192 255 306 371
#     4  10  24  40  61  89 125 167 221 267 303 362
#     4   9  17  32  57  89 123 165 212 261 317 375
#     4  11  21  42  62  88 126 169 210 266 313 369
#     4   9  17  31  55  88 123 162 212 261 316 378
#
# _framework density 22.443186000000001
#
# number of rings (size 3 to 8) (size 9 to 14) (size 15 to 20)
#    0.000    2.375    2.500    1.500    1.750    2.500 
#    0.000    8.125    0.000    0.375    0.000    0.000 
#    0.000    0.000    0.000    0.000    0.000    0.000 
#
# Total GULP energy -356871.368705 kJ/mol
# GULP energy per Si atom -5576.115136 kJ/mol
# Density = 2.239210 g / cm^3
# Si number density = 22.443186 Si / 1000 Ang^3
#
#
#
# Elastic Constant Matrix: (Units=GPa)
#
#
# Indices 1 2 3 4 5 6 
#
# 1 86.4802 13.8802 30.0530 0.0000 0.0000 0.0000
# 2 13.8802 66.7443 11.0105 0.0000 0.0000 0.0000
# 3 30.0530 11.0105 67.4526 0.0000 0.0000 0.0000
# 4 0.0000 0.0000 0.0000 -0.3554 0.0000 0.0000
# 5 0.0000 0.0000 0.0000 0.0000 -82.5424 0.0000
# 6 0.0000 0.0000 0.0000 0.0000 0.0000 37.3943
#
#
#
# Elastic Compliance Matrix: (Units=1/GPa)
#
#
# Indices 1 2 3 4 5 6 
#
# 1 0.013918 -0.001923 -0.005887 0.000000 0.000000 0.000000
# 2 -0.001923 0.015663 -0.001700 0.000000 0.000000 0.000000
# 3 -0.005887 -0.001700 0.017726 0.000000 0.000000 0.000000
# 4 0.000000 0.000000 0.000000 -2.813951 0.000000 0.000000
# 5 0.000000 0.000000 0.000000 0.000000 -0.012115 0.000000
# 6 0.000000 0.000000 0.000000 0.000000 0.000000 0.026742
#
#
# Mechanical properties :
#
#
# Convention : Reuss Voigt Hill
#
# Bulk Modulus (GPa) = 35.35294 36.72939 36.04117
# Shear Modulus (GPa) = -1.83583 1.94820 0.05619
#
# Velocity S-wave (km/s) = -0.90541 0.93271 0.15840
# Velocity P-wave (km/s) = 3.83319 4.19058 4.01586
#
# Compressibility (1/GPa) = 0.02828619
#
# Stress axis : x y z
#
# Youngs Moduli (GPa) = 71.85019 63.84501 56.41545
#
# Poissons Ratio (x) = 0.12279 0.33212
# Poissons Ratio (y) = 0.13818 0.09590
# Poissons Ratio (z) = 0.42299 0.10853
#
# Static dielectric constant tensor:
#      x y z
#    x 1.813990 0.000000 0.000000 
#    y 0.000000 1.888230 0.000000 
#    z 0.000000 0.000000 1.839690 
# 
# From -- ./inp_files/19992.got.cif
#   From: 2010.05.17/outbox.cif.g08.bks.cpg/sg55_10_cif.got.tgz:19992.got - 2010.06.03 13:27:54.
