data_PCOD9428595
_publ_section_title
;
Structure prediction by ZEFSAII (Michael W. Deem and Ramdas Pophale) SiO2 
 PCOD9428595
Probable space group: P B A M
;
_chemical_formula_sum "Si O2"
_cell_formula_units_Z 48
_cell_length_a 19.060303
_cell_length_b 15.751136
_cell_length_c 8.215461
_cell_angle_alpha 90.000000
_cell_angle_beta 90.000000
_cell_angle_gamma 90.000000
_cell_volume 2466.457406
_symmetry_space_group_name_H-M "P B A M"
_symmetry_group_IT_number 55
_symmetry_cell_setting 'orthorhombic'
loop_
_space_group_symop_operation_xyz
x,y,z
-x,-y,z
1/2+x,1/2-y,-z
1/2-x,1/2+y,-z
-x,-y,-z
x,y,-z
1/2-x,1/2+y,z
1/2+x,1/2-y,z
loop_
_atom_site_type_symbol
_atom_site_label
_atom_site_fract_x
_atom_site_fract_y
_atom_site_fract_z
Si Si1 0.770808 0.770558 0.807720
Si Si2 0.427642 0.719836 0.316377
Si Si3 0.281473 0.036725 0.188538
Si Si4 0.814285 0.109696 0.687631
Si Si5 0.467729 0.412585 0.189102
Si Si6 0.881191 0.480354 0.500000
Si Si7 0.009984 0.364908 0.500000
O O1 0.850318 0.761647 0.746474
O O2 0.746819 0.867797 0.780899
O O3 0.722131 0.699646 0.725649
O O4 0.768431 0.754830 0.000000
O O5 0.421538 0.682460 0.500000
O O6 0.471771 0.656953 0.206692
O O7 0.471670 0.805587 0.346259
O O8 0.336141 0.017989 0.334006
O O9 0.220944 0.965718 0.208037
O O10 0.307521 0.033293 0.000000
O O11 0.801539 0.088276 0.500000
O O12 0.897023 0.113856 0.720699
O O13 0.500000 0.500000 0.254339
O O14 0.449438 0.425095 0.000000
O O15 0.934443 0.559205 0.500000
O O16 0.931395 0.398133 0.500000
#
# Coordination Sequence:
#
# PCOD9428595 Si02
#       7
#     8   8   8   8   8   4   4
#     4  11  24  41  65  97 133 170 221 274 326 396
#     4  10  22  39  63  90 128 168 217 262 320 394
#     4  11  25  42  67 100 131 172 223 271 334 399
#     4  12  25  41  67  98 131 175 219 274 331 394
#     4  11  24  41  62  91 133 173 213 268 332 399
#     4  11  22  45  69  89 134 172 210 288 329 382
#     4   9  24  41  62  95 123 168 227 268 328 397
#
# _framework density 19.461110999999999
#
# number of rings (size 3 to 8) (size 9 to 14) (size 15 to 20)
#    0.500    0.667    0.833    5.000    4.667    5.333 
#    0.000    3.333    0.000    0.000    0.000    0.000 
#    0.000    0.000    0.000    0.000    0.000    0.000 
#
# Total GULP energy -268057.505025 kJ/mol
# GULP energy per Si atom -5584.531355 kJ/mol
# Density = 1.941682 g / cm^3
# Si number density = 19.461111 Si / 1000 Ang^3
#
#
#
# Elastic Constant Matrix: (Units=GPa)
#
#
# Indices 1 2 3 4 5 6 
#
# 1 95.5435 27.6926 18.2562 0.0000 0.0000 0.0000
# 2 27.6926 90.1886 8.2041 0.0000 0.0000 0.0000
# 3 18.2562 8.2041 77.6523 0.0000 0.0000 0.0000
# 4 0.0000 0.0000 0.0000 21.5417 0.0000 0.0000
# 5 0.0000 0.0000 0.0000 0.0000 29.2264 0.0000
# 6 0.0000 0.0000 0.0000 0.0000 0.0000 -17.0880
#
#
#
# Elastic Compliance Matrix: (Units=1/GPa)
#
#
# Indices 1 2 3 4 5 6 
#
# 1 0.011930 -0.003441 -0.002441 0.000000 0.000000 0.000000
# 2 -0.003441 0.012188 -0.000479 0.000000 0.000000 0.000000
# 3 -0.002441 -0.000479 0.013502 0.000000 0.000000 0.000000
# 4 0.000000 0.000000 0.000000 0.046422 0.000000 0.000000
# 5 0.000000 0.000000 0.000000 0.000000 0.034216 0.000000
# 6 0.000000 0.000000 0.000000 0.000000 0.000000 -0.058521
#
#
# Mechanical properties :
#
#
# Convention : Reuss Voigt Hill
#
# Bulk Modulus (GPa) = 40.16291 41.29890 40.73090
# Shear Modulus (GPa) = 61.91249 20.68479 41.29864
#
# Velocity S-wave (km/s) = 5.64646 3.26372 4.61164
# Velocity P-wave (km/s) = 7.94936 5.95565 7.02361
#
# Compressibility (1/GPa) = 0.02489860
#
# Stress axis : x y z
#
# Youngs Moduli (GPa) = 83.82014 82.04767 74.06074
#
# Poissons Ratio (x) = 0.28234 0.18080
# Poissons Ratio (y) = 0.28844 0.03545
# Poissons Ratio (z) = 0.20463 0.03927
#
# Static dielectric constant tensor:
#      x y z
#    x 1.641990 0.000000 0.000000 
#    y 0.000000 1.700940 0.000000 
#    z 0.000000 0.000000 1.688430 
# 
# From -- ./inp_files/7470.got.cif
#   From: 2010.05.17/outbox.cif.g08.bks.cpg/sg55_4_cif.got.tgz:7470.got - 2010.06.03 13:27:54.
