data_PCOD9428108
_publ_section_title
;
Structure prediction by ZEFSAII (Michael W. Deem and Ramdas Pophale) SiO2 
 PCOD9428108
Probable space group: P B A M
;
_chemical_formula_sum "Si O2"
_cell_formula_units_Z 48
_cell_length_a 29.814456
_cell_length_b 10.420058
_cell_length_c 8.775099
_cell_angle_alpha 90.000000
_cell_angle_beta 90.000000
_cell_angle_gamma 90.000000
_cell_volume 2726.145622
_symmetry_space_group_name_H-M "P B A M"
_symmetry_group_IT_number 55
_symmetry_cell_setting 'orthorhombic'
loop_
_space_group_symop_operation_xyz
x,y,z
-x,-y,z
1/2+x,1/2-y,-z
1/2-x,1/2+y,-z
-x,-y,-z
x,y,-z
1/2-x,1/2+y,z
1/2+x,1/2-y,z
loop_
_atom_site_type_symbol
_atom_site_label
_atom_site_fract_x
_atom_site_fract_y
_atom_site_fract_z
Si Si1 0.881119 0.274911 0.182129
Si Si2 0.384646 0.526991 0.819626
Si Si3 0.976464 0.369546 0.183971
Si Si4 0.527247 0.373105 0.318522
Si Si5 0.781099 0.988085 0.183456
Si Si6 0.216003 0.727849 0.318233
O O1 0.924409 0.355962 0.230232
O O2 0.835143 0.302385 0.268752
O O3 0.892681 0.124779 0.207404
O O4 0.873392 0.290278 0.000000
O O5 0.421362 0.607726 0.730462
O O6 0.332690 0.549181 0.778989
O O7 0.390059 0.550498 0.000000
O O8 0.000000 0.500000 0.235171
O O9 0.004357 0.249449 0.244004
O O10 0.976750 0.365889 0.000000
O O11 0.500000 0.500000 0.268073
O O12 0.523908 0.363649 0.500000
O O13 0.773242 0.130921 0.249762
O O14 0.747992 0.881703 0.250055
O O15 0.777445 0.994278 0.000000
O O16 0.219812 0.732066 0.500000
#
# Coordination Sequence:
#
# PCOD9428108 Si02
#       6
#     8   8   8   8   8   8
#     4   9  18  35  58  82 110 149 191 231 280 341
#     4   9  18  34  59  84 106 143 191 236 276 325
#     4  10  21  38  59  82 110 148 193 236 278 332
#     4  11  22  34  54  84 115 148 183 227 283 335
#     4  10  21  40  62  85 114 152 194 235 283 343
#     4  11  22  37  60  89 117 148 187 238 293 343
#
# _framework density 17.607275999999999
#
# number of rings (size 3 to 8) (size 9 to 14) (size 15 to 20)
#    0.000    2.000    1.667    3.500    0.000    5.000 
#    3.000    0.000    0.000    0.000    0.000    0.000 
#    0.000    0.000    0.000    0.000    0.000    0.000 
#
# Total GULP energy -267957.209757 kJ/mol
# GULP energy per Si atom -5582.441870 kJ/mol
# Density = 1.756720 g / cm^3
# Si number density = 17.607276 Si / 1000 Ang^3
#
#
#
# Elastic Constant Matrix: (Units=GPa)
#
#
# Indices 1 2 3 4 5 6 
#
# 1 136.7840 90.0646 53.9303 0.0000 0.0000 0.0000
# 2 90.0646 122.6559 45.8853 0.0000 0.0000 0.0000
# 3 53.9303 45.8853 53.3257 0.0000 0.0000 0.0000
# 4 0.0000 0.0000 0.0000 21.0321 0.0000 0.0000
# 5 0.0000 0.0000 0.0000 0.0000 -7.8657 0.0000
# 6 0.0000 0.0000 0.0000 0.0000 0.0000 35.5328
#
#
#
# Elastic Compliance Matrix: (Units=1/GPa)
#
#
# Indices 1 2 3 4 5 6 
#
# 1 0.016856 -0.008848 -0.009434 0.000000 0.000000 0.000000
# 2 -0.008848 0.016668 -0.005394 0.000000 0.000000 0.000000
# 3 -0.009434 -0.005394 0.032935 0.000000 0.000000 0.000000
# 4 0.000000 0.000000 0.000000 0.047546 0.000000 0.000000
# 5 0.000000 0.000000 0.000000 0.000000 -0.127134 0.000000
# 6 0.000000 0.000000 0.000000 0.000000 0.000000 0.028143
#
#
# Mechanical properties :
#
#
# Convention : Reuss Voigt Hill
#
# Bulk Modulus (GPa) = 52.33589 76.94732 64.64160
# Shear Modulus (GPa) = 72.74363 17.93221 45.33792
#
# Velocity S-wave (km/s) = 6.43461 3.19479 5.07991
# Velocity P-wave (km/s) = 9.21923 7.57666 8.43801
#
# Compressibility (1/GPa) = 0.01910735
#
# Stress axis : x y z
#
# Youngs Moduli (GPa) = 59.32479 59.99611 30.36327
#
# Poissons Ratio (x) = 0.53086 0.28644
# Poissons Ratio (y) = 0.52492 0.16377
# Poissons Ratio (z) = 0.55966 0.32359
#
# Static dielectric constant tensor:
#      x y z
#    x 1.596600 0.000000 0.000000 
#    y 0.000000 1.571190 0.000000 
#    z 0.000000 0.000000 1.590090 
# 
# From -- ./inp_files/2828.got.cif
#   From: 2010.05.17/outbox.cif.g08.bks.cpg/sg55_2_cif.got.tgz:2828.got - 2010.06.03 13:27:54.
