data_PCOD9428427
_publ_section_title
;
Structure prediction by ZEFSAII (Michael W. Deem and Ramdas Pophale) SiO2 
 PCOD9428427
Probable space group: P B A M
;
_chemical_formula_sum "Si O2"
_cell_formula_units_Z 56
_cell_length_a 15.039945
_cell_length_b 22.765563
_cell_length_c 7.251977
_cell_angle_alpha 90.000000
_cell_angle_beta 90.000000
_cell_angle_gamma 90.000000
_cell_volume 2483.024822
_symmetry_space_group_name_H-M "P B A M"
_symmetry_group_IT_number 55
_symmetry_cell_setting 'orthorhombic'
loop_
_space_group_symop_operation_xyz
x,y,z
-x,-y,z
1/2+x,1/2-y,-z
1/2-x,1/2+y,-z
-x,-y,-z
x,y,-z
1/2-x,1/2+y,z
1/2+x,1/2-y,z
loop_
_atom_site_type_symbol
_atom_site_label
_atom_site_fract_x
_atom_site_fract_y
_atom_site_fract_z
Si Si1 0.685606 0.201095 0.223728
Si Si2 0.641789 0.531352 0.500000
Si Si3 0.431856 0.909059 0.776346
Si Si4 0.041165 0.092549 0.500000
Si Si5 0.713329 0.998955 0.220912
Si Si6 0.868771 0.246783 0.775886
Si Si7 0.368472 0.119014 0.224553
Si Si8 0.058697 0.192791 0.220835
O O1 0.628714 0.145546 0.286036
O O2 0.787225 0.206106 0.284117
O O3 0.635215 0.261150 0.271711
O O4 0.685575 0.197966 0.000000
O O5 0.591465 0.468887 0.500000
O O6 0.564560 0.579440 0.500000
O O7 0.706663 0.530951 0.675950
O O8 0.532867 0.900857 0.715766
O O9 0.378718 0.967946 0.730362
O O10 0.435519 0.907341 0.000000
O O11 0.066314 0.131582 0.323925
O O12 0.701682 0.931019 0.277704
O O13 0.724629 0.002516 0.000000
O O14 0.853705 0.314086 0.716473
O O15 0.964981 0.222622 0.724286
O O16 0.868430 0.247826 0.000000
O O17 0.368037 0.119219 0.000000
O O18 0.060144 0.185298 0.000000
#
# Coordination Sequence:
#
# PCOD9428427 Si02
#       8
#     8   4   8   4   8   8   8   8
#     4   9  17  30  56  93 127 159 200 249 301 360
#     4  11  28  50  61  86 124 154 201 282 320 341
#     4   9  16  31  56  91 130 163 199 248 302 362
#     4  11  28  48  64  84 122 159 210 266 314 367
#     4  10  22  39  67  93 117 163 213 247 304 378
#     4   9  17  30  56  93 127 159 200 249 301 360
#     4   9  16  31  56  91 130 163 199 248 302 362
#     4  10  21  41  67  93 124 164 203 249 311 375
#
# _framework density 22.553137
#
# number of rings (size 3 to 8) (size 9 to 14) (size 15 to 20)
#    0.000    2.429    1.429    0.429    4.000    2.857 
#    0.000    5.000    0.000    0.000    0.000    0.000 
#    0.000    0.000    0.000    0.000    0.000    0.000 
#
# Total GULP energy -313151.074321 kJ/mol
# GULP energy per Si atom -5591.983470 kJ/mol
# Density = 2.250181 g / cm^3
# Si number density = 22.553137 Si / 1000 Ang^3
#
#
#
# Elastic Constant Matrix: (Units=GPa)
#
#
# Indices 1 2 3 4 5 6 
#
# 1 64.5650 -21.2827 -0.8072 0.0000 0.0000 0.0000
# 2 -21.2827 60.6565 4.7702 0.0000 0.0000 0.0000
# 3 -0.8072 4.7702 99.6395 0.0000 0.0000 0.0000
# 4 0.0000 0.0000 0.0000 21.2213 0.0000 0.0000
# 5 0.0000 0.0000 0.0000 0.0000 -29.5552 0.0000
# 6 0.0000 0.0000 0.0000 0.0000 0.0000 16.7746
#
#
#
# Elastic Compliance Matrix: (Units=1/GPa)
#
#
# Indices 1 2 3 4 5 6 
#
# 1 0.017516 0.006158 -0.000153 0.000000 0.000000 0.000000
# 2 0.006158 0.018713 -0.000846 0.000000 0.000000 0.000000
# 3 -0.000153 -0.000846 0.010075 0.000000 0.000000 0.000000
# 4 0.000000 0.000000 0.000000 0.047122 0.000000 0.000000
# 5 0.000000 0.000000 0.000000 0.000000 -0.033835 0.000000
# 6 0.000000 0.000000 0.000000 0.000000 0.000000 0.059614
#
#
# Mechanical properties :
#
#
# Convention : Reuss Voigt Hill
#
# Bulk Modulus (GPa) = 17.66060 21.13576 19.39818
# Shear Modulus (GPa) = 39.13498 17.83351 28.48425
#
# Velocity S-wave (km/s) = 4.17013 2.81505 3.55770
# Velocity P-wave (km/s) = 5.57085 4.46742 5.04937
#
# Compressibility (1/GPa) = 0.05662321
#
# Stress axis : x y z
#
# Youngs Moduli (GPa) = 57.08996 53.43746 99.25120
#
# Poissons Ratio (x) = -0.32907 0.01518
# Poissons Ratio (y) = -0.35156 0.08397
# Poissons Ratio (z) = 0.00873 0.04521
#
# Static dielectric constant tensor:
#      x y z
#    x 1.788530 0.000000 0.000000 
#    y 0.000000 1.791780 0.000000 
#    z 0.000000 0.000000 1.880780 
# 
# From -- ./inp_files/6234.got.cif
#   From: 2010.05.17/outbox.cif.g08.bks.cpg/sg55_4_cif.got.tgz:6234.got - 2010.06.03 13:27:54.
