data_PCOD9428466
_publ_section_title
;
Structure prediction by ZEFSAII (Michael W. Deem and Ramdas Pophale) SiO2 
 PCOD9428466
Probable space group: P B A M
;
_chemical_formula_sum "Si O2"
_cell_formula_units_Z 64
_cell_length_a 18.208613
_cell_length_b 14.464125
_cell_length_c 13.933246
_cell_angle_alpha 90.000000
_cell_angle_beta 90.000000
_cell_angle_gamma 90.000000
_cell_volume 3669.622052
_symmetry_space_group_name_H-M "P B A M"
_symmetry_group_IT_number 55
_symmetry_cell_setting 'orthorhombic'
loop_
_space_group_symop_operation_xyz
x,y,z
-x,-y,z
1/2+x,1/2-y,-z
1/2-x,1/2+y,-z
-x,-y,-z
x,y,-z
1/2-x,1/2+y,z
1/2+x,1/2-y,z
loop_
_atom_site_type_symbol
_atom_site_label
_atom_site_fract_x
_atom_site_fract_y
_atom_site_fract_z
Si Si1 0.577874 0.217602 0.886784
Si Si2 0.940475 0.925049 0.114621
Si Si3 0.578953 0.547328 0.612275
Si Si4 0.180506 0.649586 0.226832
Si Si5 0.694582 0.502672 0.222735
Si Si6 0.591905 0.765369 0.611927
Si Si7 0.520189 0.897709 0.749160
Si Si8 0.251888 0.314857 0.887229
O O1 0.550829 0.319192 0.852460
O O2 0.537559 0.141456 0.824269
O O3 0.665466 0.207582 0.876323
O O4 0.560969 0.208602 0.000000
O O5 0.860807 0.959551 0.144934
O O6 0.945628 0.922078 0.000000
O O7 0.000000 0.000000 0.149247
O O8 0.500000 0.500000 0.631561
O O9 0.596663 0.528952 0.500000
O O10 0.643611 0.515359 0.683306
O O11 0.573569 0.657887 0.624832
O O12 0.240168 0.569830 0.239398
O O13 0.163027 0.705583 0.325293
O O14 0.101303 0.605432 0.203470
O O15 0.204930 0.724235 0.148396
O O16 0.724678 0.598669 0.178982
O O17 0.601894 0.784063 0.500000
O O18 0.528828 0.828657 0.659193
O O19 0.500000 0.000000 0.718403
O O20 0.266316 0.334185 0.000000
#
# Coordination Sequence:
#
# PCOD9428466 Si02
#       8
#     8   8   8   8   8   8   8   8
#     4  10  22  40  60  85 122 158 199 249 298 359
#     4  10  22  35  54  87 118 153 194 240 292 354
#     4  10  22  39  63  94 123 154 197 249 309 367
#     4  10  23  38  60  90 118 160 198 253 300 359
#     4  12  21  37  63  86 119 157 199 244 299 356
#     4   9  21  42  63  87 120 153 193 248 307 356
#     4  10  22  40  60  88 118 160 208 246 294 356
#     4  11  23  39  59  87 123 162 203 246 300 356
#
# _framework density 17.440487999999998
#
# number of rings (size 3 to 8) (size 9 to 14) (size 15 to 20)
#    0.750    1.000    2.500    1.500    5.250    2.000 
#    0.000    0.000    0.000    0.750    0.000    0.000 
#    0.000    0.000    0.000    0.000    0.000    0.000 
#
# Total GULP energy -356765.608195 kJ/mol
# GULP energy per Si atom -5574.462628 kJ/mol
# Density = 1.740079 g / cm^3
# Si number density = 17.440488 Si / 1000 Ang^3
#
#
#
# Elastic Constant Matrix: (Units=GPa)
#
#
# Indices 1 2 3 4 5 6 
#
# 1 70.1486 27.7065 34.7861 0.0000 0.0000 0.0000
# 2 27.7065 93.5260 36.6933 0.0000 0.0000 0.0000
# 3 34.7861 36.6933 69.2550 0.0000 0.0000 0.0000
# 4 0.0000 0.0000 0.0000 10.1413 0.0000 0.0000
# 5 0.0000 0.0000 0.0000 0.0000 25.4965 0.0000
# 6 0.0000 0.0000 0.0000 0.0000 0.0000 41.1194
#
#
#
# Elastic Compliance Matrix: (Units=1/GPa)
#
#
# Indices 1 2 3 4 5 6 
#
# 1 0.019412 -0.002430 -0.008463 0.000000 0.000000 0.000000
# 2 -0.002430 0.013802 -0.006092 0.000000 0.000000 0.000000
# 3 -0.008463 -0.006092 0.021918 0.000000 0.000000 0.000000
# 4 0.000000 0.000000 0.000000 0.098607 0.000000 0.000000
# 5 0.000000 0.000000 0.000000 0.000000 0.039221 0.000000
# 6 0.000000 0.000000 0.000000 0.000000 0.000000 0.024319
#
#
# Mechanical properties :
#
#
# Convention : Reuss Voigt Hill
#
# Bulk Modulus (GPa) = 47.25519 47.92236 47.58878
# Shear Modulus (GPa) = 19.35704 24.26769 21.81237
#
# Velocity S-wave (km/s) = 3.33512 3.73427 3.54032
# Velocity P-wave (km/s) = 6.47955 6.79193 6.63758
#
# Compressibility (1/GPa) = 0.02116170
#
# Stress axis : x y z
#
# Youngs Moduli (GPa) = 51.51446 72.45148 45.62485
#
# Poissons Ratio (x) = 0.17609 0.38611
# Poissons Ratio (y) = 0.12521 0.27795
# Poissons Ratio (z) = 0.43595 0.44138
#
# Static dielectric constant tensor:
#      x y z
#    x 1.577870 0.000000 0.000000 
#    y 0.000000 1.620870 0.000000 
#    z 0.000000 0.000000 1.583590 
# 
# From -- ./inp_files/19516.got.cif
#   From: 2010.05.17/outbox.cif.g08.bks.cpg/sg55_10_cif.got.tgz:19516.got - 2010.06.03 13:27:54.
