data_PCOD9428505
_publ_section_title
;
Structure prediction by ZEFSAII (Michael W. Deem and Ramdas Pophale) SiO2 
 PCOD9428505
Probable space group: P B A M
;
_chemical_formula_sum "Si O2"
_cell_formula_units_Z 58
_cell_length_a 25.770507
_cell_length_b 13.909629
_cell_length_c 8.972046
_cell_angle_alpha 90.000000
_cell_angle_beta 90.000000
_cell_angle_gamma 90.000000
_cell_volume 3216.103383
_symmetry_space_group_name_H-M "P B A M"
_symmetry_group_IT_number 55
_symmetry_cell_setting 'orthorhombic'
loop_
_space_group_symop_operation_xyz
x,y,z
-x,-y,z
1/2+x,1/2-y,-z
1/2-x,1/2+y,-z
-x,-y,-z
x,y,-z
1/2-x,1/2+y,z
1/2+x,1/2-y,z
loop_
_atom_site_type_symbol
_atom_site_label
_atom_site_fract_x
_atom_site_fract_y
_atom_site_fract_z
Si Si1 0.398876 0.698917 0.175997
Si Si2 0.750070 0.007989 0.173449
Si Si3 0.101203 0.791857 0.318669
Si Si4 0.992961 0.701187 0.334327
Si Si5 0.500000 0.000000 0.500000
Si Si6 0.216142 0.272531 0.827575
Si Si7 0.863227 0.995313 0.679241
Si Si8 0.695902 0.842823 0.676027
O O1 0.444921 0.765287 0.236311
O O2 0.343890 0.751951 0.201326
O O3 0.394123 0.595833 0.256852
O O4 0.404649 0.682869 0.000000
O O5 0.804206 0.992409 0.259558
O O6 0.704661 0.942057 0.239431
O O7 0.731954 0.117226 0.186591
O O8 0.758972 0.985703 0.000000
O O9 0.102227 0.790633 0.500000
O O10 0.046472 0.746074 0.273546
O O11 0.148092 0.722315 0.270291
O O12 0.112179 0.901823 0.273857
O O13 0.984614 0.745638 0.500000
O O14 0.997999 0.587465 0.371665
O O15 0.251816 0.214551 0.714280
O O16 0.227044 0.243269 0.000000
O O17 0.862110 0.991465 0.500000
O O18 0.690458 0.859123 0.500000
#
# Coordination Sequence:
#
# PCOD9428505 Si02
#       8
#     8   8   8   8   2   8   8   8
#     4  11  23  40  60  89 126 161 204 254 301 361
#     4  11  22  37  55  83 121 163 203 243 308 371
#     4   9  20  38  60  87 124 151 199 253 306 352
#     4   9  20  42  66  90 116 157 198 251 303 362
#     4   8  20  40  74  86 112 156 210 244 312 360
#     4  10  22  38  56  80 121 166 201 245 304 366
#     4  11  21  36  60  88 119 163 197 244 301 365
#     4  11  21  35  58  88 118 155 202 257 301 363
#
# _framework density 18.034244999999999
#
# number of rings (size 3 to 8) (size 9 to 14) (size 15 to 20)
#    0.414    1.379    2.759    1.655    0.000    2.759 
#    0.000    5.862    0.000    0.000    0.000    0.000 
#    0.000    0.000    0.000    0.000    0.000    0.000 
#
# Total GULP energy -322913.302758 kJ/mol
# GULP energy per Si atom -5567.470737 kJ/mol
# Density = 1.799320 g / cm^3
# Si number density = 18.034245 Si / 1000 Ang^3
#
#
#
# Elastic Constant Matrix: (Units=GPa)
#
#
# Indices 1 2 3 4 5 6 
#
# 1 82.8756 28.0823 24.0799 0.0000 0.0000 0.0000
# 2 28.0823 110.0278 20.4732 0.0000 0.0000 0.0000
# 3 24.0799 20.4732 51.8240 0.0000 0.0000 0.0000
# 4 0.0000 0.0000 0.0000 25.0160 0.0000 0.0000
# 5 0.0000 0.0000 0.0000 0.0000 17.9472 0.0000
# 6 0.0000 0.0000 0.0000 0.0000 0.0000 17.1938
#
#
#
# Elastic Compliance Matrix: (Units=1/GPa)
#
#
# Indices 1 2 3 4 5 6 
#
# 1 0.014640 -0.002667 -0.005749 0.000000 0.000000 0.000000
# 2 -0.002667 0.010296 -0.002828 0.000000 0.000000 0.000000
# 3 -0.005749 -0.002828 0.023085 0.000000 0.000000 0.000000
# 4 0.000000 0.000000 0.000000 0.039974 0.000000 0.000000
# 5 0.000000 0.000000 0.000000 0.000000 0.055719 0.000000
# 6 0.000000 0.000000 0.000000 0.000000 0.000000 0.058161
#
#
# Mechanical properties :
#
#
# Convention : Reuss Voigt Hill
#
# Bulk Modulus (GPa) = 39.16592 43.33313 41.24953
# Shear Modulus (GPa) = 21.47091 23.50420 22.48755
#
# Velocity S-wave (km/s) = 3.45420 3.61405 3.53503
# Velocity P-wave (km/s) = 6.13786 6.44171 6.29162
#
# Compressibility (1/GPa) = 0.02553240
#
# Stress axis : x y z
#
# Youngs Moduli (GPa) = 68.30428 97.12960 43.31890
#
# Poissons Ratio (x) = 0.25904 0.24904
# Poissons Ratio (y) = 0.18216 0.12251
# Poissons Ratio (z) = 0.39268 0.27469
#
# Static dielectric constant tensor:
#      x y z
#    x 1.609360 0.000000 0.000000 
#    y 0.000000 1.628570 0.000000 
#    z 0.000000 0.000000 1.614050 
# 
# From -- ./inp_files/10190.got.cif
#   From: 2010.05.17/outbox.cif.g08.bks.cpg/sg55_6_cif.got.tgz:10190.got - 2010.06.03 13:27:54.
