data_PCOD9428513
_publ_section_title
;
Structure prediction by ZEFSAII (Michael W. Deem and Ramdas Pophale) SiO2 
 PCOD9428513
Probable space group: P B A M
;
_chemical_formula_sum "Si O2"
_cell_formula_units_Z 40
_cell_length_a 4.924128
_cell_length_b 17.656325
_cell_length_c 17.795095
_cell_angle_alpha 90.000000
_cell_angle_beta 90.000000
_cell_angle_gamma 90.000000
_cell_volume 1547.141226
_symmetry_space_group_name_H-M "P B A M"
_symmetry_group_IT_number 55
_symmetry_cell_setting 'orthorhombic'
loop_
_space_group_symop_operation_xyz
x,y,z
-x,-y,z
1/2+x,1/2-y,-z
1/2-x,1/2+y,-z
-x,-y,-z
x,y,-z
1/2-x,1/2+y,z
1/2+x,1/2-y,z
loop_
_atom_site_type_symbol
_atom_site_label
_atom_site_fract_x
_atom_site_fract_y
_atom_site_fract_z
Si Si1 0.603624 0.417930 0.707108
Si Si2 0.187159 0.340164 0.915949
Si Si3 0.195925 0.067543 0.873685
Si Si4 0.443875 0.280678 0.214056
Si Si5 0.183290 0.696214 0.588042
O O1 0.500000 0.500000 0.681816
O O2 0.756261 0.439813 0.786687
O O3 0.251186 0.217773 0.750565
O O4 0.743660 0.376758 0.637874
O O5 0.976722 0.409087 0.912517
O O6 0.122046 0.279378 0.851540
O O7 0.493174 0.361538 0.891793
O O8 0.184866 0.309382 0.000000
O O9 0.872562 0.136465 0.747777
O O10 0.000000 0.000000 0.900973
O O11 0.207049 0.675619 0.500000
O O12 0.390629 0.766363 0.600476
#
# Coordination Sequence:
#
# PCOD9428513 Si02
#       5
#     8   8   8   8   8
#     4  10  22  41  66  97 132 169 219 275 323 387
#     4  11  23  38  58  87 120 159 215 274 324 382
#     4  10  22  38  57  86 124 167 210 258 325 393
#     4  11  23  41  63  87 122 170 216 265 332 398
#     4  10  22  42  68  98 133 173 214 258 318 392
#
# _framework density 25.854137000000001
#
# number of rings (size 3 to 8) (size 9 to 14) (size 15 to 20)
#    0.000    1.600    0.000    4.800    0.000    6.800 
#    0.000   10.000    0.000    3.600    0.000    0.000 
#    0.000    0.000    0.000    0.000    0.000    0.000 
#
# Total GULP energy -222680.402924 kJ/mol
# GULP energy per Si atom -5567.010073 kJ/mol
# Density = 2.579529 g / cm^3
# Si number density = 25.854137 Si / 1000 Ang^3
#
#
#
# Elastic Constant Matrix: (Units=GPa)
#
#
# Indices 1 2 3 4 5 6 
#
# 1 83.6958 25.5068 14.1354 0.0000 0.0000 0.0000
# 2 25.5068 125.0129 28.3327 0.0000 0.0000 0.0000
# 3 14.1354 28.3327 159.8263 0.0000 0.0000 0.0000
# 4 0.0000 0.0000 0.0000 30.7811 0.0000 0.0000
# 5 0.0000 0.0000 0.0000 0.0000 16.7718 0.0000
# 6 0.0000 0.0000 0.0000 0.0000 0.0000 38.2882
#
#
#
# Elastic Compliance Matrix: (Units=1/GPa)
#
#
# Indices 1 2 3 4 5 6 
#
# 1 0.012815 -0.002456 -0.000698 0.000000 0.000000 0.000000
# 2 -0.002456 0.008805 -0.001344 0.000000 0.000000 0.000000
# 3 -0.000698 -0.001344 0.006557 0.000000 0.000000 0.000000
# 4 0.000000 0.000000 0.000000 0.032487 0.000000 0.000000
# 5 0.000000 0.000000 0.000000 0.000000 0.059624 0.000000
# 6 0.000000 0.000000 0.000000 0.000000 0.000000 0.026118
#
#
# Mechanical properties :
#
#
# Convention : Reuss Voigt Hill
#
# Bulk Modulus (GPa) = 52.13694 56.05386 54.09540
# Shear Modulus (GPa) = 30.90341 37.20556 34.05448
#
# Velocity S-wave (km/s) = 3.46106 3.79760 3.63323
# Velocity P-wave (km/s) = 6.01511 6.39976 6.21041
#
# Compressibility (1/GPa) = 0.01918026
#
# Stress axis : x y z
#
# Youngs Moduli (GPa) = 78.03652 113.57339 152.51582
#
# Poissons Ratio (x) = 0.27898 0.10644
# Poissons Ratio (y) = 0.19169 0.20492
# Poissons Ratio (z) = 0.05446 0.15260
#
# Static dielectric constant tensor:
#      x y z
#    x 2.324200 0.000000 0.000000 
#    y 0.000000 1.427020 0.000000 
#    z 0.000000 0.000000 2.225950 
# 
# From -- ./inp_files/20326.got.cif
#   From: 2010.05.17/outbox.cif.g08.bks.cpg/sg55_11_cif.got.tgz:20326.got - 2010.06.03 13:27:54.
