data_PCOD9428240
_publ_section_title
;
Structure prediction by ZEFSAII (Michael W. Deem and Ramdas Pophale) SiO2 
 PCOD9428240
Probable space group: P B A M
;
_chemical_formula_sum "Si O2"
_cell_formula_units_Z 36
_cell_length_a 13.559891
_cell_length_b 9.584411
_cell_length_c 12.467583
_cell_angle_alpha 90.000000
_cell_angle_beta 90.000000
_cell_angle_gamma 90.000000
_cell_volume 1620.331577
_symmetry_space_group_name_H-M "P B A M"
_symmetry_group_IT_number 55
_symmetry_cell_setting 'orthorhombic'
loop_
_space_group_symop_operation_xyz
x,y,z
-x,-y,z
1/2+x,1/2-y,-z
1/2-x,1/2+y,-z
-x,-y,-z
x,y,-z
1/2-x,1/2+y,z
1/2+x,1/2-y,z
loop_
_atom_site_type_symbol
_atom_site_label
_atom_site_fract_x
_atom_site_fract_y
_atom_site_fract_z
Si Si1 0.500000 0.000000 0.690279
Si Si2 0.150525 0.924164 0.621771
Si Si3 0.061469 0.212362 0.330642
Si Si4 0.715710 0.178769 0.184670
Si Si5 0.630166 0.901870 0.885427
O O1 0.550427 0.127594 0.627306
O O2 0.430584 0.081659 0.775287
O O3 0.170926 0.878650 0.500000
O O4 0.233799 0.878250 0.705345
O O5 0.047019 0.854961 0.659821
O O6 0.131423 0.091427 0.621056
O O7 0.115345 0.240187 0.216726
O O8 0.793355 0.278254 0.129557
O O9 0.688754 0.046558 0.114939
O O10 0.576778 0.884129 0.000000
#
# Coordination Sequence:
#
# PCOD9428240 Si02
#       5
#     4   8   8   8   8
#     4  10  21  38  67  88 122 158 199 264 303 360
#     4  11  23  41  63  88 126 170 205 250 308 362
#     4  10  21  40  63  88 122 162 205 252 306 354
#     4  11  22  41  63  91 126 160 205 259 301 366
#     4  11  22  40  64  90 120 162 204 253 312 366
#
# _framework density 22.217673999999999
#
# number of rings (size 3 to 8) (size 9 to 14) (size 15 to 20)
#    0.000    1.333    4.444    2.333    0.000    1.778 
#    0.000    2.222    0.000    2.667    0.000    0.000 
#    0.000    0.000    0.000    0.000    0.000    0.000 
#
# Total GULP energy -200627.701474 kJ/mol
# GULP energy per Si atom -5572.991708 kJ/mol
# Density = 2.216711 g / cm^3
# Si number density = 22.217674 Si / 1000 Ang^3
#
#
#
# Elastic Constant Matrix: (Units=GPa)
#
#
# Indices 1 2 3 4 5 6 
#
# 1 49.0043 4.1224 26.2746 0.0000 0.0000 0.0000
# 2 4.1224 109.9182 32.6250 0.0000 0.0000 0.0000
# 3 26.2746 32.6250 119.0593 0.0000 0.0000 0.0000
# 4 0.0000 0.0000 0.0000 26.3531 0.0000 0.0000
# 5 0.0000 0.0000 0.0000 0.0000 -23.1351 0.0000
# 6 0.0000 0.0000 0.0000 0.0000 0.0000 43.4423
#
#
#
# Elastic Compliance Matrix: (Units=1/GPa)
#
#
# Indices 1 2 3 4 5 6 
#
# 1 0.023195 0.000707 -0.005313 0.000000 0.000000 0.000000
# 2 0.000707 0.009925 -0.002876 0.000000 0.000000 0.000000
# 3 -0.005313 -0.002876 0.010360 0.000000 0.000000 0.000000
# 4 0.000000 0.000000 0.000000 0.037946 0.000000 0.000000
# 5 0.000000 0.000000 0.000000 0.000000 -0.043224 0.000000
# 6 0.000000 0.000000 0.000000 0.000000 0.000000 0.023019
#
#
# Mechanical properties :
#
#
# Convention : Reuss Voigt Hill
#
# Bulk Modulus (GPa) = 35.06673 44.89173 39.97923
# Shear Modulus (GPa) = 58.35080 23.66270 41.00675
#
# Velocity S-wave (km/s) = 5.13033 3.26704 4.30080
# Velocity P-wave (km/s) = 7.13521 5.87202 6.53421
#
# Compressibility (1/GPa) = 0.02851706
#
# Stress axis : x y z
#
# Youngs Moduli (GPa) = 43.11217 100.75897 96.52927
#
# Poissons Ratio (x) = -0.07123 0.51282
# Poissons Ratio (y) = -0.03048 0.27758
# Poissons Ratio (z) = 0.22904 0.28974
#
# Static dielectric constant tensor:
#      x y z
#    x 1.845760 0.000000 0.000000 
#    y 0.000000 1.827820 0.000000 
#    z 0.000000 0.000000 1.854300 
# 
# From -- ./inp_files/18705.got.cif
#   From: 2010.05.17/outbox.cif.g08.bks.cpg/sg55_10_cif.got.tgz:18705.got - 2010.06.03 13:27:54.
