data_PCOD9428969
_publ_section_title
;
Structure prediction by ZEFSAII (Michael W. Deem and Ramdas Pophale) SiO2 
 PCOD9428969
Probable space group: P B A M
;
_chemical_formula_sum "Si O2"
_cell_formula_units_Z 48
_cell_length_a 17.503517
_cell_length_b 8.734361
_cell_length_c 15.535117
_cell_angle_alpha 90.000000
_cell_angle_beta 90.000000
_cell_angle_gamma 90.000000
_cell_volume 2375.040320
_symmetry_space_group_name_H-M "P B A M"
_symmetry_group_IT_number 55
_symmetry_cell_setting 'orthorhombic'
loop_
_space_group_symop_operation_xyz
x,y,z
-x,-y,z
1/2+x,1/2-y,-z
1/2-x,1/2+y,-z
-x,-y,-z
x,y,-z
1/2-x,1/2+y,z
1/2+x,1/2-y,z
loop_
_atom_site_type_symbol
_atom_site_label
_atom_site_fract_x
_atom_site_fract_y
_atom_site_fract_z
Si Si1 0.183425 0.850304 0.187162
Si Si2 0.690115 0.969369 0.101028
Si Si3 0.861157 0.496584 0.592215
Si Si4 0.070046 0.400864 0.771907
Si Si5 0.729761 0.281759 0.645688
Si Si6 0.579259 0.441461 0.708632
O O1 0.226328 0.984008 0.135361
O O2 0.171124 0.704625 0.126587
O O3 0.238493 0.786493 0.263939
O O4 0.107961 0.924339 0.228087
O O5 0.635494 0.075860 0.157981
O O6 0.683528 0.994630 0.000000
O O7 0.902021 0.487134 0.500000
O O8 0.908402 0.519779 0.679876
O O9 0.803478 0.356418 0.603499
O O10 0.806565 0.644102 0.593657
O O11 0.000000 0.500000 0.805140
O O12 0.059844 0.221683 0.752802
O O13 0.658591 0.399711 0.658424
O O14 0.500000 0.500000 0.665433
#
# Coordination Sequence:
#
# PCOD9428969 Si02
#       6
#     8   8   8   8   8   8
#     4  12  19  41  63  92 129 165 216 267 321 377
#     4  12  23  38  65  94 124 169 222 268 315 383
#     4  11  22  37  64  94 122 166 220 265 314 381
#     4  11  23  42  63  90 131 174 211 265 328 386
#     4  11  19  39  63  90 126 165 211 269 317 376
#     4  11  22  37  66  94 125 172 212 260 329 388
#
# _framework density 20.210183000000001
#
# number of rings (size 3 to 8) (size 9 to 14) (size 15 to 20)
#    0.000    0.667    8.333    2.000    0.000    0.667 
#    0.000    0.833    0.000   16.000    0.000    0.000 
#    0.000    0.000    0.000    0.000    0.000    0.000 
#
# Total GULP energy -267723.011154 kJ/mol
# GULP energy per Si atom -5577.562732 kJ/mol
# Density = 2.016418 g / cm^3
# Si number density = 20.210183 Si / 1000 Ang^3
#
#
#
# Elastic Constant Matrix: (Units=GPa)
#
#
# Indices 1 2 3 4 5 6 
#
# 1 69.2378 -1.5758 13.8370 0.0000 0.0000 0.0000
# 2 -1.5758 49.9579 -13.5278 0.0000 0.0000 0.0000
# 3 13.8370 -13.5278 106.0991 0.0000 0.0000 0.0000
# 4 0.0000 0.0000 0.0000 22.9894 0.0000 0.0000
# 5 0.0000 0.0000 0.0000 0.0000 -161.6125 0.0000
# 6 0.0000 0.0000 0.0000 0.0000 0.0000 34.6611
#
#
#
# Elastic Compliance Matrix: (Units=1/GPa)
#
#
# Indices 1 2 3 4 5 6 
#
# 1 0.014830 -0.000058 -0.001941 0.000000 0.000000 0.000000
# 2 -0.000058 0.020733 0.002651 0.000000 0.000000 0.000000
# 3 -0.001941 0.002651 0.010016 0.000000 0.000000 0.000000
# 4 0.000000 0.000000 0.000000 0.043498 0.000000 0.000000
# 5 0.000000 0.000000 0.000000 0.000000 -0.006188 0.000000
# 6 0.000000 0.000000 0.000000 0.000000 0.000000 0.028851
#
#
# Mechanical properties :
#
#
# Convention : Reuss Voigt Hill
#
# Bulk Modulus (GPa) = 21.33004 24.75129 23.04066
# Shear Modulus (GPa) = 39.66227 -5.68830 16.98699
#
# Velocity S-wave (km/s) = 4.43481 -1.67949 2.90231
# Velocity P-wave (km/s) = 6.06633 2.91764 4.75988
#
# Compressibility (1/GPa) = 0.04688224
#
# Stress axis : x y z
#
# Youngs Moduli (GPa) = 67.43253 48.23260 99.83674
#
# Poissons Ratio (x) = 0.00279 0.19382
# Poissons Ratio (y) = 0.00391 -0.26467
# Poissons Ratio (z) = 0.13091 -0.12787
#
# Static dielectric constant tensor:
#      x y z
#    x 1.744500 0.000000 0.000000 
#    y 0.000000 1.731410 0.000000 
#    z 0.000000 0.000000 1.757230 
# 
# From -- ./inp_files/19341.got.cif
#   From: 2010.05.17/outbox.cif.g08.bks.cpg/sg55_10_cif.got.tgz:19341.got - 2010.06.03 13:27:54.
