data_PCOD9428760
_publ_section_title
;
Structure prediction by ZEFSAII (Michael W. Deem and Ramdas Pophale) SiO2 
 PCOD9428760
Probable space group: P B A M
;
_chemical_formula_sum "Si O2"
_cell_formula_units_Z 64
_cell_length_a 22.304408
_cell_length_b 14.588285
_cell_length_c 9.426608
_cell_angle_alpha 90.000000
_cell_angle_beta 90.000000
_cell_angle_gamma 90.000000
_cell_volume 3067.258563
_symmetry_space_group_name_H-M "P B A M"
_symmetry_group_IT_number 55
_symmetry_cell_setting 'orthorhombic'
loop_
_space_group_symop_operation_xyz
x,y,z
-x,-y,z
1/2+x,1/2-y,-z
1/2-x,1/2+y,-z
-x,-y,-z
x,y,-z
1/2-x,1/2+y,z
1/2+x,1/2-y,z
loop_
_atom_site_type_symbol
_atom_site_label
_atom_site_fract_x
_atom_site_fract_y
_atom_site_fract_z
Si Si1 0.965311 0.856484 0.662245
Si Si2 0.405204 0.454053 0.338016
Si Si3 0.208608 0.924603 0.166440
Si Si4 0.696129 0.196916 0.664672
Si Si5 0.372518 0.118792 0.167771
Si Si6 0.263185 0.639866 0.166295
Si Si7 0.085414 0.440429 0.665068
Si Si8 0.001191 0.316424 0.166679
O O1 0.953443 0.824523 0.500000
O O2 0.920693 0.939901 0.695365
O O3 0.967940 0.773759 0.770911
O O4 0.031693 0.901341 0.663801
O O5 0.381887 0.450125 0.500000
O O6 0.357549 0.414294 0.229838
O O7 0.254835 0.862529 0.251588
O O8 0.225669 0.031797 0.185682
O O9 0.210854 0.902869 0.000000
O O10 0.712281 0.206118 0.500000
O O11 0.695689 0.295850 0.738113
O O12 0.634589 0.140686 0.673426
O O13 0.306960 0.157546 0.202481
O O14 0.429327 0.185216 0.188397
O O15 0.386542 0.028738 0.258983
O O16 0.370761 0.093980 0.000000
O O17 0.272481 0.661082 0.000000
O O18 0.072848 0.458909 0.500000
O O19 0.028022 0.402142 0.747964
O O20 0.012950 0.326980 0.000000
#
# Coordination Sequence:
#
# PCOD9428760 Si02
#       8
#     8   8   8   8   8   8   8   8
#     4   9  20  40  61  86 120 160 201 246 300 354
#     4   9  20  39  62  86 121 161 198 246 301 356
#     4  11  23  40  65  94 124 162 204 252 308 367
#     4  11  25  42  63  92 124 163 208 253 306 366
#     4  10  22  43  64  87 120 157 197 247 303 359
#     4  10  23  42  64  91 125 163 203 251 308 366
#     4  11  24  42  63  89 120 157 201 249 302 362
#     4  11  24  38  61  91 120 155 200 250 302 358
#
# _framework density 20.865538000000001
#
# number of rings (size 3 to 8) (size 9 to 14) (size 15 to 20)
#    0.000    1.750    1.250    2.625    3.500    6.500 
#    0.000    1.250    0.000    0.000    0.000    0.000 
#    0.000    0.000    0.000    0.000    0.000    0.000 
#
# Total GULP energy -357951.976754 kJ/mol
# GULP energy per Si atom -5592.999637 kJ/mol
# Density = 2.081805 g / cm^3
# Si number density = 20.865538 Si / 1000 Ang^3
#
#
#
# Elastic Constant Matrix: (Units=GPa)
#
#
# Indices 1 2 3 4 5 6 
#
# 1 51.4148 -6.3449 19.1181 0.0000 0.0000 0.0000
# 2 -6.3449 62.9101 36.6879 0.0000 0.0000 0.0000
# 3 19.1181 36.6879 76.8663 0.0000 0.0000 0.0000
# 4 0.0000 0.0000 0.0000 8.6043 0.0000 0.0000
# 5 0.0000 0.0000 0.0000 0.0000 26.3966 0.0000
# 6 0.0000 0.0000 0.0000 0.0000 0.0000 20.3973
#
#
#
# Elastic Compliance Matrix: (Units=1/GPa)
#
#
# Indices 1 2 3 4 5 6 
#
# 1 0.024161 0.008233 -0.009939 0.000000 0.000000 0.000000
# 2 0.008233 0.024832 -0.013900 0.000000 0.000000 0.000000
# 3 -0.009939 -0.013900 0.022116 0.000000 0.000000 0.000000
# 4 0.000000 0.000000 0.000000 0.116221 0.000000 0.000000
# 5 0.000000 0.000000 0.000000 0.000000 0.037884 0.000000
# 6 0.000000 0.000000 0.000000 0.000000 0.000000 0.049026
#
#
# Mechanical properties :
#
#
# Convention : Reuss Voigt Hill
#
# Bulk Modulus (GPa) = 25.06407 32.23481 28.64944
# Shear Modulus (GPa) = 15.68621 20.52833 18.10727
#
# Velocity S-wave (km/s) = 2.74483 3.14002 2.94905
# Velocity P-wave (km/s) = 4.69933 5.35058 5.03549
#
# Compressibility (1/GPa) = 0.03989775
#
# Stress axis : x y z
#
# Youngs Moduli (GPa) = 41.38840 40.27015 45.21607
#
# Poissons Ratio (x) = -0.33155 0.44940
# Poissons Ratio (y) = -0.34075 0.62850
# Poissons Ratio (z) = 0.41136 0.55976
#
# Static dielectric constant tensor:
#      x y z
#    x 1.755270 0.000000 0.000000 
#    y 0.000000 1.743460 0.000000 
#    z 0.000000 0.000000 1.698310 
# 
# From -- ./inp_files/9639.got.cif
#   From: 2010.05.17/outbox.cif.g08.bks.cpg/sg55_5_cif.got.tgz:9639.got - 2010.06.03 13:27:54.
