data_PCOD9428217
_publ_section_title
;
Structure prediction by ZEFSAII (Michael W. Deem and Ramdas Pophale) SiO2 
 PCOD9428217
Probable space group: P B A M
;
_chemical_formula_sum "Si O2"
_cell_formula_units_Z 44
_cell_length_a 12.627859
_cell_length_b 12.959020
_cell_length_c 12.270328
_cell_angle_alpha 90.000000
_cell_angle_beta 90.000000
_cell_angle_gamma 90.000000
_cell_volume 2007.973866
_symmetry_space_group_name_H-M "P B A M"
_symmetry_group_IT_number 55
_symmetry_cell_setting 'orthorhombic'
loop_
_space_group_symop_operation_xyz
x,y,z
-x,-y,z
1/2+x,1/2-y,-z
1/2-x,1/2+y,-z
-x,-y,-z
x,y,-z
1/2-x,1/2+y,z
1/2+x,1/2-y,z
loop_
_atom_site_type_symbol
_atom_site_label
_atom_site_fract_x
_atom_site_fract_y
_atom_site_fract_z
Si Si1 0.526874 0.620485 0.500000
Si Si2 0.096908 0.745038 0.688482
Si Si3 0.697358 0.406952 0.500000
Si Si4 0.048992 0.611890 0.500000
Si Si5 0.385233 0.949340 0.127137
Si Si6 0.775983 0.915030 0.739155
Si Si7 0.441039 0.710992 0.872655
O O1 0.500000 0.500000 0.500000
O O2 0.591075 0.660821 0.396001
O O3 0.405948 0.667591 0.500000
O O4 0.024976 0.664406 0.616879
O O5 0.046660 0.778639 0.801717
O O6 0.205937 0.687702 0.714244
O O7 0.688540 0.454698 0.379303
O O8 0.822373 0.379000 0.500000
O O9 0.000000 0.500000 0.500000
O O10 0.389914 0.825733 0.136729
O O11 0.500000 0.000000 0.152778
O O12 0.298296 0.002587 0.202179
O O13 0.363922 0.974676 0.000000
O O14 0.869974 0.876064 0.815727
O O15 0.458328 0.690445 0.000000
#
# Coordination Sequence:
#
# PCOD9428217 Si02
#       7
#     4   8   4   4   8   8   8
#     4  11  23  45  61  84 124 174 209 252 314 391
#     4  10  22  40  61  90 122 159 213 254 313 376
#     4  10  22  36  60  90 114 160 208 239 319 369
#     4   9  21  37  61  94 122 152 195 261 321 362
#     4  10  21  38  63  92 121 164 210 253 311 366
#     4  11  22  40  63  91 129 158 205 270 311 375
#     4  11  23  38  64  93 125 168 207 256 318 367
#
# _framework density 21.912635000000002
#
# number of rings (size 3 to 8) (size 9 to 14) (size 15 to 20)
#    0.000    1.636    3.636    1.091    5.091    2.182 
#    0.000    0.909    0.000    0.545    0.000    0.000 
#    0.000    0.000    0.000    0.000    0.000    0.000 
#
# Total GULP energy -245293.130319 kJ/mol
# GULP energy per Si atom -5574.843871 kJ/mol
# Density = 2.186276 g / cm^3
# Si number density = 21.912635 Si / 1000 Ang^3
#
#
#
# Elastic Constant Matrix: (Units=GPa)
#
#
# Indices 1 2 3 4 5 6 
#
# 1 46.4514 -4.4998 30.1148 0.0000 0.0000 0.0000
# 2 -4.4998 60.5535 28.1079 0.0000 0.0000 0.0000
# 3 30.1148 28.1079 180.9016 0.0000 0.0000 0.0000
# 4 0.0000 0.0000 0.0000 -16.1291 0.0000 0.0000
# 5 0.0000 0.0000 0.0000 0.0000 15.5023 0.0000
# 6 0.0000 0.0000 0.0000 0.0000 0.0000 31.0623
#
#
#
# Elastic Compliance Matrix: (Units=1/GPa)
#
#
# Indices 1 2 3 4 5 6 
#
# 1 0.025038 0.004090 -0.004804 0.000000 0.000000 0.000000
# 2 0.004090 0.018466 -0.003550 0.000000 0.000000 0.000000
# 3 -0.004804 -0.003550 0.006879 0.000000 0.000000 0.000000
# 4 0.000000 0.000000 0.000000 -0.062000 0.000000 0.000000
# 5 0.000000 0.000000 0.000000 0.000000 0.064507 0.000000
# 6 0.000000 0.000000 0.000000 0.000000 0.000000 0.032193
#
#
# Mechanical properties :
#
#
# Convention : Reuss Voigt Hill
#
# Bulk Modulus (GPa) = 23.89094 43.92805 33.90950
# Shear Modulus (GPa) = 46.48429 21.69933 34.09181
#
# Velocity S-wave (km/s) = 4.61080 3.15026 3.94865
# Velocity P-wave (km/s) = 6.26678 5.77258 6.02475
#
# Compressibility (1/GPa) = 0.04185687
#
# Stress axis : x y z
#
# Youngs Moduli (GPa) = 39.93863 54.15298 145.36662
#
# Poissons Ratio (x) = -0.22151 0.69830
# Poissons Ratio (y) = -0.16337 0.51607
# Poissons Ratio (z) = 0.19185 0.19225
#
# Static dielectric constant tensor:
#      x y z
#    x 1.844250 0.000000 0.000000 
#    y 0.000000 1.856230 0.000000 
#    z 0.000000 0.000000 1.794290 
# 
# From -- ./inp_files/14079.got.cif
#   From: 2010.05.17/outbox.cif.g08.bks.cpg/sg55_8_cif.got.tgz:14079.got - 2010.06.03 13:27:54.
