data_PCOD9428881
_publ_section_title
;
Structure prediction by ZEFSAII (Michael W. Deem and Ramdas Pophale) SiO2 
 PCOD9428881
Probable space group: P B A M
;
_chemical_formula_sum "Si O2"
_cell_formula_units_Z 40
_cell_length_a 7.602654
_cell_length_b 22.742534
_cell_length_c 9.142098
_cell_angle_alpha 90.000000
_cell_angle_beta 90.000000
_cell_angle_gamma 90.000000
_cell_volume 1580.701812
_symmetry_space_group_name_H-M "P B A M"
_symmetry_group_IT_number 55
_symmetry_cell_setting 'orthorhombic'
loop_
_space_group_symop_operation_xyz
x,y,z
-x,-y,z
1/2+x,1/2-y,-z
1/2-x,1/2+y,-z
-x,-y,-z
x,y,-z
1/2-x,1/2+y,z
1/2+x,1/2-y,z
loop_
_atom_site_type_symbol
_atom_site_label
_atom_site_fract_x
_atom_site_fract_y
_atom_site_fract_z
Si Si1 0.617326 0.749430 0.000000
Si Si2 0.709705 0.008467 0.832077
Si Si3 0.400087 0.658916 0.000000
Si Si4 0.207221 0.878367 0.342464
Si Si5 0.481007 0.204384 0.665850
Si Si6 0.691391 0.392521 0.701414
O O1 0.814385 0.776071 0.000000
O O2 0.562190 0.768605 0.171789
O O3 0.600879 0.678598 0.000000
O O4 0.783137 0.962430 0.710738
O O5 0.500000 0.000000 0.833541
O O6 0.754164 0.073743 0.780275
O O7 0.773384 0.000210 0.000000
O O8 0.326949 0.623921 0.868339
O O9 0.268021 0.902661 0.500000
O O10 0.319503 0.819501 0.321387
O O11 0.997984 0.871443 0.352830
O O12 0.468103 0.233426 0.500000
O O13 0.353487 0.147223 0.652157
#
# Coordination Sequence:
#
# PCOD9428881 Si02
#       6
#     4   8   4   8   8   8
#     4  10  24  44  69  98 128 171 219 274 337 409
#     4  11  23  39  64  94 131 178 221 266 320 390
#     4  10  24  42  69 101 123 168 220 272 342 390
#     4  11  25  39  64  96 131 179 218 261 326 389
#     4  10  23  44  67  96 135 173 214 276 333 389
#     4  11  22  41  66  96 131 168 223 271 324 390
#
# _framework density 25.305212999999998
#
# number of rings (size 3 to 8) (size 9 to 14) (size 15 to 20)
#    0.000    1.400    3.000    1.200    5.600    3.600 
#    0.000    5.000    0.000    0.000    0.000    0.000 
#    0.000    0.000    0.000    0.000    0.000    0.000 
#
# Total GULP energy -222924.810631 kJ/mol
# GULP energy per Si atom -5573.120266 kJ/mol
# Density = 2.524762 g / cm^3
# Si number density = 25.305213 Si / 1000 Ang^3
#
#
#
# Elastic Constant Matrix: (Units=GPa)
#
#
# Indices 1 2 3 4 5 6 
#
# 1 107.3704 7.6618 39.7403 0.0000 0.0000 0.0000
# 2 7.6618 55.8480 43.6075 0.0000 0.0000 0.0000
# 3 39.7403 43.6075 207.1369 0.0000 0.0000 0.0000
# 4 0.0000 0.0000 0.0000 30.6986 0.0000 0.0000
# 5 0.0000 0.0000 0.0000 0.0000 74.9366 0.0000
# 6 0.0000 0.0000 0.0000 0.0000 0.0000 34.2978
#
#
#
# Elastic Compliance Matrix: (Units=1/GPa)
#
#
# Indices 1 2 3 4 5 6 
#
# 1 0.010027 0.000151 -0.001956 0.000000 0.000000 0.000000
# 2 0.000151 0.021430 -0.004541 0.000000 0.000000 0.000000
# 3 -0.001956 -0.004541 0.006159 0.000000 0.000000 0.000000
# 4 0.000000 0.000000 0.000000 0.032575 0.000000 0.000000
# 5 0.000000 0.000000 0.000000 0.000000 0.013345 0.000000
# 6 0.000000 0.000000 0.000000 0.000000 0.000000 0.029156
#
#
# Mechanical properties :
#
#
# Convention : Reuss Voigt Hill
#
# Bulk Modulus (GPa) = 40.11848 61.37494 50.74671
# Shear Modulus (GPa) = 37.39996 46.60966 42.00481
#
# Velocity S-wave (km/s) = 3.84859 4.29639 4.07864
# Velocity P-wave (km/s) = 5.96968 6.99418 6.50214
#
# Compressibility (1/GPa) = 0.02492617
#
# Stress axis : x y z
#
# Youngs Moduli (GPa) = 99.73537 46.66252 162.36845
#
# Poissons Ratio (x) = -0.00706 0.31751
# Poissons Ratio (y) = -0.01510 0.73727
# Poissons Ratio (z) = 0.19503 0.21188
#
# Static dielectric constant tensor:
#      x y z
#    x 2.073360 0.000000 0.000000 
#    y 0.000000 1.969970 0.000000 
#    z 0.000000 0.000000 1.939420 
# 
# From -- ./inp_files/2555.got.cif
#   From: 2010.05.17/outbox.cif.g08.bks.cpg/sg55_2_cif.got.tgz:2555.got - 2010.06.03 13:27:54.
