data_PCOD9428170
_publ_section_title
;
Structure prediction by ZEFSAII (Michael W. Deem and Ramdas Pophale) SiO2 
 PCOD9428170
Probable space group: P B A M
;
_chemical_formula_sum "Si O2"
_cell_formula_units_Z 28
_cell_length_a 24.653043
_cell_length_b 5.004034
_cell_length_c 11.379676
_cell_angle_alpha 90.000000
_cell_angle_beta 90.000000
_cell_angle_gamma 90.000000
_cell_volume 1403.849922
_symmetry_space_group_name_H-M "P B A M"
_symmetry_group_IT_number 55
_symmetry_cell_setting 'orthorhombic'
loop_
_space_group_symop_operation_xyz
x,y,z
-x,-y,z
1/2+x,1/2-y,-z
1/2-x,1/2+y,-z
-x,-y,-z
x,y,-z
1/2-x,1/2+y,z
1/2+x,1/2-y,z
loop_
_atom_site_type_symbol
_atom_site_label
_atom_site_fract_x
_atom_site_fract_y
_atom_site_fract_z
Si Si1 0.558739 0.872205 0.138809
Si Si2 0.603644 0.355696 0.737375
Si Si3 0.714841 0.563569 0.639249
Si Si4 0.960116 0.749784 0.500000
O O1 0.569218 0.599968 0.208458
O O2 0.500000 0.000000 0.166148
O O3 0.601007 0.100963 0.177306
O O4 0.561168 0.818580 0.000000
O O5 0.663104 0.469892 0.711646
O O6 0.577169 0.260442 0.615145
O O7 0.701651 0.541531 0.500000
O O8 0.735175 0.862527 0.661841
O O9 0.000000 0.500000 0.500000
O O10 0.000000 0.000000 0.500000
#
# Coordination Sequence:
#
# PCOD9428170 Si02
#       4
#     8   8   8   4
#     4  11  24  41  63  88 121 167 213 247 290 363
#     4  12  22  40  63  90 124 159 201 254 309 362
#     4  10  21  38  61  89 121 157 202 247 301 371
#     4  12  24  36  56  92 128 154 184 242 317 368
#
# _framework density 19.945150999999999
#
# number of rings (size 3 to 8) (size 9 to 14) (size 15 to 20)
#    0.000    0.857    1.429    7.714    0.000    2.286 
#    0.000    0.000    0.000   17.143    0.000    0.000 
#    0.000    0.000    0.000    0.000    0.000    0.000 
#
# Total GULP energy -156728.903741 kJ/mol
# GULP energy per Si atom -5597.460848 kJ/mol
# Density = 1.989976 g / cm^3
# Si number density = 19.945151 Si / 1000 Ang^3
#
#
#
# Elastic Constant Matrix: (Units=GPa)
#
#
# Indices 1 2 3 4 5 6 
#
# 1 51.5241 -6.4148 27.2584 0.0000 0.0000 0.0000
# 2 -6.4148 104.9419 26.7995 0.0000 0.0000 0.0000
# 3 27.2584 26.7995 85.1393 0.0000 0.0000 0.0000
# 4 0.0000 0.0000 0.0000 16.2153 0.0000 0.0000
# 5 0.0000 0.0000 0.0000 0.0000 13.0655 0.0000
# 6 0.0000 0.0000 0.0000 0.0000 0.0000 22.7880
#
#
#
# Elastic Compliance Matrix: (Units=1/GPa)
#
#
# Indices 1 2 3 4 5 6 
#
# 1 0.024711 0.003840 -0.009120 0.000000 0.000000 0.000000
# 2 0.003840 0.010959 -0.004679 0.000000 0.000000 0.000000
# 3 -0.009120 -0.004679 0.016138 0.000000 0.000000 0.000000
# 4 0.000000 0.000000 0.000000 0.061670 0.000000 0.000000
# 5 0.000000 0.000000 0.000000 0.000000 0.076537 0.000000
# 6 0.000000 0.000000 0.000000 0.000000 0.000000 0.043883
#
#
# Mechanical properties :
#
#
# Convention : Reuss Voigt Hill
#
# Bulk Modulus (GPa) = 31.35837 37.43238 34.39537
# Shear Modulus (GPa) = 18.90736 23.34457 21.12597
#
# Velocity S-wave (km/s) = 3.08225 3.42488 3.25807
# Velocity P-wave (km/s) = 5.33136 5.86925 5.60676
#
# Compressibility (1/GPa) = 0.03188941
#
# Stress axis : x y z
#
# Youngs Moduli (GPa) = 40.46701 91.25226 61.96478
#
# Poissons Ratio (x) = -0.35038 0.56514
# Poissons Ratio (y) = -0.15538 0.28992
# Poissons Ratio (z) = 0.36907 0.42695
#
# Static dielectric constant tensor:
#      x y z
#    x 1.698120 0.000000 0.000000 
#    y 0.000000 1.678390 0.000000 
#    z 0.000000 0.000000 1.695080 
# 
# From -- ./inp_files/11104.got.cif
#   From: 2010.05.17/outbox.cif.g08.bks.cpg/sg55_6_cif.got.tgz:11104.got - 2010.06.03 13:27:54.
