data_PCOD9428564
_publ_section_title
;
Structure prediction by ZEFSAII (Michael W. Deem and Ramdas Pophale) SiO2 
 PCOD9428564
Probable space group: P B A M
;
_chemical_formula_sum "Si O2"
_cell_formula_units_Z 38
_cell_length_a 11.183563
_cell_length_b 4.819029
_cell_length_c 28.562252
_cell_angle_alpha 90.000000
_cell_angle_beta 90.000000
_cell_angle_gamma 90.000000
_cell_volume 1539.331565
_symmetry_space_group_name_H-M "P B A M"
_symmetry_group_IT_number 55
_symmetry_cell_setting 'orthorhombic'
loop_
_space_group_symop_operation_xyz
x,y,z
-x,-y,z
1/2+x,1/2-y,-z
1/2-x,1/2+y,-z
-x,-y,-z
x,y,-z
1/2-x,1/2+y,z
1/2+x,1/2-y,z
loop_
_atom_site_type_symbol
_atom_site_label
_atom_site_fract_x
_atom_site_fract_y
_atom_site_fract_z
Si Si1 0.161750 0.212498 0.000000
Si Si2 0.174657 0.499764 0.260883
Si Si3 0.500000 0.000000 0.500000
Si Si4 0.837219 0.248075 0.583946
Si Si5 0.500000 0.000000 0.075874
Si Si6 0.175647 0.477691 0.846707
Si Si7 0.500000 0.000000 0.337844
O O1 0.076487 0.292568 0.956541
O O2 0.280747 0.408257 0.000000
O O3 0.204770 0.821911 0.266546
O O4 0.133837 0.490092 0.207018
O O5 0.091122 0.372367 0.300508
O O6 0.579613 0.835834 0.459388
O O7 0.717638 0.440665 0.582750
O O8 0.918513 0.308447 0.629071
O O9 0.595126 0.889846 0.113206
O O10 0.203089 0.154039 0.851935
#
# Coordination Sequence:
#
# PCOD9428564 Si02
#       7
#     4   8   2   8   4   8   4
#     4  11  26  43  60  88 120 151 194 243 292 354
#     4  10  22  39  59  87 122 157 198 244 288 345
#     4  10  24  42  70  88 118 162 196 244 308 358
#     4  11  25  42  62  92 123 154 200 250 294 351
#     4  11  23  40  66  86 116 158 193 239 300 352
#     4  10  22  39  60  89 120 152 197 246 289 344
#     4  11  23  39  63  88 121 165 199 237 298 350
#
# _framework density 24.686036999999999
#
# number of rings (size 3 to 8) (size 9 to 14) (size 15 to 20)
#    0.000    1.474    0.000    3.789    0.000   10.947 
#    0.000    6.316    0.000    0.000    0.000    0.000 
#    0.000    0.000    0.000    0.000    0.000    0.000 
#
# Total GULP energy -211703.783118 kJ/mol
# GULP energy per Si atom -5571.152187 kJ/mol
# Density = 2.462985 g / cm^3
# Si number density = 24.686037 Si / 1000 Ang^3
#
#
#
# Elastic Constant Matrix: (Units=GPa)
#
#
# Indices 1 2 3 4 5 6 
#
# 1 75.8439 4.9857 63.4567 0.0000 0.0000 0.0000
# 2 4.9857 76.5065 13.1353 0.0000 0.0000 0.0000
# 3 63.4567 13.1353 210.2080 0.0000 0.0000 0.0000
# 4 0.0000 0.0000 0.0000-4486.4722 0.0000 0.0000
# 5 0.0000 0.0000 0.0000 0.0000 53.9957 0.0000
# 6 0.0000 0.0000 0.0000 0.0000 0.0000 7.0884
#
#
#
# Elastic Compliance Matrix: (Units=1/GPa)
#
#
# Indices 1 2 3 4 5 6 
#
# 1 0.017645 -0.000238 -0.005312 0.000000 0.000000 0.000000
# 2 -0.000238 0.013216 -0.000754 0.000000 0.000000 0.000000
# 3 -0.005312 -0.000754 0.006408 0.000000 0.000000 0.000000
# 4 0.000000 0.000000 0.000000 -0.000223 0.000000 0.000000
# 5 0.000000 0.000000 0.000000 0.000000 0.018520 0.000000
# 6 0.000000 0.000000 0.000000 0.000000 0.000000 0.141076
#
#
# Mechanical properties :
#
#
# Convention : Reuss Voigt Hill
#
# Bulk Modulus (GPa) = 40.54959 58.41263 49.48111
# Shear Modulus (GPa) = 22.99180 -866.34558 -421.67689
#
# Velocity S-wave (km/s) = 3.05514 -18.75387 -13.08384
# Velocity P-wave (km/s) = 5.37652 21.10047 14.42780
#
# Compressibility (1/GPa) = 0.02466116
#
# Stress axis : x y z
#
# Youngs Moduli (GPa) = 56.67406 75.66735 156.06055
#
# Poissons Ratio (x) = 0.01800 0.82894
# Poissons Ratio (y) = 0.01348 0.11767
# Poissons Ratio (z) = 0.30103 0.05705
#
# Static dielectric constant tensor:
#      x y z
#    x 2.040040 0.000000 0.000000 
#    y 0.000000 1.128870 0.000000 
#    z 0.000000 0.000000 1.933510 
# 
# From -- ./inp_files/23926.got.cif
#   From: 2010.05.17/outbox.cif.g08.bks.cpg/sg55_12_cif.got.tgz:23926.got - 2010.06.03 13:27:54.
