data_PCOD9428076
_publ_section_title
;
Structure prediction by ZEFSAII (Michael W. Deem and Ramdas Pophale) SiO2 
 PCOD9428076
Probable space group: P B A M
;
_chemical_formula_sum "Si O2"
_cell_formula_units_Z 52
_cell_length_a 18.573674
_cell_length_b 19.242834
_cell_length_c 7.597859
_cell_angle_alpha 90.000000
_cell_angle_beta 90.000000
_cell_angle_gamma 90.000000
_cell_volume 2715.551739
_symmetry_space_group_name_H-M "P B A M"
_symmetry_group_IT_number 55
_symmetry_cell_setting 'orthorhombic'
loop_
_space_group_symop_operation_xyz
x,y,z
-x,-y,z
1/2+x,1/2-y,-z
1/2-x,1/2+y,-z
-x,-y,-z
x,y,-z
1/2-x,1/2+y,z
1/2+x,1/2-y,z
loop_
_atom_site_type_symbol
_atom_site_label
_atom_site_fract_x
_atom_site_fract_y
_atom_site_fract_z
Si Si1 0.782985 0.541268 0.714691
Si Si2 0.839365 0.390545 0.289903
Si Si3 0.362682 0.820426 0.697658
Si Si4 0.450565 0.324270 0.000000
Si Si5 0.596479 0.410502 0.000000
Si Si6 0.314165 0.670781 0.286022
Si Si7 0.018180 0.690357 0.808674
Si Si8 0.160157 0.944069 0.000000
O O1 0.771830 0.539544 0.500000
O O2 0.822739 0.469466 0.764730
O O3 0.831305 0.607643 0.767084
O O4 0.710287 0.547032 0.827571
O O5 0.844789 0.391106 0.500000
O O6 0.769022 0.345325 0.244762
O O7 0.912689 0.356456 0.224552
O O8 0.333033 0.817332 0.500000
O O9 0.336630 0.747722 0.777032
O O10 0.449043 0.819187 0.689698
O O11 0.518365 0.375610 0.000000
O O12 0.457236 0.270537 0.164789
O O13 0.379350 0.370064 0.000000
O O14 0.638164 0.382255 0.173046
O O15 0.602541 0.493374 0.000000
O O16 0.324479 0.663613 0.500000
O O17 0.987539 0.671173 0.000000
#
# Coordination Sequence:
#
# PCOD9428076 Si02
#       8
#     8   8   8   4   4   8   8   4
#     4  10  24  42  62  94 126 158 209 256 299 369
#     4  10  21  39  60  88 124 160 206 256 307 361
#     4  10  21  40  62  87 122 165 206 251 310 360
#     4  10  25  41  57  96 126 156 207 256 298 370
#     4  12  21  42  68  84 126 162 202 253 302 366
#     4  10  21  37  64  92 115 161 211 253 304 361
#     4  10  22  37  59  87 126 158 201 253 298 361
#     4  12  25  39  69  88 124 168 199 248 324 354
#
# _framework density 19.148962999999998
#
# number of rings (size 3 to 8) (size 9 to 14) (size 15 to 20)
#    0.462    1.231    3.077    0.692    5.385    0.615 
#    0.000    4.615    0.000    1.846    0.000    0.000 
#    0.000    0.000    0.000    0.000    0.000    0.000 
#
# Total GULP energy -289778.607281 kJ/mol
# GULP energy per Si atom -5572.665525 kJ/mol
# Density = 1.910538 g / cm^3
# Si number density = 19.148963 Si / 1000 Ang^3
#
#
#
# Elastic Constant Matrix: (Units=GPa)
#
#
# Indices 1 2 3 4 5 6 
#
# 1 55.5092 67.7547 15.6279 0.0000 0.0000 0.0000
# 2 67.7547 104.2407 23.7626 0.0000 0.0000 0.0000
# 3 15.6279 23.7626 61.0264 0.0000 0.0000 0.0000
# 4 0.0000 0.0000 0.0000 1.6117 0.0000 0.0000
# 5 0.0000 0.0000 0.0000 0.0000 37.5074 0.0000
# 6 0.0000 0.0000 0.0000 0.0000 0.0000 45.0143
#
#
#
# Elastic Compliance Matrix: (Units=1/GPa)
#
#
# Indices 1 2 3 4 5 6 
#
# 1 0.087190 -0.056607 -0.000286 0.000000 0.000000 0.000000
# 2 -0.056607 0.047279 -0.003913 0.000000 0.000000 0.000000
# 3 -0.000286 -0.003913 0.017983 0.000000 0.000000 0.000000
# 4 0.000000 0.000000 0.000000 0.620481 0.000000 0.000000
# 5 0.000000 0.000000 0.000000 0.000000 0.026661 0.000000
# 6 0.000000 0.000000 0.000000 0.000000 0.000000 0.022215
#
#
# Mechanical properties :
#
#
# Convention : Reuss Voigt Hill
#
# Bulk Modulus (GPa) = 32.42624 48.34074 40.38349
# Shear Modulus (GPa) = 5.24273 24.40206 14.82239
#
# Velocity S-wave (km/s) = 1.65644 3.57365 2.78521
# Velocity P-wave (km/s) = 4.54190 6.50594 5.61053
#
# Compressibility (1/GPa) = 0.03083922
#
# Stress axis : x y z
#
# Youngs Moduli (GPa) = 11.46923 21.15121 55.60662
#
# Poissons Ratio (x) = 1.19730 0.01592
# Poissons Ratio (y) = 0.64923 0.21761
# Poissons Ratio (z) = 0.00328 0.08277
#
# Static dielectric constant tensor:
#      x y z
#    x 1.637170 0.000000 0.000000 
#    y 0.000000 1.685290 0.000000 
#    z 0.000000 0.000000 1.707630 
# 
# From -- ./inp_files/7666.got.cif
#   From: 2010.05.17/outbox.cif.g08.bks.cpg/sg55_4_cif.got.tgz:7666.got - 2010.06.03 13:27:54.
