data_PCOD9428313
_publ_section_title
;
Structure prediction by ZEFSAII (Michael W. Deem and Ramdas Pophale) SiO2 
 PCOD9428313
Probable space group: P B A M
;
_chemical_formula_sum "Si O2"
_cell_formula_units_Z 56
_cell_length_a 13.848336
_cell_length_b 8.788233
_cell_length_c 20.086118
_cell_angle_alpha 90.000000
_cell_angle_beta 90.000000
_cell_angle_gamma 90.000000
_cell_volume 2444.528836
_symmetry_space_group_name_H-M "P B A M"
_symmetry_group_IT_number 55
_symmetry_cell_setting 'orthorhombic'
loop_
_space_group_symop_operation_xyz
x,y,z
-x,-y,z
1/2+x,1/2-y,-z
1/2-x,1/2+y,-z
-x,-y,-z
x,y,-z
1/2-x,1/2+y,z
1/2+x,1/2-y,z
loop_
_atom_site_type_symbol
_atom_site_label
_atom_site_fract_x
_atom_site_fract_y
_atom_site_fract_z
Si Si1 0.077286 0.748467 0.188449
Si Si2 0.613235 0.186347 0.572184
Si Si3 0.384031 0.481678 0.073863
Si Si4 0.038926 0.832280 0.340271
Si Si5 0.143355 0.226201 0.826765
Si Si6 0.202759 0.623848 0.611284
Si Si7 0.268821 0.014576 0.760941
O O1 0.121620 0.848406 0.128457
O O2 0.148022 0.608774 0.200913
O O3 0.062038 0.818707 0.262246
O O4 0.965714 0.714516 0.169966
O O5 0.565574 0.214404 0.500000
O O6 0.542900 0.214913 0.634448
O O7 0.700111 0.306927 0.581193
O O8 0.652478 0.014236 0.572870
O O9 0.500000 0.500000 0.069824
O O10 0.339716 0.639459 0.102907
O O11 0.346838 0.447141 0.000000
O O12 0.133721 0.770000 0.377563
O O13 0.000000 0.000000 0.356824
O O14 0.164399 0.083077 0.778611
O O15 0.210771 0.348864 0.790103
O O16 0.219320 0.544802 0.683315
#
# Coordination Sequence:
#
# PCOD9428313 Si02
#       7
#     8   8   8   8   8   8   8
#     4  10  21  39  64  92 124 162 210 267 316 372
#     4  12  26  43  63  89 126 170 213 263 329 400
#     4   9  19  37  61  88 122 165 204 247 309 372
#     4  11  23  40  65  95 124 163 213 266 325 386
#     4  11  21  36  59  88 126 161 204 261 316 376
#     4  11  24  41  64  91 124 164 215 272 328 391
#     4  11  22  37  61  93 122 160 212 269 325 377
#
# _framework density 22.908299
#
# number of rings (size 3 to 8) (size 9 to 14) (size 15 to 20)
#    0.000    1.286    0.000    6.857    0.000    7.714 
#    0.000    3.571    0.000    3.429    0.000    0.000 
#    0.000    0.000    0.000    0.000    0.000    0.000 
#
# Total GULP energy -312582.417001 kJ/mol
# GULP energy per Si atom -5581.828875 kJ/mol
# Density = 2.285616 g / cm^3
# Si number density = 22.908299 Si / 1000 Ang^3
#
#
#
# Elastic Constant Matrix: (Units=GPa)
#
#
# Indices 1 2 3 4 5 6 
#
# 1 35.9423 6.4379 9.6209 0.0000 0.0000 0.0000
# 2 6.4379 105.1094 45.4228 0.0000 0.0000 0.0000
# 3 9.6209 45.4228 139.3395 0.0000 0.0000 0.0000
# 4 0.0000 0.0000 0.0000 19.5585 0.0000 0.0000
# 5 0.0000 0.0000 0.0000 0.0000 17.4360 0.0000
# 6 0.0000 0.0000 0.0000 0.0000 0.0000 35.7043
#
#
#
# Elastic Compliance Matrix: (Units=1/GPa)
#
#
# Indices 1 2 3 4 5 6 
#
# 1 0.028444 -0.001040 -0.001625 0.000000 0.000000 0.000000
# 2 -0.001040 0.011112 -0.003551 0.000000 0.000000 0.000000
# 3 -0.001625 -0.003551 0.008446 0.000000 0.000000 0.000000
# 4 0.000000 0.000000 0.000000 0.051129 0.000000 0.000000
# 5 0.000000 0.000000 0.000000 0.000000 0.057353 0.000000
# 6 0.000000 0.000000 0.000000 0.000000 0.000000 0.028008
#
#
# Mechanical properties :
#
#
# Convention : Reuss Voigt Hill
#
# Bulk Modulus (GPa) = 28.11275 44.81714 36.46495
# Shear Modulus (GPa) = 23.94879 29.13373 26.54126
#
# Velocity S-wave (km/s) = 3.23680 3.57004 3.40750
# Velocity P-wave (km/s) = 5.12520 6.04977 5.60658
#
# Compressibility (1/GPa) = 0.03557105
#
# Stress axis : x y z
#
# Youngs Moduli (GPa) = 35.15734 89.99325 118.39449
#
# Poissons Ratio (x) = 0.09359 0.19238
# Poissons Ratio (y) = 0.03656 0.42036
# Poissons Ratio (z) = 0.05713 0.31952
#
# Static dielectric constant tensor:
#      x y z
#    x 1.912880 0.000000 0.000000 
#    y 0.000000 1.874870 0.000000 
#    z 0.000000 0.000000 1.854490 
# 
# From -- ./inp_files/22967.got.cif
#   From: 2010.05.17/outbox.cif.g08.bks.cpg/sg55_12_cif.got.tgz:22967.got - 2010.06.03 13:27:54.
