data_PCOD9428216
_publ_section_title
;
Structure prediction by ZEFSAII (Michael W. Deem and Ramdas Pophale) SiO2 
 PCOD9428216
Probable space group: P B A M
;
_chemical_formula_sum "Si O2"
_cell_formula_units_Z 28
_cell_length_a 18.366075
_cell_length_b 4.869851
_cell_length_c 11.340587
_cell_angle_alpha 90.000000
_cell_angle_beta 90.000000
_cell_angle_gamma 90.000000
_cell_volume 1014.302654
_symmetry_space_group_name_H-M "P B A M"
_symmetry_group_IT_number 55
_symmetry_cell_setting 'orthorhombic'
loop_
_space_group_symop_operation_xyz
x,y,z
-x,-y,z
1/2+x,1/2-y,-z
1/2-x,1/2+y,-z
-x,-y,-z
x,y,-z
1/2-x,1/2+y,z
1/2+x,1/2-y,z
loop_
_atom_site_type_symbol
_atom_site_label
_atom_site_fract_x
_atom_site_fract_y
_atom_site_fract_z
Si Si1 0.426500 0.323986 0.627003
Si Si2 0.571773 0.691909 0.124547
Si Si3 0.801737 0.925230 0.000000
Si Si4 0.212136 0.210361 0.361033
O O1 0.500000 0.500000 0.621655
O O2 0.417862 0.175919 0.500000
O O3 0.427293 0.159480 0.749798
O O4 0.362517 0.546920 0.639208
O O5 0.500000 0.500000 0.125009
O O6 0.571190 0.854871 0.000000
O O7 0.643749 0.501867 0.107355
O O8 0.767782 0.626013 0.000000
O O9 0.226583 0.263797 0.500000
O O10 0.226053 0.508804 0.308654
#
# Coordination Sequence:
#
# PCOD9428216 Si02
#       4
#     8   8   4   8
#     4   9  17  32  57  87 119 157 202 248 296 357
#     4   8  17  36  57  83 120 160 198 244 304 362
#     4  10  21  38  63  92 120 154 204 256 301 356
#     4   9  18  33  53  78 111 150 190 235 290 347
#
# _framework density 27.605170999999999
#
# number of rings (size 3 to 8) (size 9 to 14) (size 15 to 20)
#    0.857    2.286    0.000    0.000    0.000    2.286 
#    0.000    4.286    0.000   15.429    0.000    0.000 
#    0.000    0.000    0.000    0.000    0.000    0.000 
#
# Total GULP energy -156385.572040 kJ/mol
# GULP energy per Si atom -5585.199001 kJ/mol
# Density = 2.754234 g / cm^3
# Si number density = 27.605171 Si / 1000 Ang^3
#
#
#
# Elastic Constant Matrix: (Units=GPa)
#
#
# Indices 1 2 3 4 5 6 
#
# 1 184.6695 28.9744 -4.7261 0.0000 0.0000 0.0000
# 2 28.9744 82.3967 3.0605 0.0000 0.0000 0.0000
# 3 -4.7261 3.0605 270.1648 0.0000 0.0000 0.0000
# 4 0.0000 0.0000 0.0000 -7.0860 0.0000 0.0000
# 5 0.0000 0.0000 0.0000 0.0000 13.5368 0.0000
# 6 0.0000 0.0000 0.0000 0.0000 0.0000 48.3618
#
#
#
# Elastic Compliance Matrix: (Units=1/GPa)
#
#
# Indices 1 2 3 4 5 6 
#
# 1 0.005735 -0.002021 0.000123 0.000000 0.000000 0.000000
# 2 -0.002021 0.012854 -0.000181 0.000000 0.000000 0.000000
# 3 0.000123 -0.000181 0.003706 0.000000 0.000000 0.000000
# 4 0.000000 0.000000 0.000000 -0.141123 0.000000 0.000000
# 5 0.000000 0.000000 0.000000 0.000000 0.073872 0.000000
# 6 0.000000 0.000000 0.000000 0.000000 0.000000 0.020677
#
#
# Mechanical properties :
#
#
# Convention : Reuss Voigt Hill
#
# Bulk Modulus (GPa) = 55.13682 65.76096 60.44889
# Shear Modulus (GPa) = -355.26274 44.95734 -155.15270
#
# Velocity S-wave (km/s) = -11.35666 4.03995 -7.50508
# Velocity P-wave (km/s) = 12.32672 6.75539 7.29085
#
# Compressibility (1/GPa) = 0.01813670
#
# Stress axis : x y z
#
# Youngs Moduli (GPa) = 174.35608 77.79708 269.85816
#
# Poissons Ratio (x) = 0.15726 -0.03325
# Poissons Ratio (y) = 0.35244 0.04884
# Poissons Ratio (z) = -0.02149 0.01408
#
# Static dielectric constant tensor:
#      x y z
#    x 2.149450 0.000000 0.000000 
#    y 0.000000 2.013980 0.000000 
#    z 0.000000 0.000000 2.290100 
# 
# From -- ./inp_files/15100.got.cif
#   From: 2010.05.17/outbox.cif.g08.bks.cpg/sg55_8_cif.got.tgz:15100.got - 2010.06.03 13:27:54.
