data_PCOD9428366
_publ_section_title
;
Structure prediction by ZEFSAII (Michael W. Deem and Ramdas Pophale) SiO2 
 PCOD9428366
Probable space group: P B A M
;
_chemical_formula_sum "Si O2"
_cell_formula_units_Z 64
_cell_length_a 19.374602
_cell_length_b 12.081812
_cell_length_c 13.203385
_cell_angle_alpha 90.000000
_cell_angle_beta 90.000000
_cell_angle_gamma 90.000000
_cell_volume 3090.652308
_symmetry_space_group_name_H-M "P B A M"
_symmetry_group_IT_number 55
_symmetry_cell_setting 'orthorhombic'
loop_
_space_group_symop_operation_xyz
x,y,z
-x,-y,z
1/2+x,1/2-y,-z
1/2-x,1/2+y,-z
-x,-y,-z
x,y,-z
1/2-x,1/2+y,z
1/2+x,1/2-y,z
loop_
_atom_site_type_symbol
_atom_site_label
_atom_site_fract_x
_atom_site_fract_y
_atom_site_fract_z
Si Si1 0.892097 0.213827 0.226950
Si Si2 0.470871 0.664567 0.884565
Si Si3 0.739033 0.156462 0.220885
Si Si4 0.073994 0.019468 0.309587
Si Si5 0.926481 0.455492 0.694639
Si Si6 0.218461 0.508746 0.390586
Si Si7 0.679807 0.304766 0.610560
Si Si8 0.390694 0.897519 0.112274
O O1 0.811009 0.217158 0.196981
O O2 0.917947 0.324712 0.283247
O O3 0.948808 0.190006 0.139861
O O4 0.897118 0.103211 0.294345
O O5 0.441877 0.580382 0.799163
O O6 0.430420 0.781015 0.875501
O O7 0.462087 0.624362 0.000000
O O8 0.750747 0.049905 0.292602
O O9 0.687635 0.224892 0.294838
O O10 0.691093 0.124057 0.127325
O O11 0.123207 0.101674 0.369271
O O12 0.000000 0.000000 0.359892
O O13 0.863303 0.490464 0.623464
O O14 0.914047 0.517703 0.801687
O O15 0.000000 0.500000 0.656987
O O16 0.239692 0.460887 0.500000
O O17 0.246836 0.632947 0.391246
O O18 0.666742 0.254496 0.500000
O O19 0.405100 0.940480 0.000000
#
# Coordination Sequence:
#
# PCOD9428366 Si02
#       8
#     8   8   8   8   8   8   8   8
#     4  11  22  37  60  89 120 161 203 250 307 365
#     4  10  21  40  64  88 119 162 206 251 310 373
#     4  11  21  39  63  86 127 157 204 257 309 359
#     4  10  22  39  61  88 126 158 204 257 312 359
#     4  11  22  39  63  89 126 161 200 254 309 363
#     4  10  22  38  60  89 119 159 203 248 303 366
#     4  11  21  37  61  89 120 161 207 250 308 368
#     4  10  22  39  62  88 121 164 203 246 304 368
#
# _framework density 20.707602999999999
#
# number of rings (size 3 to 8) (size 9 to 14) (size 15 to 20)
#    0.000    1.500    5.000    0.375    0.000    4.000 
#    0.000    0.625    0.000    0.750    0.000    0.000 
#    0.000    0.000    0.000    0.000    0.000    0.000 
#
# Total GULP energy -356913.988065 kJ/mol
# GULP energy per Si atom -5576.781064 kJ/mol
# Density = 2.066047 g / cm^3
# Si number density = 20.707603 Si / 1000 Ang^3
#
#
#
# Elastic Constant Matrix: (Units=GPa)
#
#
# Indices 1 2 3 4 5 6 
#
# 1 106.2553 -5.0750 -0.3760 0.0000 0.0000 0.0000
# 2 -5.0750 76.0687 5.0668 0.0000 0.0000 0.0000
# 3 -0.3760 5.0668 65.6261 0.0000 0.0000 0.0000
# 4 0.0000 0.0000 0.0000 -68.8400 0.0000 0.0000
# 5 0.0000 0.0000 0.0000 0.0000 10.2329 0.0000
# 6 0.0000 0.0000 0.0000 0.0000 0.0000 31.7466
#
#
#
# Elastic Compliance Matrix: (Units=1/GPa)
#
#
# Indices 1 2 3 4 5 6 
#
# 1 0.009441 0.000630 0.000005 0.000000 0.000000 0.000000
# 2 0.000630 0.013256 -0.001020 0.000000 0.000000 0.000000
# 3 0.000005 -0.001020 0.015317 0.000000 0.000000 0.000000
# 4 0.000000 0.000000 0.000000 -0.014526 0.000000 0.000000
# 5 0.000000 0.000000 0.000000 0.000000 0.097724 0.000000
# 6 0.000000 0.000000 0.000000 0.000000 0.000000 0.031499
#
#
# Mechanical properties :
#
#
# Convention : Reuss Voigt Hill
#
# Bulk Modulus (GPa) = 26.84977 27.46464 27.15720
# Shear Modulus (GPa) = 30.13949 11.18353 20.66151
#
# Velocity S-wave (km/s) = 3.81921 2.32646 3.16218
# Velocity P-wave (km/s) = 5.69586 4.52862 5.14545
#
# Compressibility (1/GPa) = 0.03724427
#
# Stress axis : x y z
#
# Youngs Moduli (GPa) = 105.91672 75.43793 65.28859
#
# Poissons Ratio (x) = -0.04749 -0.00036
# Poissons Ratio (y) = -0.06668 0.06658
# Poissons Ratio (z) = -0.00058 0.07693
#
# Static dielectric constant tensor:
#      x y z
#    x 1.770910 0.000000 0.000000 
#    y 0.000000 1.772530 0.000000 
#    z 0.000000 0.000000 1.719130 
# 
# From -- ./inp_files/19520.got.cif
#   From: 2010.05.17/outbox.cif.g08.bks.cpg/sg55_10_cif.got.tgz:19520.got - 2010.06.03 13:27:54.
