data_PCOD9428895
_publ_section_title
;
Structure prediction by ZEFSAII (Michael W. Deem and Ramdas Pophale) SiO2 
 PCOD9428895
Probable space group: P B A M
;
_chemical_formula_sum "Si O2"
_cell_formula_units_Z 34
_cell_length_a 22.849305
_cell_length_b 5.047544
_cell_length_c 12.493270
_cell_angle_alpha 90.000000
_cell_angle_beta 90.000000
_cell_angle_gamma 90.000000
_cell_volume 1440.884714
_symmetry_space_group_name_H-M "P B A M"
_symmetry_group_IT_number 55
_symmetry_cell_setting 'orthorhombic'
loop_
_space_group_symop_operation_xyz
x,y,z
-x,-y,z
1/2+x,1/2-y,-z
1/2-x,1/2+y,-z
-x,-y,-z
x,y,-z
1/2-x,1/2+y,z
1/2+x,1/2-y,z
loop_
_atom_site_type_symbol
_atom_site_label
_atom_site_fract_x
_atom_site_fract_y
_atom_site_fract_z
Si Si1 0.461262 0.762448 0.778434
Si Si2 0.500000 0.500000 0.500000
Si Si3 0.667802 0.596184 0.000000
Si Si4 0.384706 0.511075 0.619428
Si Si5 0.212468 0.755126 0.763697
Si Si6 0.403921 0.912517 0.000000
O O1 0.500000 0.500000 0.793482
O O2 0.404158 0.734386 0.703132
O O3 0.500000 0.000000 0.734923
O O4 0.438248 0.843193 0.894086
O O5 0.450606 0.414785 0.589476
O O6 0.697274 0.685950 0.888479
O O7 0.653003 0.284040 0.000000
O O8 0.609761 0.776429 0.000000
O O9 0.361826 0.588490 0.500000
O O10 0.340729 0.327910 0.684506
O O11 0.234840 0.460804 0.742762
#
# Coordination Sequence:
#
# PCOD9428895 Si02
#       6
#     8   2   4   8   8   4
#     4  12  24  42  68 106 152 196 246 303 371 448
#     4   8  20  48  70 110 142 196 234 310 354 454
#     4  12  24  46  74 105 145 193 249 301 373 441
#     4  10  23  47  76 107 148 197 247 302 372 441
#     4  12  27  48  76 107 146 194 247 309 364 436
#     4  12  24  40  72 105 147 196 236 311 372 448
#
# _framework density 23.596613999999999
#
# number of rings (size 3 to 8) (size 9 to 14) (size 15 to 20)
#    0.706    0.000    3.529    4.235    0.000    1.412 
#    0.000    2.353    0.000    0.000    0.000    0.000 
#    0.000    0.000    0.000    0.000    0.000    0.000 
#
# Total GULP energy -189326.032697 kJ/mol
# GULP energy per Si atom -5568.412726 kJ/mol
# Density = 2.354291 g / cm^3
# Si number density = 23.596614 Si / 1000 Ang^3
#
#
#
# Elastic Constant Matrix: (Units=GPa)
#
#
# Indices 1 2 3 4 5 6 
#
# 1 91.4320 9.1909 47.9963 0.0000 0.0000 0.0000
# 2 9.1909 45.4160 -11.1544 0.0000 0.0000 0.0000
# 3 47.9963 -11.1544 166.9777 0.0000 0.0000 0.0000
# 4 0.0000 0.0000 0.0000 64.1796 0.0000 0.0000
# 5 0.0000 0.0000 0.0000 0.0000 438.1698 0.0000
# 6 0.0000 0.0000 0.0000 0.0000 0.0000 45.3061
#
#
#
# Elastic Compliance Matrix: (Units=1/GPa)
#
#
# Indices 1 2 3 4 5 6 
#
# 1 0.013478 -0.003740 -0.004124 0.000000 0.000000 0.000000
# 2 -0.003740 0.023424 0.002640 0.000000 0.000000 0.000000
# 3 -0.004124 0.002640 0.007351 0.000000 0.000000 0.000000
# 4 0.000000 0.000000 0.000000 0.015581 0.000000 0.000000
# 5 0.000000 0.000000 0.000000 0.000000 0.002282 0.000000
# 6 0.000000 0.000000 0.000000 0.000000 0.000000 0.022072
#
#
# Mechanical properties :
#
#
# Convention : Reuss Voigt Hill
#
# Bulk Modulus (GPa) = 29.58269 43.98792 36.78531
# Shear Modulus (GPa) = 47.21217 126.71731 86.96474
#
# Velocity S-wave (km/s) = 4.47789 7.33608 6.07740
# Velocity P-wave (km/s) = 6.26892 9.50997 8.05416
#
# Compressibility (1/GPa) = 0.03380355
#
# Stress axis : x y z
#
# Youngs Moduli (GPa) = 74.19541 42.69123 136.04372
#
# Poissons Ratio (x) = 0.15968 0.56104
# Poissons Ratio (y) = 0.27752 -0.35914
# Poissons Ratio (z) = 0.30598 -0.11270
#
# Static dielectric constant tensor:
#      x y z
#    x 1.955990 0.000000 0.000000 
#    y 0.000000 1.902150 0.000000 
#    z 0.000000 0.000000 1.905190 
# 
# From -- ./inp_files/15841.got.cif
#   From: 2010.05.17/outbox.cif.g08.bks.cpg/sg55_8_cif.got.tgz:15841.got - 2010.06.03 13:27:54.
