data_PCOD9428534
_publ_section_title
;
Structure prediction by ZEFSAII (Michael W. Deem and Ramdas Pophale) SiO2 
 PCOD9428534
Probable space group: P B A M
;
_chemical_formula_sum "Si O2"
_cell_formula_units_Z 38
_cell_length_a 18.760449
_cell_length_b 5.149976
_cell_length_c 15.659593
_cell_angle_alpha 90.000000
_cell_angle_beta 90.000000
_cell_angle_gamma 90.000000
_cell_volume 1512.965078
_symmetry_space_group_name_H-M "P B A M"
_symmetry_group_IT_number 55
_symmetry_cell_setting 'orthorhombic'
loop_
_space_group_symop_operation_xyz
x,y,z
-x,-y,z
1/2+x,1/2-y,-z
1/2-x,1/2+y,-z
-x,-y,-z
x,y,-z
1/2-x,1/2+y,z
1/2+x,1/2-y,z
loop_
_atom_site_type_symbol
_atom_site_label
_atom_site_fract_x
_atom_site_fract_y
_atom_site_fract_z
Si Si1 0.575582 0.651267 0.634327
Si Si2 0.790539 0.743464 0.176391
Si Si3 0.500000 0.000000 0.500000
Si Si4 0.418543 0.412988 0.825552
Si Si5 0.449861 0.243292 0.000000
Si Si6 0.289618 0.697480 0.618690
O O1 0.500000 0.500000 0.634097
O O2 0.597602 0.713787 0.732699
O O3 0.635904 0.450569 0.600896
O O4 0.556158 0.891892 0.574590
O O5 0.738090 0.971161 0.145180
O O6 0.870137 0.835333 0.159210
O O7 0.786328 0.763324 0.279220
O O8 0.500000 0.500000 0.819442
O O9 0.408959 0.246713 0.910511
O O10 0.500000 0.500000 0.000000
O O11 0.500000 0.000000 0.000000
O O12 0.270256 0.988297 0.590226
#
# Coordination Sequence:
#
# PCOD9428534 Si02
#       6
#     8   8   2   8   4   8
#     4  10  23  42  65  93 132 172 216 270 332 387
#     4   9  18  34  56  88 125 165 211 260 315 375
#     4  12  26  40  64  92 128 160 216 274 326 388
#     4   9  20  40  64  93 125 174 214 264 320 386
#     4  10  22  38  60  94 132 160 211 266 311 374
#     4   9  19  37  63  91 123 168 215 261 317 388
#
# _framework density 25.116243999999998
#
# number of rings (size 3 to 8) (size 9 to 14) (size 15 to 20)
#    0.000    2.526    0.000    0.316    4.421    3.368 
#    7.579    2.105    0.000    0.000    0.000    0.000 
#    0.000    0.000    0.000    0.000    0.000    0.000 
#
# Total GULP energy -211792.203100 kJ/mol
# GULP energy per Si atom -5573.479029 kJ/mol
# Density = 2.505908 g / cm^3
# Si number density = 25.116244 Si / 1000 Ang^3
#
#
#
# Elastic Constant Matrix: (Units=GPa)
#
#
# Indices 1 2 3 4 5 6 
#
# 1 124.5676 8.7501 -1.9184 0.0000 0.0000 0.0000
# 2 8.7501 95.5600 25.3720 0.0000 0.0000 0.0000
# 3 -1.9184 25.3720 135.6610 0.0000 0.0000 0.0000
# 4 0.0000 0.0000 0.0000 6.2460 0.0000 0.0000
# 5 0.0000 0.0000 0.0000 0.0000 -124.8632 0.0000
# 6 0.0000 0.0000 0.0000 0.0000 0.0000 50.4822
#
#
#
# Elastic Compliance Matrix: (Units=1/GPa)
#
#
# Indices 1 2 3 4 5 6 
#
# 1 0.008089 -0.000811 0.000266 0.000000 0.000000 0.000000
# 2 -0.000811 0.011093 -0.002086 0.000000 0.000000 0.000000
# 3 0.000266 -0.002086 0.007765 0.000000 0.000000 0.000000
# 4 0.000000 0.000000 0.000000 0.160101 0.000000 0.000000
# 5 0.000000 0.000000 0.000000 0.000000 -0.008009 0.000000
# 6 0.000000 0.000000 0.000000 0.000000 0.000000 0.019809
#
#
# Mechanical properties :
#
#
# Convention : Reuss Voigt Hill
#
# Bulk Modulus (GPa) = 46.11638 46.68845 46.40242
# Shear Modulus (GPa) = 23.65864 7.94533 15.80199
#
# Velocity S-wave (km/s) = 3.07248 1.78053 2.51102
# Velocity P-wave (km/s) = 5.56667 4.78083 5.18865
#
# Compressibility (1/GPa) = 0.02168427
#
# Stress axis : x y z
#
# Youngs Moduli (GPa) = 123.62687 90.14852 128.77914
#
# Poissons Ratio (x) = 0.07314 -0.03427
# Poissons Ratio (y) = 0.10030 0.26865
# Poissons Ratio (z) = -0.03290 0.18806
#
# Static dielectric constant tensor:
#      x y z
#    x 2.022990 0.000000 0.000000 
#    y 0.000000 2.024270 0.000000 
#    z 0.000000 0.000000 2.074380 
# 
# From -- ./inp_files/21724.got.cif
#   From: 2010.05.17/outbox.cif.g08.bks.cpg/sg55_11_cif.got.tgz:21724.got - 2010.06.03 13:27:54.
