data_PCOD9428368
_publ_section_title
;
Structure prediction by ZEFSAII (Michael W. Deem and Ramdas Pophale) SiO2 
 PCOD9428368
Probable space group: P B A M
;
_chemical_formula_sum "Si O2"
_cell_formula_units_Z 40
_cell_length_a 29.628868
_cell_length_b 7.409518
_cell_length_c 8.288400
_cell_angle_alpha 90.000000
_cell_angle_beta 90.000000
_cell_angle_gamma 90.000000
_cell_volume 1819.599122
_symmetry_space_group_name_H-M "P B A M"
_symmetry_group_IT_number 55
_symmetry_cell_setting 'orthorhombic'
loop_
_space_group_symop_operation_xyz
x,y,z
-x,-y,z
1/2+x,1/2-y,-z
1/2-x,1/2+y,-z
-x,-y,-z
x,y,-z
1/2-x,1/2+y,z
1/2+x,1/2-y,z
loop_
_atom_site_type_symbol
_atom_site_label
_atom_site_fract_x
_atom_site_fract_y
_atom_site_fract_z
Si Si1 0.547712 0.582289 0.804929
Si Si2 0.194703 0.698516 0.817227
Si Si3 0.100870 0.597805 0.309255
Si Si4 0.287273 0.824415 0.684508
Si Si5 0.124520 0.198586 0.191997
O O1 0.500000 0.500000 0.752795
O O2 0.558348 0.782189 0.741672
O O3 0.587529 0.445969 0.753454
O O4 0.548064 0.589272 0.000000
O O5 0.144568 0.712881 0.748653
O O6 0.235900 0.770006 0.711391
O O7 0.203024 0.483672 0.809474
O O8 0.197187 0.766806 0.000000
O O9 0.102497 0.575142 0.500000
O O10 0.105619 0.399613 0.231257
O O11 0.293736 0.885504 0.500000
O O12 0.326404 0.679976 0.723790
O O13 0.130594 0.181386 0.000000
#
# Coordination Sequence:
#
# PCOD9428368 Si02
#       5
#     8   8   8   8   8
#     4  10  23  43  67  93 121 161 213 262 312 373
#     4  11  22  38  59  85 119 161 207 247 297 368
#     4  11  23  40  62  90 127 163 202 256 316 372
#     4  11  22  37  57  86 122 158 200 250 307 363
#     4  10  21  40  64  89 122 162 208 256 308 371
#
# _framework density 21.982862999999998
#
# number of rings (size 3 to 8) (size 9 to 14) (size 15 to 20)
#    0.000    1.400    0.000    8.400    2.800    2.800 
#    0.000    4.000    0.000    0.000    0.000    0.000 
#    0.000    0.000    0.000    0.000    0.000    0.000 
#
# Total GULP energy -223585.508510 kJ/mol
# GULP energy per Si atom -5589.637713 kJ/mol
# Density = 2.193283 g / cm^3
# Si number density = 21.982863 Si / 1000 Ang^3
#
#
#
# Elastic Constant Matrix: (Units=GPa)
#
#
# Indices 1 2 3 4 5 6 
#
# 1 47.1650 21.6307 3.8220 0.0000 0.0000 0.0000
# 2 21.6307 59.4435 -2.2981 0.0000 0.0000 0.0000
# 3 3.8220 -2.2981 74.8205 0.0000 0.0000 0.0000
# 4 0.0000 0.0000 0.0000 -2.4351 0.0000 0.0000
# 5 0.0000 0.0000 0.0000 0.0000-1249.0198 0.0000
# 6 0.0000 0.0000 0.0000 0.0000 0.0000 37.1185
#
#
#
# Elastic Compliance Matrix: (Units=1/GPa)
#
#
# Indices 1 2 3 4 5 6 
#
# 1 0.025639 -0.009391 -0.001598 0.000000 0.000000 0.000000
# 2 -0.009391 0.020283 0.001103 0.000000 0.000000 0.000000
# 3 -0.001598 0.001103 0.013481 0.000000 0.000000 0.000000
# 4 0.000000 0.000000 0.000000 -0.410668 0.000000 0.000000
# 5 0.000000 0.000000 0.000000 0.000000 -0.000801 0.000000
# 6 0.000000 0.000000 0.000000 0.000000 0.000000 0.026941
#
#
# Mechanical properties :
#
#
# Convention : Reuss Voigt Hill
#
# Bulk Modulus (GPa) = 25.23426 25.30425 25.26926
# Shear Modulus (GPa) = -17.11492 -232.31564 -124.71528
#
# Velocity S-wave (km/s) = -2.79329 -10.29125 -7.54030
# Velocity P-wave (km/s) = 1.04913 11.38759 8.01799
#
# Compressibility (1/GPa) = 0.03962866
#
# Stress axis : x y z
#
# Youngs Moduli (GPa) = 39.00358 49.30312 74.17947
#
# Poissons Ratio (x) = 0.46302 0.11855
# Poissons Ratio (y) = 0.36630 -0.08180
# Poissons Ratio (z) = 0.06233 -0.05437
#
# Static dielectric constant tensor:
#      x y z
#    x 1.839050 0.000000 0.000000 
#    y 0.000000 1.845910 0.000000 
#    z 0.000000 0.000000 1.737270 
# 
# From -- ./inp_files/9309.got.cif
#   From: 2010.05.17/outbox.cif.g08.bks.cpg/sg55_5_cif.got.tgz:9309.got - 2010.06.03 13:27:54.
