data_PCOD9428679
_publ_section_title
;
Structure prediction by ZEFSAII (Michael W. Deem and Ramdas Pophale) SiO2 
 PCOD9428679
Probable space group: P B A M
;
_chemical_formula_sum "Si O2"
_cell_formula_units_Z 64
_cell_length_a 31.501030
_cell_length_b 12.248341
_cell_length_c 8.316315
_cell_angle_alpha 90.000000
_cell_angle_beta 90.000000
_cell_angle_gamma 90.000000
_cell_volume 3208.728369
_symmetry_space_group_name_H-M "P B A M"
_symmetry_group_IT_number 55
_symmetry_cell_setting 'orthorhombic'
loop_
_space_group_symop_operation_xyz
x,y,z
-x,-y,z
1/2+x,1/2-y,-z
1/2-x,1/2+y,-z
-x,-y,-z
x,y,-z
1/2-x,1/2+y,z
1/2+x,1/2-y,z
loop_
_atom_site_type_symbol
_atom_site_label
_atom_site_fract_x
_atom_site_fract_y
_atom_site_fract_z
Si Si1 0.626549 0.146167 0.694258
Si Si2 0.297970 0.256069 0.805921
Si Si3 0.838520 0.010820 0.189394
Si Si4 0.545939 0.754572 0.809959
Si Si5 0.431523 0.483625 0.688198
Si Si6 0.625341 0.897726 0.194146
Si Si7 0.704553 0.298066 0.308628
Si Si8 0.544569 0.281096 0.692717
O O1 0.625483 0.144660 0.500000
O O2 0.669515 0.208694 0.743088
O O3 0.585502 0.214529 0.752028
O O4 0.625244 0.022690 0.754015
O O5 0.317010 0.374624 0.766277
O O6 0.332245 0.165734 0.752261
O O7 0.251943 0.238167 0.732064
O O8 0.294167 0.250217 0.000000
O O9 0.881499 0.994122 0.289239
O O10 0.807193 0.911084 0.222847
O O11 0.849625 0.015362 0.000000
O O12 0.558092 0.629009 0.775335
O O13 0.583689 0.832086 0.747598
O O14 0.499788 0.774006 0.735755
O O15 0.542773 0.770607 0.000000
O O16 0.442010 0.468771 0.500000
O O17 0.454495 0.592990 0.750706
O O18 0.624965 0.892194 0.000000
O O19 0.700196 0.313521 0.500000
O O20 0.548272 0.287744 0.500000
#
# Coordination Sequence:
#
# PCOD9428679 Si02
#       8
#     8   8   8   8   8   8   8   8
#     4  10  23  43  62  86 122 160 203 251 301 360
#     4  10  23  43  63  89 124 162 202 249 301 358
#     4  11  22  40  66  93 125 162 203 249 305 362
#     4  11  23  40  61  91 124 157 203 254 302 363
#     4  11  21  38  63  91 126 162 200 248 306 360
#     4  10  23  43  62  85 122 160 201 251 302 357
#     4  11  24  42  63  93 126 158 202 253 302 359
#     4  10  22  41  61  87 123 160 198 248 305 363
#
# _framework density 19.945595999999998
#
# number of rings (size 3 to 8) (size 9 to 14) (size 15 to 20)
#    0.000    1.500    2.500    1.875    1.750    7.000 
#    0.000    2.500    0.000    0.000    0.000    0.000 
#    0.000    0.000    0.000    0.000    0.000    0.000 
#
# Total GULP energy -357767.410025 kJ/mol
# GULP energy per Si atom -5590.115782 kJ/mol
# Density = 1.990020 g / cm^3
# Si number density = 19.945596 Si / 1000 Ang^3
#
#
#
# Elastic Constant Matrix: (Units=GPa)
#
#
# Indices 1 2 3 4 5 6 
#
# 1 110.0366 38.5946 1.6487 0.0000 0.0000 0.0000
# 2 38.5946 125.5220 7.3885 0.0000 0.0000 0.0000
# 3 1.6487 7.3885 4.9560 0.0000 0.0000 0.0000
# 4 0.0000 0.0000 0.0000 27.7733 0.0000 0.0000
# 5 0.0000 0.0000 0.0000 0.0000 40.3032 0.0000
# 6 0.0000 0.0000 0.0000 0.0000 0.0000 12.8059
#
#
#
# Elastic Compliance Matrix: (Units=1/GPa)
#
#
# Indices 1 2 3 4 5 6 
#
# 1 0.010195 -0.003217 0.001405 0.000000 0.000000 0.000000
# 2 -0.003217 0.009748 -0.013463 0.000000 0.000000 0.000000
# 3 0.001405 -0.013463 0.221377 0.000000 0.000000 0.000000
# 4 0.000000 0.000000 0.000000 0.036006 0.000000 0.000000
# 5 0.000000 0.000000 0.000000 0.000000 0.024812 0.000000
# 6 0.000000 0.000000 0.000000 0.000000 0.000000 0.078089
#
#
# Mechanical properties :
#
#
# Convention : Reuss Voigt Hill
#
# Bulk Modulus (GPa) = 4.74450 37.30871 21.02661
# Shear Modulus (GPa) = 10.39425 29.03534 19.71479
#
# Velocity S-wave (km/s) = 2.28530 3.81954 3.14734
# Velocity P-wave (km/s) = 3.05735 6.18043 4.87571
#
# Compressibility (1/GPa) = 0.21077043
#
# Stress axis : x y z
#
# Youngs Moduli (GPa) = 98.08394 102.58019 4.51718
#
# Poissons Ratio (x) = 0.33005 -0.00635
# Poissons Ratio (y) = 0.31558 0.06081
# Poissons Ratio (z) = -0.13780 1.38102
#
# Static dielectric constant tensor:
#      x y z
#    x 1.691560 0.000000 0.000000 
#    y 0.000000 1.672000 0.000000 
#    z 0.000000 0.000000 1.707070 
# 
# From -- ./inp_files/10842.got.cif
#   From: 2010.05.17/outbox.cif.g08.bks.cpg/sg55_6_cif.got.tgz:10842.got - 2010.06.03 13:27:54.
