data_PCOD9428872
_publ_section_title
;
Structure prediction by ZEFSAII (Michael W. Deem and Ramdas Pophale) SiO2 
 PCOD9428872
Probable space group: P B A M
;
_chemical_formula_sum "Si O2"
_cell_formula_units_Z 56
_cell_length_a 15.754111
_cell_length_b 9.077931
_cell_length_c 19.352516
_cell_angle_alpha 90.000000
_cell_angle_beta 90.000000
_cell_angle_gamma 90.000000
_cell_volume 2767.694901
_symmetry_space_group_name_H-M "P B A M"
_symmetry_group_IT_number 55
_symmetry_cell_setting 'orthorhombic'
loop_
_space_group_symop_operation_xyz
x,y,z
-x,-y,z
1/2+x,1/2-y,-z
1/2-x,1/2+y,-z
-x,-y,-z
x,y,-z
1/2-x,1/2+y,z
1/2+x,1/2-y,z
loop_
_atom_site_type_symbol
_atom_site_label
_atom_site_fract_x
_atom_site_fract_y
_atom_site_fract_z
Si Si1 0.087990 0.424869 0.581800
Si Si2 0.158763 0.322169 0.000000
Si Si3 0.405553 0.323712 0.861280
Si Si4 0.749190 0.209968 0.236004
Si Si5 0.754413 0.459196 0.667819
Si Si6 0.910475 0.926703 0.581770
Si Si7 0.901407 0.825285 0.140034
Si Si8 0.345745 0.176451 0.000000
O O1 0.099084 0.452768 0.500000
O O2 0.166227 0.493530 0.622496
O O3 0.083818 0.249208 0.591633
O O4 0.000000 0.500000 0.603665
O O5 0.113556 0.261081 0.068583
O O6 0.161938 0.499565 0.000000
O O7 0.253033 0.252389 0.000000
O O8 0.333442 0.270601 0.808902
O O9 0.391034 0.499206 0.872576
O O10 0.501743 0.303493 0.835631
O O11 0.393101 0.235767 0.932254
O O12 0.741658 0.040858 0.258367
O O13 0.756769 0.289852 0.309705
O O14 0.667588 0.266190 0.194269
O O15 0.666962 0.485544 0.627362
O O16 0.895028 0.954905 0.500000
O O17 0.000000 0.000000 0.600493
#
# Coordination Sequence:
#
# PCOD9428872 Si02
#       8
#     8   4   8   8   8   8   8   4
#     4  10  23  43  68 100 133 170 220 276 329 385
#     4  12  25  42  71 100 132 168 217 277 326 385
#     4  11  25  46  70  96 130 175 218 271 330 389
#     4  12  26  43  65  96 132 178 220 268 323 390
#     4  12  25  44  66  95 135 177 220 266 329 393
#     4  10  23  43  69  99 131 172 222 274 328 388
#     4  11  25  46  69  97 132 171 220 270 331 391
#     4  12  25  42  71 100 130 170 217 275 330 379
#
# _framework density 20.233445
#
# number of rings (size 3 to 8) (size 9 to 14) (size 15 to 20)
#    0.000    0.857    4.286    2.143    4.000    4.571 
#    0.000    0.000    0.000    0.000    0.000    0.000 
#    0.000    0.000    0.000    0.000    0.000    0.000 
#
# Total GULP energy -313140.383210 kJ/mol
# GULP energy per Si atom -5591.792557 kJ/mol
# Density = 2.018739 g / cm^3
# Si number density = 20.233445 Si / 1000 Ang^3
#
#
#
# Elastic Constant Matrix: (Units=GPa)
#
#
# Indices 1 2 3 4 5 6 
#
# 1 189.5989 62.0296 79.7540 0.0000 0.0000 0.0000
# 2 62.0296 76.5137 38.2411 0.0000 0.0000 0.0000
# 3 79.7540 38.2411 75.4240 0.0000 0.0000 0.0000
# 4 0.0000 0.0000 0.0000 36.1095 0.0000 0.0000
# 5 0.0000 0.0000 0.0000 0.0000 -206.5919 0.0000
# 6 0.0000 0.0000 0.0000 0.0000 0.0000 33.4534
#
#
#
# Elastic Compliance Matrix: (Units=1/GPa)
#
#
# Indices 1 2 3 4 5 6 
#
# 1 0.010298 -0.003893 -0.008916 0.000000 0.000000 0.000000
# 2 -0.003893 0.018977 -0.005505 0.000000 0.000000 0.000000
# 3 -0.008916 -0.005505 0.025477 0.000000 0.000000 0.000000
# 4 0.000000 0.000000 0.000000 0.027694 0.000000 0.000000
# 5 0.000000 0.000000 0.000000 0.000000 -0.004840 0.000000
# 6 0.000000 0.000000 0.000000 0.000000 0.000000 0.029892
#
#
# Mechanical properties :
#
#
# Convention : Reuss Voigt Hill
#
# Bulk Modulus (GPa) = 55.17329 77.95401 66.56365
# Shear Modulus (GPa) = 33.29619 -16.63834 8.32892
#
# Velocity S-wave (km/s) = 4.06100 -2.87072 2.03110
# Velocity P-wave (km/s) = 7.02257 5.25575 6.20240
#
# Compressibility (1/GPa) = 0.01812471
#
# Stress axis : x y z
#
# Youngs Moduli (GPa) = 97.10405 52.69551 39.25054
#
# Poissons Ratio (x) = 0.20513 0.34995
# Poissons Ratio (y) = 0.37800 0.21609
# Poissons Ratio (z) = 0.86576 0.29011
#
# Static dielectric constant tensor:
#      x y z
#    x 1.686620 0.000000 0.000000 
#    y 0.000000 1.690980 0.000000 
#    z 0.000000 0.000000 1.696440 
# 
# From -- ./inp_files/22998.got.cif
#   From: 2010.05.17/outbox.cif.g08.bks.cpg/sg55_12_cif.got.tgz:22998.got - 2010.06.03 13:27:54.
