data_PCOD9428922
_publ_section_title
;
Structure prediction by ZEFSAII (Michael W. Deem and Ramdas Pophale) SiO2 
 PCOD9428922
Probable space group: P B A M
;
_chemical_formula_sum "Si O2"
_cell_formula_units_Z 48
_cell_length_a 12.137608
_cell_length_b 23.281048
_cell_length_c 7.904870
_cell_angle_alpha 90.000000
_cell_angle_beta 90.000000
_cell_angle_gamma 90.000000
_cell_volume 2233.728398
_symmetry_space_group_name_H-M "P B A M"
_symmetry_group_IT_number 55
_symmetry_cell_setting 'orthorhombic'
loop_
_space_group_symop_operation_xyz
x,y,z
-x,-y,z
1/2+x,1/2-y,-z
1/2-x,1/2+y,-z
-x,-y,-z
x,y,-z
1/2-x,1/2+y,z
1/2+x,1/2-y,z
loop_
_atom_site_type_symbol
_atom_site_label
_atom_site_fract_x
_atom_site_fract_y
_atom_site_fract_z
Si Si1 0.585014 0.955889 0.306374
Si Si2 0.437789 0.841919 0.307867
Si Si3 0.140263 0.721067 0.701018
Si Si4 0.714053 0.385910 0.706030
Si Si5 0.303381 0.348675 0.196596
Si Si6 0.017947 0.935732 0.201684
O O1 0.605409 0.976972 0.500000
O O2 0.517384 0.896771 0.315850
O O3 0.703034 0.937016 0.234858
O O4 0.500000 0.000000 0.222365
O O5 0.405176 0.825527 0.500000
O O6 0.518042 0.793657 0.230466
O O7 0.326464 0.858006 0.215416
O O8 0.131370 0.710741 0.500000
O O9 0.231301 0.674709 0.761875
O O10 0.171329 0.786400 0.727926
O O11 0.713940 0.386542 0.500000
O O12 0.591938 0.398617 0.767382
O O13 0.377611 0.400045 0.270341
O O14 0.331630 0.344265 0.000000
O O15 0.034352 0.942267 0.000000
O O16 0.000000 0.000000 0.272362
#
# Coordination Sequence:
#
# PCOD9428922 Si02
#       6
#     8   8   8   8   8   8
#     4   8  15  30  55  85 113 138 172 226 282 329
#     4   9  19  36  58  84 113 144 180 229 287 338
#     4   9  20  39  60  86 116 145 182 235 296 345
#     4   9  19  36  60  88 112 142 188 236 282 339
#     4  11  24  38  57  83 113 151 193 236 281 339
#     4  10  24  43  57  77 118 164 197 233 286 339
#
# _framework density 21.488735999999999
#
# number of rings (size 3 to 8) (size 9 to 14) (size 15 to 20)
#    0.000    2.667    0.000    2.500    4.667    3.000 
#    0.000    2.500    0.000    1.000    0.000    0.000 
#    0.000    0.000    0.000    0.000    0.000    0.000 
#
# Total GULP energy -267630.750528 kJ/mol
# GULP energy per Si atom -5575.640636 kJ/mol
# Density = 2.143983 g / cm^3
# Si number density = 21.488736 Si / 1000 Ang^3
#
#
#
# Elastic Constant Matrix: (Units=GPa)
#
#
# Indices 1 2 3 4 5 6 
#
# 1 109.8376 23.7378 -11.1065 0.0000 0.0000 0.0000
# 2 23.7378 62.6315 4.9798 0.0000 0.0000 0.0000
# 3 -11.1065 4.9798 10.6283 0.0000 0.0000 0.0000
# 4 0.0000 0.0000 0.0000 5.9589 0.0000 0.0000
# 5 0.0000 0.0000 0.0000 0.0000 10.0634 0.0000
# 6 0.0000 0.0000 0.0000 0.0000 0.0000 11.8121
#
#
#
# Elastic Compliance Matrix: (Units=1/GPa)
#
#
# Indices 1 2 3 4 5 6 
#
# 1 0.011857 -0.005691 0.015057 0.000000 0.000000 0.000000
# 2 -0.005691 0.019316 -0.014997 0.000000 0.000000 0.000000
# 3 0.015057 -0.014997 0.116850 0.000000 0.000000 0.000000
# 4 0.000000 0.000000 0.000000 0.167815 0.000000 0.000000
# 5 0.000000 0.000000 0.000000 0.000000 0.099370 0.000000
# 6 0.000000 0.000000 0.000000 0.000000 0.000000 0.084659
#
#
# Mechanical properties :
#
#
# Convention : Reuss Voigt Hill
#
# Bulk Modulus (GPa) = 7.31209 24.25771 15.78490
# Shear Modulus (GPa) = 8.98124 16.59931 12.79028
#
# Velocity S-wave (km/s) = 2.04660 2.78234 2.44234
# Velocity P-wave (km/s) = 2.99915 4.65134 3.91343
#
# Compressibility (1/GPa) = 0.13675972
#
# Stress axis : x y z
#
# Youngs Moduli (GPa) = 84.33992 51.77125 8.55798
#
# Poissons Ratio (x) = 0.29463 -0.12886
# Poissons Ratio (y) = 0.47998 0.12835
# Poissons Ratio (z) = -1.26989 0.77643
#
# Static dielectric constant tensor:
#      x y z
#    x 1.791240 0.000000 0.000000 
#    y 0.000000 1.804240 0.000000 
#    z 0.000000 0.000000 1.796210 
# 
# From -- ./inp_files/4072.got.cif
#   From: 2010.05.17/outbox.cif.g08.bks.cpg/sg55_3_cif.got.tgz:4072.got - 2010.06.03 13:27:54.
