data_PCOD9428229
_publ_section_title
;
Structure prediction by ZEFSAII (Michael W. Deem and Ramdas Pophale) SiO2 
 PCOD9428229
Probable space group: P B A M
;
_chemical_formula_sum "Si O2"
_cell_formula_units_Z 58
_cell_length_a 16.895743
_cell_length_b 18.264372
_cell_length_c 9.796803
_cell_angle_alpha 90.000000
_cell_angle_beta 90.000000
_cell_angle_gamma 90.000000
_cell_volume 3023.196764
_symmetry_space_group_name_H-M "P B A M"
_symmetry_group_IT_number 55
_symmetry_cell_setting 'orthorhombic'
loop_
_space_group_symop_operation_xyz
x,y,z
-x,-y,z
1/2+x,1/2-y,-z
1/2-x,1/2+y,-z
-x,-y,-z
x,y,-z
1/2-x,1/2+y,z
1/2+x,1/2-y,z
loop_
_atom_site_type_symbol
_atom_site_label
_atom_site_fract_x
_atom_site_fract_y
_atom_site_fract_z
Si Si1 0.010379 0.872373 0.268007
Si Si2 0.153763 0.175913 0.153392
Si Si3 0.934511 0.291770 0.655719
Si Si4 0.240477 0.765649 0.339585
Si Si5 0.228298 0.540339 0.158329
Si Si6 0.500000 0.500000 0.500000
Si Si7 0.319650 0.398830 0.839891
Si Si8 0.553114 0.928198 0.835619
O O1 0.032457 0.790645 0.323088
O O2 0.086285 0.896811 0.180467
O O3 0.930359 0.860258 0.183882
O O4 0.999135 0.934529 0.381837
O O5 0.182230 0.231168 0.270126
O O6 0.219926 0.112940 0.159952
O O7 0.154594 0.207853 0.000000
O O8 0.950104 0.314102 0.500000
O O9 0.839033 0.284164 0.674217
O O10 0.968196 0.352540 0.759274
O O11 0.251391 0.779550 0.500000
O O12 0.218258 0.836821 0.253620
O O13 0.281818 0.474561 0.211578
O O14 0.141409 0.551907 0.216617
O O15 0.213405 0.521649 0.000000
O O16 0.302871 0.386488 0.000000
O O17 0.500000 0.000000 0.810639
O O18 0.553498 0.914921 0.000000
#
# Coordination Sequence:
#
# PCOD9428229 Si02
#       8
#     8   8   8   8   8   2   8   8
#     4  11  24  39  64  96 130 173 225 267 334 411
#     4  11  22  39  63  92 124 165 217 267 322 386
#     4  10  21  41  61  88 125 165 216 265 314 386
#     4  10  22  38  61  91 127 167 218 266 322 402
#     4   9  19  37  59  87 121 160 207 265 324 382
#     4  12  24  44  62  92 138 184 208 280 346 398
#     4  10  21  40  63  90 129 170 217 277 330 390
#     4  10  21  38  64  95 127 167 216 270 331 389
#
# _framework density 19.184991
#
# number of rings (size 3 to 8) (size 9 to 14) (size 15 to 20)
#    0.000    1.793    2.069    1.655    1.931    4.138 
#    0.000    4.828    0.000    0.000    0.000    0.000 
#    0.000    0.000    0.000    0.000    0.000    0.000 
#
# Total GULP energy -322869.572799 kJ/mol
# GULP energy per Si atom -5566.716772 kJ/mol
# Density = 1.914133 g / cm^3
# Si number density = 19.184991 Si / 1000 Ang^3
#
#
#
# Elastic Constant Matrix: (Units=GPa)
#
#
# Indices 1 2 3 4 5 6 
#
# 1 83.0845 26.7732 23.3481 0.0000 0.0000 0.0000
# 2 26.7732 70.4170 50.2556 0.0000 0.0000 0.0000
# 3 23.3481 50.2556 106.2629 0.0000 0.0000 0.0000
# 4 0.0000 0.0000 0.0000 20.5002 0.0000 0.0000
# 5 0.0000 0.0000 0.0000 0.0000 7.1606 0.0000
# 6 0.0000 0.0000 0.0000 0.0000 0.0000 22.3370
#
#
#
# Elastic Compliance Matrix: (Units=1/GPa)
#
#
# Indices 1 2 3 4 5 6 
#
# 1 0.013765 -0.004642 -0.000829 0.000000 0.000000 0.000000
# 2 -0.004642 0.023002 -0.009859 0.000000 0.000000 0.000000
# 3 -0.000829 -0.009859 0.014255 0.000000 0.000000 0.000000
# 4 0.000000 0.000000 0.000000 0.048780 0.000000 0.000000
# 5 0.000000 0.000000 0.000000 0.000000 0.139653 0.000000
# 6 0.000000 0.000000 0.000000 0.000000 0.000000 0.044769
#
#
# Mechanical properties :
#
#
# Convention : Reuss Voigt Hill
#
# Bulk Modulus (GPa) = 49.10867 51.16870 50.13868
# Shear Modulus (GPa) = 15.54388 20.62540 18.08464
#
# Velocity S-wave (km/s) = 2.84951 3.28240 3.07358
# Velocity P-wave (km/s) = 6.03981 6.41051 6.22792
#
# Compressibility (1/GPa) = 0.02036300
#
# Stress axis : x y z
#
# Youngs Moduli (GPa) = 72.64969 43.47481 70.14955
#
# Poissons Ratio (x) = 0.20180 0.05816
# Poissons Ratio (y) = 0.33722 0.69157
# Poissons Ratio (z) = 0.06024 0.42860
#
# Static dielectric constant tensor:
#      x y z
#    x 1.687810 0.000000 0.000000 
#    y 0.000000 1.673570 0.000000 
#    z 0.000000 0.000000 1.657420 
# 
# From -- ./inp_files/7695.got.cif
#   From: 2010.05.17/outbox.cif.g08.bks.cpg/sg55_4_cif.got.tgz:7695.got - 2010.06.03 13:27:54.
