data_PCOD9428034
_publ_section_title
;
Structure prediction by ZEFSAII (Michael W. Deem and Ramdas Pophale) SiO2 
 PCOD9428034
Probable space group: P B A M
;
_chemical_formula_sum "Si O2"
_cell_formula_units_Z 48
_cell_length_a 7.575850
_cell_length_b 17.774992
_cell_length_c 13.910876
_cell_angle_alpha 90.000000
_cell_angle_beta 90.000000
_cell_angle_gamma 90.000000
_cell_volume 1873.247926
_symmetry_space_group_name_H-M "P B A M"
_symmetry_group_IT_number 55
_symmetry_cell_setting 'orthorhombic'
loop_
_space_group_symop_operation_xyz
x,y,z
-x,-y,z
1/2+x,1/2-y,-z
1/2-x,1/2+y,-z
-x,-y,-z
x,y,-z
1/2-x,1/2+y,z
1/2+x,1/2-y,z
loop_
_atom_site_type_symbol
_atom_site_label
_atom_site_fract_x
_atom_site_fract_y
_atom_site_fract_z
Si Si1 0.084820 0.344534 0.845588
Si Si2 0.538244 0.693093 0.896598
Si Si3 0.577085 0.377244 0.500000
Si Si4 0.905207 0.617513 0.641852
Si Si5 0.756662 0.940416 0.112430
Si Si6 0.930781 0.274318 0.500000
Si Si7 0.230363 0.027874 0.665974
O O1 0.264654 0.336470 0.902858
O O2 0.982543 0.265702 0.830678
O O3 0.169052 0.362183 0.743685
O O4 0.941888 0.405717 0.880403
O O5 0.397136 0.627829 0.880635
O O6 0.492217 0.728178 0.000000
O O7 0.750069 0.321862 0.500000
O O8 0.421853 0.315506 0.500000
O O9 0.594723 0.426094 0.401749
O O10 0.782790 0.548662 0.610338
O O11 0.953945 0.692658 0.587275
O O12 0.093746 0.578202 0.660487
O O13 0.793142 0.981782 0.216764
O O14 0.776371 0.970962 0.000000
#
# Coordination Sequence:
#
# PCOD9428034 Si02
#       7
#     8   8   4   8   8   4   8
#     4  11  21  34  58  85 120 160 208 254 304 368
#     4  11  21  34  54  85 122 158 202 255 309 360
#     4  10  21  37  67  93 123 152 202 251 311 367
#     4   9  20  37  61  87 121 157 205 248 309 364
#     4  10  21  37  59  87 121 162 208 252 300 365
#     4  10  21  37  61  95 119 152 196 261 303 371
#     4   9  19  40  62  89 119 167 201 248 306 373
#
# _framework density 25.623940999999999
#
# number of rings (size 3 to 8) (size 9 to 14) (size 15 to 20)
#    0.000    2.000    1.667    2.000    2.333    3.333 
#    0.000    9.167    0.000    3.000    0.000    0.000 
#    0.000    0.000    0.000    0.000    0.000    0.000 
#
# Total GULP energy -267610.539559 kJ/mol
# GULP energy per Si atom -5575.219574 kJ/mol
# Density = 2.556562 g / cm^3
# Si number density = 25.623941 Si / 1000 Ang^3
#
#
#
# Elastic Constant Matrix: (Units=GPa)
#
#
# Indices 1 2 3 4 5 6 
#
# 1 59.9914 -10.8041 3.1616 0.0000 0.0000 0.0000
# 2 -10.8041 73.2773 33.4518 0.0000 0.0000 0.0000
# 3 3.1616 33.4518 141.9270 0.0000 0.0000 0.0000
# 4 0.0000 0.0000 0.0000 192.7797 0.0000 0.0000
# 5 0.0000 0.0000 0.0000 0.0000 -9.0812 0.0000
# 6 0.0000 0.0000 0.0000 0.0000 0.0000 31.2121
#
#
#
# Elastic Compliance Matrix: (Units=1/GPa)
#
#
# Indices 1 2 3 4 5 6 
#
# 1 0.017277 0.003051 -0.001104 0.000000 0.000000 0.000000
# 2 0.003051 0.015831 -0.003799 0.000000 0.000000 0.000000
# 3 -0.001104 -0.003799 0.007966 0.000000 0.000000 0.000000
# 4 0.000000 0.000000 0.000000 0.005187 0.000000 0.000000
# 5 0.000000 0.000000 0.000000 0.000000 -0.110118 0.000000
# 6 0.000000 0.000000 0.000000 0.000000 0.000000 0.032039
#
#
# Mechanical properties :
#
#
# Convention : Reuss Voigt Hill
#
# Bulk Modulus (GPa) = 26.75962 36.31268 31.53615
# Shear Modulus (GPa) = -319.33595 59.60788 -129.86403
#
# Velocity S-wave (km/s) = -11.17563 4.82836 -7.12676
# Velocity P-wave (km/s) = 12.49241 6.72951 7.44224
#
# Compressibility (1/GPa) = 0.03736974
#
# Stress axis : x y z
#
# Youngs Moduli (GPa) = 57.88125 63.16674 125.53421
#
# Poissons Ratio (x) = -0.19274 0.13859
# Poissons Ratio (y) = -0.17661 0.47694
# Poissons Ratio (z) = 0.06390 0.23999
#
# Static dielectric constant tensor:
#      x y z
#    x 1.979710 0.000000 0.000000 
#    y 0.000000 2.000710 0.000000 
#    z 0.000000 0.000000 2.063200 
# 
# From -- ./inp_files/17390.got.cif
#   From: 2010.05.17/outbox.cif.g08.bks.cpg/sg55_9_cif.got.tgz:17390.got - 2010.06.03 13:27:54.
