data_PCOD9428244
_publ_section_title
;
Structure prediction by ZEFSAII (Michael W. Deem and Ramdas Pophale) SiO2 
 PCOD9428244
Probable space group: P B A M
;
_chemical_formula_sum "Si O2"
_cell_formula_units_Z 64
_cell_length_a 29.604176
_cell_length_b 13.350285
_cell_length_c 8.751203
_cell_angle_alpha 90.000000
_cell_angle_beta 90.000000
_cell_angle_gamma 90.000000
_cell_volume 3458.687089
_symmetry_space_group_name_H-M "P B A M"
_symmetry_group_IT_number 55
_symmetry_cell_setting 'orthorhombic'
loop_
_space_group_symop_operation_xyz
x,y,z
-x,-y,z
1/2+x,1/2-y,-z
1/2-x,1/2+y,-z
-x,-y,-z
x,y,-z
1/2-x,1/2+y,z
1/2+x,1/2-y,z
loop_
_atom_site_type_symbol
_atom_site_label
_atom_site_fract_x
_atom_site_fract_y
_atom_site_fract_z
Si Si1 0.282855 0.801731 0.675593
Si Si2 0.115367 0.782441 0.321090
Si Si3 0.448411 0.114871 0.816172
Si Si4 0.148506 0.001834 0.686155
Si Si5 0.554177 0.109357 0.183949
Si Si6 0.298904 0.198063 0.829963
Si Si7 0.882317 0.780312 0.317831
Si Si8 0.249656 0.988860 0.177071
O O1 0.273098 0.773833 0.500000
O O2 0.245764 0.758124 0.788201
O O3 0.332449 0.763544 0.712948
O O4 0.275685 0.917843 0.705176
O O5 0.105548 0.786686 0.500000
O O6 0.078423 0.710794 0.244118
O O7 0.162773 0.727525 0.288377
O O8 0.123557 0.897958 0.269742
O O9 0.501353 0.120334 0.774313
O O10 0.431255 0.003638 0.765295
O O11 0.445528 0.115334 0.000000
O O12 0.154182 0.001850 0.500000
O O13 0.120838 0.102516 0.728875
O O14 0.198509 0.005118 0.761433
O O15 0.582539 0.203070 0.244848
O O16 0.557050 0.109952 0.000000
O O17 0.280698 0.086431 0.826247
O O18 0.316123 0.221829 0.000000
O O19 0.889649 0.779049 0.500000
O O20 0.246958 0.953037 0.000000
#
# Coordination Sequence:
#
# PCOD9428244 Si02
#       8
#     8   8   8   8   8   8   8   8
#     4  11  22  36  55  80 113 154 194 235 284 339
#     4  11  23  37  59  87 113 152 195 233 286 345
#     4   9  20  41  64  87 116 147 181 233 290 344
#     4  10  21  39  57  78 115 156 192 233 283 336
#     4   9  20  40  65  88 113 147 185 229 291 346
#     4  11  23  37  54  81 114 151 197 241 282 333
#     4  10  22  38  58  85 115 150 191 236 286 337
#     4  11  23  36  53  78 111 152 195 241 288 333
#
# _framework density 18.504131000000001
#
# number of rings (size 3 to 8) (size 9 to 14) (size 15 to 20)
#    0.000    1.750    2.500    2.250    1.750    4.500 
#    0.000    1.875    0.000    3.750    0.000    0.000 
#    0.000    0.000    0.000    0.000    0.000    0.000 
#
# Total GULP energy -356793.508528 kJ/mol
# GULP energy per Si atom -5574.898571 kJ/mol
# Density = 1.846201 g / cm^3
# Si number density = 18.504131 Si / 1000 Ang^3
#
#
#
# Elastic Constant Matrix: (Units=GPa)
#
#
# Indices 1 2 3 4 5 6 
#
# 1 55.8918 57.0295 17.0162 0.0000 0.0000 0.0000
# 2 57.0295 127.7297 21.2052 0.0000 0.0000 0.0000
# 3 17.0162 21.2052 11.6501 0.0000 0.0000 0.0000
# 4 0.0000 0.0000 0.0000 27.7829 0.0000 0.0000
# 5 0.0000 0.0000 0.0000 0.0000 28.1540 0.0000
# 6 0.0000 0.0000 0.0000 0.0000 0.0000 31.7860
#
#
#
# Elastic Compliance Matrix: (Units=1/GPa)
#
#
# Indices 1 2 3 4 5 6 
#
# 1 0.042698 -0.012482 -0.039645 0.000000 0.000000 0.000000
# 2 -0.012482 0.014868 -0.008831 0.000000 0.000000 0.000000
# 3 -0.039645 -0.008831 0.159817 0.000000 0.000000 0.000000
# 4 0.000000 0.000000 0.000000 0.035993 0.000000 0.000000
# 5 0.000000 0.000000 0.000000 0.000000 0.035519 0.000000
# 6 0.000000 0.000000 0.000000 0.000000 0.000000 0.031460
#
#
# Mechanical properties :
#
#
# Convention : Reuss Voigt Hill
#
# Bulk Modulus (GPa) = 10.47493 42.86371 26.66932
# Shear Modulus (GPa) = 10.54639 24.21261 17.37950
#
# Velocity S-wave (km/s) = 2.38995 3.62124 3.06800
# Velocity P-wave (km/s) = 3.64540 6.37959 5.19558
#
# Compressibility (1/GPa) = 0.09546604
#
# Stress axis : x y z
#
# Youngs Moduli (GPa) = 23.42029 67.25698 6.25715
#
# Poissons Ratio (x) = 0.83952 0.24807
# Poissons Ratio (y) = 0.29234 0.05526
# Poissons Ratio (z) = 0.92850 0.59397
#
# Static dielectric constant tensor:
#      x y z
#    x 1.603140 0.000000 0.000000 
#    y 0.000000 1.662980 0.000000 
#    z 0.000000 0.000000 1.618370 
# 
# From -- ./inp_files/10811.got.cif
#   From: 2010.05.17/outbox.cif.g08.bks.cpg/sg55_6_cif.got.tgz:10811.got - 2010.06.03 13:27:54.
